data_PCOD9345206
_publ_section_title
;
Structure prediction by ZEFSAII (Michael W. Deem and Ramdas Pophale) SiO2 
 PCOD9345206
Probable space group: P N A 21
;
_chemical_formula_sum "Si O2"
_cell_formula_units_Z 28
_cell_length_a 13.755975
_cell_length_b 16.795156
_cell_length_c 6.398538
_cell_angle_alpha 90.000000
_cell_angle_beta 90.000000
_cell_angle_gamma 90.000000
_cell_volume 1478.278203
_symmetry_space_group_name_H-M "P N A 21"
_symmetry_group_IT_number 33
_symmetry_cell_setting 'orthorhombic'
loop_
_space_group_symop_operation_xyz
x,y,z
-x,-y,1/2+z
1/2-x,1/2+y,1/2+z
1/2+x,1/2-y,z
loop_
_atom_site_type_symbol
_atom_site_label
_atom_site_fract_x
_atom_site_fract_y
_atom_site_fract_z
Si Si1 0.000000 0.750000 0.828270
Si Si2 0.008661 0.389608 0.008408
Si Si3 0.361909 0.838219 0.126004
Si Si4 0.637331 0.510267 0.817594
Si Si5 0.362669 0.989733 0.817594
Si Si6 0.991338 0.110392 0.008408
Si Si7 0.638091 0.661781 0.126004
O O1 0.978894 0.825276 0.681289
O O2 0.021106 0.674724 0.681289
O O3 0.090168 0.772949 0.975144
O O4 0.909832 0.727051 0.975144
O O5 0.073494 0.347785 0.831605
O O6 0.917509 0.433305 0.904746
O O7 0.076489 0.455058 0.123019
O O8 0.250000 0.820972 0.175670
O O9 0.365739 0.921167 0.996148
O O10 0.750000 0.496485 0.764120
O O11 0.576489 0.544942 0.623019
O O12 0.582491 0.433304 0.904746
O O13 0.634261 0.578833 0.996149
O O14 0.926506 0.152215 0.831605
#
# Coordination Sequence:
#
# PCOD9345206 Si02
#       7
#     4   4   4   4   4   4   4
#     4  10  24  38  60  88 126 160 200 254 302 362
#     4  11  20  40  62  89 125 157 205 258 301 364
#     4  10  21  40  62  88 123 167 202 245 312 367
#     4  10  21  36  62  92 119 159 206 255 309 360
#     4  10  21  36  62  92 119 159 206 255 309 360
#     4  11  20  40  62  89 125 157 205 258 301 364
#     4  10  21  40  62  88 123 167 202 245 312 367
#
# _framework density 18.940956
#
# number of rings (size 3 to 8) (size 9 to 14) (size 15 to 20)
#    0.000    1.714    2.857    1.714    0.000    2.286 
#    0.000    4.286    0.000    0.000    0.000    0.000 
#    0.000    0.000    0.000    0.000    0.000    0.000 
#
# Total GULP energy -156446.209366 kJ/mol
# GULP energy per Si atom -5587.364620 kJ/mol
# Density = 1.889785 g / cm^3
# Si number density = 18.940956 Si / 1000 Ang^3
#
#
#
# Elastic Constant Matrix: (Units=GPa)
#
#
# Indices 1 2 3 4 5 6 
#
# 1 111.5163 64.9254 28.0538 0.0000 0.0000 0.0000
# 2 64.9254 76.9638 35.7123 0.0000 0.0000 0.0000
# 3 28.0538 35.7123 77.4281 0.0000 0.0000 0.0000
# 4 0.0000 0.0000 0.0000 21.8802 0.0000 0.0000
# 5 0.0000 0.0000 0.0000 0.0000 20.6327 0.0000
# 6 0.0000 0.0000 0.0000 0.0000 0.0000 27.7001
#
#
#
# Elastic Compliance Matrix: (Units=1/GPa)
#
#
# Indices 1 2 3 4 5 6 
#
# 1 0.017644 -0.015163 0.000601 0.000000 0.000000 0.000000
# 2 -0.015163 0.029562 -0.008141 0.000000 0.000000 0.000000
# 3 0.000601 -0.008141 0.016452 0.000000 0.000000 0.000000
# 4 0.000000 0.000000 0.000000 0.045704 0.000000 0.000000
# 5 0.000000 0.000000 0.000000 0.000000 0.048467 0.000000
# 6 0.000000 0.000000 0.000000 0.000000 0.000000 0.036101
#
#
# Mechanical properties :
#
#
# Convention : Reuss Voigt Hill
#
# Bulk Modulus (GPa) = 54.78846 58.14346 56.46596
# Shear Modulus (GPa) = 20.37319 23.19038 21.78178
#
# Velocity S-wave (km/s) = 3.28322 3.50287 3.39482
# Velocity P-wave (km/s) = 6.58494 6.86469 6.72627
#
# Compressibility (1/GPa) = 0.01825202
#
# Stress axis : x y z
#
# Youngs Moduli (GPa) = 56.67585 33.82714 60.78141
#
# Poissons Ratio (x) = 0.51293 -0.03652
# Poissons Ratio (y) = 0.85939 0.49482
# Poissons Ratio (z) = -0.03406 0.27539
#
# Static dielectric constant tensor:
#      x y z
#    x 1.619240 0.000000 0.000000 
#    y 0.000000 1.651450 0.000000 
#    z 0.000000 0.000000 1.642830 
# 
# From -- ./inp_files/1401.got.cif
#   From: 2010.05.17/outbox.cif.g08.bks.cpg/sg33_1_cif.got.tgz:1401.got - 2010.06.03 17:15:25.
