data_PCOD9345886
_publ_section_title
;
Structure prediction by ZEFSAII (Michael W. Deem and Ramdas Pophale) SiO2 
 PCOD9345886
Probable space group: P N A 21
;
_chemical_formula_sum "Si O2"
_cell_formula_units_Z 28
_cell_length_a 11.429076
_cell_length_b 10.212735
_cell_length_c 10.765055
_cell_angle_alpha 90.000000
_cell_angle_beta 90.000000
_cell_angle_gamma 90.000000
_cell_volume 1256.520090
_symmetry_space_group_name_H-M "P N A 21"
_symmetry_group_IT_number 33
_symmetry_cell_setting 'orthorhombic'
loop_
_space_group_symop_operation_xyz
x,y,z
-x,-y,1/2+z
1/2-x,1/2+y,1/2+z
1/2+x,1/2-y,z
loop_
_atom_site_type_symbol
_atom_site_label
_atom_site_fract_x
_atom_site_fract_y
_atom_site_fract_z
Si Si1 0.776498 0.807928 0.292700
Si Si2 0.748266 0.148114 0.041155
Si Si3 0.701686 0.685399 0.942768
Si Si4 0.068678 0.954892 0.725454
Si Si5 0.820147 0.838617 0.750886
Si Si6 0.164786 0.452723 0.638939
Si Si7 0.104062 0.589432 0.097542
O O1 0.746651 0.750077 0.428045
O O2 0.802599 0.678487 0.213031
O O3 0.671541 0.890447 0.228720
O O4 0.888389 0.901989 0.269242
O O5 0.871012 0.092667 0.096393
O O6 0.679248 0.220481 0.152648
O O7 0.672324 0.018700 0.016242
O O8 0.625758 0.639080 0.827929
O O9 0.804762 0.776794 0.886804
O O10 0.759864 0.563737 0.013156
O O11 0.620079 0.771617 0.030761
O O12 0.931122 0.931362 0.730542
O O13 0.706552 0.922619 0.715176
O O14 0.028225 0.452355 0.613321
#
# Coordination Sequence:
#
# PCOD9345886 Si02
#       7
#     4   4   4   4   4   4   4
#     4  10  23  44  64 100 130 176 219 267 334 393
#     4  10  23  44  64 100 130 176 219 267 334 393
#     4  10  22  44  66  98 130 176 218 266 342 390
#     4  10  23  43  68  95 137 168 222 276 323 403
#     4  11  24  42  67  99 130 173 222 270 337 395
#     4  11  24  42  67  99 130 173 222 270 337 395
#     4  10  23  43  68  95 137 168 222 276 323 403
#
# _framework density 22.283767000000001
#
# number of rings (size 3 to 8) (size 9 to 14) (size 15 to 20)
#    0.000    1.714    0.000    2.571    8.000    1.143 
#   25.714    0.000    0.000    0.000    0.000    0.000 
#    0.000    0.000    0.000    0.000    0.000    0.000 
#
# Total GULP energy -156508.869788 kJ/mol
# GULP energy per Si atom -5589.602492 kJ/mol
# Density = 2.223305 g / cm^3
# Si number density = 22.283767 Si / 1000 Ang^3
#
#
#
# Elastic Constant Matrix: (Units=GPa)
#
#
# Indices 1 2 3 4 5 6 
#
# 1 49.5522 -19.4530 8.0172 0.0000 0.0000 0.0000
# 2 -19.4530 73.3848 7.1625 0.0000 0.0000 0.0000
# 3 8.0172 7.1625 75.9404 0.0000 0.0000 0.0000
# 4 0.0000 0.0000 0.0000 28.6566 0.0000 0.0000
# 5 0.0000 0.0000 0.0000 0.0000 12.2294 0.0000
# 6 0.0000 0.0000 0.0000 0.0000 0.0000 26.2951
#
#
#
# Elastic Compliance Matrix: (Units=1/GPa)
#
#
# Indices 1 2 3 4 5 6 
#
# 1 0.023208 0.006451 -0.003058 0.000000 0.000000 0.000000
# 2 0.006451 0.015546 -0.002147 0.000000 0.000000 0.000000
# 3 -0.003058 -0.002147 0.013694 0.000000 0.000000 0.000000
# 4 0.000000 0.000000 0.000000 0.034896 0.000000 0.000000
# 5 0.000000 0.000000 0.000000 0.000000 0.081770 0.000000
# 6 0.000000 0.000000 0.000000 0.000000 0.000000 0.038030
#
#
# Mechanical properties :
#
#
# Convention : Reuss Voigt Hill
#
# Bulk Modulus (GPa) = 18.20256 21.14785 19.67520
# Shear Modulus (GPa) = 22.42487 26.97961 24.70224
#
# Velocity S-wave (km/s) = 3.17571 3.48333 3.33307
# Velocity P-wave (km/s) = 4.65114 5.06843 4.86426
#
# Compressibility (1/GPa) = 0.05493734
#
# Stress axis : x y z
#
# Youngs Moduli (GPa) = 43.08878 64.32397 73.02656
#
# Poissons Ratio (x) = -0.41492 0.22335
# Poissons Ratio (y) = -0.27795 0.15681
# Poissons Ratio (z) = 0.13179 0.13812
#
# Static dielectric constant tensor:
#      x y z
#    x 1.786520 0.000000 0.000000 
#    y 0.000000 1.856600 0.000000 
#    z 0.000000 0.000000 1.873660 
# 
# From -- ./inp_files/6329.got.cif
#   From: 2010.05.17/outbox.cif.g08.bks.cpg/sg33_4_cif.got.tgz:6329.got - 2010.06.03 17:15:25.
