data_PCOD9345844
_publ_section_title
;
Structure prediction by ZEFSAII (Michael W. Deem and Ramdas Pophale) SiO2 
 PCOD9345844
Probable space group: P N A 21
;
_chemical_formula_sum "Si O2"
_cell_formula_units_Z 32
_cell_length_a 21.033502
_cell_length_b 10.895490
_cell_length_c 5.202015
_cell_angle_alpha 90.000000
_cell_angle_beta 90.000000
_cell_angle_gamma 90.000000
_cell_volume 1192.147394
_symmetry_space_group_name_H-M "P N A 21"
_symmetry_group_IT_number 33
_symmetry_cell_setting 'orthorhombic'
loop_
_space_group_symop_operation_xyz
x,y,z
-x,-y,1/2+z
1/2-x,1/2+y,1/2+z
1/2+x,1/2-y,z
loop_
_atom_site_type_symbol
_atom_site_label
_atom_site_fract_x
_atom_site_fract_y
_atom_site_fract_z
Si Si1 0.086667 0.423938 0.570040
Si Si2 0.425436 0.557045 0.764021
Si Si3 0.975037 0.240208 0.405707
Si Si4 0.775696 0.366768 0.170196
Si Si5 0.111678 0.571352 0.050079
Si Si6 0.819710 0.774285 0.021772
Si Si7 0.827591 0.981154 0.383072
Si Si8 0.877814 0.191036 0.003422
O O1 0.105426 0.498118 0.313454
O O2 0.149838 0.346121 0.635336
O O3 0.031201 0.331396 0.486316
O O4 0.070989 0.498115 0.828994
O O5 0.493124 0.605341 0.866870
O O6 0.396990 0.569225 0.476732
O O7 0.377923 0.647974 0.907758
O O8 0.405722 0.418819 0.828896
O O9 0.918515 0.292744 0.586593
O O10 0.939551 0.253514 0.133371
O O11 0.822445 0.411474 0.399263
O O12 0.729616 0.263475 0.292664
O O13 0.727027 0.480200 0.103341
O O14 0.823372 0.295418 0.973480
O O15 0.795199 0.869788 0.228970
O O16 0.843944 0.102731 0.226743
#
# Coordination Sequence:
#
# PCOD9345844 Si02
#       8
#     4   4   4   4   4   4   4   4
#     4  11  25  46  73 102 141 190 236 297 358 425
#     4   9  21  42  64  98 131 178 231 285 355 416
#     4  10  23  46  66 101 139 180 239 297 348 436
#     4  10  24  42  65 101 142 178 239 292 349 435
#     4  11  26  46  69 108 141 189 238 290 365 419
#     4   9  22  40  66  96 136 180 236 281 355 416
#     4  10  22  43  67  99 135 187 231 293 355 424
#     4  10  23  43  64 103 135 178 234 287 363 419
#
# _framework density 26.842319
#
# number of rings (size 3 to 8) (size 9 to 14) (size 15 to 20)
#    0.000    2.000    0.000    0.750   10.500    3.000 
#   13.500    0.000    0.000    0.000    0.000    0.000 
#    0.000    0.000    0.000    0.000    0.000    0.000 
#
# Total GULP energy -178421.544253 kJ/mol
# GULP energy per Si atom -5575.673258 kJ/mol
# Density = 2.678122 g / cm^3
# Si number density = 26.842319 Si / 1000 Ang^3
#
#
#
# Elastic Constant Matrix: (Units=GPa)
#
#
# Indices 1 2 3 4 5 6 
#
# 1 111.0599 28.1702 -8.8967 0.0000 0.0000 0.0000
# 2 28.1702 95.7232 1.9119 0.0000 0.0000 0.0000
# 3 -8.8967 1.9119 32.4960 0.0000 0.0000 0.0000
# 4 0.0000 0.0000 0.0000 25.3715 0.0000 0.0000
# 5 0.0000 0.0000 0.0000 0.0000 28.8969 0.0000
# 6 0.0000 0.0000 0.0000 0.0000 0.0000 47.6691
#
#
#
# Elastic Compliance Matrix: (Units=1/GPa)
#
#
# Indices 1 2 3 4 5 6 
#
# 1 0.009999 -0.003001 0.002914 0.000000 0.000000 0.000000
# 2 -0.003001 0.011360 -0.001490 0.000000 0.000000 0.000000
# 3 0.002914 -0.001490 0.031658 0.000000 0.000000 0.000000
# 4 0.000000 0.000000 0.000000 0.039414 0.000000 0.000000
# 5 0.000000 0.000000 0.000000 0.000000 0.034606 0.000000
# 6 0.000000 0.000000 0.000000 0.000000 0.000000 0.020978
#
#
# Mechanical properties :
#
#
# Convention : Reuss Voigt Hill
#
# Bulk Modulus (GPa) = 20.05470 31.29443 25.67456
# Shear Modulus (GPa) = 29.79930 34.92709 32.36319
#
# Velocity S-wave (km/s) = 3.33552 3.61112 3.47605
# Velocity P-wave (km/s) = 4.72460 5.39174 5.06915
#
# Compressibility (1/GPa) = 0.04986363
#
# Stress axis : x y z
#
# Youngs Moduli (GPa) = 100.01296 88.03113 31.58712
#
# Poissons Ratio (x) = 0.26416 -0.09204
# Poissons Ratio (y) = 0.30011 0.04706
# Poissons Ratio (z) = -0.29144 0.13115
#
# Static dielectric constant tensor:
#      x y z
#    x 2.159320 0.000000 0.000000 
#    y 0.000000 2.250540 0.000000 
#    z 0.000000 0.000000 2.483710 
# 
# From -- ./inp_files/2076.got.cif
#   From: 2010.05.17/outbox.cif.g08.bks.cpg/sg33_2_cif.got.tgz:2076.got - 2010.06.03 17:15:25.
