data_PCOD9345385
_publ_section_title
;
Structure prediction by ZEFSAII (Michael W. Deem and Ramdas Pophale) SiO2 
 PCOD9345385
Probable space group: P N A 21
;
_chemical_formula_sum "Si O2"
_cell_formula_units_Z 32
_cell_length_a 13.926108
_cell_length_b 5.820605
_cell_length_c 17.497578
_cell_angle_alpha 90.000000
_cell_angle_beta 90.000000
_cell_angle_gamma 90.000000
_cell_volume 1418.325219
_symmetry_space_group_name_H-M "P N A 21"
_symmetry_group_IT_number 33
_symmetry_cell_setting 'orthorhombic'
loop_
_space_group_symop_operation_xyz
x,y,z
-x,-y,1/2+z
1/2-x,1/2+y,1/2+z
1/2+x,1/2-y,z
loop_
_atom_site_type_symbol
_atom_site_label
_atom_site_fract_x
_atom_site_fract_y
_atom_site_fract_z
Si Si1 0.219206 0.853026 0.607210
Si Si2 0.864583 0.070452 0.863335
Si Si3 0.730896 0.826321 0.975088
Si Si4 0.401721 0.978922 0.034733
Si Si5 0.970671 0.452838 0.788371
Si Si6 0.530247 0.746019 0.919493
Si Si7 0.116589 0.160446 0.197898
Si Si8 0.065088 0.139742 0.675868
O O1 0.135610 0.728370 0.558358
O O2 0.291597 0.671917 0.643896
O O3 0.277077 0.025040 0.552498
O O4 0.161678 0.991504 0.672079
O O5 0.771011 0.002661 0.910973
O O6 0.859114 0.948925 0.780335
O O7 0.954592 0.961357 0.910659
O O8 0.891762 0.330734 0.842257
O O9 0.636173 0.697584 0.947848
O O10 0.813065 0.642510 0.992229
O O11 0.423466 0.831238 0.110601
O O12 0.490139 0.937468 0.978552
O O13 0.918813 0.582555 0.718629
O O14 0.028657 0.638870 0.836298
O O15 0.042007 0.262590 0.755433
O O16 0.028204 0.019697 0.162462
#
# Coordination Sequence:
#
# PCOD9345385 Si02
#       8
#     4   4   4   4   4   4   4   4
#     4  11  24  39  61  96 124 165 215 263 318 379
#     4   9  21  41  58  90 126 163 211 261 307 384
#     4  10  23  38  61  94 124 166 214 256 321 373
#     4  10  23  41  61  90 131 159 210 266 313 382
#     4  10  21  40  63  88 127 166 207 262 314 371
#     4  10  22  39  64  88 124 167 209 257 319 373
#     4  10  23  39  64  91 123 167 212 258 322 378
#     4  10  23  39  62  91 125 163 208 263 320 376
#
# _framework density 22.561823
#
# number of rings (size 3 to 8) (size 9 to 14) (size 15 to 20)
#    0.000    2.000    0.000    1.500    5.250    9.000 
#    0.000    0.000    0.000    0.000    0.000    0.000 
#    0.000    0.000    0.000    0.000    0.000    0.000 
#
# Total GULP energy -178850.398321 kJ/mol
# GULP energy per Si atom -5589.074948 kJ/mol
# Density = 2.251047 g / cm^3
# Si number density = 22.561823 Si / 1000 Ang^3
#
#
#
# Elastic Constant Matrix: (Units=GPa)
#
#
# Indices 1 2 3 4 5 6 
#
# 1 59.2393 -14.0259 25.1038 0.0000 0.0000 0.0000
# 2 -14.0259 38.9252 -8.1901 0.0000 0.0000 0.0000
# 3 25.1038 -8.1901 37.5020 0.0000 0.0000 0.0000
# 4 0.0000 0.0000 0.0000 33.2967 0.0000 0.0000
# 5 0.0000 0.0000 0.0000 0.0000 33.6629 0.0000
# 6 0.0000 0.0000 0.0000 0.0000 0.0000 14.4031
#
#
#
# Elastic Compliance Matrix: (Units=1/GPa)
#
#
# Indices 1 2 3 4 5 6 
#
# 1 0.024710 0.005685 -0.015299 0.000000 0.000000 0.000000
# 2 0.005685 0.028235 0.002361 0.000000 0.000000 0.000000
# 3 -0.015299 0.002361 0.037422 0.000000 0.000000 0.000000
# 4 0.000000 0.000000 0.000000 0.030033 0.000000 0.000000
# 5 0.000000 0.000000 0.000000 0.000000 0.029706 0.000000
# 6 0.000000 0.000000 0.000000 0.000000 0.000000 0.069429
#
#
# Mechanical properties :
#
#
# Convention : Reuss Voigt Hill
#
# Bulk Modulus (GPa) = 13.18210 15.71578 14.44894
# Shear Modulus (GPa) = 19.28039 25.12444 22.20241
#
# Velocity S-wave (km/s) = 2.92645 3.34066 3.14039
# Velocity P-wave (km/s) = 4.15622 4.67555 4.42351
#
# Compressibility (1/GPa) = 0.07586045
#
# Stress axis : x y z
#
# Youngs Moduli (GPa) = 40.46929 35.41651 26.72200
#
# Poissons Ratio (x) = -0.20133 0.40883
# Poissons Ratio (y) = -0.23005 -0.06309
# Poissons Ratio (z) = 0.61916 -0.08362
#
# Static dielectric constant tensor:
#      x y z
#    x 1.810420 0.000000 0.000000 
#    y 0.000000 1.865770 0.000000 
#    z 0.000000 0.000000 1.850120 
# 
# From -- ./inp_files/8773.got.cif
#   From: 2010.05.17/outbox.cif.g08.bks.cpg/sg33_5_cif.got.tgz:8773.got - 2010.06.03 17:15:25.
