data_PCOD9345918
_publ_section_title
;
Structure prediction by ZEFSAII (Michael W. Deem and Ramdas Pophale) SiO2 
 PCOD9345918
Probable space group: P N A 21
;
_chemical_formula_sum "Si O2"
_cell_formula_units_Z 32
_cell_length_a 11.259037
_cell_length_b 15.736598
_cell_length_c 7.863774
_cell_angle_alpha 90.000000
_cell_angle_beta 90.000000
_cell_angle_gamma 90.000000
_cell_volume 1393.295135
_symmetry_space_group_name_H-M "P N A 21"
_symmetry_group_IT_number 33
_symmetry_cell_setting 'orthorhombic'
loop_
_space_group_symop_operation_xyz
x,y,z
-x,-y,1/2+z
1/2-x,1/2+y,1/2+z
1/2+x,1/2-y,z
loop_
_atom_site_type_symbol
_atom_site_label
_atom_site_fract_x
_atom_site_fract_y
_atom_site_fract_z
Si Si1 0.672132 0.327786 0.329900
Si Si2 0.133231 0.586199 0.637733
Si Si3 0.571253 0.996346 0.286352
Si Si4 0.260669 0.853472 0.736633
Si Si5 0.060208 0.913846 0.982837
Si Si6 0.563292 0.399190 0.835867
Si Si7 0.906877 0.234308 0.975044
Si Si8 0.690711 0.840817 0.175021
O O1 0.734633 0.391084 0.196354
O O2 0.663897 0.231484 0.267538
O O3 0.548600 0.365068 0.391483
O O4 0.766276 0.321784 0.486344
O O5 0.116592 0.527009 0.473827
O O6 0.082894 0.678717 0.582453
O O7 0.057737 0.538368 0.780733
O O8 0.657478 0.065869 0.203471
O O9 0.583616 0.908145 0.185094
O O10 0.179336 0.875583 0.900781
O O11 0.175070 0.830258 0.580471
O O12 0.055668 0.013097 0.935843
O O13 0.031678 0.904228 0.181410
O O14 0.527761 0.315556 0.940281
O O15 0.694186 0.385827 0.759912
O O16 0.847044 0.263827 0.797359
#
# Coordination Sequence:
#
# PCOD9345918 Si02
#       8
#     4   4   4   4   4   4   4   4
#     4  10  24  42  66  95 130 167 215 267 323 391
#     4  10  24  44  66  95 130 173 214 270 326 383
#     4  11  23  43  65  94 127 174 215 267 319 394
#     4  11  24  40  66  95 128 172 213 264 326 388
#     4  11  24  41  67  98 129 172 214 273 328 389
#     4  11  23  41  66  96 131 166 217 269 328 390
#     4  10  24  40  66  93 130 172 211 270 322 389
#     4  10  22  45  62  94 131 166 215 268 324 388
#
# _framework density 22.967136
#
# number of rings (size 3 to 8) (size 9 to 14) (size 15 to 20)
#    0.000    1.500    1.250    2.250    8.750    3.000 
#    9.000    0.000    0.000    0.000    0.000    0.000 
#    0.000    0.000    0.000    0.000    0.000    0.000 
#
# Total GULP energy -179069.284700 kJ/mol
# GULP energy per Si atom -5595.915147 kJ/mol
# Density = 2.291486 g / cm^3
# Si number density = 22.967136 Si / 1000 Ang^3
#
#
#
# Elastic Constant Matrix: (Units=GPa)
#
#
# Indices 1 2 3 4 5 6 
#
# 1 34.8401 19.9693 -5.2894 0.0000 0.0000 0.0000
# 2 19.9693 82.6813 13.6498 0.0000 0.0000 0.0000
# 3 -5.2894 13.6498 61.0581 0.0000 0.0000 0.0000
# 4 0.0000 0.0000 0.0000 28.0909 0.0000 0.0000
# 5 0.0000 0.0000 0.0000 0.0000 25.6332 0.0000
# 6 0.0000 0.0000 0.0000 0.0000 0.0000 35.9374
#
#
#
# Elastic Compliance Matrix: (Units=1/GPa)
#
#
# Indices 1 2 3 4 5 6 
#
# 1 0.034766 -0.009235 0.005076 0.000000 0.000000 0.000000
# 2 -0.009235 0.015011 -0.004156 0.000000 0.000000 0.000000
# 3 0.005076 -0.004156 0.017747 0.000000 0.000000 0.000000
# 4 0.000000 0.000000 0.000000 0.035599 0.000000 0.000000
# 5 0.000000 0.000000 0.000000 0.000000 0.039012 0.000000
# 6 0.000000 0.000000 0.000000 0.000000 0.000000 0.027826
#
#
# Mechanical properties :
#
#
# Convention : Reuss Voigt Hill
#
# Bulk Modulus (GPa) = 19.64813 26.13763 22.89288
# Shear Modulus (GPa) = 24.56339 27.94894 26.25617
#
# Velocity S-wave (km/s) = 3.27387 3.49221 3.38480
# Velocity P-wave (km/s) = 4.78168 5.25983 5.02644
#
# Compressibility (1/GPa) = 0.05089544
#
# Stress axis : x y z
#
# Youngs Moduli (GPa) = 28.76340 66.61722 56.34863
#
# Poissons Ratio (x) = 0.61520 -0.28604
# Poissons Ratio (y) = 0.26563 0.23417
# Poissons Ratio (z) = -0.14601 0.27685
#
# Static dielectric constant tensor:
#      x y z
#    x 1.832090 0.000000 0.000000 
#    y 0.000000 1.797750 0.000000 
#    z 0.000000 0.000000 1.901970 
# 
# From -- ./inp_files/3968.got.cif
#   From: 2010.05.17/outbox.cif.g08.bks.cpg/sg33_2_cif.got.tgz:3968.got - 2010.06.03 17:15:25.
