data_PCOD9345934
_publ_section_title
;
Structure prediction by ZEFSAII (Michael W. Deem and Ramdas Pophale) SiO2 
 PCOD9345934
Probable space group: P N A 21
;
_chemical_formula_sum "Si O2"
_cell_formula_units_Z 32
_cell_length_a 5.362672
_cell_length_b 27.069272
_cell_length_c 10.778434
_cell_angle_alpha 90.000000
_cell_angle_beta 90.000000
_cell_angle_gamma 90.000000
_cell_volume 1564.636573
_symmetry_space_group_name_H-M "P N A 21"
_symmetry_group_IT_number 33
_symmetry_cell_setting 'orthorhombic'
loop_
_space_group_symop_operation_xyz
x,y,z
-x,-y,1/2+z
1/2-x,1/2+y,1/2+z
1/2+x,1/2-y,z
loop_
_atom_site_type_symbol
_atom_site_label
_atom_site_fract_x
_atom_site_fract_y
_atom_site_fract_z
Si Si1 0.951641 0.064053 0.164210
Si Si2 0.862353 0.039293 0.563988
Si Si3 0.363969 0.718649 0.309714
Si Si4 0.438952 0.957163 0.836682
Si Si5 0.676877 0.388802 0.415954
Si Si6 0.883277 0.560616 0.296764
Si Si7 0.612105 0.390973 0.905589
Si Si8 0.627322 0.280957 0.513971
O O1 0.056999 0.090796 0.287432
O O2 0.660006 0.056911 0.200546
O O3 0.028575 0.007807 0.134348
O O4 0.047985 0.094785 0.047272
O O5 0.774490 0.022966 0.427880
O O6 0.633604 0.058175 0.647933
O O7 0.054074 0.082670 0.532144
O O8 0.611609 0.750778 0.335838
O O9 0.369477 0.667417 0.383072
O O10 0.365887 0.707466 0.161674
O O11 0.542843 0.907926 0.898946
O O12 0.624651 0.003230 0.838168
O O13 0.647337 0.331314 0.437518
O O14 0.631064 0.588096 0.335028
O O15 0.131086 0.585275 0.352968
O O16 0.367903 0.253106 0.488420
#
# Coordination Sequence:
#
# PCOD9345934 Si02
#       8
#     4   4   4   4   4   4   4   4
#     4  11  25  43  61 101 145 187 231 277 340 431
#     4  11  24  41  65  97 144 181 234 286 339 426
#     4  10  22  45  69  99 129 166 225 298 358 408
#     4  11  25  40  65  94 144 187 231 278 344 419
#     4  11  25  43  68  98 137 192 231 288 354 414
#     4  12  25  41  65 102 133 183 229 277 340 414
#     4  12  26  43  69  99 136 180 229 282 354 418
#     4  10  24  44  72  98 132 170 234 302 349 404
#
# _framework density 20.452034999999999
#
# number of rings (size 3 to 8) (size 9 to 14) (size 15 to 20)
#    0.000    1.000    2.500    3.000   12.250    1.000 
#    0.000    1.250    0.000    0.000    0.000    0.000 
#    0.000    0.000    0.000    0.000    0.000    0.000 
#
# Total GULP energy -178632.412418 kJ/mol
# GULP energy per Si atom -5582.262888 kJ/mol
# Density = 2.040548 g / cm^3
# Si number density = 20.452035 Si / 1000 Ang^3
#
#
#
# Elastic Constant Matrix: (Units=GPa)
#
#
# Indices 1 2 3 4 5 6 
#
# 1 110.5408 58.7702 36.2464 0.0000 0.0000 0.0000
# 2 58.7702 156.2259 67.6407 0.0000 0.0000 0.0000
# 3 36.2464 67.6407 94.4772 0.0000 0.0000 0.0000
# 4 0.0000 0.0000 0.0000 34.7618 0.0000 0.0000
# 5 0.0000 0.0000 0.0000 0.0000 32.5801 0.0000
# 6 0.0000 0.0000 0.0000 0.0000 0.0000 27.8435
#
#
#
# Elastic Compliance Matrix: (Units=1/GPa)
#
#
# Indices 1 2 3 4 5 6 
#
# 1 0.011542 -0.003514 -0.001912 0.000000 0.000000 0.000000
# 2 -0.003514 0.010346 -0.006059 0.000000 0.000000 0.000000
# 3 -0.001912 -0.006059 0.015656 0.000000 0.000000 0.000000
# 4 0.000000 0.000000 0.000000 0.028767 0.000000 0.000000
# 5 0.000000 0.000000 0.000000 0.000000 0.030694 0.000000
# 6 0.000000 0.000000 0.000000 0.000000 0.000000 0.035915
#
#
# Mechanical properties :
#
#
# Convention : Reuss Voigt Hill
#
# Bulk Modulus (GPa) = 68.61784 76.28428 72.45106
# Shear Modulus (GPa) = 31.10441 32.27619 31.69030
#
# Velocity S-wave (km/s) = 3.90403 3.97689 3.94063
# Velocity P-wave (km/s) = 7.34476 7.64641 7.49710
#
# Compressibility (1/GPa) = 0.01457347
#
# Stress axis : x y z
#
# Youngs Moduli (GPa) = 86.64268 96.65237 63.87186
#
# Poissons Ratio (x) = 0.33963 0.12214
# Poissons Ratio (y) = 0.30445 0.38702
# Poissons Ratio (z) = 0.16568 0.58565
#
# Static dielectric constant tensor:
#      x y z
#    x 1.835450 0.000000 0.000000 
#    y 0.000000 1.687440 0.000000 
#    z 0.000000 0.000000 1.752080 
# 
# From -- ./inp_files/5608.got.cif
#   From: 2010.05.17/outbox.cif.g08.bks.cpg/sg33_3_cif.got.tgz:5608.got - 2010.06.03 17:15:25.
