data_PCOD9345920
_publ_section_title
;
Structure prediction by ZEFSAII (Michael W. Deem and Ramdas Pophale) SiO2 
 PCOD9345920
Probable space group: P N A 21
;
_chemical_formula_sum "Si O2"
_cell_formula_units_Z 32
_cell_length_a 13.865697
_cell_length_b 17.973549
_cell_length_c 4.886622
_cell_angle_alpha 90.000000
_cell_angle_beta 90.000000
_cell_angle_gamma 90.000000
_cell_volume 1217.823335
_symmetry_space_group_name_H-M "P N A 21"
_symmetry_group_IT_number 33
_symmetry_cell_setting 'orthorhombic'
loop_
_space_group_symop_operation_xyz
x,y,z
-x,-y,1/2+z
1/2-x,1/2+y,1/2+z
1/2+x,1/2-y,z
loop_
_atom_site_type_symbol
_atom_site_label
_atom_site_fract_x
_atom_site_fract_y
_atom_site_fract_z
Si Si1 0.734521 0.472609 0.033470
Si Si2 0.953617 0.963185 0.177878
Si Si3 0.719220 0.625891 0.325213
Si Si4 0.128074 0.800700 0.815762
Si Si5 0.401401 0.815155 0.055534
Si Si6 0.441282 0.973314 0.817266
Si Si7 0.466754 0.698649 0.389928
Si Si8 0.715926 0.309171 0.211732
O O1 0.709685 0.543261 0.218783
O O2 0.725965 0.398151 0.219116
O O3 0.654033 0.469474 0.794890
O O4 0.840050 0.488054 0.904197
O O5 0.983343 0.878784 0.238375
O O6 0.018869 0.016413 0.370430
O O7 0.686571 0.638135 0.633619
O O8 0.829230 0.648119 0.274745
O O9 0.656915 0.679718 0.125019
O O10 0.177594 0.723972 0.723383
O O11 0.023605 0.802896 0.676093
O O12 0.486421 0.772275 0.213485
O O13 0.432214 0.884251 0.867103
O O14 0.341780 0.749085 0.906056
O O15 0.474860 0.994834 0.514971
O O16 0.352022 0.699580 0.447595
#
# Coordination Sequence:
#
# PCOD9345920 Si02
#       8
#     4   4   4   4   4   4   4   4
#     4  10  24  45  73 102 146 190 241 307 362 437
#     4  11  25  43  68 106 143 186 243 295 369 444
#     4  10  22  45  64  97 132 184 226 286 351 423
#     4  11  23  41  67  93 134 178 231 282 354 420
#     4  10  24  44  72  96 149 181 240 296 363 416
#     4  11  28  50  76 110 147 201 254 303 366 448
#     4  11  24  40  69  96 139 184 231 296 357 428
#     4  10  24  44  65 106 138 184 236 297 364 430
#
# _framework density 26.276389999999999
#
# number of rings (size 3 to 8) (size 9 to 14) (size 15 to 20)
#    0.000    1.500    1.250    1.500    8.750    4.000 
#    6.750    0.000    0.000    0.000    0.000    0.000 
#    0.000    0.000    0.000    0.000    0.000    0.000 
#
# Total GULP energy -179250.246428 kJ/mol
# GULP energy per Si atom -5601.570201 kJ/mol
# Density = 2.621658 g / cm^3
# Si number density = 26.276390 Si / 1000 Ang^3
#
#
#
# Elastic Constant Matrix: (Units=GPa)
#
#
# Indices 1 2 3 4 5 6 
#
# 1 99.4817 47.6757 1.2270 0.0000 0.0000 0.0000
# 2 47.6757 167.8983 19.5045 0.0000 0.0000 0.0000
# 3 1.2270 19.5045 67.8455 0.0000 0.0000 0.0000
# 4 0.0000 0.0000 0.0000 31.8742 0.0000 0.0000
# 5 0.0000 0.0000 0.0000 0.0000 35.2921 0.0000
# 6 0.0000 0.0000 0.0000 0.0000 0.0000 45.1256
#
#
#
# Elastic Compliance Matrix: (Units=1/GPa)
#
#
# Indices 1 2 3 4 5 6 
#
# 1 0.011674 -0.003404 0.000767 0.000000 0.000000 0.000000
# 2 -0.003404 0.007154 -0.001995 0.000000 0.000000 0.000000
# 3 0.000767 -0.001995 0.015299 0.000000 0.000000 0.000000
# 4 0.000000 0.000000 0.000000 0.031373 0.000000 0.000000
# 5 0.000000 0.000000 0.000000 0.000000 0.028335 0.000000
# 6 0.000000 0.000000 0.000000 0.000000 0.000000 0.022160
#
#
# Mechanical properties :
#
#
# Convention : Reuss Voigt Hill
#
# Bulk Modulus (GPa) = 40.21898 52.44888 46.33393
# Shear Modulus (GPa) = 37.43984 40.24628 38.84306
#
# Velocity S-wave (km/s) = 3.77881 3.91788 3.84897
# Velocity P-wave (km/s) = 5.86332 6.36162 6.11754
#
# Compressibility (1/GPa) = 0.02486388
#
# Stress axis : x y z
#
# Youngs Moduli (GPa) = 85.66047 139.77472 65.36344
#
# Poissons Ratio (x) = 0.47580 -0.05017
# Poissons Ratio (y) = 0.29159 0.13041
# Poissons Ratio (z) = -0.06574 0.27888
#
# Static dielectric constant tensor:
#      x y z
#    x 2.143350 0.000000 0.000000 
#    y 0.000000 2.069180 0.000000 
#    z 0.000000 0.000000 2.057320 
# 
# From -- ./inp_files/1503.got.cif
#   From: 2010.05.17/outbox.cif.g08.bks.cpg/sg33_1_cif.got.tgz:1503.got - 2010.06.03 17:15:25.
