data_PCOD9345972
_publ_section_title
;
Structure prediction by ZEFSAII (Michael W. Deem and Ramdas Pophale) SiO2 
 PCOD9345972
Probable space group: P N A 21
;
_chemical_formula_sum "Si O2"
_cell_formula_units_Z 16
_cell_length_a 9.764310
_cell_length_b 11.915447
_cell_length_c 5.452891
_cell_angle_alpha 90.000000
_cell_angle_beta 90.000000
_cell_angle_gamma 90.000000
_cell_volume 634.422701
_symmetry_space_group_name_H-M "P N A 21"
_symmetry_group_IT_number 33
_symmetry_cell_setting 'orthorhombic'
loop_
_space_group_symop_operation_xyz
x,y,z
-x,-y,1/2+z
1/2-x,1/2+y,1/2+z
1/2+x,1/2-y,z
loop_
_atom_site_type_symbol
_atom_site_label
_atom_site_fract_x
_atom_site_fract_y
_atom_site_fract_z
Si Si1 0.831115 0.245142 0.125000
Si Si2 0.648426 0.507840 0.724792
Si Si3 0.070545 0.162833 0.392319
Si Si4 0.573885 0.962893 0.422634
O O1 0.815901 0.115122 0.049415
O O2 0.937651 0.239996 0.357933
O O3 0.687534 0.293075 0.214772
O O4 0.905420 0.329127 0.942156
O O5 0.499895 0.544171 0.819219
O O6 0.002195 0.502986 0.168666
O O7 0.227125 0.485785 0.416828
O O8 0.142338 0.120559 0.637375
#
# Coordination Sequence:
#
# PCOD9345972 Si02
#       4
#     4   4   4   4
#     4  10  24  46  72 112 158 211 266 324 414 470
#     4  10  24  47  77 117 166 209 270 335 410 474
#     4  10  22  48  73 114 157 210 263 335 396 488
#     4  12  26  51  80 121 163 210 275 336 396 492
#
# _framework density 25.219778999999999
#
# number of rings (size 3 to 8) (size 9 to 14) (size 15 to 20)
#    1.500    0.000    0.000    4.500    0.000    0.000 
#   13.500    2.500    0.000    0.000    0.000    0.000 
#    0.000    0.000    0.000    0.000    0.000    0.000 
#
# Total GULP energy -89155.342939 kJ/mol
# GULP energy per Si atom -5572.208934 kJ/mol
# Density = 2.516238 g / cm^3
# Si number density = 25.219779 Si / 1000 Ang^3
#
#
#
# Elastic Constant Matrix: (Units=GPa)
#
#
# Indices 1 2 3 4 5 6 
#
# 1 171.4356 37.5543 51.4328 0.0000 0.0000 0.0000
# 2 37.5543 80.9303 29.5365 0.0000 0.0000 0.0000
# 3 51.4328 29.5365 78.7560 0.0000 0.0000 0.0000
# 4 0.0000 0.0000 0.0000 36.2287 0.0000 0.0000
# 5 0.0000 0.0000 0.0000 0.0000 30.4817 0.0000
# 6 0.0000 0.0000 0.0000 0.0000 0.0000 27.3871
#
#
#
# Elastic Compliance Matrix: (Units=1/GPa)
#
#
# Indices 1 2 3 4 5 6 
#
# 1 0.007515 -0.001965 -0.004171 0.000000 0.000000 0.000000
# 2 -0.001965 0.014830 -0.004278 0.000000 0.000000 0.000000
# 3 -0.004171 -0.004278 0.017026 0.000000 0.000000 0.000000
# 4 0.000000 0.000000 0.000000 0.027602 0.000000 0.000000
# 5 0.000000 0.000000 0.000000 0.000000 0.032807 0.000000
# 6 0.000000 0.000000 0.000000 0.000000 0.000000 0.036514
#
#
# Mechanical properties :
#
#
# Convention : Reuss Voigt Hill
#
# Bulk Modulus (GPa) = 53.93172 63.12990 58.53081
# Shear Modulus (GPa) = 30.61823 32.99273 31.80548
#
# Velocity S-wave (km/s) = 3.48811 3.62084 3.55510
# Velocity P-wave (km/s) = 6.13626 6.52433 6.33327
#
# Compressibility (1/GPa) = 0.01854196
#
# Stress axis : x y z
#
# Youngs Moduli (GPa) = 133.07071 67.43278 58.73456
#
# Poissons Ratio (x) = 0.13250 0.24497
# Poissons Ratio (y) = 0.26148 0.25129
# Poissons Ratio (z) = 0.55500 0.28850
#
# Static dielectric constant tensor:
#      x y z
#    x 1.979200 0.000000 0.000000 
#    y 0.000000 2.028410 0.000000 
#    z 0.000000 0.000000 2.200380 
# 
# From -- ./inp_files/2980.got.cif
#   From: 2010.05.17/outbox.cif.g08.bks.cpg/sg33_2_cif.got.tgz:2980.got - 2010.06.03 17:15:25.
