data_PCOD9345271
_publ_section_title
;
Structure prediction by ZEFSAII (Michael W. Deem and Ramdas Pophale) SiO2 
 PCOD9345271
Probable space group: P N A 21
;
_chemical_formula_sum "Si O2"
_cell_formula_units_Z 28
_cell_length_a 12.158950
_cell_length_b 12.669908
_cell_length_c 7.289201
_cell_angle_alpha 90.000000
_cell_angle_beta 90.000000
_cell_angle_gamma 90.000000
_cell_volume 1122.921663
_symmetry_space_group_name_H-M "P N A 21"
_symmetry_group_IT_number 33
_symmetry_cell_setting 'orthorhombic'
loop_
_space_group_symop_operation_xyz
x,y,z
-x,-y,1/2+z
1/2-x,1/2+y,1/2+z
1/2+x,1/2-y,z
loop_
_atom_site_type_symbol
_atom_site_label
_atom_site_fract_x
_atom_site_fract_y
_atom_site_fract_z
Si Si1 0.978036 0.407648 0.062870
Si Si2 0.862576 0.973869 0.729990
Si Si3 0.790032 0.647991 0.386815
Si Si4 0.046591 0.358231 0.460809
Si Si5 0.219866 0.894314 0.776466
Si Si6 0.004223 0.866314 0.020432
Si Si7 0.246469 0.124348 0.880206
O O1 0.088022 0.373085 0.958820
O O2 0.980356 0.363415 0.268749
O O3 0.870105 0.375370 0.954468
O O4 0.977636 0.534920 0.068953
O O5 0.963491 0.052399 0.679514
O O6 0.831340 0.901118 0.556759
O O7 0.760614 0.051262 0.773406
O O8 0.901526 0.905666 0.900955
O O9 0.719820 0.654553 0.575486
O O10 0.779804 0.762505 0.295881
O O11 0.173204 0.358395 0.391939
O O12 0.013558 0.254597 0.570254
O O13 0.110645 0.871051 0.888056
O O14 0.233682 0.020989 0.755564
#
# Coordination Sequence:
#
# PCOD9345271 Si02
#       7
#     4   4   4   4   4   4   4
#     4  10  21  38  62  90 123 162 212 256 307 372
#     4  11  24  41  64  96 124 163 215 252 307 385
#     4  11  22  39  64  91 122 165 207 259 313 364
#     4  10  21  38  61  88 122 164 205 258 312 365
#     4   9  21  39  59  88 123 161 211 252 306 379
#     4  11  23  42  62  88 128 167 203 260 313 361
#     4  10  22  41  60  89 128 164 207 259 308 368
#
# _framework density 24.934951999999999
#
# number of rings (size 3 to 8) (size 9 to 14) (size 15 to 20)
#    0.000    1.714    0.000    4.286    0.000    6.857 
#    0.000   14.286    0.000    0.000    0.000    0.000 
#    0.000    0.000    0.000    0.000    0.000    0.000 
#
# Total GULP energy -157034.703302 kJ/mol
# GULP energy per Si atom -5608.382261 kJ/mol
# Density = 2.487820 g / cm^3
# Si number density = 24.934952 Si / 1000 Ang^3
#
#
#
# Elastic Constant Matrix: (Units=GPa)
#
#
# Indices 1 2 3 4 5 6 
#
# 1 72.2434 25.8888 8.9902 0.0000 0.0000 0.0000
# 2 25.8888 135.5530 2.0585 0.0000 0.0000 0.0000
# 3 8.9902 2.0585 45.7814 0.0000 0.0000 0.0000
# 4 0.0000 0.0000 0.0000 21.6342 0.0000 0.0000
# 5 0.0000 0.0000 0.0000 0.0000 37.5101 0.0000
# 6 0.0000 0.0000 0.0000 0.0000 0.0000 9.9130
#
#
#
# Elastic Compliance Matrix: (Units=1/GPa)
#
#
# Indices 1 2 3 4 5 6 
#
# 1 0.015225 -0.002864 -0.002861 0.000000 0.000000 0.000000
# 2 -0.002864 0.007921 0.000206 0.000000 0.000000 0.000000
# 3 -0.002861 0.000206 0.022395 0.000000 0.000000 0.000000
# 4 0.000000 0.000000 0.000000 0.046223 0.000000 0.000000
# 5 0.000000 0.000000 0.000000 0.000000 0.026660 0.000000
# 6 0.000000 0.000000 0.000000 0.000000 0.000000 0.100878
#
#
# Mechanical properties :
#
#
# Convention : Reuss Voigt Hill
#
# Bulk Modulus (GPa) = 28.98263 36.38363 32.68313
# Shear Modulus (GPa) = 20.67479 28.25414 24.46447
#
# Velocity S-wave (km/s) = 2.88262 3.36983 3.13570
# Velocity P-wave (km/s) = 4.76737 5.45565 5.12308
#
# Compressibility (1/GPa) = 0.03450342
#
# Stress axis : x y z
#
# Youngs Moduli (GPa) = 65.68348 126.24531 44.65195
#
# Poissons Ratio (x) = 0.36160 0.12774
# Poissons Ratio (y) = 0.18813 -0.00921
# Poissons Ratio (z) = 0.18791 -0.02604
#
# Static dielectric constant tensor:
#      x y z
#    x 1.941060 0.000000 0.000000 
#    y 0.000000 1.935350 0.000000 
#    z 0.000000 0.000000 1.944790 
# 
# From -- ./inp_files/3825.got.cif
#   From: 2010.05.17/outbox.cif.g08.bks.cpg/sg33_2_cif.got.tgz:3825.got - 2010.06.03 17:15:25.
