data_PCOD9345409
_publ_section_title
;
Structure prediction by ZEFSAII (Michael W. Deem and Ramdas Pophale) SiO2 
 PCOD9345409
Probable space group: P N A 21
;
_chemical_formula_sum "Si O2"
_cell_formula_units_Z 28
_cell_length_a 7.483297
_cell_length_b 17.530974
_cell_length_c 9.793465
_cell_angle_alpha 90.000000
_cell_angle_beta 90.000000
_cell_angle_gamma 90.000000
_cell_volume 1284.799631
_symmetry_space_group_name_H-M "P N A 21"
_symmetry_group_IT_number 33
_symmetry_cell_setting 'orthorhombic'
loop_
_space_group_symop_operation_xyz
x,y,z
-x,-y,1/2+z
1/2-x,1/2+y,1/2+z
1/2+x,1/2-y,z
loop_
_atom_site_type_symbol
_atom_site_label
_atom_site_fract_x
_atom_site_fract_y
_atom_site_fract_z
Si Si1 0.849077 0.929540 0.702440
Si Si2 0.424273 0.505733 0.408803
Si Si3 0.020731 0.648063 0.597319
Si Si4 0.348647 0.307104 0.210640
Si Si5 0.657665 0.663037 0.000088
Si Si6 0.566238 0.239653 0.679097
Si Si7 0.277518 0.146169 0.816191
O O1 0.969108 0.854880 0.728833
O O2 0.929165 0.955054 0.556030
O O3 0.640840 0.911783 0.683125
O O4 0.896963 0.986969 0.824360
O O5 0.341352 0.423748 0.448792
O O6 0.312890 0.563302 0.311644
O O7 0.097765 0.730474 0.636869
O O8 0.086172 0.638835 0.442414
O O9 0.811331 0.649248 0.632221
O O10 0.285837 0.291148 0.365062
O O11 0.475296 0.696338 0.063916
O O12 0.788375 0.680677 0.124536
O O13 0.396003 0.184996 0.699489
O O14 0.620289 0.288689 0.814639
#
# Coordination Sequence:
#
# PCOD9345409 Si02
#       7
#     4   4   4   4   4   4   4
#     4  10  23  42  64  87 134 170 206 268 323 392
#     4  10  22  44  60  94 132 168 210 264 334 390
#     4  11  21  38  63  96 123 161 215 267 321 384
#     4  11  21  38  63  96 123 161 215 267 321 384
#     4  10  22  40  64  91 130 163 218 265 324 392
#     4  10  21  40  68  93 122 174 216 270 317 390
#     4  10  22  40  64  91 130 163 218 265 324 392
#
# _framework density 21.793281
#
# number of rings (size 3 to 8) (size 9 to 14) (size 15 to 20)
#    0.000    1.714    1.429    2.571    4.000    0.000 
#   15.429    1.429    0.000    0.000    0.000    0.000 
#    0.000    0.000    0.000    0.000    0.000    0.000 
#
# Total GULP energy -155925.784366 kJ/mol
# GULP energy per Si atom -5568.778013 kJ/mol
# Density = 2.174368 g / cm^3
# Si number density = 21.793281 Si / 1000 Ang^3
#
#
#
# Elastic Constant Matrix: (Units=GPa)
#
#
# Indices 1 2 3 4 5 6 
#
# 1 48.5762 17.1438 -12.0803 0.0000 0.0000 0.0000
# 2 17.1438 48.2054 8.2947 0.0000 0.0000 0.0000
# 3 -12.0803 8.2947 25.3110 0.0000 0.0000 0.0000
# 4 0.0000 0.0000 0.0000 33.9167 0.0000 0.0000
# 5 0.0000 0.0000 0.0000 0.0000 23.0994 0.0000
# 6 0.0000 0.0000 0.0000 0.0000 0.0000 7.0679
#
#
#
# Elastic Compliance Matrix: (Units=1/GPa)
#
#
# Indices 1 2 3 4 5 6 
#
# 1 0.030284 -0.014050 0.019058 0.000000 0.000000 0.000000
# 2 -0.014050 0.028502 -0.016046 0.000000 0.000000 0.000000
# 3 0.019058 -0.016046 0.053863 0.000000 0.000000 0.000000
# 4 0.000000 0.000000 0.000000 0.029484 0.000000 0.000000
# 5 0.000000 0.000000 0.000000 0.000000 0.043291 0.000000
# 6 0.000000 0.000000 0.000000 0.000000 0.000000 0.141484
#
#
# Mechanical properties :
#
#
# Convention : Reuss Voigt Hill
#
# Bulk Modulus (GPa) = 11.04067 16.53433 13.78750
# Shear Modulus (GPa) = 13.18652 20.06577 16.62614
#
# Velocity S-wave (km/s) = 2.46249 3.03765 2.76506
# Velocity P-wave (km/s) = 3.62798 4.46166 4.06624
#
# Compressibility (1/GPa) = 0.09057424
#
# Stress axis : x y z
#
# Youngs Moduli (GPa) = 33.02050 35.08502 18.56567
#
# Poissons Ratio (x) = 0.49293 -0.35383
# Poissons Ratio (y) = 0.46393 0.29790
# Poissons Ratio (z) = -0.62931 0.56297
#
# Static dielectric constant tensor:
#      x y z
#    x 1.902280 0.000000 0.000000 
#    y 0.000000 1.842920 0.000000 
#    z 0.000000 0.000000 1.880820 
# 
# From -- ./inp_files/3354.got.cif
#   From: 2010.05.17/outbox.cif.g08.bks.cpg/sg33_2_cif.got.tgz:3354.got - 2010.06.03 17:15:25.
