data_PCOD9345833
_publ_section_title
;
Structure prediction by ZEFSAII (Michael W. Deem and Ramdas Pophale) SiO2 
 PCOD9345833
Probable space group: P N A 21
;
_chemical_formula_sum "Si O2"
_cell_formula_units_Z 32
_cell_length_a 10.993357
_cell_length_b 5.778830
_cell_length_c 21.239944
_cell_angle_alpha 90.000000
_cell_angle_beta 90.000000
_cell_angle_gamma 90.000000
_cell_volume 1349.346906
_symmetry_space_group_name_H-M "P N A 21"
_symmetry_group_IT_number 33
_symmetry_cell_setting 'orthorhombic'
loop_
_space_group_symop_operation_xyz
x,y,z
-x,-y,1/2+z
1/2-x,1/2+y,1/2+z
1/2+x,1/2-y,z
loop_
_atom_site_type_symbol
_atom_site_label
_atom_site_fract_x
_atom_site_fract_y
_atom_site_fract_z
Si Si1 0.359719 0.398334 0.843010
Si Si2 0.227376 0.006871 0.919266
Si Si3 0.853173 0.870800 0.973363
Si Si4 0.573501 0.435253 0.042871
Si Si5 0.725553 0.397440 0.697912
Si Si6 0.500229 0.854664 0.248280
Si Si7 0.344193 0.227530 0.301577
Si Si8 0.664016 0.942696 0.071056
O O1 0.388460 0.530709 0.906360
O O2 0.478594 0.323877 0.805580
O O3 0.267187 0.544597 0.801101
O O4 0.282097 0.183647 0.869276
O O5 0.341269 0.900353 0.958907
O O6 0.162630 0.821122 0.873161
O O7 0.141165 0.087723 0.975149
O O8 0.941813 0.976425 0.023819
O O9 0.721477 0.936442 0.001071
O O10 0.582721 0.179045 0.074008
O O11 0.623537 0.669576 0.077977
O O12 0.615673 0.212156 0.705610
O O13 0.686184 0.590401 0.747744
O O14 0.737789 0.476860 0.626264
O O15 0.867699 0.346679 0.715472
O O16 0.467205 0.096198 0.281918
#
# Coordination Sequence:
#
# PCOD9345833 Si02
#       8
#     4   4   4   4   4   4   4   4
#     4  11  23  44  71 109 154 194 247 325 393 471
#     4  10  22  43  66 111 147 190 243 313 391 469
#     4  10  25  41  74 104 148 193 252 315 387 460
#     4  11  26  45  75 106 146 196 253 317 383 457
#     4  12  30  49  77 106 154 207 266 326 391 470
#     4  12  27  46  74 112 151 198 261 321 398 467
#     4  11  25  44  71 109 151 198 250 318 396 466
#     4  11  28  50  70 107 147 202 262 313 385 456
#
# _framework density 23.715174999999999
#
# number of rings (size 3 to 8) (size 9 to 14) (size 15 to 20)
#    0.000    1.000    3.750    0.000   12.250    1.000 
#    0.000    0.000    0.000    0.000    0.000    0.000 
#    0.000    0.000    0.000    0.000    0.000    0.000 
#
# Total GULP energy -178427.172852 kJ/mol
# GULP energy per Si atom -5575.849152 kJ/mol
# Density = 2.366120 g / cm^3
# Si number density = 23.715175 Si / 1000 Ang^3
#
#
#
# Elastic Constant Matrix: (Units=GPa)
#
#
# Indices 1 2 3 4 5 6 
#
# 1 85.1271 20.0312 14.2510 0.0000 0.0000 0.0000
# 2 20.0312 83.7079 9.1959 0.0000 0.0000 0.0000
# 3 14.2510 9.1959 63.9040 0.0000 0.0000 0.0000
# 4 0.0000 0.0000 0.0000 25.8933 0.0000 0.0000
# 5 0.0000 0.0000 0.0000 0.0000 30.5769 0.0000
# 6 0.0000 0.0000 0.0000 0.0000 0.0000 31.9826
#
#
#
# Elastic Compliance Matrix: (Units=1/GPa)
#
#
# Indices 1 2 3 4 5 6 
#
# 1 0.012816 -0.002797 -0.002456 0.000000 0.000000 0.000000
# 2 -0.002797 0.012749 -0.001211 0.000000 0.000000 0.000000
# 3 -0.002456 -0.001211 0.016370 0.000000 0.000000 0.000000
# 4 0.000000 0.000000 0.000000 0.038620 0.000000 0.000000
# 5 0.000000 0.000000 0.000000 0.000000 0.032704 0.000000
# 6 0.000000 0.000000 0.000000 0.000000 0.000000 0.031267
#
#
# Mechanical properties :
#
#
# Convention : Reuss Voigt Hill
#
# Bulk Modulus (GPa) = 34.47292 35.52168 34.99730
# Shear Modulus (GPa) = 29.91800 30.30795 30.11298
#
# Velocity S-wave (km/s) = 3.55569 3.57879 3.56726
# Velocity P-wave (km/s) = 5.60580 5.66462 5.63529
#
# Compressibility (1/GPa) = 0.02900828
#
# Stress axis : x y z
#
# Youngs Moduli (GPa) = 78.02478 78.43943 61.08613
#
# Poissons Ratio (x) = 0.21941 0.15000
# Poissons Ratio (y) = 0.21825 0.07396
# Poissons Ratio (z) = 0.19160 0.09497
#
# Static dielectric constant tensor:
#      x y z
#    x 1.975070 0.000000 0.000000 
#    y 0.000000 2.005060 0.000000 
#    z 0.000000 0.000000 1.915150 
# 
# From -- ./inp_files/9096.got.cif
#   From: 2010.05.17/outbox.cif.g08.bks.cpg/sg33_5_cif.got.tgz:9096.got - 2010.06.03 17:15:25.
