data_PCOD9345967
_publ_section_title
;
Structure prediction by ZEFSAII (Michael W. Deem and Ramdas Pophale) SiO2 
 PCOD9345967
Probable space group: P N A 21
;
_chemical_formula_sum "Si O2"
_cell_formula_units_Z 20
_cell_length_a 8.745567
_cell_length_b 4.786041
_cell_length_c 16.335756
_cell_angle_alpha 90.000000
_cell_angle_beta 90.000000
_cell_angle_gamma 90.000000
_cell_volume 683.759894
_symmetry_space_group_name_H-M "P N A 21"
_symmetry_group_IT_number 33
_symmetry_cell_setting 'orthorhombic'
loop_
_space_group_symop_operation_xyz
x,y,z
-x,-y,1/2+z
1/2-x,1/2+y,1/2+z
1/2+x,1/2-y,z
loop_
_atom_site_type_symbol
_atom_site_label
_atom_site_fract_x
_atom_site_fract_y
_atom_site_fract_z
Si Si1 0.893795 0.981385 0.857630
Si Si2 0.854247 0.552757 0.068582
Si Si3 0.207148 0.807043 0.711892
Si Si4 0.531834 0.866500 0.218529
Si Si5 0.876906 0.415707 0.460855
O O1 0.788566 0.814608 0.792664
O O2 0.015169 0.788837 0.905540
O O3 0.754980 0.094791 0.914988
O O4 0.987286 0.204158 0.802957
O O5 0.762890 0.328476 0.123039
O O6 0.733485 0.724811 0.016684
O O7 0.956059 0.737307 0.134329
O O8 0.991417 0.428567 0.012619
O O9 0.038501 0.679131 0.721302
O O10 0.286660 0.107540 0.710067
#
# Coordination Sequence:
#
# PCOD9345967 Si02
#       5
#     4   4   4   4   4
#     4  11  23  45  77 110 162 201 252 330 395 469
#     4   9  22  47  74 109 157 199 253 331 384 483
#     4  10  23  45  72 107 150 200 268 306 377 486
#     4  10  24  46  75 109 151 212 257 321 381 482
#     4  10  22  47  76 123 158 192 266 328 411 474
#
# _framework density 29.250035
#
# number of rings (size 3 to 8) (size 9 to 14) (size 15 to 20)
#    1.200    0.800    0.000    2.400    0.000    3.200 
#    7.200   18.000    0.000    0.000    0.000    0.000 
#    0.000    0.000    0.000    0.000    0.000    0.000 
#
# Total GULP energy -111677.218621 kJ/mol
# GULP energy per Si atom -5583.860931 kJ/mol
# Density = 2.918346 g / cm^3
# Si number density = 29.250035 Si / 1000 Ang^3
#
#
#
# Elastic Constant Matrix: (Units=GPa)
#
#
# Indices 1 2 3 4 5 6 
#
# 1 197.0455 30.8334 85.7605 0.0000 0.0000 0.0000
# 2 30.8334 59.3261 26.3191 0.0000 0.0000 0.0000
# 3 85.7605 26.3191 139.2569 0.0000 0.0000 0.0000
# 4 0.0000 0.0000 0.0000 32.9747 0.0000 0.0000
# 5 0.0000 0.0000 0.0000 0.0000 115.1835 0.0000
# 6 0.0000 0.0000 0.0000 0.0000 0.0000 59.5381
#
#
#
# Elastic Compliance Matrix: (Units=1/GPa)
#
#
# Indices 1 2 3 4 5 6 
#
# 1 0.007128 -0.001918 -0.004027 0.000000 0.000000 0.000000
# 2 -0.001918 0.018915 -0.002394 0.000000 0.000000 0.000000
# 3 -0.004027 -0.002394 0.010113 0.000000 0.000000 0.000000
# 4 0.000000 0.000000 0.000000 0.030326 0.000000 0.000000
# 5 0.000000 0.000000 0.000000 0.000000 0.008682 0.000000
# 6 0.000000 0.000000 0.000000 0.000000 0.000000 0.016796
#
#
# Mechanical properties :
#
#
# Convention : Reuss Voigt Hill
#
# Bulk Modulus (GPa) = 51.33872 75.71719 63.52795
# Shear Modulus (GPa) = 43.42902 58.38695 50.90799
#
# Velocity S-wave (km/s) = 3.85743 4.47266 4.17639
# Velocity P-wave (km/s) = 6.11796 7.25364 6.70987
#
# Compressibility (1/GPa) = 0.01947848
#
# Stress axis : x y z
#
# Youngs Moduli (GPa) = 140.29517 52.86894 98.87812
#
# Poissons Ratio (x) = 0.10140 0.39820
# Poissons Ratio (y) = 0.26908 0.23668
# Poissons Ratio (z) = 0.56499 0.12655
#
# Static dielectric constant tensor:
#      x y z
#    x 2.202030 0.000000 0.000000 
#    y 0.000000 2.496540 0.000000 
#    z 0.000000 0.000000 2.476350 
# 
# From -- ./inp_files/8414.got.cif
#   From: 2010.05.17/outbox.cif.g08.bks.cpg/sg33_5_cif.got.tgz:8414.got - 2010.06.03 17:15:25.
