data_PCOD9345341
_publ_section_title
;
Structure prediction by ZEFSAII (Michael W. Deem and Ramdas Pophale) SiO2 
 PCOD9345341
Probable space group: P N A 21
;
_chemical_formula_sum "Si O2"
_cell_formula_units_Z 24
_cell_length_a 9.014327
_cell_length_b 8.960670
_cell_length_c 11.079214
_cell_angle_alpha 90.000000
_cell_angle_beta 90.000000
_cell_angle_gamma 90.000000
_cell_volume 894.916969
_symmetry_space_group_name_H-M "P N A 21"
_symmetry_group_IT_number 33
_symmetry_cell_setting 'orthorhombic'
loop_
_space_group_symop_operation_xyz
x,y,z
-x,-y,1/2+z
1/2-x,1/2+y,1/2+z
1/2+x,1/2-y,z
loop_
_atom_site_type_symbol
_atom_site_label
_atom_site_fract_x
_atom_site_fract_y
_atom_site_fract_z
Si Si1 0.171636 0.054221 0.933130
Si Si2 0.836783 0.717683 0.612408
Si Si3 0.163217 0.282317 0.383954
Si Si4 0.171636 0.054221 0.563232
Si Si5 0.013301 0.686803 0.377754
Si Si6 0.986699 0.313197 0.618609
O O1 0.027258 0.136978 0.882073
O O2 0.315959 0.140148 0.880164
O O3 0.188361 0.882824 0.898568
O O4 0.182000 0.112384 0.070936
O O5 0.890432 0.702262 0.748181
O O6 0.688361 0.617176 0.597795
O O7 0.935214 0.645318 0.504816
O O8 0.182000 0.112384 0.425426
O O9 0.064786 0.354682 0.491546
O O10 0.027258 0.136978 0.614290
O O11 0.315959 0.140148 0.616198
O O12 0.953094 0.630488 0.248181
#
# Coordination Sequence:
#
# PCOD9345341 Si02
#       6
#     4   4   4   4   4   4
#     4  10  23  39  65  88 125 162 200 249 306 360
#     4  10  23  41  63  92 125 159 205 253 302 363
#     4  10  23  41  63  92 125 159 205 253 302 363
#     4  10  23  39  65  88 125 162 200 249 306 360
#     4  10  21  39  65  91 120 161 205 249 307 363
#     4  10  21  39  65  91 120 161 205 249 307 363
#
# _framework density 26.81813
#
# number of rings (size 3 to 8) (size 9 to 14) (size 15 to 20)
#    2.000    0.000    0.000    4.000    0.000    4.000 
#    0.000    0.000    0.000    0.000    0.000    0.000 
#    0.000    0.000    0.000    0.000    0.000    0.000 
#
# Total GULP energy -133723.112956 kJ/mol
# GULP energy per Si atom -5571.796373 kJ/mol
# Density = 2.675709 g / cm^3
# Si number density = 26.818130 Si / 1000 Ang^3
#
#
#
# Elastic Constant Matrix: (Units=GPa)
#
#
# Indices 1 2 3 4 5 6 
#
# 1 79.0280 12.0540 38.3782 0.0000 0.0000 0.0000
# 2 12.0540 99.7013 39.1138 0.0000 0.0000 0.0000
# 3 38.3782 39.1138 266.1387 0.0000 0.0000 0.0000
# 4 0.0000 0.0000 0.0000 0.5717 0.0000 0.0000
# 5 0.0000 0.0000 0.0000 0.0000 10.0786 0.0000
# 6 0.0000 0.0000 0.0000 0.0000 0.0000 47.0640
#
#
#
# Elastic Compliance Matrix: (Units=1/GPa)
#
#
# Indices 1 2 3 4 5 6 
#
# 1 0.013688 -0.000934 -0.001837 0.000000 0.000000 0.000000
# 2 -0.000934 0.010707 -0.001439 0.000000 0.000000 0.000000
# 3 -0.001837 -0.001439 0.004234 0.000000 0.000000 0.000000
# 4 0.000000 0.000000 0.000000 1.749138 0.000000 0.000000
# 5 0.000000 0.000000 0.000000 0.000000 0.099220 0.000000
# 6 0.000000 0.000000 0.000000 0.000000 0.000000 0.021248
#
#
# Mechanical properties :
#
#
# Convention : Reuss Voigt Hill
#
# Bulk Modulus (GPa) = 49.48149 69.32892 59.40520
# Shear Modulus (GPa) = 2.61316 35.23099 18.92207
#
# Velocity S-wave (km/s) = 0.98819 3.62843 2.65914
# Velocity P-wave (km/s) = 4.44891 6.59255 5.62381
#
# Compressibility (1/GPa) = 0.02020958
#
# Stress axis : x y z
#
# Youngs Moduli (GPa) = 73.05589 93.39310 236.19729
#
# Poissons Ratio (x) = 0.08727 0.43379
# Poissons Ratio (y) = 0.06826 0.33986
# Poissons Ratio (z) = 0.13417 0.13438
#
# Static dielectric constant tensor:
#      x y z
#    x 2.154890 0.000000 0.000000 
#    y 0.000000 2.113410 0.000000 
#    z 0.000000 0.000000 2.132890 
# 
# From -- ./inp_files/6373.got.cif
#   From: 2010.05.17/outbox.cif.g08.bks.cpg/sg33_4_cif.got.tgz:6373.got - 2010.06.03 17:15:25.
