data_PCOD9345529
_publ_section_title
;
Structure prediction by ZEFSAII (Michael W. Deem and Ramdas Pophale) SiO2 
 PCOD9345529
Probable space group: P N A 21
;
_chemical_formula_sum "Si O2"
_cell_formula_units_Z 32
_cell_length_a 9.618767
_cell_length_b 5.557689
_cell_length_c 22.466982
_cell_angle_alpha 90.000000
_cell_angle_beta 90.000000
_cell_angle_gamma 90.000000
_cell_volume 1201.042520
_symmetry_space_group_name_H-M "P N A 21"
_symmetry_group_IT_number 33
_symmetry_cell_setting 'orthorhombic'
loop_
_space_group_symop_operation_xyz
x,y,z
-x,-y,1/2+z
1/2-x,1/2+y,1/2+z
1/2+x,1/2-y,z
loop_
_atom_site_type_symbol
_atom_site_label
_atom_site_fract_x
_atom_site_fract_y
_atom_site_fract_z
Si Si1 0.949459 0.048669 0.603570
Si Si2 0.891154 0.146427 0.836402
Si Si3 0.826939 0.981424 0.393798
Si Si4 0.821184 0.392125 0.004752
Si Si5 0.729028 0.752181 0.778166
Si Si6 0.603331 0.050030 0.033071
Si Si7 0.673914 0.148558 0.634167
Si Si8 0.477558 0.985003 0.739633
O O1 0.913508 0.289720 0.563561
O O2 0.831259 0.093485 0.653581
O O3 0.109798 0.087853 0.621734
O O4 0.930072 0.785300 0.575318
O O5 0.010818 0.033466 0.878092
O O6 0.977241 0.336746 0.795888
O O7 0.768213 0.249953 0.877800
O O8 0.805212 0.003557 0.786141
O O9 0.784265 0.031725 0.461317
O O10 0.763229 0.161861 0.345774
O O11 0.755342 0.125351 0.009846
O O12 0.827647 0.508226 0.070810
O O13 0.980657 0.420674 0.984178
O O14 0.569659 0.758918 0.760866
O O15 0.818178 0.589182 0.733828
O O16 0.562459 0.059123 0.681933
#
# Coordination Sequence:
#
# PCOD9345529 Si02
#       8
#     4   4   4   4   4   4   4   4
#     4  10  22  43  65  97 143 187 230 283 339 432
#     4  11  23  44  65  99 133 174 236 289 349 410
#     4  11  23  44  70  99 136 180 232 294 351 419
#     4  10  22  43  65 102 136 182 228 283 358 423
#     4  11  24  46  68 102 130 182 235 288 350 412
#     4  10  21  43  65  96 143 184 235 278 343 424
#     4  10  24  43  65 103 138 183 227 285 360 425
#     4  11  25  44  71 100 137 180 233 294 352 421
#
# _framework density 26.643518
#
# number of rings (size 3 to 8) (size 9 to 14) (size 15 to 20)
#    0.000    1.500    2.500    1.500    1.750    4.000 
#   22.500    0.000    0.000    0.000    0.000    0.000 
#    0.000    0.000    0.000    0.000    0.000    0.000 
#
# Total GULP energy -178588.317488 kJ/mol
# GULP energy per Si atom -5580.884921 kJ/mol
# Density = 2.658288 g / cm^3
# Si number density = 26.643518 Si / 1000 Ang^3
#
#
#
# Elastic Constant Matrix: (Units=GPa)
#
#
# Indices 1 2 3 4 5 6 
#
# 1 99.0495 10.2496 -3.3712 0.0000 0.0000 0.0000
# 2 10.2496 68.9186 14.1637 0.0000 0.0000 0.0000
# 3 -3.3712 14.1637 98.0170 0.0000 0.0000 0.0000
# 4 0.0000 0.0000 0.0000 33.1790 0.0000 0.0000
# 5 0.0000 0.0000 0.0000 0.0000 37.6085 0.0000
# 6 0.0000 0.0000 0.0000 0.0000 0.0000 43.4705
#
#
#
# Elastic Compliance Matrix: (Units=1/GPa)
#
#
# Indices 1 2 3 4 5 6 
#
# 1 0.010287 -0.001652 0.000592 0.000000 0.000000 0.000000
# 2 -0.001652 0.015219 -0.002256 0.000000 0.000000 0.000000
# 3 0.000592 -0.002256 0.010549 0.000000 0.000000 0.000000
# 4 0.000000 0.000000 0.000000 0.030140 0.000000 0.000000
# 5 0.000000 0.000000 0.000000 0.000000 0.026590 0.000000
# 6 0.000000 0.000000 0.000000 0.000000 0.000000 0.023004
#
#
# Mechanical properties :
#
#
# Convention : Reuss Voigt Hill
#
# Bulk Modulus (GPa) = 33.98526 34.22990 34.10758
# Shear Modulus (GPa) = 37.81381 39.18113 38.49747
#
# Velocity S-wave (km/s) = 3.77138 3.83896 3.80532
# Velocity P-wave (km/s) = 5.63451 5.70311 5.66891
#
# Compressibility (1/GPa) = 0.02942452
#
# Stress axis : x y z
#
# Youngs Moduli (GPa) = 97.20967 65.70666 94.79848
#
# Poissons Ratio (x) = 0.10852 -0.05617
# Poissons Ratio (y) = 0.16056 0.21387
# Poissons Ratio (z) = -0.05760 0.14824
#
# Static dielectric constant tensor:
#      x y z
#    x 2.208070 0.000000 0.000000 
#    y 0.000000 2.192920 0.000000 
#    z 0.000000 0.000000 2.167020 
# 
# From -- ./inp_files/9108.got.cif
#   From: 2010.05.17/outbox.cif.g08.bks.cpg/sg33_5_cif.got.tgz:9108.got - 2010.06.03 17:15:25.
