data_PCOD9345953
_publ_section_title
;
Structure prediction by ZEFSAII (Michael W. Deem and Ramdas Pophale) SiO2 
 PCOD9345953
Probable space group: P N A 21
;
_chemical_formula_sum "Si O2"
_cell_formula_units_Z 28
_cell_length_a 22.226401
_cell_length_b 5.280573
_cell_length_c 9.277017
_cell_angle_alpha 90.000000
_cell_angle_beta 90.000000
_cell_angle_gamma 90.000000
_cell_volume 1088.826165
_symmetry_space_group_name_H-M "P N A 21"
_symmetry_group_IT_number 33
_symmetry_cell_setting 'orthorhombic'
loop_
_space_group_symop_operation_xyz
x,y,z
-x,-y,1/2+z
1/2-x,1/2+y,1/2+z
1/2+x,1/2-y,z
loop_
_atom_site_type_symbol
_atom_site_label
_atom_site_fract_x
_atom_site_fract_y
_atom_site_fract_z
Si Si1 0.932939 0.540017 0.215920
Si Si2 0.494573 0.546176 0.634798
Si Si3 0.342076 0.647769 0.040444
Si Si4 0.851026 0.513428 0.792311
Si Si5 0.559578 0.635307 0.381529
Si Si6 0.156605 0.558995 0.952840
Si Si7 0.778704 0.933204 0.329446
O O1 0.974631 0.311703 0.168294
O O2 0.907306 0.456357 0.370404
O O3 0.972786 0.792539 0.194949
O O4 0.874156 0.612652 0.120516
O O5 0.497710 0.552206 0.462130
O O6 0.434955 0.521186 0.731922
O O7 0.394147 0.449722 0.006503
O O8 0.329379 0.736219 0.877765
O O9 0.294935 0.549690 0.157758
O O10 0.915915 0.414250 0.846935
O O11 0.852044 0.480300 0.622067
O O12 0.791470 0.359271 0.841164
O O13 0.188729 0.306501 0.897184
O O14 0.193374 0.813470 0.905576
#
# Coordination Sequence:
#
# PCOD9345953 Si02
#       7
#     4   4   4   4   4   4   4
#     4  10  22  46  71  98 142 188 236 294 369 428
#     4  11  25  45  71 100 140 191 236 303 363 423
#     4  10  24  48  73 104 148 193 241 307 369 443
#     4  12  27  43  74 109 147 190 251 306 359 454
#     4  11  27  45  71 106 147 188 248 302 368 437
#     4  11  26  46  72 109 140 193 244 305 361 451
#     4  11  27  47  74 104 152 195 238 299 383 434
#
# _framework density 25.715768000000001
#
# number of rings (size 3 to 8) (size 9 to 14) (size 15 to 20)
#    0.000    1.143    1.429    3.429   12.000    1.143 
#    0.000    0.000    0.000    0.000    0.000    0.000 
#    0.000    0.000    0.000    0.000    0.000    0.000 
#
# Total GULP energy -156082.666559 kJ/mol
# GULP energy per Si atom -5574.380949 kJ/mol
# Density = 2.565724 g / cm^3
# Si number density = 25.715768 Si / 1000 Ang^3
#
#
#
# Elastic Constant Matrix: (Units=GPa)
#
#
# Indices 1 2 3 4 5 6 
#
# 1 36.2517 14.2230 20.7961 0.0000 0.0000 0.0000
# 2 14.2230 146.7293 43.0703 0.0000 0.0000 0.0000
# 3 20.7961 43.0703 147.1696 0.0000 0.0000 0.0000
# 4 0.0000 0.0000 0.0000 37.0291 0.0000 0.0000
# 5 0.0000 0.0000 0.0000 0.0000 29.4647 0.0000
# 6 0.0000 0.0000 0.0000 0.0000 0.0000 31.3482
#
#
#
# Elastic Compliance Matrix: (Units=1/GPa)
#
#
# Indices 1 2 3 4 5 6 
#
# 1 0.030470 -0.001848 -0.003765 0.000000 0.000000 0.000000
# 2 -0.001848 0.007568 -0.001954 0.000000 0.000000 0.000000
# 3 -0.003765 -0.001954 0.007899 0.000000 0.000000 0.000000
# 4 0.000000 0.000000 0.000000 0.027006 0.000000 0.000000
# 5 0.000000 0.000000 0.000000 0.000000 0.033939 0.000000
# 6 0.000000 0.000000 0.000000 0.000000 0.000000 0.031900
#
#
# Mechanical properties :
#
#
# Convention : Reuss Voigt Hill
#
# Bulk Modulus (GPa) = 32.46456 54.03658 43.25057
# Shear Modulus (GPa) = 30.45406 36.37248 33.41327
#
# Velocity S-wave (km/s) = 3.44504 3.76494 3.60853
# Velocity P-wave (km/s) = 5.33630 6.32126 5.84955
#
# Compressibility (1/GPa) = 0.03080282
#
# Stress axis : x y z
#
# Youngs Moduli (GPa) = 32.81944 132.13698 126.60492
#
# Poissons Ratio (x) = 0.24425 0.47662
# Poissons Ratio (y) = 0.06067 0.24734
# Poissons Ratio (z) = 0.12355 0.25814
#
# Static dielectric constant tensor:
#      x y z
#    x 2.371780 0.000000 0.000000 
#    y 0.000000 2.051790 0.000000 
#    z 0.000000 0.000000 2.166280 
# 
# From -- ./inp_files/5244.got.cif
#   From: 2010.05.17/outbox.cif.g08.bks.cpg/sg33_3_cif.got.tgz:5244.got - 2010.06.03 17:15:25.
