data_PCOD9345440
_publ_section_title
;
Structure prediction by ZEFSAII (Michael W. Deem and Ramdas Pophale) SiO2 
 PCOD9345440
Probable space group: P N A 21
;
_chemical_formula_sum "Si O2"
_cell_formula_units_Z 24
_cell_length_a 5.236675
_cell_length_b 7.625057
_cell_length_c 26.602741
_cell_angle_alpha 90.000000
_cell_angle_beta 90.000000
_cell_angle_gamma 90.000000
_cell_volume 1062.245995
_symmetry_space_group_name_H-M "P N A 21"
_symmetry_group_IT_number 33
_symmetry_cell_setting 'orthorhombic'
loop_
_space_group_symop_operation_xyz
x,y,z
-x,-y,1/2+z
1/2-x,1/2+y,1/2+z
1/2+x,1/2-y,z
loop_
_atom_site_type_symbol
_atom_site_label
_atom_site_fract_x
_atom_site_fract_y
_atom_site_fract_z
Si Si1 0.620952 0.320086 0.077070
Si Si2 0.879047 0.679915 0.464634
Si Si3 0.242866 0.872429 0.318984
Si Si4 0.742867 0.872429 0.722720
Si Si5 0.215936 0.364089 0.628759
Si Si6 0.284065 0.635911 0.912945
O O1 0.341398 0.301232 0.101156
O O2 0.729080 0.514966 0.080181
O O3 0.577515 0.250000 0.020852
O O4 0.658602 0.801232 0.440548
O O5 0.770920 0.485034 0.461524
O O6 0.486623 0.744023 0.318430
O O7 0.250000 1.000000 0.270852
O O8 0.248673 0.000177 0.367135
O O9 0.486623 0.755978 0.723275
O O10 0.748674 0.000177 0.674569
O O11 0.437307 0.219459 0.630540
O O12 0.562693 0.719460 0.911164
#
# Coordination Sequence:
#
# PCOD9345440 Si02
#       6
#     4   4   4   4   4   4
#     4  10  21  41  63  86 120 163 207 254 314 374
#     4  10  21  41  63  86 120 163 207 254 314 374
#     4  12  24  42  66  95 130 169 208 256 310 373
#     4  12  24  42  66  95 130 169 208 256 310 373
#     4  12  24  41  64  95 127 164 211 262 313 373
#     4  12  24  41  64  95 127 164 211 262 313 373
#
# _framework density 22.593637000000001
#
# number of rings (size 3 to 8) (size 9 to 14) (size 15 to 20)
#    0.000    0.667    0.000    9.000    0.000    0.000 
#    0.000   20.000    0.000    0.000    0.000    0.000 
#    0.000    0.000    0.000    0.000    0.000    0.000 
#
# Total GULP energy -134270.774593 kJ/mol
# GULP energy per Si atom -5594.615608 kJ/mol
# Density = 2.254221 g / cm^3
# Si number density = 22.593637 Si / 1000 Ang^3
#
#
#
# Elastic Constant Matrix: (Units=GPa)
#
#
# Indices 1 2 3 4 5 6 
#
# 1 150.4147 26.8434 -9.3675 0.0000 0.0000 0.0000
# 2 26.8434 112.3343 39.0025 0.0000 0.0000 0.0000
# 3 -9.3675 39.0025 88.4060 0.0000 0.0000 0.0000
# 4 0.0000 0.0000 0.0000 65.7344 0.0000 0.0000
# 5 0.0000 0.0000 0.0000 0.0000 19.1135 0.0000
# 6 0.0000 0.0000 0.0000 0.0000 0.0000 77.0863
#
#
#
# Elastic Compliance Matrix: (Units=1/GPa)
#
#
# Indices 1 2 3 4 5 6 
#
# 1 0.007177 -0.002337 0.001791 0.000000 0.000000 0.000000
# 2 -0.002337 0.011273 -0.005221 0.000000 0.000000 0.000000
# 3 0.001791 -0.005221 0.013805 0.000000 0.000000 0.000000
# 4 0.000000 0.000000 0.000000 0.015213 0.000000 0.000000
# 5 0.000000 0.000000 0.000000 0.000000 0.052319 0.000000
# 6 0.000000 0.000000 0.000000 0.000000 0.000000 0.012972
#
#
# Mechanical properties :
#
#
# Convention : Reuss Voigt Hill
#
# Bulk Modulus (GPa) = 48.25876 51.56799 49.91337
# Shear Modulus (GPa) = 38.10988 52.03193 45.07091
#
# Velocity S-wave (km/s) = 4.11147 4.80411 4.47122
# Velocity P-wave (km/s) = 6.62908 7.32436 6.98538
#
# Compressibility (1/GPa) = 0.02072163
#
# Stress axis : x y z
#
# Youngs Moduli (GPa) = 139.33545 88.70583 72.43918
#
# Poissons Ratio (x) = 0.20731 -0.12977
# Poissons Ratio (y) = 0.32563 0.37821
# Poissons Ratio (z) = -0.24962 0.46314
#
# Static dielectric constant tensor:
#      x y z
#    x 1.904920 0.000000 0.000000 
#    y 0.000000 1.842280 0.000000 
#    z 0.000000 0.000000 2.008960 
# 
# From -- ./inp_files/9307.got.cif
#   From: 2010.05.17/outbox.cif.g08.bks.cpg/sg33_5_cif.got.tgz:9307.got - 2010.06.03 17:15:25.
