data_PCOD9345631
_publ_section_title
;
Structure prediction by ZEFSAII (Michael W. Deem and Ramdas Pophale) SiO2 
 PCOD9345631
Probable space group: P N A 21
;
_chemical_formula_sum "Si O2"
_cell_formula_units_Z 32
_cell_length_a 13.784705
_cell_length_b 9.851858
_cell_length_c 11.640578
_cell_angle_alpha 90.000000
_cell_angle_beta 90.000000
_cell_angle_gamma 90.000000
_cell_volume 1580.848186
_symmetry_space_group_name_H-M "P N A 21"
_symmetry_group_IT_number 33
_symmetry_cell_setting 'orthorhombic'
loop_
_space_group_symop_operation_xyz
x,y,z
-x,-y,1/2+z
1/2-x,1/2+y,1/2+z
1/2+x,1/2-y,z
loop_
_atom_site_type_symbol
_atom_site_label
_atom_site_fract_x
_atom_site_fract_y
_atom_site_fract_z
Si Si1 0.359265 0.184030 0.987470
Si Si2 0.686844 0.523940 0.409886
Si Si3 0.313157 0.023940 0.638752
Si Si4 0.859264 0.184030 0.561168
Si Si5 0.203612 0.085792 0.173731
Si Si6 0.031084 0.200088 0.393125
Si Si7 0.531085 0.200090 0.155512
Si Si8 0.796390 0.585792 0.874907
O O1 0.326450 0.314302 0.914641
O O2 0.352844 0.051101 0.910015
O O3 0.288835 0.136798 0.091719
O O4 0.460994 0.216032 0.047850
O O5 0.750000 0.500000 0.524319
O O6 0.739528 0.453140 0.301153
O O7 0.581619 0.448380 0.403047
O O8 0.418382 0.948380 0.645591
O O9 0.260473 0.953140 0.747485
O O10 0.326451 0.185698 0.633997
O O11 0.788833 0.136798 0.456919
O O12 0.960993 0.216030 0.500786
O O13 0.852843 0.051100 0.638623
O O14 0.123273 0.200827 0.158168
O O15 0.979874 0.249998 0.274318
O O16 0.123271 0.299173 0.390469
#
# Coordination Sequence:
#
# PCOD9345631 Si02
#       8
#     4   4   4   4   4   4   4   4
#     4  11  22  40  65  85 129 164 199 266 313 367
#     4  11  22  39  64  88 125 164 204 257 313 375
#     4  11  22  39  64  88 125 164 204 257 313 375
#     4  11  22  40  65  85 129 164 199 266 313 367
#     4  10  23  41  60  95 122 163 212 252 315 381
#     4  10  22  38  63  95 120 158 212 256 311 385
#     4  10  22  38  63  95 120 158 212 256 311 385
#     4  10  23  41  60  95 122 163 212 252 315 381
#
# _framework density 20.242298000000002
#
# number of rings (size 3 to 8) (size 9 to 14) (size 15 to 20)
#    0.000    1.500    2.500    2.250    3.500    0.000 
#    0.000    0.000    5.500    0.000    0.000    0.000 
#    0.000    0.000    0.000    0.000    0.000    0.000 
#
# Total GULP energy -178180.763569 kJ/mol
# GULP energy per Si atom -5568.148862 kJ/mol
# Density = 2.019623 g / cm^3
# Si number density = 20.242298 Si / 1000 Ang^3
#
#
#
# Elastic Constant Matrix: (Units=GPa)
#
#
# Indices 1 2 3 4 5 6 
#
# 1 20.0050 7.6794 19.7056 0.0000 0.0000 0.0000
# 2 7.6794 145.7641 23.6080 0.0000 0.0000 0.0000
# 3 19.7056 23.6080 96.1770 0.0000 0.0000 0.0000
# 4 0.0000 0.0000 0.0000 33.9471 0.0000 0.0000
# 5 0.0000 0.0000 0.0000 0.0000 18.0643 0.0000
# 6 0.0000 0.0000 0.0000 0.0000 0.0000 18.3452
#
#
#
# Elastic Compliance Matrix: (Units=1/GPa)
#
#
# Indices 1 2 3 4 5 6 
#
# 1 0.062854 -0.001276 -0.012565 0.000000 0.000000 0.000000
# 2 -0.001276 0.007170 -0.001499 0.000000 0.000000 0.000000
# 3 -0.012565 -0.001499 0.013340 0.000000 0.000000 0.000000
# 4 0.000000 0.000000 0.000000 0.029458 0.000000 0.000000
# 5 0.000000 0.000000 0.000000 0.000000 0.055358 0.000000
# 6 0.000000 0.000000 0.000000 0.000000 0.000000 0.054510
#
#
# Mechanical properties :
#
#
# Convention : Reuss Voigt Hill
#
# Bulk Modulus (GPa) = 18.98082 40.43693 29.70888
# Shear Modulus (GPa) = 18.45488 28.13486 23.29487
#
# Velocity S-wave (km/s) = 3.02271 3.73219 3.39603
# Velocity P-wave (km/s) = 4.64538 6.21226 5.48505
#
# Compressibility (1/GPa) = 0.05268476
#
# Stress axis : x y z
#
# Youngs Moduli (GPa) = 15.90981 139.46322 74.96396
#
# Poissons Ratio (x) = 0.17801 0.94191
# Poissons Ratio (y) = 0.02031 0.11234
# Poissons Ratio (z) = 0.19990 0.20899
#
# Static dielectric constant tensor:
#      x y z
#    x 1.704280 0.000000 0.000000 
#    y 0.000000 1.727930 0.000000 
#    z 0.000000 0.000000 1.843000 
# 
# From -- ./inp_files/6767.got.cif
#   From: 2010.05.17/outbox.cif.g08.bks.cpg/sg33_4_cif.got.tgz:6767.got - 2010.06.03 17:15:25.
