data_PCOD9345169
_publ_section_title
;
Structure prediction by ZEFSAII (Michael W. Deem and Ramdas Pophale) SiO2 
 PCOD9345169
Probable space group: P N A 21
;
_chemical_formula_sum "Si O2"
_cell_formula_units_Z 32
_cell_length_a 8.963765
_cell_length_b 10.156493
_cell_length_c 14.069151
_cell_angle_alpha 90.000000
_cell_angle_beta 90.000000
_cell_angle_gamma 90.000000
_cell_volume 1280.861367
_symmetry_space_group_name_H-M "P N A 21"
_symmetry_group_IT_number 33
_symmetry_cell_setting 'orthorhombic'
loop_
_space_group_symop_operation_xyz
x,y,z
-x,-y,1/2+z
1/2-x,1/2+y,1/2+z
1/2+x,1/2-y,z
loop_
_atom_site_type_symbol
_atom_site_label
_atom_site_fract_x
_atom_site_fract_y
_atom_site_fract_z
Si Si1 0.006660 0.923396 0.631280
Si Si2 0.727296 0.194540 0.855233
Si Si3 0.082663 0.683811 0.896969
Si Si4 0.841970 0.155096 0.569393
Si Si5 0.750964 0.255479 0.063371
Si Si6 0.936827 0.356251 0.730295
Si Si7 0.043237 0.494884 0.564000
Si Si8 0.872859 0.922806 0.824679
O O1 0.879769 0.811614 0.626989
O O2 0.975654 0.970986 0.737046
O O3 0.165604 0.868347 0.606768
O O4 0.955791 0.034685 0.557279
O O5 0.588409 0.155479 0.789720
O O6 0.808163 0.319933 0.805989
O O7 0.835989 0.067173 0.869600
O O8 0.680732 0.230683 0.960973
O O9 0.200604 0.632617 0.818602
O O10 0.965113 0.794953 0.863031
O O11 0.178392 0.761244 0.975688
O O12 0.016396 0.565868 0.964016
O O13 0.682963 0.096875 0.594492
O O14 0.910665 0.242838 0.651784
O O15 0.879493 0.365337 0.051338
O O16 0.940251 0.481465 0.658451
#
# Coordination Sequence:
#
# PCOD9345169 Si02
#       8
#     4   4   4   4   4   4   4   4
#     4  11  23  46  64  93 141 180 224 289 353 409
#     4  12  25  43  71 105 139 179 238 291 345 417
#     4  11  24  41  71  99 133 178 235 285 346 415
#     4  10  20  45  68  95 136 176 226 279 352 412
#     4  11  25  44  64  98 141 183 226 290 352 409
#     4  11  22  44  70  98 133 183 224 286 341 416
#     4  10  22  44  67  98 138 183 226 280 348 420
#     4  12  25  45  69 102 137 182 237 296 339 420
#
# _framework density 24.98319
#
# number of rings (size 3 to 8) (size 9 to 14) (size 15 to 20)
#    0.000    1.000    3.750    3.000    3.500    1.000 
#    2.250    0.000    0.000    0.000    0.000    0.000 
#    0.000    0.000    0.000    0.000    0.000    0.000 
#
# Total GULP energy -178677.959785 kJ/mol
# GULP energy per Si atom -5583.686243 kJ/mol
# Density = 2.492633 g / cm^3
# Si number density = 24.983190 Si / 1000 Ang^3
#
#
#
# Elastic Constant Matrix: (Units=GPa)
#
#
# Indices 1 2 3 4 5 6 
#
# 1 72.4932 27.7845 28.7594 0.0000 0.0000 0.0000
# 2 27.7845 49.6188 4.9003 0.0000 0.0000 0.0000
# 3 28.7594 4.9003 58.5375 0.0000 0.0000 0.0000
# 4 0.0000 0.0000 0.0000 3.0525 0.0000 0.0000
# 5 0.0000 0.0000 0.0000 0.0000 0.5375 0.0000
# 6 0.0000 0.0000 0.0000 0.0000 0.0000 42.4832
#
#
#
# Elastic Compliance Matrix: (Units=1/GPa)
#
#
# Indices 1 2 3 4 5 6 
#
# 1 0.022086 -0.011390 -0.009898 0.000000 0.000000 0.000000
# 2 -0.011390 0.026195 0.003403 0.000000 0.000000 0.000000
# 3 -0.009898 0.003403 0.021661 0.000000 0.000000 0.000000
# 4 0.000000 0.000000 0.000000 0.327597 0.000000 0.000000
# 5 0.000000 0.000000 0.000000 0.000000 1.860359 0.000000
# 6 0.000000 0.000000 0.000000 0.000000 0.000000 0.023539
#
#
# Mechanical properties :
#
#
# Convention : Reuss Voigt Hill
#
# Bulk Modulus (GPa) = 29.26229 33.72643 31.49436
# Shear Modulus (GPa) = 2.14722 17.16167 9.65444
#
# Velocity S-wave (km/s) = 0.92808 2.62378 1.96793
# Velocity P-wave (km/s) = 3.58980 4.76528 4.21868
#
# Compressibility (1/GPa) = 0.03417368
#
# Stress axis : x y z
#
# Youngs Moduli (GPa) = 45.27675 38.17450 46.16625
#
# Poissons Ratio (x) = 0.43481 0.45693
# Poissons Ratio (y) = 0.51570 -0.15710
# Poissons Ratio (z) = 0.44813 -0.12991
#
# Static dielectric constant tensor:
#      x y z
#    x 1.939480 0.000000 0.000000 
#    y 0.000000 2.015030 0.000000 
#    z 0.000000 0.000000 1.945550 
# 
# From -- ./inp_files/7650.got.cif
#   From: 2010.05.17/outbox.cif.g08.bks.cpg/sg33_4_cif.got.tgz:7650.got - 2010.06.03 17:15:25.
