data_PCOD9345252
_publ_section_title
;
Structure prediction by ZEFSAII (Michael W. Deem and Ramdas Pophale) SiO2 
 PCOD9345252
Probable space group: P N A 21
;
_chemical_formula_sum "Si O2"
_cell_formula_units_Z 32
_cell_length_a 20.654372
_cell_length_b 12.486036
_cell_length_c 5.217382
_cell_angle_alpha 90.000000
_cell_angle_beta 90.000000
_cell_angle_gamma 90.000000
_cell_volume 1345.517074
_symmetry_space_group_name_H-M "P N A 21"
_symmetry_group_IT_number 33
_symmetry_cell_setting 'orthorhombic'
loop_
_space_group_symop_operation_xyz
x,y,z
-x,-y,1/2+z
1/2-x,1/2+y,1/2+z
1/2+x,1/2-y,z
loop_
_atom_site_type_symbol
_atom_site_label
_atom_site_fract_x
_atom_site_fract_y
_atom_site_fract_z
Si Si1 0.137829 0.257533 0.370020
Si Si2 0.333088 0.269011 0.145747
Si Si3 0.439032 0.420972 0.963383
Si Si4 0.940537 0.863013 0.227443
Si Si5 0.238664 0.838934 0.135883
Si Si6 0.927019 0.575848 0.540239
Si Si7 0.657349 0.460808 0.105536
Si Si8 0.579279 0.935328 0.541107
O O1 0.074315 0.232740 0.538361
O O2 0.188905 0.317665 0.546225
O O3 0.116082 0.322417 0.120011
O O4 0.165061 0.140255 0.294269
O O5 0.302280 0.271685 0.425869
O O6 0.370146 0.160382 0.078485
O O7 0.387654 0.361396 0.140480
O O8 0.281569 0.301508 0.921777
O O9 0.500107 0.345470 0.915986
O O10 0.396242 0.457664 0.720596
O O11 0.464011 0.532578 0.073485
O O12 0.874801 0.904690 0.360173
O O13 0.219552 0.963662 0.089104
O O14 0.912629 0.520959 0.269955
O O15 0.003805 0.599936 0.555071
O O16 0.912425 0.490908 0.766459
#
# Coordination Sequence:
#
# PCOD9345252 Si02
#       8
#     4   4   4   4   4   4   4   4
#     4  11  28  43  71 102 139 195 241 291 356 426
#     4  11  24  44  72  99 135 192 231 292 358 421
#     4  10  21  37  67 103 146 177 224 300 368 435
#     4  11  21  39  66 107 142 180 230 293 373 435
#     4  11  26  48  68  99 145 182 243 286 339 430
#     4  10  24  44  67  99 139 179 233 303 349 424
#     4  10  23  43  67 101 139 184 232 289 360 422
#     4  10  23  44  68 100 137 177 236 290 363 421
#
# _framework density 23.782679999999999
#
# number of rings (size 3 to 8) (size 9 to 14) (size 15 to 20)
#    0.000    1.500    2.500    0.750    5.250    5.000 
#    2.250    0.000    0.000    0.000    0.000    0.000 
#    0.000    0.000    0.000    0.000    0.000    0.000 
#
# Total GULP energy -179076.469784 kJ/mol
# GULP energy per Si atom -5596.139681 kJ/mol
# Density = 2.372855 g / cm^3
# Si number density = 23.782680 Si / 1000 Ang^3
#
#
#
# Elastic Constant Matrix: (Units=GPa)
#
#
# Indices 1 2 3 4 5 6 
#
# 1 80.8558 40.7153 7.4881 0.0000 0.0000 0.0000
# 2 40.7153 101.9019 15.0333 0.0000 0.0000 0.0000
# 3 7.4881 15.0333 73.9497 0.0000 0.0000 0.0000
# 4 0.0000 0.0000 0.0000 31.8771 0.0000 0.0000
# 5 0.0000 0.0000 0.0000 0.0000 23.5201 0.0000
# 6 0.0000 0.0000 0.0000 0.0000 0.0000 33.5007
#
#
#
# Elastic Compliance Matrix: (Units=1/GPa)
#
#
# Indices 1 2 3 4 5 6 
#
# 1 0.015490 -0.006142 -0.000320 0.000000 0.000000 0.000000
# 2 -0.006142 0.012552 -0.001930 0.000000 0.000000 0.000000
# 3 -0.000320 -0.001930 0.013947 0.000000 0.000000 0.000000
# 4 0.000000 0.000000 0.000000 0.031371 0.000000 0.000000
# 5 0.000000 0.000000 0.000000 0.000000 0.042517 0.000000
# 6 0.000000 0.000000 0.000000 0.000000 0.000000 0.029850
#
#
# Mechanical properties :
#
#
# Convention : Reuss Voigt Hill
#
# Bulk Modulus (GPa) = 39.67262 42.57566 41.12414
# Shear Modulus (GPa) = 29.25472 30.67761 29.96616
#
# Velocity S-wave (km/s) = 3.51106 3.59543 3.55350
# Velocity P-wave (km/s) = 5.75797 5.93102 5.84514
#
# Compressibility (1/GPa) = 0.02520630
#
# Stress axis : x y z
#
# Youngs Moduli (GPa) = 64.55723 79.66799 71.69791
#
# Poissons Ratio (x) = 0.48932 0.02294
# Poissons Ratio (y) = 0.39651 0.13836
# Poissons Ratio (z) = 0.02065 0.15374
#
# Static dielectric constant tensor:
#      x y z
#    x 1.948530 0.000000 0.000000 
#    y 0.000000 1.892150 0.000000 
#    z 0.000000 0.000000 1.925160 
# 
# From -- ./inp_files/2051.got.cif
#   From: 2010.05.17/outbox.cif.g08.bks.cpg/sg33_2_cif.got.tgz:2051.got - 2010.06.03 17:15:25.
