data_PCOD9345562
_publ_section_title
;
Structure prediction by ZEFSAII (Michael W. Deem and Ramdas Pophale) SiO2 
 PCOD9345562
Probable space group: P N A 21
;
_chemical_formula_sum "Si O2"
_cell_formula_units_Z 28
_cell_length_a 10.201895
_cell_length_b 14.532226
_cell_length_c 9.129940
_cell_angle_alpha 90.000000
_cell_angle_beta 90.000000
_cell_angle_gamma 90.000000
_cell_volume 1353.570610
_symmetry_space_group_name_H-M "P N A 21"
_symmetry_group_IT_number 33
_symmetry_cell_setting 'orthorhombic'
loop_
_space_group_symop_operation_xyz
x,y,z
-x,-y,1/2+z
1/2-x,1/2+y,1/2+z
1/2+x,1/2-y,z
loop_
_atom_site_type_symbol
_atom_site_label
_atom_site_fract_x
_atom_site_fract_y
_atom_site_fract_z
Si Si1 0.934452 0.039144 0.822710
Si Si2 0.106118 0.909361 0.646239
Si Si3 0.143396 0.384679 0.343583
Si Si4 0.315934 0.670735 0.348342
Si Si5 0.460443 0.770034 0.598604
Si Si6 0.695897 0.144001 0.673018
Si Si7 0.537164 0.922068 0.367423
O O1 0.810085 0.080418 0.739168
O O2 0.056234 0.110635 0.810209
O O3 0.898638 0.034138 0.994442
O O4 0.988952 0.946838 0.748778
O O5 0.241120 0.916380 0.733545
O O6 0.077908 0.803433 0.603818
O O7 0.076648 0.300140 0.260636
O O8 0.202077 0.357866 0.499276
O O9 0.043369 0.468199 0.374330
O O10 0.349618 0.716886 0.505127
O O11 0.292202 0.753762 0.236810
O O12 0.186727 0.610115 0.350849
O O13 0.488029 0.863668 0.507775
O O14 0.557104 0.107473 0.734990
#
# Coordination Sequence:
#
# PCOD9345562 Si02
#       7
#     4   4   4   4   4   4   4
#     4  11  23  42  69  97 129 177 220 275 332 393
#     4  11  23  43  68  96 134 173 228 271 333 404
#     4  12  24  42  63  99 132 169 220 276 325 397
#     4  10  21  44  68  89 131 176 217 264 338 395
#     4  10  23  41  67  96 130 174 218 274 336 392
#     4  11  24  38  65  97 130 167 223 268 325 392
#     4  11  22  44  66  92 128 178 216 266 331 397
#
# _framework density 20.686028
#
# number of rings (size 3 to 8) (size 9 to 14) (size 15 to 20)
#    0.000    1.143    1.429    6.857    2.000    3.429 
#    2.571    0.000    0.000    0.000    0.000    0.000 
#    0.000    0.000    0.000    0.000    0.000    0.000 
#
# Total GULP energy -156501.227399 kJ/mol
# GULP energy per Si atom -5589.329550 kJ/mol
# Density = 2.063895 g / cm^3
# Si number density = 20.686028 Si / 1000 Ang^3
#
#
#
# Elastic Constant Matrix: (Units=GPa)
#
#
# Indices 1 2 3 4 5 6 
#
# 1 72.2583 4.1137 8.7902 0.0000 0.0000 0.0000
# 2 4.1137 52.8192 7.0662 0.0000 0.0000 0.0000
# 3 8.7902 7.0662 108.7716 0.0000 0.0000 0.0000
# 4 0.0000 0.0000 0.0000 28.3857 0.0000 0.0000
# 5 0.0000 0.0000 0.0000 0.0000 17.8669 0.0000
# 6 0.0000 0.0000 0.0000 0.0000 0.0000 -0.6656
#
#
#
# Elastic Compliance Matrix: (Units=1/GPa)
#
#
# Indices 1 2 3 4 5 6 
#
# 1 0.014024 -0.000949 -0.001072 0.000000 0.000000 0.000000
# 2 -0.000949 0.019163 -0.001168 0.000000 0.000000 0.000000
# 3 -0.001072 -0.001168 0.009356 0.000000 0.000000 0.000000
# 4 0.000000 0.000000 0.000000 0.035229 0.000000 0.000000
# 5 0.000000 0.000000 0.000000 0.000000 0.055969 0.000000
# 6 0.000000 0.000000 0.000000 0.000000 0.000000 -1.502424
#
#
# Mechanical properties :
#
#
# Convention : Reuss Voigt Hill
#
# Bulk Modulus (GPa) = 27.65103 30.42104 29.03604
# Shear Modulus (GPa) = -3.70302 23.37600 9.83649
#
# Velocity S-wave (km/s) = -1.33940 3.36525 2.18299
# Velocity P-wave (km/s) = 3.31723 5.46241 4.51896
#
# Compressibility (1/GPa) = 0.03616501
#
# Stress axis : x y z
#
# Youngs Moduli (GPa) = 71.30821 52.18469 106.88248
#
# Poissons Ratio (x) = 0.04951 0.11454
# Poissons Ratio (y) = 0.06766 0.12486
# Poissons Ratio (z) = 0.07642 0.06096
#
# Static dielectric constant tensor:
#      x y z
#    x 1.737620 0.000000 0.000000 
#    y 0.000000 1.790300 0.000000 
#    z 0.000000 0.000000 1.731390 
# 
# From -- ./inp_files/3205.got.cif
#   From: 2010.05.17/outbox.cif.g08.bks.cpg/sg33_2_cif.got.tgz:3205.got - 2010.06.03 17:15:25.
