data_PCOD9345171
_publ_section_title
;
Structure prediction by ZEFSAII (Michael W. Deem and Ramdas Pophale) SiO2 
 PCOD9345171
Probable space group: P N A 21
;
_chemical_formula_sum "Si O2"
_cell_formula_units_Z 28
_cell_length_a 5.169148
_cell_length_b 11.831453
_cell_length_c 17.987880
_cell_angle_alpha 90.000000
_cell_angle_beta 90.000000
_cell_angle_gamma 90.000000
_cell_volume 1100.112328
_symmetry_space_group_name_H-M "P N A 21"
_symmetry_group_IT_number 33
_symmetry_cell_setting 'orthorhombic'
loop_
_space_group_symop_operation_xyz
x,y,z
-x,-y,1/2+z
1/2-x,1/2+y,1/2+z
1/2+x,1/2-y,z
loop_
_atom_site_type_symbol
_atom_site_label
_atom_site_fract_x
_atom_site_fract_y
_atom_site_fract_z
Si Si1 0.147220 0.998168 0.424270
Si Si2 0.438867 0.320132 0.532985
Si Si3 0.827391 0.824281 0.345727
Si Si4 0.587958 0.367383 0.127981
Si Si5 0.270050 0.672698 0.800076
Si Si6 0.583544 0.116130 0.062840
Si Si7 0.360013 0.677107 0.184912
O O1 0.257467 0.058248 0.349484
O O2 0.024672 0.101949 0.467209
O O3 0.324870 0.929236 0.483121
O O4 0.915852 0.913648 0.404869
O O5 0.639527 0.213469 0.529613
O O6 0.534602 0.375074 0.610037
O O7 0.537741 0.777739 0.351582
O O8 0.886217 0.878600 0.264887
O O9 0.697328 0.349888 0.211009
O O10 0.550659 0.251141 0.078647
O O11 0.297401 0.412265 0.125397
O O12 0.807085 0.434375 0.083659
O O13 0.526850 0.746350 0.816635
O O14 0.562334 0.783691 0.185004
#
# Coordination Sequence:
#
# PCOD9345171 Si02
#       7
#     4   4   4   4   4   4   4
#     4  12  28  40  70 110 141 180 236 294 362 416
#     4  10  22  43  66  92 133 177 219 280 337 407
#     4  10  24  43  64  92 135 177 217 280 339 407
#     4  10  20  45  71  92 138 191 231 284 351 421
#     4  12  24  47  73 103 146 192 240 301 359 432
#     4  10  22  39  67 101 129 183 235 286 341 423
#     4   8  16  37  63  82 114 166 214 253 323 388
#
# _framework density 25.451947000000001
#
# number of rings (size 3 to 8) (size 9 to 14) (size 15 to 20)
#    0.000    1.714    2.857    0.857    4.000    5.714 
#    0.000    7.143    0.000    0.000    0.000    0.000 
#    0.000    0.000    0.000    0.000    0.000    0.000 
#
# Total GULP energy -156337.952528 kJ/mol
# GULP energy per Si atom -5583.498305 kJ/mol
# Density = 2.539402 g / cm^3
# Si number density = 25.451947 Si / 1000 Ang^3
#
#
#
# Elastic Constant Matrix: (Units=GPa)
#
#
# Indices 1 2 3 4 5 6 
#
# 1 104.1945 -12.0809 19.5112 0.0000 0.0000 0.0000
# 2 -12.0809 55.4805 33.3173 0.0000 0.0000 0.0000
# 3 19.5112 33.3173 124.3235 0.0000 0.0000 0.0000
# 4 0.0000 0.0000 0.0000 -32.0027 0.0000 0.0000
# 5 0.0000 0.0000 0.0000 0.0000 28.4220 0.0000
# 6 0.0000 0.0000 0.0000 0.0000 0.0000 -86.5868
#
#
#
# Elastic Compliance Matrix: (Units=1/GPa)
#
#
# Indices 1 2 3 4 5 6 
#
# 1 0.010560 0.003927 -0.002710 0.000000 0.000000 0.000000
# 2 0.003927 0.022941 -0.006764 0.000000 0.000000 0.000000
# 3 -0.002710 -0.006764 0.010282 0.000000 0.000000 0.000000
# 4 0.000000 0.000000 0.000000 -0.031247 0.000000 0.000000
# 5 0.000000 0.000000 0.000000 0.000000 0.035184 0.000000
# 6 0.000000 0.000000 0.000000 0.000000 0.000000 -0.011549
#
#
# Mechanical properties :
#
#
# Convention : Reuss Voigt Hill
#
# Bulk Modulus (GPa) = 30.59171 40.61041 35.60106
# Shear Modulus (GPa) = 85.96769 -1.81677 42.07546
#
# Velocity S-wave (km/s) = 5.81806 -0.84579 4.07028
# Velocity P-wave (km/s) = 7.56165 3.87770 6.00896
#
# Compressibility (1/GPa) = 0.03268860
#
# Stress axis : x y z
#
# Youngs Moduli (GPa) = 94.69606 43.58917 97.26177
#
# Poissons Ratio (x) = -0.17116 0.26354
# Poissons Ratio (y) = -0.37184 0.65791
# Poissons Ratio (z) = 0.25659 0.29485
#
# Static dielectric constant tensor:
#      x y z
#    x 2.013770 0.000000 0.000000 
#    y 0.000000 2.190760 0.000000 
#    z 0.000000 0.000000 2.053570 
# 
# From -- ./inp_files/8344.got.cif
#   From: 2010.05.17/outbox.cif.g08.bks.cpg/sg33_5_cif.got.tgz:8344.got - 2010.06.03 17:15:25.
