data_PCOD9345410
_publ_section_title
;
Structure prediction by ZEFSAII (Michael W. Deem and Ramdas Pophale) SiO2 
 PCOD9345410
Probable space group: P N A 21
;
_chemical_formula_sum "Si O2"
_cell_formula_units_Z 32
_cell_length_a 13.901477
_cell_length_b 8.247487
_cell_length_c 11.277507
_cell_angle_alpha 90.000000
_cell_angle_beta 90.000000
_cell_angle_gamma 90.000000
_cell_volume 1292.991561
_symmetry_space_group_name_H-M "P N A 21"
_symmetry_group_IT_number 33
_symmetry_cell_setting 'orthorhombic'
loop_
_space_group_symop_operation_xyz
x,y,z
-x,-y,1/2+z
1/2-x,1/2+y,1/2+z
1/2+x,1/2-y,z
loop_
_atom_site_type_symbol
_atom_site_label
_atom_site_fract_x
_atom_site_fract_y
_atom_site_fract_z
Si Si1 0.740165 0.896625 0.807140
Si Si2 0.941911 0.562141 0.186460
Si Si3 0.605462 0.162003 0.271246
Si Si4 0.812486 0.224782 0.558095
Si Si5 0.670740 0.971535 0.486519
Si Si6 0.456560 0.412555 0.398689
Si Si7 0.158499 0.099512 0.704215
Si Si8 0.371027 0.397837 0.963387
O O1 0.640119 0.951917 0.751050
O O2 0.807836 0.778550 0.728188
O O3 0.717674 0.816230 0.936066
O O4 0.807483 0.042443 0.852306
O O5 0.912956 0.745135 0.220255
O O6 0.041713 0.469323 0.202861
O O7 0.922184 0.548085 0.048085
O O8 0.529006 0.287631 0.331849
O O9 0.663910 0.045901 0.358589
O O10 0.919804 0.172076 0.520892
O O11 0.763721 0.321275 0.667904
O O12 0.758131 0.052299 0.555976
O O13 0.661224 0.782316 0.489079
O O14 0.371562 0.477268 0.311172
O O15 0.518803 0.571376 0.429157
O O16 0.139115 0.002888 0.582678
#
# Coordination Sequence:
#
# PCOD9345410 Si02
#       8
#     4   4   4   4   4   4   4   4
#     4   9  20  38  62  90 129 170 213 276 331 398
#     4  11  20  40  65  90 134 171 217 275 339 404
#     4  10  21  40  68  93 128 170 224 272 345 400
#     4   9  20  40  60  91 130 174 218 279 340 402
#     4  10  22  41  61  92 131 163 216 284 324 414
#     4  11  20  40  67  91 132 183 215 289 352 405
#     4  10  23  40  62  95 132 175 227 279 349 418
#     4  10  22  41  61  94 134 164 234 280 334 419
#
# _framework density 24.748809999999999
#
# number of rings (size 3 to 8) (size 9 to 14) (size 15 to 20)
#    0.000    2.000    1.250    3.750    1.750    0.000 
#   13.500    5.000    0.000    0.000    0.000    0.000 
#    0.000    0.000    0.000    0.000    0.000    0.000 
#
# Total GULP energy -178413.473941 kJ/mol
# GULP energy per Si atom -5575.421061 kJ/mol
# Density = 2.469248 g / cm^3
# Si number density = 24.748810 Si / 1000 Ang^3
#
#
#
# Elastic Constant Matrix: (Units=GPa)
#
#
# Indices 1 2 3 4 5 6 
#
# 1 112.4852 45.6906 34.0107 0.0000 0.0000 0.0000
# 2 45.6906 134.2185 34.8264 0.0000 0.0000 0.0000
# 3 34.0107 34.8264 65.6956 0.0000 0.0000 0.0000
# 4 0.0000 0.0000 0.0000 41.2662 0.0000 0.0000
# 5 0.0000 0.0000 0.0000 0.0000 30.7783 0.0000
# 6 0.0000 0.0000 0.0000 0.0000 0.0000 36.2455
#
#
#
# Elastic Compliance Matrix: (Units=1/GPa)
#
#
# Indices 1 2 3 4 5 6 
#
# 1 0.011329 -0.002707 -0.004430 0.000000 0.000000 0.000000
# 2 -0.002707 0.009286 -0.003521 0.000000 0.000000 0.000000
# 3 -0.004430 -0.003521 0.019382 0.000000 0.000000 0.000000
# 4 0.000000 0.000000 0.000000 0.024233 0.000000 0.000000
# 5 0.000000 0.000000 0.000000 0.000000 0.032490 0.000000
# 6 0.000000 0.000000 0.000000 0.000000 0.000000 0.027590
#
#
# Mechanical properties :
#
#
# Convention : Reuss Voigt Hill
#
# Bulk Modulus (GPa) = 53.53267 60.16163 56.84715
# Shear Modulus (GPa) = 32.92667 34.84944 33.88806
#
# Velocity S-wave (km/s) = 3.65147 3.75657 3.70439
# Velocity P-wave (km/s) = 6.28132 6.57095 6.42777
#
# Compressibility (1/GPa) = 0.01868018
#
# Stress axis : x y z
#
# Youngs Moduli (GPa) = 88.26802 107.69199 51.59510
#
# Poissons Ratio (x) = 0.29154 0.22856
# Poissons Ratio (y) = 0.23896 0.18167
# Poissons Ratio (z) = 0.39103 0.37919
#
# Static dielectric constant tensor:
#      x y z
#    x 2.106430 0.000000 0.000000 
#    y 0.000000 1.987000 0.000000 
#    z 0.000000 0.000000 2.019160 
# 
# From -- ./inp_files/8185.got.cif
#   From: 2010.05.17/outbox.cif.g08.bks.cpg/sg33_5_cif.got.tgz:8185.got - 2010.06.03 17:15:25.
