data_PCOD9345760
_publ_section_title
;
Structure prediction by ZEFSAII (Michael W. Deem and Ramdas Pophale) SiO2 
 PCOD9345760
Probable space group: P N A 21
;
_chemical_formula_sum "Si O2"
_cell_formula_units_Z 28
_cell_length_a 5.398856
_cell_length_b 16.291232
_cell_length_c 12.460356
_cell_angle_alpha 90.000000
_cell_angle_beta 90.000000
_cell_angle_gamma 90.000000
_cell_volume 1095.938346
_symmetry_space_group_name_H-M "P N A 21"
_symmetry_group_IT_number 33
_symmetry_cell_setting 'orthorhombic'
loop_
_space_group_symop_operation_xyz
x,y,z
-x,-y,1/2+z
1/2-x,1/2+y,1/2+z
1/2+x,1/2-y,z
loop_
_atom_site_type_symbol
_atom_site_label
_atom_site_fract_x
_atom_site_fract_y
_atom_site_fract_z
Si Si1 0.501709 0.802190 0.266460
Si Si2 0.834257 0.726440 0.558827
Si Si3 0.113763 0.059261 0.440729
Si Si4 0.286488 0.706217 0.798597
Si Si5 0.942800 0.538020 0.607199
Si Si6 0.693948 0.594916 0.128554
Si Si7 0.706017 0.446935 0.800419
O O1 0.249137 0.751471 0.277100
O O2 0.432979 0.848871 0.153260
O O3 0.576603 0.883967 0.333758
O O4 0.571218 0.735210 0.500829
O O5 0.800730 0.779099 0.669385
O O6 0.892034 0.632556 0.585012
O O7 0.954650 0.115521 0.521930
O O8 0.208275 0.114114 0.342371
O O9 0.932778 0.989794 0.396123
O O10 0.320694 0.015512 0.512118
O O11 0.534282 0.751862 0.836615
O O12 0.815658 0.515152 0.720364
O O13 0.215606 0.499609 0.619215
O O14 0.501681 0.597739 0.227107
#
# Coordination Sequence:
#
# PCOD9345760 Si02
#       7
#     4   4   4   4   4   4   4
#     4  11  22  44  72  99 138 189 246 299 362 427
#     4  10  22  41  70  98 135 186 234 290 354 425
#     4  11  25  43  70 109 146 189 247 302 370 446
#     4  10  23  40  65 104 140 178 231 296 357 423
#     4  10  24  42  68 102 148 191 241 296 377 442
#     4  10  24  42  70 103 143 194 237 301 373 444
#     4  10  22  44  71 101 140 201 240 302 365 451
#
# _framework density 25.548881999999999
#
# number of rings (size 3 to 8) (size 9 to 14) (size 15 to 20)
#    0.000    1.714    1.429    1.714   10.000    3.429 
#    0.000    1.429    0.000    0.000    0.000    0.000 
#    0.000    0.000    0.000    0.000    0.000    0.000 
#
# Total GULP energy -156592.651133 kJ/mol
# GULP energy per Si atom -5592.594683 kJ/mol
# Density = 2.549073 g / cm^3
# Si number density = 25.548882 Si / 1000 Ang^3
#
#
#
# Elastic Constant Matrix: (Units=GPa)
#
#
# Indices 1 2 3 4 5 6 
#
# 1 167.9617 49.3308 24.0814 0.0000 0.0000 0.0000
# 2 49.3308 99.4109 35.1058 0.0000 0.0000 0.0000
# 3 24.0814 35.1058 93.9313 0.0000 0.0000 0.0000
# 4 0.0000 0.0000 0.0000 24.6501 0.0000 0.0000
# 5 0.0000 0.0000 0.0000 0.0000 -3.6109 0.0000
# 6 0.0000 0.0000 0.0000 0.0000 0.0000 47.4401
#
#
#
# Elastic Compliance Matrix: (Units=1/GPa)
#
#
# Indices 1 2 3 4 5 6 
#
# 1 0.006996 -0.003270 -0.000572 0.000000 0.000000 0.000000
# 2 -0.003270 0.013117 -0.004064 0.000000 0.000000 0.000000
# 3 -0.000572 -0.004064 0.012312 0.000000 0.000000 0.000000
# 4 0.000000 0.000000 0.000000 0.040568 0.000000 0.000000
# 5 0.000000 0.000000 0.000000 0.000000 -0.276942 0.000000
# 6 0.000000 0.000000 0.000000 0.000000 0.000000 0.021079
#
#
# Mechanical properties :
#
#
# Convention : Reuss Voigt Hill
#
# Bulk Modulus (GPa) = 60.19113 64.26000 62.22557
# Shear Modulus (GPa) = -30.95553 30.54826 -0.20363
#
# Velocity S-wave (km/s) = -3.48461 3.46161 -0.28263
# Velocity P-wave (km/s) = 2.72403 6.41743 4.92969
#
# Compressibility (1/GPa) = 0.01661374
#
# Stress axis : x y z
#
# Youngs Moduli (GPa) = 142.93799 76.23680 81.22483
#
# Poissons Ratio (x) = 0.24928 0.04642
# Poissons Ratio (y) = 0.46738 0.33010
# Poissons Ratio (z) = 0.08169 0.30983
#
# Static dielectric constant tensor:
#      x y z
#    x 2.074010 0.000000 0.000000 
#    y 0.000000 2.015100 0.000000 
#    z 0.000000 0.000000 2.015320 
# 
# From -- ./inp_files/7415.got.cif
#   From: 2010.05.17/outbox.cif.g08.bks.cpg/sg33_4_cif.got.tgz:7415.got - 2010.06.03 17:15:25.
