data_PCOD9345914
_publ_section_title
;
Structure prediction by ZEFSAII (Michael W. Deem and Ramdas Pophale) SiO2 
 PCOD9345914
Probable space group: P N A 21
;
_chemical_formula_sum "Si O2"
_cell_formula_units_Z 20
_cell_length_a 9.867476
_cell_length_b 4.849205
_cell_length_c 14.521000
_cell_angle_alpha 90.000000
_cell_angle_beta 90.000000
_cell_angle_gamma 90.000000
_cell_volume 694.821340
_symmetry_space_group_name_H-M "P N A 21"
_symmetry_group_IT_number 33
_symmetry_cell_setting 'orthorhombic'
loop_
_space_group_symop_operation_xyz
x,y,z
-x,-y,1/2+z
1/2-x,1/2+y,1/2+z
1/2+x,1/2-y,z
loop_
_atom_site_type_symbol
_atom_site_label
_atom_site_fract_x
_atom_site_fract_y
_atom_site_fract_z
Si Si1 0.057869 0.593735 0.114770
Si Si2 0.804654 0.364152 0.915280
Si Si3 0.806235 0.225777 0.116971
Si Si4 0.977975 0.846140 0.917290
Si Si5 0.874853 0.553706 0.275654
O O1 0.218090 0.550107 0.127387
O O2 0.967290 0.304501 0.109716
O O3 0.985920 0.699176 0.208255
O O4 0.026905 0.752297 0.019628
O O5 0.936955 0.165062 0.909230
O O6 0.835744 0.683966 0.909071
O O7 0.702703 0.264431 0.839348
O O8 0.751489 0.317680 0.017897
O O9 0.771216 0.402339 0.206225
O O10 0.059365 0.688652 0.837610
#
# Coordination Sequence:
#
# PCOD9345914 Si02
#       5
#     4   4   4   4   4
#     4   9  20  43  70 108 142 190 242 302 362 438
#     4  11  24  47  71 104 150 191 249 305 370 438
#     4   9  20  43  74 102 148 186 249 299 367 436
#     4  11  24  47  71 107 148 193 244 308 367 440
#     4  10  22  44  76 107 148 196 244 308 374 440
#
# _framework density 28.784381
#
# number of rings (size 3 to 8) (size 9 to 14) (size 15 to 20)
#    1.200    0.800    2.000    1.200    0.000    1.600 
#   14.400    0.000    0.000    0.000    0.000    0.000 
#    0.000    0.000    0.000    0.000    0.000    0.000 
#
# Total GULP energy -111865.698788 kJ/mol
# GULP energy per Si atom -5593.284939 kJ/mol
# Density = 2.871887 g / cm^3
# Si number density = 28.784381 Si / 1000 Ang^3
#
#
#
# Elastic Constant Matrix: (Units=GPa)
#
#
# Indices 1 2 3 4 5 6 
#
# 1 111.9002 34.6758 42.6005 0.0000 0.0000 0.0000
# 2 34.6758 90.9545 21.6887 0.0000 0.0000 0.0000
# 3 42.6005 21.6887 215.9749 0.0000 0.0000 0.0000
# 4 0.0000 0.0000 0.0000 38.1551 0.0000 0.0000
# 5 0.0000 0.0000 0.0000 0.0000 33.1545 0.0000
# 6 0.0000 0.0000 0.0000 0.0000 0.0000 44.4086
#
#
#
# Elastic Compliance Matrix: (Units=1/GPa)
#
#
# Indices 1 2 3 4 5 6 
#
# 1 0.010742 -0.003678 -0.001750 0.000000 0.000000 0.000000
# 2 -0.003678 0.012524 -0.000532 0.000000 0.000000 0.000000
# 3 -0.001750 -0.000532 0.005029 0.000000 0.000000 0.000000
# 4 0.000000 0.000000 0.000000 0.026209 0.000000 0.000000
# 5 0.000000 0.000000 0.000000 0.000000 0.030162 0.000000
# 6 0.000000 0.000000 0.000000 0.000000 0.000000 0.022518
#
#
# Mechanical properties :
#
#
# Convention : Reuss Voigt Hill
#
# Bulk Modulus (GPa) = 61.06896 68.52885 64.79890
# Shear Modulus (GPa) = 40.14070 44.46794 42.30432
#
# Velocity S-wave (km/s) = 3.73839 3.93474 3.83782
# Velocity P-wave (km/s) = 6.31634 6.67100 6.49609
#
# Compressibility (1/GPa) = 0.01637493
#
# Stress axis : x y z
#
# Youngs Moduli (GPa) = 93.08886 79.84848 198.85867
#
# Poissons Ratio (x) = 0.29371 0.34791
# Poissons Ratio (y) = 0.34241 0.10582
# Poissons Ratio (z) = 0.16286 0.04249
#
# Static dielectric constant tensor:
#      x y z
#    x 2.309920 0.000000 0.000000 
#    y 0.000000 2.190450 0.000000 
#    z 0.000000 0.000000 2.217230 
# 
# From -- ./inp_files/7789.got.cif
#   From: 2010.05.17/outbox.cif.g08.bks.cpg/sg33_4_cif.got.tgz:7789.got - 2010.06.03 17:15:25.
