data_PCOD9345856
_publ_section_title
;
Structure prediction by ZEFSAII (Michael W. Deem and Ramdas Pophale) SiO2 
 PCOD9345856
Probable space group: P N A 21
;
_chemical_formula_sum "Si O2"
_cell_formula_units_Z 28
_cell_length_a 16.399224
_cell_length_b 5.672277
_cell_length_c 13.317103
_cell_angle_alpha 90.000000
_cell_angle_beta 90.000000
_cell_angle_gamma 90.000000
_cell_volume 1238.769454
_symmetry_space_group_name_H-M "P N A 21"
_symmetry_group_IT_number 33
_symmetry_cell_setting 'orthorhombic'
loop_
_space_group_symop_operation_xyz
x,y,z
-x,-y,1/2+z
1/2-x,1/2+y,1/2+z
1/2+x,1/2-y,z
loop_
_atom_site_type_symbol
_atom_site_label
_atom_site_fract_x
_atom_site_fract_y
_atom_site_fract_z
Si Si1 0.724154 0.150641 0.845320
Si Si2 0.967244 0.463175 0.131016
Si Si3 0.527656 0.365064 0.515518
Si Si4 0.676673 0.718788 0.546089
Si Si5 0.445161 0.754276 0.440344
Si Si6 0.732461 0.135813 0.243998
Si Si7 0.052446 0.443313 0.321353
O O1 0.635055 0.136575 0.895140
O O2 0.722807 0.391478 0.778573
O O3 0.746248 0.892819 0.796734
O O4 0.785472 0.222039 0.935920
O O5 0.874420 0.437246 0.093063
O O6 0.985590 0.362757 0.239525
O O7 0.989175 0.736624 0.120203
O O8 0.027818 0.359757 0.047204
O O9 0.602555 0.534689 0.539905
O O10 0.446612 0.481781 0.468985
O O11 0.556037 0.203007 0.423512
O O12 0.745648 0.662944 0.627136
O O13 0.519153 0.806574 0.362775
O O14 0.638420 0.077389 0.267137
#
# Coordination Sequence:
#
# PCOD9345856 Si02
#       7
#     4   4   4   4   4   4   4
#     4  12  27  48  72 111 149 191 249 307 376 436
#     4  10  23  42  69 102 133 195 237 302 363 447
#     4  10  22  43  69  98 145 184 240 305 369 427
#     4  11  25  46  70 106 150 190 244 311 368 437
#     4  10  24  41  69 103 138 193 237 307 362 443
#     4  12  28  45  76 107 146 201 243 305 378 438
#     4  11  23  45  69 101 143 190 250 297 368 444
#
# _framework density 22.603076999999999
#
# number of rings (size 3 to 8) (size 9 to 14) (size 15 to 20)
#    0.000    1.143    1.429    4.286   10.000    1.143 
#    2.571    0.000    0.000    0.000    0.000    0.000 
#    0.000    0.000    0.000    0.000    0.000    0.000 
#
# Total GULP energy -155949.567858 kJ/mol
# GULP energy per Si atom -5569.627424 kJ/mol
# Density = 2.255163 g / cm^3
# Si number density = 22.603077 Si / 1000 Ang^3
#
#
#
# Elastic Constant Matrix: (Units=GPa)
#
#
# Indices 1 2 3 4 5 6 
#
# 1 66.0033 8.6832 5.2974 0.0000 0.0000 0.0000
# 2 8.6832 68.0980 18.0688 0.0000 0.0000 0.0000
# 3 5.2974 18.0688 91.4469 0.0000 0.0000 0.0000
# 4 0.0000 0.0000 0.0000 19.1388 0.0000 0.0000
# 5 0.0000 0.0000 0.0000 0.0000 42.0292 0.0000
# 6 0.0000 0.0000 0.0000 0.0000 0.0000 13.3255
#
#
#
# Elastic Compliance Matrix: (Units=1/GPa)
#
#
# Indices 1 2 3 4 5 6 
#
# 1 0.015434 -0.001827 -0.000533 0.000000 0.000000 0.000000
# 2 -0.001827 0.015713 -0.002999 0.000000 0.000000 0.000000
# 3 -0.000533 -0.002999 0.011559 0.000000 0.000000 0.000000
# 4 0.000000 0.000000 0.000000 0.052250 0.000000 0.000000
# 5 0.000000 0.000000 0.000000 0.000000 0.023793 0.000000
# 6 0.000000 0.000000 0.000000 0.000000 0.000000 0.075044
#
#
# Mechanical properties :
#
#
# Convention : Reuss Voigt Hill
#
# Bulk Modulus (GPa) = 31.26107 32.18300 31.72204
# Shear Modulus (GPa) = 23.23711 27.79862 25.51787
#
# Velocity S-wave (km/s) = 3.20980 3.51074 3.36364
# Velocity P-wave (km/s) = 5.25334 5.54103 5.39910
#
# Compressibility (1/GPa) = 0.03198867
#
# Stress axis : x y z
#
# Youngs Moduli (GPa) = 64.79268 63.64023 86.51458
#
# Poissons Ratio (x) = 0.11624 0.04613
# Poissons Ratio (y) = 0.11834 0.25945
# Poissons Ratio (z) = 0.03455 0.19085
#
# Static dielectric constant tensor:
#      x y z
#    x 1.855500 0.000000 0.000000 
#    y 0.000000 2.134460 0.000000 
#    z 0.000000 0.000000 1.832660 
# 
# From -- ./inp_files/6967.got.cif
#   From: 2010.05.17/outbox.cif.g08.bks.cpg/sg33_4_cif.got.tgz:6967.got - 2010.06.03 17:15:25.
