data_PCOD9345270
_publ_section_title
;
Structure prediction by ZEFSAII (Michael W. Deem and Ramdas Pophale) SiO2 
 PCOD9345270
Probable space group: P N A 21
;
_chemical_formula_sum "Si O2"
_cell_formula_units_Z 24
_cell_length_a 26.790327
_cell_length_b 4.755018
_cell_length_c 6.509735
_cell_angle_alpha 90.000000
_cell_angle_beta 90.000000
_cell_angle_gamma 90.000000
_cell_volume 829.265293
_symmetry_space_group_name_H-M "P N A 21"
_symmetry_group_IT_number 33
_symmetry_cell_setting 'orthorhombic'
loop_
_space_group_symop_operation_xyz
x,y,z
-x,-y,1/2+z
1/2-x,1/2+y,1/2+z
1/2+x,1/2-y,z
loop_
_atom_site_type_symbol
_atom_site_label
_atom_site_fract_x
_atom_site_fract_y
_atom_site_fract_z
Si Si1 0.147741 0.361774 0.822120
Si Si2 0.753116 0.404536 0.445017
Si Si3 0.189248 0.640360 0.334697
Si Si4 0.561330 0.152343 0.086538
Si Si5 0.607098 0.644408 0.580690
Si Si6 0.018832 0.849063 0.848609
O O1 0.125976 0.165407 0.641661
O O2 0.119842 0.299526 0.037324
O O3 0.130327 0.671628 0.765016
O O4 0.206746 0.391359 0.827690
O O5 0.790821 0.268923 0.611342
O O6 0.716359 0.161668 0.359643
O O7 0.714247 0.650575 0.503250
O O8 0.131243 0.713278 0.378562
O O9 0.535716 0.341185 0.908220
O O10 0.541013 0.844512 0.030110
O O11 0.538007 0.269684 0.296181
O O12 0.549307 0.694289 0.634344
#
# Coordination Sequence:
#
# PCOD9345270 Si02
#       6
#     4   4   4   4   4   4
#     4  10  21  39  60  84 119 158 197 243 297 352
#     4  12  24  39  60  86 116 154 197 246 297 352
#     4  12  24  39  60  86 116 154 197 246 297 352
#     4  10  21  38  61  88 120 158 196 243 298 352
#     4  10  21  39  60  84 119 158 197 243 297 352
#     4  10  21  38  61  88 120 158 196 243 298 352
#
# _framework density 28.941282000000001
#
# number of rings (size 3 to 8) (size 9 to 14) (size 15 to 20)
#    0.000    1.333    0.000    7.000    0.000    1.333 
#    0.000    3.333    0.000    0.000    0.000    0.000 
#    0.000    0.000    0.000    0.000    0.000    0.000 
#
# Total GULP energy -134050.359842 kJ/mol
# GULP energy per Si atom -5585.431660 kJ/mol
# Density = 2.887541 g / cm^3
# Si number density = 28.941282 Si / 1000 Ang^3
#
#
#
# Elastic Constant Matrix: (Units=GPa)
#
#
# Indices 1 2 3 4 5 6 
#
# 1 104.4733 5.7476 8.2984 0.0000 0.0000 0.0000
# 2 5.7476 94.8931 6.6495 0.0000 0.0000 0.0000
# 3 8.2984 6.6495 63.3628 0.0000 0.0000 0.0000
# 4 0.0000 0.0000 0.0000 43.2341 0.0000 0.0000
# 5 0.0000 0.0000 0.0000 0.0000 63.1163 0.0000
# 6 0.0000 0.0000 0.0000 0.0000 0.0000 20.5110
#
#
#
# Elastic Compliance Matrix: (Units=1/GPa)
#
#
# Indices 1 2 3 4 5 6 
#
# 1 0.009696 -0.000502 -0.001217 0.000000 0.000000 0.000000
# 2 -0.000502 0.010642 -0.001051 0.000000 0.000000 0.000000
# 3 -0.001217 -0.001051 0.016052 0.000000 0.000000 0.000000
# 4 0.000000 0.000000 0.000000 0.023130 0.000000 0.000000
# 5 0.000000 0.000000 0.000000 0.000000 0.015844 0.000000
# 6 0.000000 0.000000 0.000000 0.000000 0.000000 0.048754
#
#
# Mechanical properties :
#
#
# Convention : Reuss Voigt Hill
#
# Bulk Modulus (GPa) = 32.41527 33.79114 33.10320
# Shear Modulus (GPa) = 35.72909 41.50786 38.61847
#
# Velocity S-wave (km/s) = 3.51741 3.79120 3.65687
# Velocity P-wave (km/s) = 5.26506 5.55566 5.41232
#
# Compressibility (1/GPa) = 0.03084966
#
# Stress axis : x y z
#
# Youngs Moduli (GPa) = 103.13396 93.96525 62.29811
#
# Poissons Ratio (x) = 0.04717 0.07583
# Poissons Ratio (y) = 0.05177 0.06548
# Poissons Ratio (z) = 0.12553 0.09877
#
# Static dielectric constant tensor:
#      x y z
#    x 2.394740 0.000000 0.000000 
#    y 0.000000 2.161870 0.000000 
#    z 0.000000 0.000000 2.378870 
# 
# From -- ./inp_files/5117.got.cif
#   From: 2010.05.17/outbox.cif.g08.bks.cpg/sg33_3_cif.got.tgz:5117.got - 2010.06.03 17:15:25.
