data_PCOD9345303
_publ_section_title
;
Structure prediction by ZEFSAII (Michael W. Deem and Ramdas Pophale) SiO2 
 PCOD9345303
Probable space group: P N A 21
;
_chemical_formula_sum "Si O2"
_cell_formula_units_Z 28
_cell_length_a 11.507043
_cell_length_b 15.365300
_cell_length_c 7.786868
_cell_angle_alpha 90.000000
_cell_angle_beta 90.000000
_cell_angle_gamma 90.000000
_cell_volume 1376.789651
_symmetry_space_group_name_H-M "P N A 21"
_symmetry_group_IT_number 33
_symmetry_cell_setting 'orthorhombic'
loop_
_space_group_symop_operation_xyz
x,y,z
-x,-y,1/2+z
1/2-x,1/2+y,1/2+z
1/2+x,1/2-y,z
loop_
_atom_site_type_symbol
_atom_site_label
_atom_site_fract_x
_atom_site_fract_y
_atom_site_fract_z
Si Si1 0.829520 0.540412 0.520640
Si Si2 0.976891 0.706019 0.082305
Si Si3 0.871790 0.982785 0.238661
Si Si4 0.582337 0.613204 0.055568
Si Si5 0.962578 0.534369 0.878616
Si Si6 0.265819 0.801469 0.315215
Si Si7 0.340402 0.132788 0.859835
O O1 0.698325 0.518458 0.572688
O O2 0.902774 0.533725 0.694653
O O3 0.829908 0.635475 0.444806
O O4 0.898809 0.479407 0.387824
O O5 0.028325 0.793288 0.998843
O O6 0.076490 0.660903 0.200357
O O7 0.867965 0.736207 0.196247
O O8 0.935218 0.626138 0.965068
O O9 0.885683 0.055123 0.389007
O O10 0.781718 0.911162 0.310198
O O11 0.990243 0.940925 0.170417
O O12 0.684924 0.642015 0.186480
O O13 0.907971 0.444551 0.957438
O O14 0.194830 0.728921 0.421202
#
# Coordination Sequence:
#
# PCOD9345303 Si02
#       7
#     4   4   4   4   4   4   4
#     4  11  22  39  68  96 130 172 220 282 325 397
#     4  11  21  42  68  94 127 176 225 274 334 396
#     4  11  22  45  63  96 133 172 220 268 345 398
#     4  11  25  42  70  95 136 180 216 276 339 406
#     4  11  20  39  65  98 128 168 228 275 327 385
#     4  11  21  41  67  95 132 175 218 270 338 396
#     4  10  21  38  67  90 128 173 215 267 332 396
#
# _framework density 20.337167000000001
#
# number of rings (size 3 to 8) (size 9 to 14) (size 15 to 20)
#    0.000    1.143    5.714    2.571    0.000    0.000 
#    5.143    0.000    0.000    0.000    0.000    0.000 
#    0.000    0.000    0.000    0.000    0.000    0.000 
#
# Total GULP energy -155933.394250 kJ/mol
# GULP energy per Si atom -5569.049795 kJ/mol
# Density = 2.029088 g / cm^3
# Si number density = 20.337167 Si / 1000 Ang^3
#
#
#
# Elastic Constant Matrix: (Units=GPa)
#
#
# Indices 1 2 3 4 5 6 
#
# 1 95.2473 38.6318 27.4595 0.0000 0.0000 0.0000
# 2 38.6318 134.2959 40.7501 0.0000 0.0000 0.0000
# 3 27.4595 40.7501 31.8818 0.0000 0.0000 0.0000
# 4 0.0000 0.0000 0.0000 28.1663 0.0000 0.0000
# 5 0.0000 0.0000 0.0000 0.0000 34.6179 0.0000
# 6 0.0000 0.0000 0.0000 0.0000 0.0000 295.7361
#
#
#
# Elastic Compliance Matrix: (Units=1/GPa)
#
#
# Indices 1 2 3 4 5 6 
#
# 1 0.013997 -0.000602 -0.011286 0.000000 0.000000 0.000000
# 2 -0.000602 0.012190 -0.015062 0.000000 0.000000 0.000000
# 3 -0.011286 -0.015062 0.060338 0.000000 0.000000 0.000000
# 4 0.000000 0.000000 0.000000 0.035503 0.000000 0.000000
# 5 0.000000 0.000000 0.000000 0.000000 0.028887 0.000000
# 6 0.000000 0.000000 0.000000 0.000000 0.000000 0.003381
#
#
# Mechanical properties :
#
#
# Convention : Reuss Voigt Hill
#
# Bulk Modulus (GPa) = 30.65162 52.78976 41.72069
# Shear Modulus (GPa) = 22.82358 82.00963 52.41660
#
# Velocity S-wave (km/s) = 3.35365 6.35709 5.08230
# Velocity P-wave (km/s) = 5.48638 8.93851 7.41611
#
# Compressibility (1/GPa) = 0.03262470
#
# Stress axis : x y z
#
# Youngs Moduli (GPa) = 71.44473 82.03637 16.57320
#
# Poissons Ratio (x) = 0.04936 0.18705
# Poissons Ratio (y) = 0.04299 0.24963
# Poissons Ratio (z) = 0.80634 1.23564
#
# Static dielectric constant tensor:
#      x y z
#    x 1.776430 0.000000 0.000000 
#    y 0.000000 1.787450 0.000000 
#    z 0.000000 0.000000 1.726960 
# 
# From -- ./inp_files/3906.got.cif
#   From: 2010.05.17/outbox.cif.g08.bks.cpg/sg33_2_cif.got.tgz:3906.got - 2010.06.03 17:15:25.
