data_PCOD9345587
_publ_section_title
;
Structure prediction by ZEFSAII (Michael W. Deem and Ramdas Pophale) SiO2 
 PCOD9345587
Probable space group: P N A 21
;
_chemical_formula_sum "Si O2"
_cell_formula_units_Z 32
_cell_length_a 9.108579
_cell_length_b 10.705671
_cell_length_c 12.404536
_cell_angle_alpha 90.000000
_cell_angle_beta 90.000000
_cell_angle_gamma 90.000000
_cell_volume 1209.609102
_symmetry_space_group_name_H-M "P N A 21"
_symmetry_group_IT_number 33
_symmetry_cell_setting 'orthorhombic'
loop_
_space_group_symop_operation_xyz
x,y,z
-x,-y,1/2+z
1/2-x,1/2+y,1/2+z
1/2+x,1/2-y,z
loop_
_atom_site_type_symbol
_atom_site_label
_atom_site_fract_x
_atom_site_fract_y
_atom_site_fract_z
Si Si1 0.328230 0.675817 0.599480
Si Si2 0.415749 0.273037 0.246791
Si Si3 0.809652 0.134776 0.955753
Si Si4 0.075774 0.004931 0.902759
Si Si5 0.542609 0.331032 0.687461
Si Si6 0.199844 0.744310 0.052625
Si Si7 0.992990 0.649894 0.355111
Si Si8 0.549342 0.121221 0.418708
O O1 0.489098 0.662151 0.652307
O O2 0.204298 0.678045 0.694344
O O3 0.289178 0.815680 0.554828
O O4 0.332892 0.582021 0.495363
O O5 0.379644 0.374997 0.341879
O O6 0.536856 0.189296 0.305340
O O7 0.924938 0.246712 0.929112
O O8 0.682629 0.134927 0.866779
O O9 0.908235 0.010525 0.950702
O O10 0.055253 0.087788 0.794268
O O11 0.702142 0.329178 0.637754
O O12 0.412015 0.347835 0.602360
O O13 0.494372 0.194866 0.733020
O O14 0.326071 0.819653 0.991007
O O15 0.102770 0.651809 0.980672
O O16 0.062547 0.521683 0.390206
#
# Coordination Sequence:
#
# PCOD9345587 Si02
#       8
#     4   4   4   4   4   4   4   4
#     4  12  25  52  78 121 159 224 287 346 441 525
#     4  12  29  50  76 118 166 226 286 346 445 527
#     4  11  22  47  77 112 153 215 270 356 418 510
#     4  11  26  47  82 112 171 210 283 356 423 515
#     4  10  21  46  74 118 140 213 266 346 413 514
#     4  10  24  48  74 109 159 199 276 320 431 495
#     4  11  24  45  78 109 159 203 277 339 426 492
#     4  11  27  51  69 113 163 216 261 363 409 520
#
# _framework density 26.454825
#
# number of rings (size 3 to 8) (size 9 to 14) (size 15 to 20)
#    0.000    1.000    3.750    2.250    3.500    6.000 
#   11.250    0.000    0.000    0.000    0.000    0.000 
#    0.000    0.000    0.000    0.000    0.000    0.000 
#
# Total GULP energy -178645.752655 kJ/mol
# GULP energy per Si atom -5582.679770 kJ/mol
# Density = 2.639461 g / cm^3
# Si number density = 26.454825 Si / 1000 Ang^3
#
#
#
# Elastic Constant Matrix: (Units=GPa)
#
#
# Indices 1 2 3 4 5 6 
#
# 1 152.1405 16.7850 38.8079 0.0000 0.0000 0.0000
# 2 16.7850 82.0030 30.9588 0.0000 0.0000 0.0000
# 3 38.8079 30.9588 86.3912 0.0000 0.0000 0.0000
# 4 0.0000 0.0000 0.0000 134.1166 0.0000 0.0000
# 5 0.0000 0.0000 0.0000 0.0000 53.5931 0.0000
# 6 0.0000 0.0000 0.0000 0.0000 0.0000 35.7583
#
#
#
# Elastic Compliance Matrix: (Units=1/GPa)
#
#
# Indices 1 2 3 4 5 6 
#
# 1 0.007430 -0.000302 -0.003230 0.000000 0.000000 0.000000
# 2 -0.000302 0.014115 -0.004923 0.000000 0.000000 0.000000
# 3 -0.003230 -0.004923 0.014790 0.000000 0.000000 0.000000
# 4 0.000000 0.000000 0.000000 0.007456 0.000000 0.000000
# 5 0.000000 0.000000 0.000000 0.000000 0.018659 0.000000
# 6 0.000000 0.000000 0.000000 0.000000 0.000000 0.027966
#
#
# Mechanical properties :
#
#
# Convention : Reuss Voigt Hill
#
# Bulk Modulus (GPa) = 51.47394 54.84867 53.16130
# Shear Modulus (GPa) = 43.93709 60.29246 52.11477
#
# Velocity S-wave (km/s) = 4.07976 4.77914 4.44323
# Velocity P-wave (km/s) = 6.45694 7.15762 6.81629
#
# Compressibility (1/GPa) = 0.01942731
#
# Stress axis : x y z
#
# Youngs Moduli (GPa) = 134.59076 70.84726 67.61297
#
# Poissons Ratio (x) = 0.02136 0.21836
# Poissons Ratio (y) = 0.04059 0.33284
# Poissons Ratio (z) = 0.43467 0.34876
#
# Static dielectric constant tensor:
#      x y z
#    x 2.167080 0.000000 0.000000 
#    y 0.000000 2.118960 0.000000 
#    z 0.000000 0.000000 2.184440 
# 
# From -- ./inp_files/7659.got.cif
#   From: 2010.05.17/outbox.cif.g08.bks.cpg/sg33_4_cif.got.tgz:7659.got - 2010.06.03 17:15:25.
