data_PCOD9345976
_publ_section_title
;
Structure prediction by ZEFSAII (Michael W. Deem and Ramdas Pophale) SiO2 
 PCOD9345976
Probable space group: P N A 21
;
_chemical_formula_sum "Si O2"
_cell_formula_units_Z 20
_cell_length_a 15.629525
_cell_length_b 6.756126
_cell_length_c 7.490322
_cell_angle_alpha 90.000000
_cell_angle_beta 90.000000
_cell_angle_gamma 90.000000
_cell_volume 790.940853
_symmetry_space_group_name_H-M "P N A 21"
_symmetry_group_IT_number 33
_symmetry_cell_setting 'orthorhombic'
loop_
_space_group_symop_operation_xyz
x,y,z
-x,-y,1/2+z
1/2-x,1/2+y,1/2+z
1/2+x,1/2-y,z
loop_
_atom_site_type_symbol
_atom_site_label
_atom_site_fract_x
_atom_site_fract_y
_atom_site_fract_z
Si Si1 0.576929 0.810500 0.053060
Si Si2 0.273601 0.450891 0.521812
Si Si3 0.171148 0.762303 0.701208
Si Si4 0.080947 0.228554 0.087449
Si Si5 0.432502 0.540901 0.976741
O O1 0.662781 0.700620 0.127093
O O2 0.593837 0.772356 0.840673
O O3 0.578076 0.037944 0.095499
O O4 0.486452 0.705725 0.086786
O O5 0.255475 0.339157 0.337238
O O6 0.194724 0.553224 0.615903
O O7 0.336170 0.639109 0.487718
O O8 0.999144 0.142229 0.983538
O O9 0.149269 0.941558 0.569283
O O10 0.082712 0.132799 0.284273
#
# Coordination Sequence:
#
# PCOD9345976 Si02
#       5
#     4   4   4   4   4
#     4   9  23  44  74 103 147 191 251 299 369 441
#     4   9  23  47  70 103 143 194 245 302 368 446
#     4  10  22  51  72 102 152 189 252 302 367 444
#     4  11  22  46  71 109 146 187 246 300 370 433
#     4  11  22  46  75 109 142 195 246 311 360 448
#
# _framework density 25.286344
#
# number of rings (size 3 to 8) (size 9 to 14) (size 15 to 20)
#    1.200    0.800    2.000    0.000    0.000    6.400 
#   14.400    0.000    0.000    0.000    0.000    0.000 
#    0.000    0.000    0.000    0.000    0.000    0.000 
#
# Total GULP energy -111694.427262 kJ/mol
# GULP energy per Si atom -5584.721363 kJ/mol
# Density = 2.522879 g / cm^3
# Si number density = 25.286344 Si / 1000 Ang^3
#
#
#
# Elastic Constant Matrix: (Units=GPa)
#
#
# Indices 1 2 3 4 5 6 
#
# 1 63.0398 30.4399 12.3388 0.0000 0.0000 0.0000
# 2 30.4399 209.9092 54.9130 0.0000 0.0000 0.0000
# 3 12.3388 54.9130 127.5321 0.0000 0.0000 0.0000
# 4 0.0000 0.0000 0.0000 28.9808 0.0000 0.0000
# 5 0.0000 0.0000 0.0000 0.0000 12.9441 0.0000
# 6 0.0000 0.0000 0.0000 0.0000 0.0000 30.8926
#
#
#
# Elastic Compliance Matrix: (Units=1/GPa)
#
#
# Indices 1 2 3 4 5 6 
#
# 1 0.017107 -0.002308 -0.000661 0.000000 0.000000 0.000000
# 2 -0.002308 0.005680 -0.002222 0.000000 0.000000 0.000000
# 3 -0.000661 -0.002222 0.008862 0.000000 0.000000 0.000000
# 4 0.000000 0.000000 0.000000 0.034506 0.000000 0.000000
# 5 0.000000 0.000000 0.000000 0.000000 0.077255 0.000000
# 6 0.000000 0.000000 0.000000 0.000000 0.000000 0.032370
#
#
# Mechanical properties :
#
#
# Convention : Reuss Voigt Hill
#
# Bulk Modulus (GPa) = 47.02400 66.20716 56.61558
# Shear Modulus (GPa) = 25.87299 34.74945 30.31122
#
# Velocity S-wave (km/s) = 3.20222 3.71109 3.46601
# Velocity P-wave (km/s) = 5.68412 6.67853 6.20129
#
# Compressibility (1/GPa) = 0.02126574
#
# Stress axis : x y z
#
# Youngs Moduli (GPa) = 58.45636 176.05592 112.84006
#
# Poissons Ratio (x) = 0.40628 0.07464
# Poissons Ratio (y) = 0.13490 0.25078
# Poissons Ratio (z) = 0.03867 0.39127
#
# Static dielectric constant tensor:
#      x y z
#    x 2.122720 0.000000 0.000000 
#    y 0.000000 1.934770 0.000000 
#    z 0.000000 0.000000 2.060680 
# 
# From -- ./inp_files/6574.got.cif
#   From: 2010.05.17/outbox.cif.g08.bks.cpg/sg33_4_cif.got.tgz:6574.got - 2010.06.03 17:15:25.
