data_PCOD9345571
_publ_section_title
;
Structure prediction by ZEFSAII (Michael W. Deem and Ramdas Pophale) SiO2 
 PCOD9345571
Probable space group: P N A 21
;
_chemical_formula_sum "Si O2"
_cell_formula_units_Z 16
_cell_length_a 8.796812
_cell_length_b 7.673827
_cell_length_c 10.950466
_cell_angle_alpha 90.000000
_cell_angle_beta 90.000000
_cell_angle_gamma 90.000000
_cell_volume 739.213545
_symmetry_space_group_name_H-M "P N A 21"
_symmetry_group_IT_number 33
_symmetry_cell_setting 'orthorhombic'
loop_
_space_group_symop_operation_xyz
x,y,z
-x,-y,1/2+z
1/2-x,1/2+y,1/2+z
1/2+x,1/2-y,z
loop_
_atom_site_type_symbol
_atom_site_label
_atom_site_fract_x
_atom_site_fract_y
_atom_site_fract_z
Si Si1 0.653705 0.142205 0.571790
Si Si2 0.833651 0.124683 0.320933
Si Si3 0.538848 0.162665 0.169720
Si Si4 0.954452 0.056573 0.668168
O O1 0.749680 0.133745 0.448092
O O2 0.555950 0.315454 0.587600
O O3 0.784796 0.128858 0.675080
O O4 0.540953 0.979171 0.586505
O O5 0.702217 0.105413 0.218791
O O6 0.927431 0.299161 0.285854
O O7 0.957687 0.974430 0.295980
O O8 0.554080 0.358475 0.116715
#
# Coordination Sequence:
#
# PCOD9345571 Si02
#       4
#     4   4   4   4
#     4  12  22  43  68  89 130 172 206 263 331 364
#     4  10  22  43  63  95 126 166 209 266 314 369
#     4  10  21  45  59  95 134 154 220 267 298 391
#     4  10  23  41  62  97 126 162 219 260 305 392
#
# _framework density 21.644627
#
# number of rings (size 3 to 8) (size 9 to 14) (size 15 to 20)
#    1.500    0.000    2.500    3.000    0.000    0.000 
#   13.500    0.000    0.000    0.000    0.000    0.000 
#    0.000    0.000    0.000    0.000    0.000    0.000 
#
# Total GULP energy -89192.667067 kJ/mol
# GULP energy per Si atom -5574.541692 kJ/mol
# Density = 2.159536 g / cm^3
# Si number density = 21.644627 Si / 1000 Ang^3
#
#
#
# Elastic Constant Matrix: (Units=GPa)
#
#
# Indices 1 2 3 4 5 6 
#
# 1 113.8184 26.8576 -5.6028 0.0000 0.0000 0.0000
# 2 26.8576 98.6437 15.9388 0.0000 0.0000 0.0000
# 3 -5.6028 15.9388 15.8959 0.0000 0.0000 0.0000
# 4 0.0000 0.0000 0.0000 14.2061 0.0000 0.0000
# 5 0.0000 0.0000 0.0000 0.0000 30.2195 0.0000
# 6 0.0000 0.0000 0.0000 0.0000 0.0000 13.0620
#
#
#
# Elastic Compliance Matrix: (Units=1/GPa)
#
#
# Indices 1 2 3 4 5 6 
#
# 1 0.010092 -0.003965 0.007533 0.000000 0.000000 0.000000
# 2 -0.003965 0.013655 -0.015090 0.000000 0.000000 0.000000
# 3 0.007533 -0.015090 0.080695 0.000000 0.000000 0.000000
# 4 0.000000 0.000000 0.000000 0.070392 0.000000 0.000000
# 5 0.000000 0.000000 0.000000 0.000000 0.033091 0.000000
# 6 0.000000 0.000000 0.000000 0.000000 0.000000 0.076558
#
#
# Mechanical properties :
#
#
# Convention : Reuss Voigt Hill
#
# Bulk Modulus (GPa) = 12.28519 33.63836 22.96177
# Shear Modulus (GPa) = 14.94053 24.24181 19.59117
#
# Velocity S-wave (km/s) = 2.63014 3.35026 3.01180
# Velocity P-wave (km/s) = 3.86157 5.52635 4.76719
#
# Compressibility (1/GPa) = 0.08139885
#
# Stress axis : x y z
#
# Youngs Moduli (GPa) = 99.08488 73.23204 12.39240
#
# Poissons Ratio (x) = 0.29037 -0.09335
# Poissons Ratio (y) = 0.39287 0.18700
# Poissons Ratio (z) = -0.74640 1.10504
#
# Static dielectric constant tensor:
#      x y z
#    x 1.796390 0.000000 0.000000 
#    y 0.000000 1.780230 0.000000 
#    z 0.000000 0.000000 1.838590 
# 
# From -- ./inp_files/2914.got.cif
#   From: 2010.05.17/outbox.cif.g08.bks.cpg/sg33_2_cif.got.tgz:2914.got - 2010.06.03 17:15:25.
