data_PCOD9345405
_publ_section_title
;
Structure prediction by ZEFSAII (Michael W. Deem and Ramdas Pophale) SiO2 
 PCOD9345405
Probable space group: P N A 21
;
_chemical_formula_sum "Si O2"
_cell_formula_units_Z 32
_cell_length_a 22.933263
_cell_length_b 5.260838
_cell_length_c 12.086778
_cell_angle_alpha 90.000000
_cell_angle_beta 90.000000
_cell_angle_gamma 90.000000
_cell_volume 1458.247785
_symmetry_space_group_name_H-M "P N A 21"
_symmetry_group_IT_number 33
_symmetry_cell_setting 'orthorhombic'
loop_
_space_group_symop_operation_xyz
x,y,z
-x,-y,1/2+z
1/2-x,1/2+y,1/2+z
1/2+x,1/2-y,z
loop_
_atom_site_type_symbol
_atom_site_label
_atom_site_fract_x
_atom_site_fract_y
_atom_site_fract_z
Si Si1 0.645618 0.270988 0.392240
Si Si2 0.441712 0.259760 0.391217
Si Si3 0.384911 0.495626 0.198988
Si Si4 0.617312 0.847656 0.110258
Si Si5 0.048749 0.934635 0.494138
Si Si6 0.310056 0.648562 0.666359
Si Si7 0.679682 0.005276 0.611807
Si Si8 0.537815 0.969647 0.307678
O O1 0.615050 0.498947 0.456705
O O2 0.691772 0.348767 0.300695
O O3 0.666521 0.071058 0.483235
O O4 0.589367 0.172616 0.325123
O O5 0.403529 0.464461 0.325836
O O6 0.405483 0.122078 0.485842
O O7 0.496640 0.389080 0.451749
O O8 0.472991 0.078968 0.300798
O O9 0.345281 0.742396 0.174064
O O10 0.352640 0.237243 0.162612
O O11 0.443814 0.483417 0.124140
O O12 0.646808 0.573807 0.126847
O O13 0.562866 0.843088 0.196936
O O14 0.663812 0.074847 0.133620
O O15 0.037314 0.680403 0.424713
O O16 0.247246 0.565428 0.623020
#
# Coordination Sequence:
#
# PCOD9345405 Si02
#       8
#     4   4   4   4   4   4   4   4
#     4   9  20  41  64 100 126 175 232 281 332 418
#     4  11  28  39  68 102 146 181 216 293 352 402
#     4  11  26  45  67 104 140 177 235 282 343 418
#     4  11  26  45  67 104 140 177 235 282 343 418
#     4  10  21  40  67  92 133 186 224 268 332 425
#     4  11  24  45  72  98 134 181 233 293 346 402
#     4  11  24  45  72  98 134 181 233 293 346 402
#     4  10  21  40  67  92 133 186 224 268 332 425
#
# _framework density 21.944146
#
# number of rings (size 3 to 8) (size 9 to 14) (size 15 to 20)
#    0.000    1.500    2.500    0.750    7.000    1.000 
#    0.000    5.000    0.000    0.000    0.000    0.000 
#    0.000    0.000    0.000    0.000    0.000    0.000 
#
# Total GULP energy -178410.529499 kJ/mol
# GULP energy per Si atom -5575.329047 kJ/mol
# Density = 2.189420 g / cm^3
# Si number density = 21.944146 Si / 1000 Ang^3
#
#
#
# Elastic Constant Matrix: (Units=GPa)
#
#
# Indices 1 2 3 4 5 6 
#
# 1 72.3548 11.2917 27.0405 0.0000 0.0000 0.0000
# 2 11.2917 75.0862 -12.7587 0.0000 0.0000 0.0000
# 3 27.0405 -12.7587 65.2946 0.0000 0.0000 0.0000
# 4 0.0000 0.0000 0.0000 27.2430 0.0000 0.0000
# 5 0.0000 0.0000 0.0000 0.0000 24.9031 0.0000
# 6 0.0000 0.0000 0.0000 0.0000 0.0000 21.7222
#
#
#
# Elastic Compliance Matrix: (Units=1/GPa)
#
#
# Indices 1 2 3 4 5 6 
#
# 1 0.017430 -0.003980 -0.007996 0.000000 0.000000 0.000000
# 2 -0.003980 0.014684 0.004518 0.000000 0.000000 0.000000
# 3 -0.007996 0.004518 0.019509 0.000000 0.000000 0.000000
# 4 0.000000 0.000000 0.000000 0.036707 0.000000 0.000000
# 5 0.000000 0.000000 0.000000 0.000000 0.040156 0.000000
# 6 0.000000 0.000000 0.000000 0.000000 0.000000 0.046036
#
#
# Mechanical properties :
#
#
# Convention : Reuss Voigt Hill
#
# Bulk Modulus (GPa) = 27.24291 29.32029 28.28160
# Shear Modulus (GPa) = 24.79246 27.25114 26.02180
#
# Velocity S-wave (km/s) = 3.36489 3.52780 3.44731
# Velocity P-wave (km/s) = 5.24769 5.47578 5.36295
#
# Compressibility (1/GPa) = 0.03670679
#
# Stress axis : x y z
#
# Youngs Moduli (GPa) = 57.37182 68.10066 51.25749
#
# Poissons Ratio (x) = 0.27103 0.40986
# Poissons Ratio (y) = 0.22833 -0.23156
# Poissons Ratio (z) = 0.45875 -0.30764
#
# Static dielectric constant tensor:
#      x y z
#    x 1.792650 0.000000 0.000000 
#    y 0.000000 1.872170 0.000000 
#    z 0.000000 0.000000 2.034240 
# 
# From -- ./inp_files/7228.got.cif
#   From: 2010.05.17/outbox.cif.g08.bks.cpg/sg33_4_cif.got.tgz:7228.got - 2010.06.03 17:15:25.
