data_PCOD9345534
_publ_section_title
;
Structure prediction by ZEFSAII (Michael W. Deem and Ramdas Pophale) SiO2 
 PCOD9345534
Probable space group: P N A 21
;
_chemical_formula_sum "Si O2"
_cell_formula_units_Z 28
_cell_length_a 18.397075
_cell_length_b 8.741073
_cell_length_c 7.068832
_cell_angle_alpha 90.000000
_cell_angle_beta 90.000000
_cell_angle_gamma 90.000000
_cell_volume 1136.740115
_symmetry_space_group_name_H-M "P N A 21"
_symmetry_group_IT_number 33
_symmetry_cell_setting 'orthorhombic'
loop_
_space_group_symop_operation_xyz
x,y,z
-x,-y,1/2+z
1/2-x,1/2+y,1/2+z
1/2+x,1/2-y,z
loop_
_atom_site_type_symbol
_atom_site_label
_atom_site_fract_x
_atom_site_fract_y
_atom_site_fract_z
Si Si1 0.814611 0.909046 0.504000
Si Si2 0.045578 0.894350 0.036632
Si Si3 0.542733 0.685547 0.607293
Si Si4 0.802376 0.524389 0.258981
Si Si5 0.767508 0.856320 0.116192
Si Si6 0.402375 0.889554 0.554924
Si Si7 0.111059 0.665284 0.292326
O O1 0.806954 0.950106 0.282451
O O2 0.838159 0.735514 0.544988
O O3 0.881248 0.009118 0.580774
O O4 0.736201 0.932655 0.591967
O O5 0.050153 0.825215 0.829838
O O6 0.047109 0.758202 0.185009
O O7 0.979046 0.013083 0.045101
O O8 0.476111 0.796377 0.550697
O O9 0.609041 0.760932 0.497633
O O10 0.805972 0.690591 0.148259
O O11 0.747015 0.459200 0.429942
O O12 0.879617 0.511527 0.368880
O O13 0.687208 0.809612 0.188283
O O14 0.402121 0.988114 0.746212
#
# Coordination Sequence:
#
# PCOD9345534 Si02
#       7
#     4   4   4   4   4   4   4
#     4  10  22  43  70  96 134 177 235 284 365 427
#     4  11  23  42  70  98 130 182 235 292 349 428
#     4  11  24  44  69  97 136 182 236 290 351 425
#     4  10  21  43  66  96 141 175 227 293 348 441
#     4  10  23  39  65  99 133 173 228 284 360 422
#     4   9  24  44  62 102 137 179 230 287 357 431
#     4  11  23  43  64  98 135 174 235 282 352 424
#
# _framework density 24.63184
#
# number of rings (size 3 to 8) (size 9 to 14) (size 15 to 20)
#    0.000    1.714    2.857    0.000    4.000    5.714 
#    0.000    1.429    0.000    0.000    0.000    0.000 
#    0.000    0.000    0.000    0.000    0.000    0.000 
#
# Total GULP energy -156005.874163 kJ/mol
# GULP energy per Si atom -5571.638363 kJ/mol
# Density = 2.457578 g / cm^3
# Si number density = 24.631840 Si / 1000 Ang^3
#
#
#
# Elastic Constant Matrix: (Units=GPa)
#
#
# Indices 1 2 3 4 5 6 
#
# 1 45.5552 13.5870 4.1875 0.0000 0.0000 0.0000
# 2 13.5870 65.3520 30.6624 0.0000 0.0000 0.0000
# 3 4.1875 30.6624 89.8312 0.0000 0.0000 0.0000
# 4 0.0000 0.0000 0.0000 23.1120 0.0000 0.0000
# 5 0.0000 0.0000 0.0000 0.0000 26.0245 0.0000
# 6 0.0000 0.0000 0.0000 0.0000 0.0000 13.4383
#
#
#
# Elastic Compliance Matrix: (Units=1/GPa)
#
#
# Indices 1 2 3 4 5 6 
#
# 1 0.023437 -0.005192 0.000680 0.000000 0.000000 0.000000
# 2 -0.005192 0.019370 -0.006369 0.000000 0.000000 0.000000
# 3 0.000680 -0.006369 0.013274 0.000000 0.000000 0.000000
# 4 0.000000 0.000000 0.000000 0.043268 0.000000 0.000000
# 5 0.000000 0.000000 0.000000 0.000000 0.038425 0.000000
# 6 0.000000 0.000000 0.000000 0.000000 0.000000 0.074414
#
#
# Mechanical properties :
#
#
# Convention : Reuss Voigt Hill
#
# Bulk Modulus (GPa) = 29.13898 33.06803 31.10350
# Shear Modulus (GPa) = 20.37568 22.66841 21.52204
#
# Velocity S-wave (km/s) = 2.87924 3.03692 2.95913
# Velocity P-wave (km/s) = 4.78632 5.07457 4.93255
#
# Compressibility (1/GPa) = 0.03431829
#
# Stress axis : x y z
#
# Youngs Moduli (GPa) = 42.66701 51.62731 75.33273
#
# Poissons Ratio (x) = 0.26803 -0.05119
# Poissons Ratio (y) = 0.22151 0.47983
# Poissons Ratio (z) = -0.02899 0.32884
#
# Static dielectric constant tensor:
#      x y z
#    x 1.970260 0.000000 0.000000 
#    y 0.000000 2.130060 0.000000 
#    z 0.000000 0.000000 2.057160 
# 
# From -- ./inp_files/2221.got.cif
#   From: 2010.05.17/outbox.cif.g08.bks.cpg/sg33_2_cif.got.tgz:2221.got - 2010.06.03 17:15:25.
