data_PCOD9345776
_publ_section_title
;
Structure prediction by ZEFSAII (Michael W. Deem and Ramdas Pophale) SiO2 
 PCOD9345776
Probable space group: P N A 21
;
_chemical_formula_sum "Si O2"
_cell_formula_units_Z 32
_cell_length_a 10.202349
_cell_length_b 19.370537
_cell_length_c 6.186230
_cell_angle_alpha 90.000000
_cell_angle_beta 90.000000
_cell_angle_gamma 90.000000
_cell_volume 1222.553573
_symmetry_space_group_name_H-M "P N A 21"
_symmetry_group_IT_number 33
_symmetry_cell_setting 'orthorhombic'
loop_
_space_group_symop_operation_xyz
x,y,z
-x,-y,1/2+z
1/2-x,1/2+y,1/2+z
1/2+x,1/2-y,z
loop_
_atom_site_type_symbol
_atom_site_label
_atom_site_fract_x
_atom_site_fract_y
_atom_site_fract_z
Si Si1 0.401818 0.421588 0.622960
Si Si2 0.265699 0.143969 0.034468
Si Si3 0.886525 0.298649 0.429100
Si Si4 0.863797 0.950752 0.889357
Si Si5 0.966045 0.426321 0.705705
Si Si6 0.298626 0.856438 0.391728
Si Si7 0.387479 0.719390 0.185251
Si Si8 0.289070 0.956786 0.736478
O O1 0.532131 0.399902 0.499152
O O2 0.438037 0.487238 0.768989
O O3 0.340805 0.363495 0.775197
O O4 0.295726 0.448801 0.450581
O O5 0.345607 0.201461 0.175351
O O6 0.215515 0.091177 0.214531
O O7 0.371858 0.108189 0.883469
O O8 0.143359 0.163577 0.878565
O O9 0.939645 0.375449 0.500836
O O10 0.747006 0.286329 0.546434
O O11 0.993724 0.245036 0.525972
O O12 0.781886 0.989761 0.072213
O O13 0.930226 0.506871 0.732198
O O14 0.114336 0.415753 0.777670
O O15 0.370143 0.787288 0.336758
O O16 0.291070 0.880484 0.636212
#
# Coordination Sequence:
#
# PCOD9345776 Si02
#       8
#     4   4   4   4   4   4   4   4
#     4  11  23  40  63  96 142 172 214 286 336 420
#     4  11  23  42  77  96 132 193 227 291 351 419
#     4  10  23  44  71  96 135 181 229 291 344 414
#     4  11  22  40  66 103 130 175 228 268 356 410
#     4  10  22  42  64  99 130 164 231 275 331 419
#     4  10  26  41  63  97 135 175 217 282 340 401
#     4  10  25  47  65 103 141 178 243 291 343 425
#     4  11  22  38  65  96 131 174 213 278 339 408
#
# _framework density 26.174720000000001
#
# number of rings (size 3 to 8) (size 9 to 14) (size 15 to 20)
#    0.000    1.500    3.750    0.000    1.750    8.000 
#    0.000    0.000    0.000    0.000    0.000    0.000 
#    0.000    0.000    0.000    0.000    0.000    0.000 
#
# Total GULP energy -178911.421535 kJ/mol
# GULP energy per Si atom -5590.981923 kJ/mol
# Density = 2.611515 g / cm^3
# Si number density = 26.174720 Si / 1000 Ang^3
#
#
#
# Elastic Constant Matrix: (Units=GPa)
#
#
# Indices 1 2 3 4 5 6 
#
# 1 94.7529 0.6814 32.3120 0.0000 0.0000 0.0000
# 2 0.6814 55.9533 17.4510 0.0000 0.0000 0.0000
# 3 32.3120 17.4510 100.3778 0.0000 0.0000 0.0000
# 4 0.0000 0.0000 0.0000 26.2656 0.0000 0.0000
# 5 0.0000 0.0000 0.0000 0.0000 42.6112 0.0000
# 6 0.0000 0.0000 0.0000 0.0000 0.0000 30.2628
#
#
#
# Elastic Compliance Matrix: (Units=1/GPa)
#
#
# Indices 1 2 3 4 5 6 
#
# 1 0.011920 0.001112 -0.004030 0.000000 0.000000 0.000000
# 2 0.001112 0.019000 -0.003661 0.000000 0.000000 0.000000
# 3 -0.004030 -0.003661 0.011896 0.000000 0.000000 0.000000
# 4 0.000000 0.000000 0.000000 0.038073 0.000000 0.000000
# 5 0.000000 0.000000 0.000000 0.000000 0.023468 0.000000
# 6 0.000000 0.000000 0.000000 0.000000 0.000000 0.033044
#
#
# Mechanical properties :
#
#
# Convention : Reuss Voigt Hill
#
# Bulk Modulus (GPa) = 33.71849 39.10809 36.41329
# Shear Modulus (GPa) = 31.16299 33.20389 32.18344
#
# Velocity S-wave (km/s) = 3.45422 3.56553 3.51032
# Velocity P-wave (km/s) = 5.36832 5.65016 5.51104
#
# Compressibility (1/GPa) = 0.02965732
#
# Stress axis : x y z
#
# Youngs Moduli (GPa) = 83.89118 52.63049 84.05980
#
# Poissons Ratio (x) = -0.05852 0.33880
# Poissons Ratio (y) = -0.09328 0.30776
# Poissons Ratio (z) = 0.33812 0.19269
#
# Static dielectric constant tensor:
#      x y z
#    x 2.128100 0.000000 0.000000 
#    y 0.000000 2.250270 0.000000 
#    z 0.000000 0.000000 2.074390 
# 
# From -- ./inp_files/1027.got.cif
#   From: 2010.05.17/outbox.cif.g08.bks.cpg/sg33_1_cif.got.tgz:1027.got - 2010.06.03 17:15:25.
