data_PCOD9345431
_publ_section_title
;
Structure prediction by ZEFSAII (Michael W. Deem and Ramdas Pophale) SiO2 
 PCOD9345431
Probable space group: P N A 21
;
_chemical_formula_sum "Si O2"
_cell_formula_units_Z 24
_cell_length_a 17.267697
_cell_length_b 11.033165
_cell_length_c 5.149440
_cell_angle_alpha 90.000000
_cell_angle_beta 90.000000
_cell_angle_gamma 90.000000
_cell_volume 981.057664
_symmetry_space_group_name_H-M "P N A 21"
_symmetry_group_IT_number 33
_symmetry_cell_setting 'orthorhombic'
loop_
_space_group_symop_operation_xyz
x,y,z
-x,-y,1/2+z
1/2-x,1/2+y,1/2+z
1/2+x,1/2-y,z
loop_
_atom_site_type_symbol
_atom_site_label
_atom_site_fract_x
_atom_site_fract_y
_atom_site_fract_z
Si Si1 0.549112 0.758835 0.247900
Si Si2 0.686792 0.229421 0.204150
Si Si3 0.133421 0.527057 0.084227
Si Si4 0.192915 0.115958 0.693872
Si Si5 0.040950 0.045216 0.883523
Si Si6 0.139282 0.745215 0.750948
O O1 0.472912 0.690504 0.336461
O O2 0.578096 0.713267 0.968180
O O3 0.611542 0.724113 0.465965
O O4 0.561484 0.902948 0.219483
O O5 0.662432 0.326184 0.423407
O O6 0.775001 0.206098 0.300295
O O7 0.698047 0.286196 0.921895
O O8 0.633158 0.113269 0.156682
O O9 0.136195 0.596881 0.802515
O O10 0.220429 0.565149 0.172062
O O11 0.128365 0.023217 0.795601
O O12 0.016985 0.014042 0.174326
#
# Coordination Sequence:
#
# PCOD9345431 Si02
#       6
#     4   4   4   4   4   4
#     4  10  21  41  60  92 123 162 219 251 312 391
#     4  11  21  39  63  93 128 162 210 278 310 364
#     4   9  23  36  69  88 127 169 204 266 330 355
#     4  11  25  40  60 102 127 158 226 263 304 396
#     4  12  27  44  67  93 132 178 206 265 333 383
#     4   9  19  38  59  92 121 163 209 259 305 383
#
# _framework density 24.463391999999999
#
# number of rings (size 3 to 8) (size 9 to 14) (size 15 to 20)
#    1.000    0.667    1.667    2.000    7.000    0.000 
#    0.000    1.667    0.000    0.000    0.000    0.000 
#    0.000    0.000    0.000    0.000    0.000    0.000 
#
# Total GULP energy -133778.414478 kJ/mol
# GULP energy per Si atom -5574.100603 kJ/mol
# Density = 2.440771 g / cm^3
# Si number density = 24.463392 Si / 1000 Ang^3
#
#
#
# Elastic Constant Matrix: (Units=GPa)
#
#
# Indices 1 2 3 4 5 6 
#
# 1 49.7010 -7.3460 -3.7133 0.0000 0.0000 0.0000
# 2 -7.3460 48.9642 6.5892 0.0000 0.0000 0.0000
# 3 -3.7133 6.5892 83.7167 0.0000 0.0000 0.0000
# 4 0.0000 0.0000 0.0000 29.4424 0.0000 0.0000
# 5 0.0000 0.0000 0.0000 0.0000 27.9886 0.0000
# 6 0.0000 0.0000 0.0000 0.0000 0.0000 34.5347
#
#
#
# Elastic Compliance Matrix: (Units=1/GPa)
#
#
# Indices 1 2 3 4 5 6 
#
# 1 0.020615 0.003002 0.000678 0.000000 0.000000 0.000000
# 2 0.003002 0.021079 -0.001526 0.000000 0.000000 0.000000
# 3 0.000678 -0.001526 0.012095 0.000000 0.000000 0.000000
# 4 0.000000 0.000000 0.000000 0.033965 0.000000 0.000000
# 5 0.000000 0.000000 0.000000 0.000000 0.035729 0.000000
# 6 0.000000 0.000000 0.000000 0.000000 0.000000 0.028956
#
#
# Mechanical properties :
#
#
# Convention : Reuss Voigt Hill
#
# Bulk Modulus (GPa) = 17.21291 19.27132 18.24212
# Shear Modulus (GPa) = 29.85140 30.84995 30.35068
#
# Velocity S-wave (km/s) = 3.49699 3.55500 3.52612
# Velocity P-wave (km/s) = 4.83288 4.97448 4.90419
#
# Compressibility (1/GPa) = 0.05809592
#
# Stress axis : x y z
#
# Youngs Moduli (GPa) = 48.50931 47.44120 82.67724
#
# Poissons Ratio (x) = -0.14239 -0.05607
# Poissons Ratio (y) = -0.14560 0.12616
# Poissons Ratio (z) = -0.03290 0.07239
#
# Static dielectric constant tensor:
#      x y z
#    x 1.919970 0.000000 0.000000 
#    y 0.000000 2.122860 0.000000 
#    z 0.000000 0.000000 1.898750 
# 
# From -- ./inp_files/2384.got.cif
#   From: 2010.05.17/outbox.cif.g08.bks.cpg/sg33_2_cif.got.tgz:2384.got - 2010.06.03 17:15:25.
