data_PCOD9345694
_publ_section_title
;
Structure prediction by ZEFSAII (Michael W. Deem and Ramdas Pophale) SiO2 
 PCOD9345694
Probable space group: P N A 21
;
_chemical_formula_sum "Si O2"
_cell_formula_units_Z 24
_cell_length_a 10.256976
_cell_length_b 7.291017
_cell_length_c 12.712495
_cell_angle_alpha 90.000000
_cell_angle_beta 90.000000
_cell_angle_gamma 90.000000
_cell_volume 950.688510
_symmetry_space_group_name_H-M "P N A 21"
_symmetry_group_IT_number 33
_symmetry_cell_setting 'orthorhombic'
loop_
_space_group_symop_operation_xyz
x,y,z
-x,-y,1/2+z
1/2-x,1/2+y,1/2+z
1/2+x,1/2-y,z
loop_
_atom_site_type_symbol
_atom_site_label
_atom_site_fract_x
_atom_site_fract_y
_atom_site_fract_z
Si Si1 0.063844 0.932246 0.380130
Si Si2 0.273250 0.926160 0.218138
Si Si3 0.497552 0.109057 0.995428
Si Si4 0.258758 0.771933 0.615365
Si Si5 0.861399 0.220763 0.320935
Si Si6 0.658062 0.247752 0.507225
O O1 0.113508 0.047734 0.480875
O O2 0.182152 0.857988 0.310696
O O3 0.976706 0.758109 0.405189
O O4 0.369561 0.887672 0.559762
O O5 0.372056 0.070393 0.275732
O O6 0.186465 0.069391 0.147516
O O7 0.325117 0.787879 0.131261
O O8 0.513549 0.594692 0.823729
O O9 0.448362 0.905313 0.971968
O O10 0.372170 0.202377 0.054720
O O11 0.226720 0.861770 0.727161
O O12 0.782898 0.216686 0.430863
#
# Coordination Sequence:
#
# PCOD9345694 Si02
#       6
#     4   4   4   4   4   4
#     4  11  21  39  69  95 132 183 228 278 335 413
#     4   8  19  37  61  89 133 170 217 273 342 385
#     4  11  22  40  68  99 131 179 227 279 333 408
#     4   9  20  40  68  88 137 177 213 279 347 379
#     4   9  20  38  70  90 131 182 218 272 351 396
#     4  10  22  40  64  95 136 173 221 281 338 401
#
# _framework density 25.244862999999999
#
# number of rings (size 3 to 8) (size 9 to 14) (size 15 to 20)
#    1.000    1.333    0.000    3.000    0.000    2.667 
#    3.000    0.000   14.667    0.000    0.000    0.000 
#    0.000    0.000    0.000    0.000    0.000    0.000 
#
# Total GULP energy -133891.758618 kJ/mol
# GULP energy per Si atom -5578.823276 kJ/mol
# Density = 2.518740 g / cm^3
# Si number density = 25.244863 Si / 1000 Ang^3
#
#
#
# Elastic Constant Matrix: (Units=GPa)
#
#
# Indices 1 2 3 4 5 6 
#
# 1 92.3596 36.1350 35.9428 0.0000 0.0000 0.0000
# 2 36.1350 95.2558 58.3907 0.0000 0.0000 0.0000
# 3 35.9428 58.3907 96.6907 0.0000 0.0000 0.0000
# 4 0.0000 0.0000 0.0000 18.2553 0.0000 0.0000
# 5 0.0000 0.0000 0.0000 0.0000 38.8986 0.0000
# 6 0.0000 0.0000 0.0000 0.0000 0.0000 29.1446
#
#
#
# Elastic Compliance Matrix: (Units=1/GPa)
#
#
# Indices 1 2 3 4 5 6 
#
# 1 0.013240 -0.003184 -0.002999 0.000000 0.000000 0.000000
# 2 -0.003184 0.017434 -0.009345 0.000000 0.000000 0.000000
# 3 -0.002999 -0.009345 0.017100 0.000000 0.000000 0.000000
# 4 0.000000 0.000000 0.000000 0.054779 0.000000 0.000000
# 5 0.000000 0.000000 0.000000 0.000000 0.025708 0.000000
# 6 0.000000 0.000000 0.000000 0.000000 0.000000 0.034312
#
#
# Mechanical properties :
#
#
# Convention : Reuss Voigt Hill
#
# Bulk Modulus (GPa) = 59.81248 60.58258 60.19753
# Shear Modulus (GPa) = 25.10027 27.51554 26.30790
#
# Velocity S-wave (km/s) = 3.15663 3.30501 3.23167
# Velocity P-wave (km/s) = 6.08524 6.21404 6.14997
#
# Compressibility (1/GPa) = 0.01671892
#
# Stress axis : x y z
#
# Youngs Moduli (GPa) = 75.52810 57.35855 58.47921
#
# Poissons Ratio (x) = 0.18265 0.17536
# Poissons Ratio (y) = 0.24051 0.54647
# Poissons Ratio (z) = 0.22648 0.53599
#
# Static dielectric constant tensor:
#      x y z
#    x 2.003690 0.000000 0.000000 
#    y 0.000000 1.985070 0.000000 
#    z 0.000000 0.000000 2.172100 
# 
# From -- ./inp_files/6274.got.cif
#   From: 2010.05.17/outbox.cif.g08.bks.cpg/sg33_4_cif.got.tgz:6274.got - 2010.06.03 17:15:25.
