data_PCOD9345491
_publ_section_title
;
Structure prediction by ZEFSAII (Michael W. Deem and Ramdas Pophale) SiO2 
 PCOD9345491
Probable space group: P N A 21
;
_chemical_formula_sum "Si O2"
_cell_formula_units_Z 32
_cell_length_a 14.652931
_cell_length_b 4.985962
_cell_length_c 17.695653
_cell_angle_alpha 90.000000
_cell_angle_beta 90.000000
_cell_angle_gamma 90.000000
_cell_volume 1292.825954
_symmetry_space_group_name_H-M "P N A 21"
_symmetry_group_IT_number 33
_symmetry_cell_setting 'orthorhombic'
loop_
_space_group_symop_operation_xyz
x,y,z
-x,-y,1/2+z
1/2-x,1/2+y,1/2+z
1/2+x,1/2-y,z
loop_
_atom_site_type_symbol
_atom_site_label
_atom_site_fract_x
_atom_site_fract_y
_atom_site_fract_z
Si Si1 0.052060 0.540188 0.935660
Si Si2 0.944119 0.022809 0.887155
Si Si3 0.302848 0.239390 0.695464
Si Si4 0.009125 0.838991 0.228998
Si Si5 0.208435 0.843244 0.492076
Si Si6 0.153257 0.492367 0.787055
Si Si7 0.632333 0.622368 0.646920
Si Si8 0.817120 0.141404 0.531972
O O1 0.129638 0.596167 0.870222
O O2 0.016684 0.236892 0.924115
O O3 0.096166 0.676361 0.009474
O O4 0.966288 0.730604 0.918638
O O5 0.948732 0.985200 0.796729
O O6 0.849416 0.140181 0.916795
O O7 0.405450 0.143638 0.712783
O O8 0.252720 0.388269 0.764435
O O9 0.316927 0.423763 0.621191
O O10 0.226505 0.032006 0.667177
O O11 0.920600 0.737465 0.273426
O O12 0.961622 0.955092 0.154122
O O13 0.146160 0.756136 0.564074
O O14 0.292589 0.635625 0.489874
O O15 0.237668 0.146232 0.511761
O O16 0.125235 0.681911 0.717767
#
# Coordination Sequence:
#
# PCOD9345491 Si02
#       8
#     4   4   4   4   4   4   4   4
#     4  11  24  42  66  94 133 170 217 269 331 391
#     4  11  24  43  63  97 128 172 219 263 330 399
#     4  10  23  40  65  95 126 171 225 270 331 403
#     4  10  23  40  64  95 127 169 227 266 328 401
#     4  11  24  42  66  93 133 170 215 271 333 390
#     4  10  21  42  64  90 133 172 209 282 331 383
#     4  10  21  42  63  90 132 168 211 278 330 379
#     4  11  24  43  63  98 128 170 219 267 332 400
#
# _framework density 24.751978999999999
#
# number of rings (size 3 to 8) (size 9 to 14) (size 15 to 20)
#    0.000    1.500    2.500    1.500    3.500    3.000 
#    0.000    0.000    0.000    0.000    0.000    0.000 
#    0.000    0.000    0.000    0.000    0.000    0.000 
#
# Total GULP energy -178337.452391 kJ/mol
# GULP energy per Si atom -5573.045387 kJ/mol
# Density = 2.469564 g / cm^3
# Si number density = 24.751979 Si / 1000 Ang^3
#
#
#
# Elastic Constant Matrix: (Units=GPa)
#
#
# Indices 1 2 3 4 5 6 
#
# 1 82.4223 -1.5766 16.1332 0.0000 0.0000 0.0000
# 2 -1.5766 64.4556 -2.1971 0.0000 0.0000 0.0000
# 3 16.1332 -2.1971 72.7284 0.0000 0.0000 0.0000
# 4 0.0000 0.0000 0.0000 24.2901 0.0000 0.0000
# 5 0.0000 0.0000 0.0000 0.0000 26.5209 0.0000
# 6 0.0000 0.0000 0.0000 0.0000 0.0000 15.0998
#
#
#
# Elastic Compliance Matrix: (Units=1/GPa)
#
#
# Indices 1 2 3 4 5 6 
#
# 1 0.012686 0.000215 -0.002808 0.000000 0.000000 0.000000
# 2 0.000215 0.015534 0.000422 0.000000 0.000000 0.000000
# 3 -0.002808 0.000422 0.014385 0.000000 0.000000 0.000000
# 4 0.000000 0.000000 0.000000 0.041169 0.000000 0.000000
# 5 0.000000 0.000000 0.000000 0.000000 0.037706 0.000000
# 6 0.000000 0.000000 0.000000 0.000000 0.000000 0.066226
#
#
# Mechanical properties :
#
#
# Convention : Reuss Voigt Hill
#
# Bulk Modulus (GPa) = 26.13490 27.14725 26.64107
# Shear Modulus (GPa) = 24.41358 26.99863 25.70610
#
# Velocity S-wave (km/s) = 3.14399 3.30626 3.22615
# Velocity P-wave (km/s) = 4.87455 5.05635 4.96628
#
# Compressibility (1/GPa) = 0.03826302
#
# Stress axis : x y z
#
# Youngs Moduli (GPa) = 78.82505 64.37422 69.51519
#
# Poissons Ratio (x) = -0.01382 0.19518
# Poissons Ratio (y) = -0.01692 -0.02931
# Poissons Ratio (z) = 0.22132 -0.02715
#
# Static dielectric constant tensor:
#      x y z
#    x 2.076000 0.000000 0.000000 
#    y 0.000000 2.016560 0.000000 
#    z 0.000000 0.000000 2.054750 
# 
# From -- ./inp_files/8787.got.cif
#   From: 2010.05.17/outbox.cif.g08.bks.cpg/sg33_5_cif.got.tgz:8787.got - 2010.06.03 17:15:25.
