data_PCOD9345782
_publ_section_title
;
Structure prediction by ZEFSAII (Michael W. Deem and Ramdas Pophale) SiO2 
 PCOD9345782
Probable space group: P N A 21
;
_chemical_formula_sum "Si O2"
_cell_formula_units_Z 20
_cell_length_a 5.265030
_cell_length_b 16.780282
_cell_length_c 9.009088
_cell_angle_alpha 90.000000
_cell_angle_beta 90.000000
_cell_angle_gamma 90.000000
_cell_volume 795.941106
_symmetry_space_group_name_H-M "P N A 21"
_symmetry_group_IT_number 33
_symmetry_cell_setting 'orthorhombic'
loop_
_space_group_symop_operation_xyz
x,y,z
-x,-y,1/2+z
1/2-x,1/2+y,1/2+z
1/2+x,1/2-y,z
loop_
_atom_site_type_symbol
_atom_site_label
_atom_site_fract_x
_atom_site_fract_y
_atom_site_fract_z
Si Si1 0.747336 0.843419 0.119310
Si Si2 0.721023 0.125184 0.179799
Si Si3 0.502308 0.089915 0.893588
Si Si4 0.243729 0.832356 0.988853
Si Si5 0.233354 0.028517 0.171338
O O1 0.685796 0.860368 0.288929
O O2 0.005192 0.879642 0.055067
O O3 0.764550 0.750434 0.077793
O O4 0.505631 0.873744 0.029452
O O5 0.439660 0.095491 0.223824
O O6 0.795013 0.183113 0.314321
O O7 0.942798 0.058016 0.182304
O O8 0.670678 0.143717 0.006890
O O9 0.689426 0.041651 0.784520
O O10 0.328810 0.032935 0.998480
#
# Coordination Sequence:
#
# PCOD9345782 Si02
#       5
#     4   4   4   4   4
#     4  10  23  41  67  91 129 169 223 272 333 399
#     4  10  24  40  65  93 133 171 222 272 330 406
#     4  10  26  40  66  99 134 172 222 273 347 398
#     4  10  22  42  66  93 121 178 218 273 330 391
#     4  10  25  39  64 100 133 172 211 282 330 414
#
# _framework density 25.127489000000001
#
# number of rings (size 3 to 8) (size 9 to 14) (size 15 to 20)
#    1.200    0.800    0.000    1.200   11.200    0.000 
#    0.000    8.000    0.000    0.000    0.000    0.000 
#    0.000    0.000    0.000    0.000    0.000    0.000 
#
# Total GULP energy -111384.225437 kJ/mol
# GULP energy per Si atom -5569.211272 kJ/mol
# Density = 2.507030 g / cm^3
# Si number density = 25.127489 Si / 1000 Ang^3
#
#
#
# Elastic Constant Matrix: (Units=GPa)
#
#
# Indices 1 2 3 4 5 6 
#
# 1 141.4888 -18.7886 39.3840 0.0000 0.0000 0.0000
# 2 -18.7886 31.8258 37.4050 0.0000 0.0000 0.0000
# 3 39.3840 37.4050 223.6393 0.0000 0.0000 0.0000
# 4 0.0000 0.0000 0.0000 19.6209 0.0000 0.0000
# 5 0.0000 0.0000 0.0000 0.0000 26.2815 0.0000
# 6 0.0000 0.0000 0.0000 0.0000 0.0000 13.9513
#
#
#
# Elastic Compliance Matrix: (Units=1/GPa)
#
#
# Indices 1 2 3 4 5 6 
#
# 1 0.009143 0.009074 -0.003128 0.000000 0.000000 0.000000
# 2 0.009074 0.048114 -0.009645 0.000000 0.000000 0.000000
# 3 -0.003128 -0.009645 0.006636 0.000000 0.000000 0.000000
# 4 0.000000 0.000000 0.000000 0.050966 0.000000 0.000000
# 5 0.000000 0.000000 0.000000 0.000000 0.038050 0.000000
# 6 0.000000 0.000000 0.000000 0.000000 0.000000 0.071678
#
#
# Mechanical properties :
#
#
# Convention : Reuss Voigt Hill
#
# Bulk Modulus (GPa) = 17.70083 56.99500 37.34791
# Shear Modulus (GPa) = 19.93488 34.56763 27.25125
#
# Velocity S-wave (km/s) = 2.81970 3.71305 3.29678
# Velocity P-wave (km/s) = 4.20246 6.41201 5.42100
#
# Compressibility (1/GPa) = 0.05649453
#
# Stress axis : x y z
#
# Youngs Moduli (GPa) = 109.36967 20.78392 150.70312
#
# Poissons Ratio (x) = -0.18859 0.47138
# Poissons Ratio (y) = -0.99242 1.45359
# Poissons Ratio (z) = 0.34209 0.20047
#
# Static dielectric constant tensor:
#      x y z
#    x 2.124000 0.000000 0.000000 
#    y 0.000000 3.433890 0.000000 
#    z 0.000000 0.000000 2.035410 
# 
# From -- ./inp_files/2678.got.cif
#   From: 2010.05.17/outbox.cif.g08.bks.cpg/sg33_2_cif.got.tgz:2678.got - 2010.06.03 17:15:25.
