data_PCOD9345542
_publ_section_title
;
Structure prediction by ZEFSAII (Michael W. Deem and Ramdas Pophale) SiO2 
 PCOD9345542
Probable space group: P N A 21
;
_chemical_formula_sum "Si O2"
_cell_formula_units_Z 28
_cell_length_a 22.944229
_cell_length_b 6.127412
_cell_length_c 7.893625
_cell_angle_alpha 90.000000
_cell_angle_beta 90.000000
_cell_angle_gamma 90.000000
_cell_volume 1109.754825
_symmetry_space_group_name_H-M "P N A 21"
_symmetry_group_IT_number 33
_symmetry_cell_setting 'orthorhombic'
loop_
_space_group_symop_operation_xyz
x,y,z
-x,-y,1/2+z
1/2-x,1/2+y,1/2+z
1/2+x,1/2-y,z
loop_
_atom_site_type_symbol
_atom_site_label
_atom_site_fract_x
_atom_site_fract_y
_atom_site_fract_z
Si Si1 0.607151 0.221014 0.884720
Si Si2 0.599133 0.562750 0.166767
Si Si3 0.165495 0.061120 0.592549
Si Si4 0.719994 0.681717 0.111032
Si Si5 0.474818 0.052192 0.577652
Si Si6 0.422451 0.790936 0.893984
Si Si7 0.692832 0.842877 0.751007
O O1 0.617161 0.390743 0.735560
O O2 0.650592 0.025180 0.833134
O O3 0.621477 0.358497 0.054410
O O4 0.545934 0.111653 0.929815
O O5 0.657656 0.699256 0.203116
O O6 0.556987 0.715136 0.059313
O O7 0.564170 0.454936 0.322845
O O8 0.231314 0.132107 0.636578
O O9 0.143829 0.231679 0.447891
O O10 0.167005 0.799616 0.597051
O O11 0.751107 0.467348 0.181495
O O12 0.707275 0.689272 0.910747
O O13 0.542261 0.107136 0.551282
O O14 0.445201 0.946566 0.743569
#
# Coordination Sequence:
#
# PCOD9345542 Si02
#       7
#     4   4   4   4   4   4   4
#     4  10  21  43  69 100 132 189 229 291 363 429
#     4  11  24  44  72 102 143 190 244 299 372 433
#     4  11  24  42  69 102 144 186 240 295 368 440
#     4  11  24  41  68 105 143 193 239 297 368 443
#     4  11  24  47  73 100 147 184 242 311 361 438
#     4  11  27  44  70 108 138 191 250 301 377 447
#     4  11  24  41  69  99 147 185 238 306 361 440
#
# _framework density 25.230798
#
# number of rings (size 3 to 8) (size 9 to 14) (size 15 to 20)
#    0.000    1.143    2.857    1.714    2.000    9.143 
#    0.000    0.000    0.000    0.000    0.000    0.000 
#    0.000    0.000    0.000    0.000    0.000    0.000 
#
# Total GULP energy -156052.359880 kJ/mol
# GULP energy per Si atom -5573.298567 kJ/mol
# Density = 2.517337 g / cm^3
# Si number density = 25.230798 Si / 1000 Ang^3
#
#
#
# Elastic Constant Matrix: (Units=GPa)
#
#
# Indices 1 2 3 4 5 6 
#
# 1 31.8656 7.2799 -25.8607 0.0000 0.0000 0.0000
# 2 7.2799 61.4775 4.7539 0.0000 0.0000 0.0000
# 3 -25.8607 4.7539 77.4902 0.0000 0.0000 0.0000
# 4 0.0000 0.0000 0.0000 21.1765 0.0000 0.0000
# 5 0.0000 0.0000 0.0000 0.0000 29.4080 0.0000
# 6 0.0000 0.0000 0.0000 0.0000 0.0000 14.8039
#
#
#
# Elastic Compliance Matrix: (Units=1/GPa)
#
#
# Indices 1 2 3 4 5 6 
#
# 1 0.045557 -0.006602 0.015609 0.000000 0.000000 0.000000
# 2 -0.006602 0.017300 -0.003265 0.000000 0.000000 0.000000
# 3 0.015609 -0.003265 0.018314 0.000000 0.000000 0.000000
# 4 0.000000 0.000000 0.000000 0.047222 0.000000 0.000000
# 5 0.000000 0.000000 0.000000 0.000000 0.034004 0.000000
# 6 0.000000 0.000000 0.000000 0.000000 0.000000 0.067550
#
#
# Mechanical properties :
#
#
# Convention : Reuss Voigt Hill
#
# Bulk Modulus (GPa) = 10.79246 15.90883 13.35064
# Shear Modulus (GPa) = 20.05223 25.38837 22.72030
#
# Velocity S-wave (km/s) = 2.82219 3.17558 3.00409
# Velocity P-wave (km/s) = 3.86089 4.44576 4.16361
#
# Compressibility (1/GPa) = 0.09265728
#
# Stress axis : x y z
#
# Youngs Moduli (GPa) = 21.95030 57.80251 54.60227
#
# Poissons Ratio (x) = 0.38159 -0.85228
# Poissons Ratio (y) = 0.14491 0.17825
# Poissons Ratio (z) = -0.34262 0.18870
#
# Static dielectric constant tensor:
#      x y z
#    x 1.966270 0.000000 0.000000 
#    y 0.000000 1.979510 0.000000 
#    z 0.000000 0.000000 2.179410 
# 
# From -- ./inp_files/5133.got.cif
#   From: 2010.05.17/outbox.cif.g08.bks.cpg/sg33_3_cif.got.tgz:5133.got - 2010.06.03 17:15:25.
