data_PCOD9345915
_publ_section_title
;
Structure prediction by ZEFSAII (Michael W. Deem and Ramdas Pophale) SiO2 
 PCOD9345915
Probable space group: P N A 21
;
_chemical_formula_sum "Si O2"
_cell_formula_units_Z 24
_cell_length_a 10.164193
_cell_length_b 17.651583
_cell_length_c 5.165121
_cell_angle_alpha 90.000000
_cell_angle_beta 90.000000
_cell_angle_gamma 90.000000
_cell_volume 926.695517
_symmetry_space_group_name_H-M "P N A 21"
_symmetry_group_IT_number 33
_symmetry_cell_setting 'orthorhombic'
loop_
_space_group_symop_operation_xyz
x,y,z
-x,-y,1/2+z
1/2-x,1/2+y,1/2+z
1/2+x,1/2-y,z
loop_
_atom_site_type_symbol
_atom_site_label
_atom_site_fract_x
_atom_site_fract_y
_atom_site_fract_z
Si Si1 0.506046 0.857904 0.057060
Si Si2 0.431319 0.394688 0.640508
Si Si3 0.317872 0.147503 0.063772
Si Si4 0.304242 0.934324 0.756017
Si Si5 0.281077 0.797306 0.360863
Si Si6 0.667786 0.459776 0.397744
O O1 0.588961 0.864851 0.318350
O O2 0.384627 0.802194 0.127628
O O3 0.598429 0.832691 0.821184
O O4 0.426790 0.931594 0.951168
O O5 0.328123 0.415979 0.414721
O O6 0.366405 0.320811 0.767757
O O7 0.577078 0.396602 0.529937
O O8 0.419398 0.466107 0.835660
O O9 0.233427 0.074754 0.144410
O O10 0.224091 0.217130 0.994767
O O11 0.320794 0.864789 0.555316
O O12 0.279801 0.007978 0.584757
#
# Coordination Sequence:
#
# PCOD9345915 Si02
#       6
#     4   4   4   4   4   4
#     4  11  26  52  71 115 159 207 260 316 403 475
#     4  10  22  44  76 113 158 202 256 331 391 469
#     4  12  29  47  81 119 150 210 269 322 392 485
#     4  10  22  49  75 106 156 211 246 329 404 458
#     4  10  25  50  77 109 161 207 252 333 409 456
#     4  11  24  46  76 118 154 203 271 321 395 471
#
# _framework density 25.898475999999999
#
# number of rings (size 3 to 8) (size 9 to 14) (size 15 to 20)
#    0.000    1.333    3.333    0.000    7.000    2.667 
#    9.000    0.000    0.000    0.000    0.000    0.000 
#    0.000    0.000    0.000    0.000    0.000    0.000 
#
# Total GULP energy -134552.661079 kJ/mol
# GULP energy per Si atom -5606.360878 kJ/mol
# Density = 2.583953 g / cm^3
# Si number density = 25.898476 Si / 1000 Ang^3
#
#
#
# Elastic Constant Matrix: (Units=GPa)
#
#
# Indices 1 2 3 4 5 6 
#
# 1 94.0462 20.5109 39.5975 0.0000 0.0000 0.0000
# 2 20.5109 76.5679 26.7235 0.0000 0.0000 0.0000
# 3 39.5975 26.7235 141.2712 0.0000 0.0000 0.0000
# 4 0.0000 0.0000 0.0000 41.8227 0.0000 0.0000
# 5 0.0000 0.0000 0.0000 0.0000 62.9229 0.0000
# 6 0.0000 0.0000 0.0000 0.0000 0.0000 20.6662
#
#
#
# Elastic Compliance Matrix: (Units=1/GPa)
#
#
# Indices 1 2 3 4 5 6 
#
# 1 0.012411 -0.002260 -0.003051 0.000000 0.000000 0.000000
# 2 -0.002260 0.014395 -0.002090 0.000000 0.000000 0.000000
# 3 -0.003051 -0.002090 0.008329 0.000000 0.000000 0.000000
# 4 0.000000 0.000000 0.000000 0.023910 0.000000 0.000000
# 5 0.000000 0.000000 0.000000 0.000000 0.015892 0.000000
# 6 0.000000 0.000000 0.000000 0.000000 0.000000 0.048388
#
#
# Mechanical properties :
#
#
# Convention : Reuss Voigt Hill
#
# Bulk Modulus (GPa) = 49.17943 53.94991 51.56467
# Shear Modulus (GPa) = 34.50551 40.08593 37.29572
#
# Velocity S-wave (km/s) = 3.65408 3.93849 3.79895
# Velocity P-wave (km/s) = 6.06907 6.44661 6.26069
#
# Compressibility (1/GPa) = 0.02033370
#
# Stress axis : x y z
#
# Youngs Moduli (GPa) = 80.57659 69.46887 120.06099
#
# Poissons Ratio (x) = 0.15697 0.36633
# Poissons Ratio (y) = 0.18207 0.25089
# Poissons Ratio (z) = 0.24585 0.14517
#
# Static dielectric constant tensor:
#      x y z
#    x 2.033130 0.000000 0.000000 
#    y 0.000000 2.009120 0.000000 
#    z 0.000000 0.000000 2.039170 
# 
# From -- ./inp_files/878.got.cif
#   From: 2010.05.17/outbox.cif.g08.bks.cpg/sg33_1_cif.got.tgz:878.got - 2010.06.03 17:15:25.
