data_PCOD9345326
_publ_section_title
;
Structure prediction by ZEFSAII (Michael W. Deem and Ramdas Pophale) SiO2 
 PCOD9345326
Probable space group: P N A 21
;
_chemical_formula_sum "Si O2"
_cell_formula_units_Z 32
_cell_length_a 5.548995
_cell_length_b 21.853578
_cell_length_c 9.740193
_cell_angle_alpha 90.000000
_cell_angle_beta 90.000000
_cell_angle_gamma 90.000000
_cell_volume 1181.148352
_symmetry_space_group_name_H-M "P N A 21"
_symmetry_group_IT_number 33
_symmetry_cell_setting 'orthorhombic'
loop_
_space_group_symop_operation_xyz
x,y,z
-x,-y,1/2+z
1/2-x,1/2+y,1/2+z
1/2+x,1/2-y,z
loop_
_atom_site_type_symbol
_atom_site_label
_atom_site_fract_x
_atom_site_fract_y
_atom_site_fract_z
Si Si1 0.159711 0.071191 0.755590
Si Si2 0.363697 0.765289 0.343561
Si Si3 0.502151 0.114611 0.982327
Si Si4 0.115926 0.180546 0.116531
Si Si5 0.985766 0.508811 0.074140
Si Si6 0.600919 0.600814 0.004567
Si Si7 0.444445 0.273098 0.398543
Si Si8 0.601139 0.441884 0.248931
O O1 0.388908 0.061699 0.658751
O O2 0.973532 0.108067 0.662237
O O3 0.256253 0.098227 0.895997
O O4 0.058584 0.002490 0.754162
O O5 0.120238 0.744271 0.269819
O O6 0.353028 0.835186 0.396260
O O7 0.396227 0.720551 0.477527
O O8 0.392660 0.154104 0.109647
O O9 0.618438 0.046773 0.994657
O O10 0.997450 0.222364 0.234761
O O11 0.995478 0.114179 0.157284
O O12 0.788199 0.545702 0.989054
O O13 0.844526 0.466549 0.183468
O O14 0.682880 0.664275 0.944708
O O15 0.380347 0.581971 0.903950
O O16 0.727961 0.272265 0.443302
#
# Coordination Sequence:
#
# PCOD9345326 Si02
#       8
#     4   4   4   4   4   4   4   4
#     4  11  23  39  65  95 133 184 222 283 349 431
#     4  10  21  39  63  94 131 169 220 280 341 397
#     4  10  21  41  62 100 136 177 231 291 355 418
#     4   9  20  41  67  96 136 174 229 295 349 414
#     4  10  22  39  64  97 130 177 231 277 353 415
#     4  10  23  43  65  94 140 172 232 284 351 424
#     4  11  24  44  74 102 134 181 235 297 353 414
#     4   9  20  40  62  96 130 174 220 285 347 409
#
# _framework density 27.092275999999998
#
# number of rings (size 3 to 8) (size 9 to 14) (size 15 to 20)
#    0.000    2.000    1.250    1.500    5.250    0.000 
#   18.000    2.500    0.000    0.000    0.000    0.000 
#    0.000    0.000    0.000    0.000    0.000    0.000 
#
# Total GULP energy -178385.881687 kJ/mol
# GULP energy per Si atom -5574.558803 kJ/mol
# Density = 2.703061 g / cm^3
# Si number density = 27.092276 Si / 1000 Ang^3
#
#
#
# Elastic Constant Matrix: (Units=GPa)
#
#
# Indices 1 2 3 4 5 6 
#
# 1 78.3388 1.0752 0.3276 0.0000 0.0000 0.0000
# 2 1.0752 111.4346 22.7238 0.0000 0.0000 0.0000
# 3 0.3276 22.7238 69.4655 0.0000 0.0000 0.0000
# 4 0.0000 0.0000 0.0000 33.3340 0.0000 0.0000
# 5 0.0000 0.0000 0.0000 0.0000 17.4829 0.0000
# 6 0.0000 0.0000 0.0000 0.0000 0.0000 29.0044
#
#
#
# Elastic Compliance Matrix: (Units=1/GPa)
#
#
# Indices 1 2 3 4 5 6 
#
# 1 0.012767 -0.000119 -0.000021 0.000000 0.000000 0.000000
# 2 -0.000119 0.009616 -0.003145 0.000000 0.000000 0.000000
# 3 -0.000021 -0.003145 0.015425 0.000000 0.000000 0.000000
# 4 0.000000 0.000000 0.000000 0.029999 0.000000 0.000000
# 5 0.000000 0.000000 0.000000 0.000000 0.057199 0.000000
# 6 0.000000 0.000000 0.000000 0.000000 0.000000 0.034478
#
#
# Mechanical properties :
#
#
# Convention : Reuss Voigt Hill
#
# Bulk Modulus (GPa) = 32.01325 34.16579 33.08952
# Shear Modulus (GPa) = 28.33399 31.63843 29.98621
#
# Velocity S-wave (km/s) = 3.23744 3.42102 3.33050
# Velocity P-wave (km/s) = 5.08102 5.31439 5.19901
#
# Compressibility (1/GPa) = 0.03123707
#
# Stress axis : x y z
#
# Youngs Moduli (GPa) = 78.32828 103.98920 64.83155
#
# Poissons Ratio (x) = 0.01236 0.00138
# Poissons Ratio (y) = 0.00931 0.20391
# Poissons Ratio (z) = 0.00167 0.32706
#
# Static dielectric constant tensor:
#      x y z
#    x 2.400170 0.000000 0.000000 
#    y 0.000000 2.114030 0.000000 
#    z 0.000000 0.000000 2.204450 
# 
# From -- ./inp_files/5579.got.cif
#   From: 2010.05.17/outbox.cif.g08.bks.cpg/sg33_3_cif.got.tgz:5579.got - 2010.06.03 17:15:25.
