data_PCOD9345834
_publ_section_title
;
Structure prediction by ZEFSAII (Michael W. Deem and Ramdas Pophale) SiO2 
 PCOD9345834
Probable space group: P N A 21
;
_chemical_formula_sum "Si O2"
_cell_formula_units_Z 20
_cell_length_a 9.330456
_cell_length_b 10.377250
_cell_length_c 7.788268
_cell_angle_alpha 90.000000
_cell_angle_beta 90.000000
_cell_angle_gamma 90.000000
_cell_volume 754.094957
_symmetry_space_group_name_H-M "P N A 21"
_symmetry_group_IT_number 33
_symmetry_cell_setting 'orthorhombic'
loop_
_space_group_symop_operation_xyz
x,y,z
-x,-y,1/2+z
1/2-x,1/2+y,1/2+z
1/2+x,1/2-y,z
loop_
_atom_site_type_symbol
_atom_site_label
_atom_site_fract_x
_atom_site_fract_y
_atom_site_fract_z
Si Si1 0.344512 0.833649 0.232150
Si Si2 0.612170 0.267300 0.388045
Si Si3 0.170246 0.964992 0.517190
Si Si4 0.338044 0.095376 0.813916
Si Si5 0.873353 0.305502 0.154732
O O1 0.421583 0.592956 0.974206
O O2 0.515010 0.848885 0.235787
O O3 0.287266 0.702618 0.320026
O O4 0.303625 0.811028 0.034445
O O5 0.767037 0.560509 0.348725
O O6 0.716148 0.293489 0.230359
O O7 0.480092 0.187446 0.314574
O O8 0.271688 0.993859 0.681662
O O9 0.090917 0.832150 0.562889
O O10 0.380703 0.082132 0.014223
#
# Coordination Sequence:
#
# PCOD9345834 Si02
#       5
#     4   4   4   4   4
#     4  10  22  43  66  93 130 171 219 270 323 389
#     4  11  24  42  65  96 132 172 219 274 331 389
#     4  10  24  40  66  96 128 176 220 268 328 392
#     4  10  22  43  66  93 130 171 219 270 323 389
#     4  11  24  42  65  96 132 172 219 274 331 389
#
# _framework density 26.52186
#
# number of rings (size 3 to 8) (size 9 to 14) (size 15 to 20)
#    0.000    1.600    0.000    4.800    0.000   16.000 
#    0.000    0.000    0.000    0.000    0.000    0.000 
#    0.000    0.000    0.000    0.000    0.000    0.000 
#
# Total GULP energy -111930.281716 kJ/mol
# GULP energy per Si atom -5596.514086 kJ/mol
# Density = 2.646150 g / cm^3
# Si number density = 26.521860 Si / 1000 Ang^3
#
#
#
# Elastic Constant Matrix: (Units=GPa)
#
#
# Indices 1 2 3 4 5 6 
#
# 1 64.9709 -10.3463 20.3120 0.0000 0.0000 0.0000
# 2 -10.3463 131.7780 25.4380 0.0000 0.0000 0.0000
# 3 20.3120 25.4380 184.2237 0.0000 0.0000 0.0000
# 4 0.0000 0.0000 0.0000 52.0610 0.0000 0.0000
# 5 0.0000 0.0000 0.0000 0.0000 48.7929 0.0000
# 6 0.0000 0.0000 0.0000 0.0000 0.0000 28.1428
#
#
#
# Elastic Compliance Matrix: (Units=1/GPa)
#
#
# Indices 1 2 3 4 5 6 
#
# 1 0.016291 0.001670 -0.002027 0.000000 0.000000 0.000000
# 2 0.001670 0.007968 -0.001284 0.000000 0.000000 0.000000
# 3 -0.002027 -0.001284 0.005829 0.000000 0.000000 0.000000
# 4 0.000000 0.000000 0.000000 0.019208 0.000000 0.000000
# 5 0.000000 0.000000 0.000000 0.000000 0.020495 0.000000
# 6 0.000000 0.000000 0.000000 0.000000 0.000000 0.035533
#
#
# Mechanical properties :
#
#
# Convention : Reuss Voigt Hill
#
# Bulk Modulus (GPa) = 37.30509 50.19778 43.75144
# Shear Modulus (GPa) = 42.53837 48.83726 45.68781
#
# Velocity S-wave (km/s) = 4.00921 4.29580 4.15498
# Velocity P-wave (km/s) = 5.96054 6.60101 6.28893
#
# Compressibility (1/GPa) = 0.02680599
#
# Stress axis : x y z
#
# Youngs Moduli (GPa) = 61.38297 125.50851 171.55587
#
# Poissons Ratio (x) = -0.20964 0.34772
# Poissons Ratio (y) = -0.10253 0.22034
# Poissons Ratio (z) = 0.12441 0.16120
#
# Static dielectric constant tensor:
#      x y z
#    x 1.955820 0.000000 0.000000 
#    y 0.000000 2.201760 0.000000 
#    z 0.000000 0.000000 2.069630 
# 
# From -- ./inp_files/3037.got.cif
#   From: 2010.05.17/outbox.cif.g08.bks.cpg/sg33_2_cif.got.tgz:3037.got - 2010.06.03 17:15:25.
