data_PCOD9345731
_publ_section_title
;
Structure prediction by ZEFSAII (Michael W. Deem and Ramdas Pophale) SiO2 
 PCOD9345731
Probable space group: P N A 21
;
_chemical_formula_sum "Si O2"
_cell_formula_units_Z 28
_cell_length_a 14.012564
_cell_length_b 8.800669
_cell_length_c 10.451221
_cell_angle_alpha 90.000000
_cell_angle_beta 90.000000
_cell_angle_gamma 90.000000
_cell_volume 1288.843922
_symmetry_space_group_name_H-M "P N A 21"
_symmetry_group_IT_number 33
_symmetry_cell_setting 'orthorhombic'
loop_
_space_group_symop_operation_xyz
x,y,z
-x,-y,1/2+z
1/2-x,1/2+y,1/2+z
1/2+x,1/2-y,z
loop_
_atom_site_type_symbol
_atom_site_label
_atom_site_fract_x
_atom_site_fract_y
_atom_site_fract_z
Si Si1 0.870133 0.377429 0.473750
Si Si2 0.501365 0.288232 0.292483
Si Si3 0.654377 0.149618 0.775613
Si Si4 0.847285 0.887141 0.969073
Si Si5 0.556854 0.949810 0.573103
Si Si6 0.487327 0.630627 0.205569
Si Si7 0.354233 0.268901 0.856222
O O1 0.920063 0.238851 0.399437
O O2 0.848088 0.508361 0.369747
O O3 0.760177 0.348182 0.514592
O O4 0.960512 0.454204 0.545899
O O5 0.607711 0.282938 0.355171
O O6 0.477734 0.171811 0.179386
O O7 0.493560 0.457249 0.241999
O O8 0.568770 0.264087 0.805452
O O9 0.746689 0.247759 0.809161
O O10 0.633007 0.064565 0.640176
O O11 0.856378 0.065577 0.927502
O O12 0.923166 0.864537 0.081239
O O13 0.603489 0.860312 0.451447
O O14 0.590418 0.705118 0.221295
#
# Coordination Sequence:
#
# PCOD9345731 Si02
#       7
#     4   4   4   4   4   4   4
#     4  10  22  43  63  94 133 173 226 276 333 411
#     4  10  23  41  67  96 130 178 222 273 345 393
#     4  10  23  40  65  97 129 175 229 271 338 409
#     4  10  22  41  63  97 132 168 229 276 332 411
#     4  11  21  45  72  93 137 183 217 287 338 399
#     4  11  21  42  65  95 134 173 219 283 337 397
#     4  10  22  44  63  98 137 176 224 278 343 408
#
# _framework density 21.724896000000001
#
# number of rings (size 3 to 8) (size 9 to 14) (size 15 to 20)
#    0.000    1.714    2.857    0.857    0.000    3.429 
#   23.143    0.000    0.000    0.000    0.000    0.000 
#    0.000    0.000    0.000    0.000    0.000    0.000 
#
# Total GULP energy -155870.851268 kJ/mol
# GULP energy per Si atom -5566.816117 kJ/mol
# Density = 2.167545 g / cm^3
# Si number density = 21.724896 Si / 1000 Ang^3
#
#
#
# Elastic Constant Matrix: (Units=GPa)
#
#
# Indices 1 2 3 4 5 6 
#
# 1 121.4382 17.9152 36.8330 0.0000 0.0000 0.0000
# 2 17.9152 62.8327 24.4172 0.0000 0.0000 0.0000
# 3 36.8330 24.4172 73.3395 0.0000 0.0000 0.0000
# 4 0.0000 0.0000 0.0000 -15.6301 0.0000 0.0000
# 5 0.0000 0.0000 0.0000 0.0000 21.0079 0.0000
# 6 0.0000 0.0000 0.0000 0.0000 0.0000 28.3703
#
#
#
# Elastic Compliance Matrix: (Units=1/GPa)
#
#
# Indices 1 2 3 4 5 6 
#
# 1 0.009770 -0.001009 -0.004571 0.000000 0.000000 0.000000
# 2 -0.001009 0.018385 -0.005614 0.000000 0.000000 0.000000
# 3 -0.004571 -0.005614 0.017800 0.000000 0.000000 0.000000
# 4 0.000000 0.000000 0.000000 -0.063979 0.000000 0.000000
# 5 0.000000 0.000000 0.000000 0.000000 0.047601 0.000000
# 6 0.000000 0.000000 0.000000 0.000000 0.000000 0.035248
#
#
# Mechanical properties :
#
#
# Convention : Reuss Voigt Hill
#
# Bulk Modulus (GPa) = 42.43335 46.21569 44.32452
# Shear Modulus (GPa) = 52.59411 18.64596 35.62003
#
# Velocity S-wave (km/s) = 4.92562 2.93281 4.05358
# Velocity P-wave (km/s) = 7.20579 5.72607 6.50812
#
# Compressibility (1/GPa) = 0.02356637
#
# Stress axis : x y z
#
# Youngs Moduli (GPa) = 102.35571 54.39302 56.18056
#
# Poissons Ratio (x) = 0.05491 0.25678
# Poissons Ratio (y) = 0.10333 0.31539
# Poissons Ratio (z) = 0.46783 0.30536
#
# Static dielectric constant tensor:
#      x y z
#    x 1.820060 0.000000 0.000000 
#    y 0.000000 1.769530 0.000000 
#    z 0.000000 0.000000 1.902160 
# 
# From -- ./inp_files/6335.got.cif
#   From: 2010.05.17/outbox.cif.g08.bks.cpg/sg33_4_cif.got.tgz:6335.got - 2010.06.03 17:15:25.
