data_PCOD9345535
_publ_section_title
;
Structure prediction by ZEFSAII (Michael W. Deem and Ramdas Pophale) SiO2 
 PCOD9345535
Probable space group: P N A 21
;
_chemical_formula_sum "Si O2"
_cell_formula_units_Z 24
_cell_length_a 14.549348
_cell_length_b 8.750327
_cell_length_c 8.724211
_cell_angle_alpha 90.000000
_cell_angle_beta 90.000000
_cell_angle_gamma 90.000000
_cell_volume 1110.692848
_symmetry_space_group_name_H-M "P N A 21"
_symmetry_group_IT_number 33
_symmetry_cell_setting 'orthorhombic'
loop_
_space_group_symop_operation_xyz
x,y,z
-x,-y,1/2+z
1/2-x,1/2+y,1/2+z
1/2+x,1/2-y,z
loop_
_atom_site_type_symbol
_atom_site_label
_atom_site_fract_x
_atom_site_fract_y
_atom_site_fract_z
Si Si1 0.116591 0.748745 0.796610
Si Si2 0.562511 0.617642 0.492390
Si Si3 0.116021 0.942799 0.060676
Si Si4 0.427696 0.875390 0.926449
Si Si5 0.200549 0.108149 0.328024
Si Si6 0.536227 0.830002 0.231052
O O1 0.108958 0.775100 0.617297
O O2 0.190549 0.621246 0.840505
O O3 0.015148 0.709352 0.851744
O O4 0.141588 0.904958 0.886540
O O5 0.487934 0.506542 0.568824
O O6 0.643818 0.519521 0.418631
O O7 0.506330 0.713375 0.365376
O O8 0.110855 0.774898 0.140805
O O9 0.176992 0.063172 0.152428
O O10 0.341911 0.766942 0.889861
O O11 0.422171 0.030231 0.828029
O O12 0.459756 0.883630 0.105957
#
# Coordination Sequence:
#
# PCOD9345535 Si02
#       6
#     4   4   4   4   4   4
#     4  11  23  39  69  98 135 173 237 282 337 411
#     4  11  20  45  68  91 131 189 226 274 344 412
#     4  10  21  43  67  94 130 186 224 270 344 419
#     4  11  22  41  62  99 134 176 222 290 340 394
#     4  11  24  41  67  98 131 179 233 275 339 413
#     4  10  22  37  69  90 131 175 224 277 344 401
#
# _framework density 21.608135999999998
#
# number of rings (size 3 to 8) (size 9 to 14) (size 15 to 20)
#    0.000    1.333    5.000    2.000    0.000    5.333 
#    0.000    1.667    0.000    0.000    0.000    0.000 
#    0.000    0.000    0.000    0.000    0.000    0.000 
#
# Total GULP energy -133799.341059 kJ/mol
# GULP energy per Si atom -5574.972544 kJ/mol
# Density = 2.155895 g / cm^3
# Si number density = 21.608136 Si / 1000 Ang^3
#
#
#
# Elastic Constant Matrix: (Units=GPa)
#
#
# Indices 1 2 3 4 5 6 
#
# 1 51.0689 -9.8163 -6.9523 0.0000 0.0000 0.0000
# 2 -9.8163 69.7049 30.2988 0.0000 0.0000 0.0000
# 3 -6.9523 30.2988 100.1893 0.0000 0.0000 0.0000
# 4 0.0000 0.0000 0.0000 37.4451 0.0000 0.0000
# 5 0.0000 0.0000 0.0000 0.0000 12.8818 0.0000
# 6 0.0000 0.0000 0.0000 0.0000 0.0000 -3.0534
#
#
#
# Elastic Compliance Matrix: (Units=1/GPa)
#
#
# Indices 1 2 3 4 5 6 
#
# 1 0.020160 0.002569 0.000622 0.000000 0.000000 0.000000
# 2 0.002569 0.016845 -0.004916 0.000000 0.000000 0.000000
# 3 0.000622 -0.004916 0.011511 0.000000 0.000000 0.000000
# 4 0.000000 0.000000 0.000000 0.026706 0.000000 0.000000
# 5 0.000000 0.000000 0.000000 0.000000 0.077629 0.000000
# 6 0.000000 0.000000 0.000000 0.000000 0.000000 -0.327506
#
#
# Mechanical properties :
#
#
# Convention : Reuss Voigt Hill
#
# Bulk Modulus (GPa) = 22.19006 27.55817 24.87411
# Shear Modulus (GPa) = -32.01345 23.28358 -4.36494
#
# Velocity S-wave (km/s) = -3.85326 3.28615 -1.42282
# Velocity P-wave (km/s) = 3.08306 5.21341 2.97274
#
# Compressibility (1/GPa) = 0.04506521
#
# Stress axis : x y z
#
# Youngs Moduli (GPa) = 49.60362 59.36581 86.87411
#
# Poissons Ratio (x) = -0.15249 -0.05405
# Poissons Ratio (y) = -0.12741 0.42706
# Poissons Ratio (z) = -0.03086 0.29183
#
# Static dielectric constant tensor:
#      x y z
#    x 1.715100 0.000000 0.000000 
#    y 0.000000 1.869970 0.000000 
#    z 0.000000 0.000000 1.884460 
# 
# From -- ./inp_files/4229.got.cif
#   From: 2010.05.17/outbox.cif.g08.bks.cpg/sg33_3_cif.got.tgz:4229.got - 2010.06.03 17:15:25.
