data_PCOD9345002
_publ_section_title
;
Structure prediction by ZEFSAII (Michael W. Deem and Ramdas Pophale) SiO2 
 PCOD9345002
Probable space group: P N A 21
;
_chemical_formula_sum "Si O2"
_cell_formula_units_Z 20
_cell_length_a 10.392023
_cell_length_b 5.627798
_cell_length_c 12.120064
_cell_angle_alpha 90.000000
_cell_angle_beta 90.000000
_cell_angle_gamma 90.000000
_cell_volume 708.832323
_symmetry_space_group_name_H-M "P N A 21"
_symmetry_group_IT_number 33
_symmetry_cell_setting 'orthorhombic'
loop_
_space_group_symop_operation_xyz
x,y,z
-x,-y,1/2+z
1/2-x,1/2+y,1/2+z
1/2+x,1/2-y,z
loop_
_atom_site_type_symbol
_atom_site_label
_atom_site_fract_x
_atom_site_fract_y
_atom_site_fract_z
Si Si1 0.171626 0.112993 0.194760
Si Si2 0.116673 0.675981 0.845482
Si Si3 0.677932 0.703909 0.512793
Si Si4 0.866834 0.386110 0.599818
Si Si5 0.929565 0.819125 0.365794
O O1 0.231428 0.164843 0.314701
O O2 0.299181 0.120803 0.114780
O O3 0.101369 0.351565 0.149947
O O4 0.122207 0.847283 0.174012
O O5 0.063280 0.427528 0.802664
O O6 0.067595 0.929601 0.804977
O O7 0.082770 0.671350 0.976477
O O8 0.718279 0.451196 0.566337
O O9 0.790822 0.792926 0.427943
O O10 0.544644 0.687802 0.452593
#
# Coordination Sequence:
#
# PCOD9345002 Si02
#       5
#     4   4   4   4   4
#     4  10  20  38  67  95 133 173 227 261 339 394
#     4  11  21  39  68  99 130 180 222 272 335 402
#     4   9  23  41  65  93 130 175 212 272 333 378
#     4   9  19  38  63  91 133 174 207 288 311 394
#     4  11  23  40  69  90 134 174 214 275 332 384
#
# _framework density 28.215416000000001
#
# number of rings (size 3 to 8) (size 9 to 14) (size 15 to 20)
#    1.200    0.800    2.000    1.200    2.800    0.000 
#    0.000    6.000    4.400    0.000    0.000    0.000 
#    0.000    0.000    0.000    0.000    0.000    0.000 
#
# Total GULP energy -111631.246044 kJ/mol
# GULP energy per Si atom -5581.562302 kJ/mol
# Density = 2.815120 g / cm^3
# Si number density = 28.215416 Si / 1000 Ang^3
#
#
#
# Elastic Constant Matrix: (Units=GPa)
#
#
# Indices 1 2 3 4 5 6 
#
# 1 98.6754 65.7538 35.6070 0.0000 0.0000 0.0000
# 2 65.7538 316.9067 84.3178 0.0000 0.0000 0.0000
# 3 35.6070 84.3178 89.4894 0.0000 0.0000 0.0000
# 4 0.0000 0.0000 0.0000 54.7556 0.0000 0.0000
# 5 0.0000 0.0000 0.0000 0.0000 58.0802 0.0000
# 6 0.0000 0.0000 0.0000 0.0000 0.0000 43.3648
#
#
#
# Elastic Compliance Matrix: (Units=1/GPa)
#
#
# Indices 1 2 3 4 5 6 
#
# 1 0.012478 -0.001692 -0.003370 0.000000 0.000000 0.000000
# 2 -0.001692 0.004441 -0.003511 0.000000 0.000000 0.000000
# 3 -0.003370 -0.003511 0.015823 0.000000 0.000000 0.000000
# 4 0.000000 0.000000 0.000000 0.018263 0.000000 0.000000
# 5 0.000000 0.000000 0.000000 0.000000 0.017218 0.000000
# 6 0.000000 0.000000 0.000000 0.000000 0.000000 0.023060
#
#
# Mechanical properties :
#
#
# Convention : Reuss Voigt Hill
#
# Bulk Modulus (GPa) = 64.12169 97.38095 80.75132
# Shear Modulus (GPa) = 44.00309 52.53299 48.26804
#
# Velocity S-wave (km/s) = 3.95339 4.31960 4.14054
# Velocity P-wave (km/s) = 6.60410 7.71148 7.17917
#
# Compressibility (1/GPa) = 0.01559535
#
# Stress axis : x y z
#
# Youngs Moduli (GPa) = 80.14016 225.18891 63.19743
#
# Poissons Ratio (x) = 0.38108 0.21300
# Poissons Ratio (y) = 0.13562 0.22187
# Poissons Ratio (z) = 0.27011 0.79058
#
# Static dielectric constant tensor:
#      x y z
#    x 2.268260 0.000000 0.000000 
#    y 0.000000 2.180490 0.000000 
#    z 0.000000 0.000000 2.280250 
# 
# From -- ./inp_files/7859.got.cif
#   From: 2010.05.17/outbox.cif.g08.bks.cpg/sg33_4_cif.got.tgz:7859.got - 2010.06.03 17:15:25.
