data_PCOD9345752
_publ_section_title
;
Structure prediction by ZEFSAII (Michael W. Deem and Ramdas Pophale) SiO2 
 PCOD9345752
Probable space group: P N A 21
;
_chemical_formula_sum "Si O2"
_cell_formula_units_Z 28
_cell_length_a 9.494660
_cell_length_b 9.649173
_cell_length_c 11.744806
_cell_angle_alpha 90.000000
_cell_angle_beta 90.000000
_cell_angle_gamma 90.000000
_cell_volume 1076.007647
_symmetry_space_group_name_H-M "P N A 21"
_symmetry_group_IT_number 33
_symmetry_cell_setting 'orthorhombic'
loop_
_space_group_symop_operation_xyz
x,y,z
-x,-y,1/2+z
1/2-x,1/2+y,1/2+z
1/2+x,1/2-y,z
loop_
_atom_site_type_symbol
_atom_site_label
_atom_site_fract_x
_atom_site_fract_y
_atom_site_fract_z
Si Si1 0.215786 0.292374 0.876920
Si Si2 0.683277 0.423084 0.378642
Si Si3 0.610045 0.557949 0.006541
Si Si4 0.553795 0.883481 0.518536
Si Si5 0.596255 0.864261 0.075885
Si Si6 0.295688 0.526151 0.268800
Si Si7 0.538531 0.335701 0.175142
O O1 0.275295 0.431255 0.821026
O O2 0.338446 0.204558 0.940304
O O3 0.097649 0.348268 0.961588
O O4 0.147900 0.181248 0.793471
O O5 0.544153 0.455222 0.450680
O O6 0.801685 0.379444 0.466186
O O7 0.637125 0.314666 0.283608
O O8 0.597390 0.697725 0.080758
O O9 0.710327 0.547225 0.894016
O O10 0.629281 0.420559 0.082218
O O11 0.538077 0.802440 0.636425
O O12 0.544902 0.048435 0.544336
O O13 0.663202 0.940315 0.186798
O O14 0.411332 0.439116 0.203229
#
# Coordination Sequence:
#
# PCOD9345752 Si02
#       7
#     4   4   4   4   4   4   4
#     4  11  21  45  70 104 138 191 247 313 367 460
#     4  10  22  41  68  95 141 187 247 302 386 445
#     4  11  22  43  67 100 141 196 240 313 379 453
#     4  11  23  44  69 101 144 188 248 306 377 442
#     4  11  25  41  64 107 145 182 250 317 365 462
#     4  11  23  42  75  99 146 192 251 307 385 453
#     4  11  20  44  71  96 135 200 239 300 377 459
#
# _framework density 26.022120000000001
#
# number of rings (size 3 to 8) (size 9 to 14) (size 15 to 20)
#    0.000    1.143    4.286    2.571    2.000    1.143 
#    2.571    1.429    0.000    0.000    0.000    0.000 
#    0.000    0.000    0.000    0.000    0.000    0.000 
#
# Total GULP energy -156452.789457 kJ/mol
# GULP energy per Si atom -5587.599623 kJ/mol
# Density = 2.596289 g / cm^3
# Si number density = 26.022120 Si / 1000 Ang^3
#
#
#
# Elastic Constant Matrix: (Units=GPa)
#
#
# Indices 1 2 3 4 5 6 
#
# 1 35.8019 10.1967 6.4700 0.0000 0.0000 0.0000
# 2 10.1967 100.7209 -2.3973 0.0000 0.0000 0.0000
# 3 6.4700 -2.3973 77.0368 0.0000 0.0000 0.0000
# 4 0.0000 0.0000 0.0000 31.7063 0.0000 0.0000
# 5 0.0000 0.0000 0.0000 0.0000 30.2673 0.0000
# 6 0.0000 0.0000 0.0000 0.0000 0.0000 31.7904
#
#
#
# Elastic Compliance Matrix: (Units=1/GPa)
#
#
# Indices 1 2 3 4 5 6 
#
# 1 0.029253 -0.003022 -0.002551 0.000000 0.000000 0.000000
# 2 -0.003022 0.010248 0.000573 0.000000 0.000000 0.000000
# 3 -0.002551 0.000573 0.013213 0.000000 0.000000 0.000000
# 4 0.000000 0.000000 0.000000 0.031539 0.000000 0.000000
# 5 0.000000 0.000000 0.000000 0.000000 0.033039 0.000000
# 6 0.000000 0.000000 0.000000 0.000000 0.000000 0.031456
#
#
# Mechanical properties :
#
#
# Convention : Reuss Voigt Hill
#
# Bulk Modulus (GPa) = 23.41189 26.89982 25.15586
# Shear Modulus (GPa) = 28.90389 32.03882 30.47136
#
# Velocity S-wave (km/s) = 3.33640 3.51267 3.42567
# Velocity P-wave (km/s) = 4.88452 5.17799 5.03339
#
# Compressibility (1/GPa) = 0.04271333
#
# Stress axis : x y z
#
# Youngs Moduli (GPa) = 34.18426 97.57988 75.68378
#
# Poissons Ratio (x) = 0.29491 0.19306
# Poissons Ratio (y) = 0.10331 -0.04335
# Poissons Ratio (z) = 0.08720 -0.05589
#
# Static dielectric constant tensor:
#      x y z
#    x 2.153880 0.000000 0.000000 
#    y 0.000000 2.101940 0.000000 
#    z 0.000000 0.000000 2.112860 
# 
# From -- ./inp_files/6366.got.cif
#   From: 2010.05.17/outbox.cif.g08.bks.cpg/sg33_4_cif.got.tgz:6366.got - 2010.06.03 17:15:25.
