data_PCOD9345788
_publ_section_title
;
Structure prediction by ZEFSAII (Michael W. Deem and Ramdas Pophale) SiO2 
 PCOD9345788
Probable space group: P N A 21
;
_chemical_formula_sum "Si O2"
_cell_formula_units_Z 32
_cell_length_a 12.025987
_cell_length_b 14.818183
_cell_length_c 8.358416
_cell_angle_alpha 90.000000
_cell_angle_beta 90.000000
_cell_angle_gamma 90.000000
_cell_volume 1489.497114
_symmetry_space_group_name_H-M "P N A 21"
_symmetry_group_IT_number 33
_symmetry_cell_setting 'orthorhombic'
loop_
_space_group_symop_operation_xyz
x,y,z
-x,-y,1/2+z
1/2-x,1/2+y,1/2+z
1/2+x,1/2-y,z
loop_
_atom_site_type_symbol
_atom_site_label
_atom_site_fract_x
_atom_site_fract_y
_atom_site_fract_z
Si Si1 0.318648 0.934579 0.811380
Si Si2 0.843733 0.190861 0.838842
Si Si3 0.463394 0.582495 0.174515
Si Si4 0.940988 0.422574 0.377048
Si Si5 0.945201 0.276725 0.120960
Si Si6 0.292002 0.124959 0.681349
Si Si7 0.622975 0.116105 0.944860
Si Si8 0.070697 0.890426 0.831815
O O1 0.428218 0.902126 0.904571
O O2 0.336386 0.912639 0.622907
O O3 0.203770 0.888743 0.861481
O O4 0.311942 0.043725 0.808839
O O5 0.948352 0.128818 0.794486
O O6 0.839317 0.279074 0.731063
O O7 0.850184 0.229346 0.018806
O O8 0.727066 0.139932 0.835243
O O9 0.341563 0.627111 0.172046
O O10 0.448767 0.477492 0.219904
O O11 0.512908 0.592119 0.999079
O O12 0.912922 0.366721 0.217116
O O13 0.855402 0.397943 0.516579
O O14 0.935111 0.530459 0.363173
O O15 0.975263 0.200404 0.250459
O O16 0.038588 0.303764 0.990524
#
# Coordination Sequence:
#
# PCOD9345788 Si02
#       8
#     4   4   4   4   4   4   4   4
#     4   9  20  43  67  95 136 175 228 291 336 418
#     4  12  23  44  64 103 137 187 229 287 348 418
#     4  11  26  44  69  98 149 185 229 300 349 424
#     4  10  22  44  69 100 133 181 225 293 350 406
#     4  11  23  42  72 101 135 183 234 286 351 431
#     4  10  23  43  65  98 139 174 233 287 344 417
#     4  10  22  42  66  99 137 171 233 288 345 418
#     4  11  23  46  68 104 138 186 235 282 363 420
#
# _framework density 21.483761000000001
#
# number of rings (size 3 to 8) (size 9 to 14) (size 15 to 20)
#    0.000    1.500    1.250    3.000    3.500    2.000 
#   22.500    0.000    0.000    0.000    0.000    0.000 
#    0.000    0.000    0.000    0.000    0.000    0.000 
#
# Total GULP energy -178729.156832 kJ/mol
# GULP energy per Si atom -5585.286151 kJ/mol
# Density = 2.143486 g / cm^3
# Si number density = 21.483761 Si / 1000 Ang^3
#
#
#
# Elastic Constant Matrix: (Units=GPa)
#
#
# Indices 1 2 3 4 5 6 
#
# 1 113.6936 44.6377 24.1704 0.0000 0.0000 0.0000
# 2 44.6377 81.1607 11.8302 0.0000 0.0000 0.0000
# 3 24.1704 11.8302 51.2567 0.0000 0.0000 0.0000
# 4 0.0000 0.0000 0.0000 27.4883 0.0000 0.0000
# 5 0.0000 0.0000 0.0000 0.0000 39.2211 0.0000
# 6 0.0000 0.0000 0.0000 0.0000 0.0000 24.0169
#
#
#
# Elastic Compliance Matrix: (Units=1/GPa)
#
#
# Indices 1 2 3 4 5 6 
#
# 1 0.012071 -0.006011 -0.004305 0.000000 0.000000 0.000000
# 2 -0.006011 0.015744 -0.000799 0.000000 0.000000 0.000000
# 3 -0.004305 -0.000799 0.021724 0.000000 0.000000 0.000000
# 4 0.000000 0.000000 0.000000 0.036379 0.000000 0.000000
# 5 0.000000 0.000000 0.000000 0.000000 0.025497 0.000000
# 6 0.000000 0.000000 0.000000 0.000000 0.000000 0.041637
#
#
# Mechanical properties :
#
#
# Convention : Reuss Voigt Hill
#
# Bulk Modulus (GPa) = 36.61856 45.26530 40.94193
# Shear Modulus (GPa) = 27.11724 29.17679 28.14701
#
# Velocity S-wave (km/s) = 3.55663 3.68922 3.62353
# Velocity P-wave (km/s) = 5.82648 6.26597 6.05022
#
# Compressibility (1/GPa) = 0.02730856
#
# Stress axis : x y z
#
# Youngs Moduli (GPa) = 82.84414 63.51659 46.03221
#
# Poissons Ratio (x) = 0.38182 0.19815
# Poissons Ratio (y) = 0.49801 0.03678
# Poissons Ratio (z) = 0.35661 0.05075
#
# Static dielectric constant tensor:
#      x y z
#    x 1.788560 0.000000 0.000000 
#    y 0.000000 1.815360 0.000000 
#    z 0.000000 0.000000 1.789780 
# 
# From -- ./inp_files/3975.got.cif
#   From: 2010.05.17/outbox.cif.g08.bks.cpg/sg33_2_cif.got.tgz:3975.got - 2010.06.03 17:15:25.
