data_PCOD9345200
_publ_section_title
;
Structure prediction by ZEFSAII (Michael W. Deem and Ramdas Pophale) SiO2 
 PCOD9345200
Probable space group: P N A 21
;
_chemical_formula_sum "Si O2"
_cell_formula_units_Z 24
_cell_length_a 28.516326
_cell_length_b 4.970371
_cell_length_c 6.504446
_cell_angle_alpha 90.000000
_cell_angle_beta 90.000000
_cell_angle_gamma 90.000000
_cell_volume 921.918840
_symmetry_space_group_name_H-M "P N A 21"
_symmetry_group_IT_number 33
_symmetry_cell_setting 'orthorhombic'
loop_
_space_group_symop_operation_xyz
x,y,z
-x,-y,1/2+z
1/2-x,1/2+y,1/2+z
1/2+x,1/2-y,z
loop_
_atom_site_type_symbol
_atom_site_label
_atom_site_fract_x
_atom_site_fract_y
_atom_site_fract_z
Si Si1 0.223613 0.344778 0.051370
Si Si2 0.522680 0.673899 0.782713
Si Si3 0.641947 0.294257 0.790068
Si Si4 0.389891 0.203959 0.050943
Si Si5 0.444648 0.829016 0.520264
Si Si6 0.808793 0.154860 0.792945
O O1 0.209589 0.642272 0.119583
O O2 0.204666 0.143263 0.224368
O O3 0.194874 0.264976 0.847343
O O4 0.277631 0.297034 0.997195
O O5 0.554891 0.751636 0.585037
O O6 0.469263 0.738120 0.728528
O O7 0.533342 0.371180 0.847504
O O8 0.541091 0.869611 0.961797
O O9 0.631433 0.597445 0.726024
O O10 0.610296 0.215497 0.988019
O O11 0.623797 0.098661 0.610185
O O12 0.362941 0.291111 0.846161
#
# Coordination Sequence:
#
# PCOD9345200 Si02
#       6
#     4   4   4   4   4   4
#     4  12  24  39  60  85 112 146 184 228 276 330
#     4  10  21  36  57  82 113 148 184 228 276 324
#     4  10  21  39  58  81 113 148 184 228 276 324
#     4  10  21  39  58  81 113 148 184 228 276 324
#     4  10  21  36  57  82 113 148 184 228 276 324
#     4  12  24  39  60  85 112 146 184 228 276 330
#
# _framework density 26.032658999999999
#
# number of rings (size 3 to 8) (size 9 to 14) (size 15 to 20)
#    0.000    1.333    0.000    6.000    0.000    2.667 
#    0.000    0.000    0.000    0.000    0.000    0.000 
#    0.000    0.000    0.000    0.000    0.000    0.000 
#
# Total GULP energy -134472.602138 kJ/mol
# GULP energy per Si atom -5603.025089 kJ/mol
# Density = 2.597341 g / cm^3
# Si number density = 26.032659 Si / 1000 Ang^3
#
#
#
# Elastic Constant Matrix: (Units=GPa)
#
#
# Indices 1 2 3 4 5 6 
#
# 1 64.6953 9.6413 10.1432 0.0000 0.0000 0.0000
# 2 9.6413 67.7407 9.4708 0.0000 0.0000 0.0000
# 3 10.1432 9.4708 36.2747 0.0000 0.0000 0.0000
# 4 0.0000 0.0000 0.0000 41.6844 0.0000 0.0000
# 5 0.0000 0.0000 0.0000 0.0000 52.7841 0.0000
# 6 0.0000 0.0000 0.0000 0.0000 0.0000 23.8141
#
#
#
# Elastic Compliance Matrix: (Units=1/GPa)
#
#
# Indices 1 2 3 4 5 6 
#
# 1 0.016364 -0.001753 -0.004118 0.000000 0.000000 0.000000
# 2 -0.001753 0.015509 -0.003559 0.000000 0.000000 0.000000
# 3 -0.004118 -0.003559 0.029648 0.000000 0.000000 0.000000
# 4 0.000000 0.000000 0.000000 0.023990 0.000000 0.000000
# 5 0.000000 0.000000 0.000000 0.000000 0.018945 0.000000
# 6 0.000000 0.000000 0.000000 0.000000 0.000000 0.041992
#
#
# Mechanical properties :
#
#
# Convention : Reuss Voigt Hill
#
# Bulk Modulus (GPa) = 23.44070 25.24681 24.34375
# Shear Modulus (GPa) = 27.85065 32.95354 30.40210
#
# Velocity S-wave (km/s) = 3.27438 3.56174 3.42108
# Velocity P-wave (km/s) = 4.82901 5.16080 4.99766
#
# Compressibility (1/GPa) = 0.04266085
#
# Stress axis : x y z
#
# Youngs Moduli (GPa) = 61.10975 64.47743 33.72900
#
# Poissons Ratio (x) = 0.11305 0.13889
# Poissons Ratio (y) = 0.10714 0.12004
# Poissons Ratio (z) = 0.25165 0.22948
#
# Static dielectric constant tensor:
#      x y z
#    x 1.982040 0.000000 0.000000 
#    y 0.000000 1.938910 0.000000 
#    z 0.000000 0.000000 2.055310 
# 
# From -- ./inp_files/2498.got.cif
#   From: 2010.05.17/outbox.cif.g08.bks.cpg/sg33_2_cif.got.tgz:2498.got - 2010.06.03 17:15:25.
