data_PCOD9345329
_publ_section_title
;
Structure prediction by ZEFSAII (Michael W. Deem and Ramdas Pophale) SiO2 
 PCOD9345329
Probable space group: P N A 21
;
_chemical_formula_sum "Si O2"
_cell_formula_units_Z 32
_cell_length_a 11.564719
_cell_length_b 5.622296
_cell_length_c 21.876526
_cell_angle_alpha 90.000000
_cell_angle_beta 90.000000
_cell_angle_gamma 90.000000
_cell_volume 1422.417701
_symmetry_space_group_name_H-M "P N A 21"
_symmetry_group_IT_number 33
_symmetry_cell_setting 'orthorhombic'
loop_
_space_group_symop_operation_xyz
x,y,z
-x,-y,1/2+z
1/2-x,1/2+y,1/2+z
1/2+x,1/2-y,z
loop_
_atom_site_type_symbol
_atom_site_label
_atom_site_fract_x
_atom_site_fract_y
_atom_site_fract_z
Si Si1 0.816490 0.059714 0.476700
Si Si2 0.538158 0.530406 0.292381
Si Si3 0.581473 0.842701 0.486494
Si Si4 0.355407 0.524522 0.187172
Si Si5 0.536624 0.471829 0.081004
Si Si6 0.185472 0.059438 0.396457
Si Si7 0.722532 0.476007 0.187030
Si Si8 0.579157 0.156496 0.887069
O O1 0.911981 0.134407 0.526309
O O2 0.751020 0.249589 0.436375
O O3 0.703254 0.945966 0.509504
O O4 0.875852 0.877776 0.429102
O O5 0.430476 0.481543 0.248705
O O6 0.589353 0.367129 0.347016
O O7 0.641393 0.533162 0.244657
O O8 0.500433 0.762823 0.330881
O O9 0.502931 0.760121 0.542839
O O10 0.626596 0.622075 0.444275
O O11 0.500956 0.980714 0.436925
O O12 0.429661 0.528943 0.124514
O O13 0.277205 0.287520 0.188447
O O14 0.302529 0.789682 0.186644
O O15 0.641032 0.460101 0.127983
O O16 0.298896 0.945540 0.363706
#
# Coordination Sequence:
#
# PCOD9345329 Si02
#       8
#     4   4   4   4   4   4   4   4
#     4  10  21  39  63  99 133 178 228 281 348 428
#     4  10  23  43  69  98 138 186 231 297 357 425
#     4   9  20  40  60  94 135 175 220 279 347 414
#     4  11  26  49  70 102 138 185 236 295 354 420
#     4  10  23  43  69  98 138 186 231 297 357 425
#     4  10  21  39  63  99 133 178 228 281 348 428
#     4  11  26  49  72 106 138 187 246 293 358 424
#     4   9  20  40  60  94 135 175 220 279 347 414
#
# _framework density 22.496908000000001
#
# number of rings (size 3 to 8) (size 9 to 14) (size 15 to 20)
#    0.000    2.000    0.000    1.500    3.500    7.000 
#   18.000    0.000    0.000    0.000    0.000    0.000 
#    0.000    0.000    0.000    0.000    0.000    0.000 
#
# Total GULP energy -178136.351422 kJ/mol
# GULP energy per Si atom -5566.760982 kJ/mol
# Density = 2.244570 g / cm^3
# Si number density = 22.496908 Si / 1000 Ang^3
#
#
#
# Elastic Constant Matrix: (Units=GPa)
#
#
# Indices 1 2 3 4 5 6 
#
# 1 71.6446 4.2904 30.8581 0.0000 0.0000 0.0000
# 2 4.2904 17.3019 17.1487 0.0000 0.0000 0.0000
# 3 30.8581 17.1487 128.5243 0.0000 0.0000 0.0000
# 4 0.0000 0.0000 0.0000 26.3893 0.0000 0.0000
# 5 0.0000 0.0000 0.0000 0.0000 34.7718 0.0000
# 6 0.0000 0.0000 0.0000 0.0000 0.0000 -9.0179
#
#
#
# Elastic Compliance Matrix: (Units=1/GPa)
#
#
# Indices 1 2 3 4 5 6 
#
# 1 0.015568 -0.000179 -0.003714 0.000000 0.000000 0.000000
# 2 -0.000179 0.066608 -0.008844 0.000000 0.000000 0.000000
# 3 -0.003714 -0.008844 0.009852 0.000000 0.000000 0.000000
# 4 0.000000 0.000000 0.000000 0.037894 0.000000 0.000000
# 5 0.000000 0.000000 0.000000 0.000000 0.028759 0.000000
# 6 0.000000 0.000000 0.000000 0.000000 0.000000 -0.110890
#
#
# Mechanical properties :
#
#
# Convention : Reuss Voigt Hill
#
# Bulk Modulus (GPa) = 15.02561 35.78501 25.40531
# Shear Modulus (GPa) = 52.38318 21.44022 36.91170
#
# Velocity S-wave (km/s) = 4.83065 3.09047 4.05501
# Velocity P-wave (km/s) = 6.14874 5.35498 5.76554
#
# Compressibility (1/GPa) = 0.06655304
#
# Stress axis : x y z
#
# Youngs Moduli (GPa) = 64.23375 15.01330 101.49827
#
# Poissons Ratio (x) = 0.00269 0.37695
# Poissons Ratio (y) = 0.01152 0.89767
# Poissons Ratio (z) = 0.23856 0.13278
#
# Static dielectric constant tensor:
#      x y z
#    x 1.935330 0.000000 0.000000 
#    y 0.000000 1.860140 0.000000 
#    z 0.000000 0.000000 1.871050 
# 
# From -- ./inp_files/9118.got.cif
#   From: 2010.05.17/outbox.cif.g08.bks.cpg/sg33_5_cif.got.tgz:9118.got - 2010.06.03 17:15:25.
