data_PCOD9345805
_publ_section_title
;
Structure prediction by ZEFSAII (Michael W. Deem and Ramdas Pophale) SiO2 
 PCOD9345805
Probable space group: P N A 21
;
_chemical_formula_sum "Si O2"
_cell_formula_units_Z 24
_cell_length_a 11.063295
_cell_length_b 17.857698
_cell_length_c 5.041574
_cell_angle_alpha 90.000000
_cell_angle_beta 90.000000
_cell_angle_gamma 90.000000
_cell_volume 996.038471
_symmetry_space_group_name_H-M "P N A 21"
_symmetry_group_IT_number 33
_symmetry_cell_setting 'orthorhombic'
loop_
_space_group_symop_operation_xyz
x,y,z
-x,-y,1/2+z
1/2-x,1/2+y,1/2+z
1/2+x,1/2-y,z
loop_
_atom_site_type_symbol
_atom_site_label
_atom_site_fract_x
_atom_site_fract_y
_atom_site_fract_z
Si Si1 0.576692 0.826209 0.717220
Si Si2 0.193289 0.366229 0.054604
Si Si3 0.122982 0.950266 0.875277
Si Si4 0.882323 0.234310 0.736502
Si Si5 0.975616 0.902009 0.372442
Si Si6 0.583876 0.989169 0.854795
O O1 0.432012 0.834932 0.672734
O O2 0.619468 0.806394 0.424064
O O3 0.630151 0.905892 0.804219
O O4 0.611459 0.762870 0.933920
O O5 0.266011 0.397894 0.306286
O O6 0.270412 0.311977 0.864358
O O7 0.173446 0.442582 0.890722
O O8 0.071543 0.936517 0.164813
O O9 0.023639 0.917241 0.667747
O O10 0.135899 0.040152 0.833670
O O11 0.004508 0.185364 0.804596
O O12 0.495663 0.011284 0.617965
#
# Coordination Sequence:
#
# PCOD9345805 Si02
#       6
#     4   4   4   4   4   4
#     4  11  24  42  65 100 137 174 233 289 347 420
#     4  10  23  44  69  95 133 192 229 280 360 417
#     4   9  18  34  61  90 117 168 221 263 321 410
#     4  11  23  41  66  97 141 176 220 294 360 414
#     4   9  18  35  58  89 128 161 213 272 331 394
#     4  10  22  42  69  93 126 173 234 286 331 413
#
# _framework density 24.095452999999999
#
# number of rings (size 3 to 8) (size 9 to 14) (size 15 to 20)
#    0.000    2.000    0.000    4.000    0.000   12.000 
#    6.000    0.000    0.000    0.000    0.000    0.000 
#    0.000    0.000    0.000    0.000    0.000    0.000 
#
# Total GULP energy -133920.444344 kJ/mol
# GULP energy per Si atom -5580.018514 kJ/mol
# Density = 2.404061 g / cm^3
# Si number density = 24.095453 Si / 1000 Ang^3
#
#
#
# Elastic Constant Matrix: (Units=GPa)
#
#
# Indices 1 2 3 4 5 6 
#
# 1 67.5363 22.1441 16.9441 0.0000 0.0000 0.0000
# 2 22.1441 109.1253 13.1514 0.0000 0.0000 0.0000
# 3 16.9441 13.1514 98.7088 0.0000 0.0000 0.0000
# 4 0.0000 0.0000 0.0000 37.7243 0.0000 0.0000
# 5 0.0000 0.0000 0.0000 0.0000 214.5567 0.0000
# 6 0.0000 0.0000 0.0000 0.0000 0.0000 46.7047
#
#
#
# Elastic Compliance Matrix: (Units=1/GPa)
#
#
# Indices 1 2 3 4 5 6 
#
# 1 0.016408 -0.003039 -0.002412 0.000000 0.000000 0.000000
# 2 -0.003039 0.009876 -0.000794 0.000000 0.000000 0.000000
# 3 -0.002412 -0.000794 0.010651 0.000000 0.000000 0.000000
# 4 0.000000 0.000000 0.000000 0.026508 0.000000 0.000000
# 5 0.000000 0.000000 0.000000 0.000000 0.004661 0.000000
# 6 0.000000 0.000000 0.000000 0.000000 0.000000 0.021411
#
#
# Mechanical properties :
#
#
# Convention : Reuss Voigt Hill
#
# Bulk Modulus (GPa) = 40.90755 42.20551 41.55653
# Shear Modulus (GPa) = 45.39125 74.67252 60.03189
#
# Velocity S-wave (km/s) = 4.34500 5.57293 4.99683
# Velocity P-wave (km/s) = 6.49509 7.67881 7.11162
#
# Compressibility (1/GPa) = 0.02444537
#
# Stress axis : x y z
#
# Youngs Moduli (GPa) = 60.94453 101.25387 93.89133
#
# Poissons Ratio (x) = 0.30771 0.22644
# Poissons Ratio (y) = 0.18521 0.07457
# Poissons Ratio (z) = 0.14698 0.08041
#
# Static dielectric constant tensor:
#      x y z
#    x 1.957950 0.000000 0.000000 
#    y 0.000000 2.018800 0.000000 
#    z 0.000000 0.000000 1.880780 
# 
# From -- ./inp_files/867.got.cif
#   From: 2010.05.17/outbox.cif.g08.bks.cpg/sg33_1_cif.got.tgz:867.got - 2010.06.03 17:15:25.
