data_PCOD9345746
_publ_section_title
;
Structure prediction by ZEFSAII (Michael W. Deem and Ramdas Pophale) SiO2 
 PCOD9345746
Probable space group: P N A 21
;
_chemical_formula_sum "Si O2"
_cell_formula_units_Z 32
_cell_length_a 8.180324
_cell_length_b 4.546254
_cell_length_c 30.137327
_cell_angle_alpha 90.000000
_cell_angle_beta 90.000000
_cell_angle_gamma 90.000000
_cell_volume 1120.802089
_symmetry_space_group_name_H-M "P N A 21"
_symmetry_group_IT_number 33
_symmetry_cell_setting 'orthorhombic'
loop_
_space_group_symop_operation_xyz
x,y,z
-x,-y,1/2+z
1/2-x,1/2+y,1/2+z
1/2+x,1/2-y,z
loop_
_atom_site_type_symbol
_atom_site_label
_atom_site_fract_x
_atom_site_fract_y
_atom_site_fract_z
Si Si1 0.327992 0.001096 0.896060
Si Si2 0.725952 0.961181 0.208212
Si Si3 0.053477 0.913693 0.835487
Si Si4 0.221141 0.029286 0.272836
Si Si5 0.714678 0.562222 0.519330
Si Si6 0.448766 0.566087 0.455691
Si Si7 0.511321 0.040421 0.081317
Si Si8 0.505366 0.550573 0.145504
O O1 0.194565 0.104620 0.859303
O O2 0.442565 0.769793 0.870757
O O3 0.440329 0.235600 0.922006
O O4 0.191418 0.879175 0.930762
O O5 0.794221 0.733380 0.244448
O O6 0.614652 0.756105 0.177080
O O7 0.866488 0.084000 0.176626
O O8 0.656417 0.226926 0.237447
O O9 0.150145 0.688456 0.804308
O O10 0.926888 0.076915 0.803815
O O11 0.575612 0.409701 0.489073
O O12 0.614760 0.796951 0.549006
O O13 0.837083 0.724836 0.485794
O O14 0.839290 0.407710 0.552825
O O15 0.576729 0.287909 0.115849
O O16 0.434558 0.781974 0.110083
#
# Coordination Sequence:
#
# PCOD9345746 Si02
#       8
#     4   4   4   4   4   4   4   4
#     4  10  22  41  66  97 136 178 238 292 355 426
#     4  12  24  42  65  96 135 180 233 292 352 424
#     4  10  24  41  63 101 140 184 234 299 359 425
#     4  11  24  43  66  99 137 184 235 290 358 425
#     4   9  20  40  63  94 138 180 230 288 351 421
#     4   9  20  42  69  97 134 184 234 291 353 426
#     4  11  22  41  64  98 135 180 233 288 352 425
#     4  12  24  40  66  96 133 180 231 292 352 416
#
# _framework density 28.550981
#
# number of rings (size 3 to 8) (size 9 to 14) (size 15 to 20)
#    0.000    1.500    0.000    4.500    0.000    8.000 
#    0.000   18.750    0.000    0.000    0.000    0.000 
#    0.000    0.000    0.000    0.000    0.000    0.000 
#
# Total GULP energy -179362.652592 kJ/mol
# GULP energy per Si atom -5605.082893 kJ/mol
# Density = 2.848600 g / cm^3
# Si number density = 28.550981 Si / 1000 Ang^3
#
#
#
# Elastic Constant Matrix: (Units=GPa)
#
#
# Indices 1 2 3 4 5 6 
#
# 1 163.5170 29.8296 106.0805 0.0000 0.0000 0.0000
# 2 29.8296 83.6422 62.5454 0.0000 0.0000 0.0000
# 3 106.0805 62.5454 166.9267 0.0000 0.0000 0.0000
# 4 0.0000 0.0000 0.0000 26.5968 0.0000 0.0000
# 5 0.0000 0.0000 0.0000 0.0000 97.5361 0.0000
# 6 0.0000 0.0000 0.0000 0.0000 0.0000 -108.3679
#
#
#
# Elastic Compliance Matrix: (Units=1/GPa)
#
#
# Indices 1 2 3 4 5 6 
#
# 1 0.010585 0.001744 -0.007380 0.000000 0.000000 0.000000
# 2 0.001744 0.016897 -0.007439 0.000000 0.000000 0.000000
# 3 -0.007380 -0.007439 0.013468 0.000000 0.000000 0.000000
# 4 0.000000 0.000000 0.000000 0.037598 0.000000 0.000000
# 5 0.000000 0.000000 0.000000 0.000000 0.010253 0.000000
# 6 0.000000 0.000000 0.000000 0.000000 0.000000 -0.009228
#
#
# Mechanical properties :
#
#
# Convention : Reuss Voigt Hill
#
# Bulk Modulus (GPa) = 67.57321 90.11076 78.84199
# Shear Modulus (GPa) = 45.18456 17.52838 31.35647
#
# Velocity S-wave (km/s) = 3.98250 2.48045 3.31760
# Velocity P-wave (km/s) = 6.69821 6.31137 6.50766
#
# Compressibility (1/GPa) = 0.01479876
#
# Stress axis : x y z
#
# Youngs Moduli (GPa) = 94.47004 59.18372 74.24986
#
# Poissons Ratio (x) = -0.10320 0.54798
# Poissons Ratio (y) = -0.16472 0.55234
# Poissons Ratio (z) = 0.69721 0.44027
#
# Static dielectric constant tensor:
#      x y z
#    x 2.137000 0.000000 0.000000 
#    y 0.000000 2.129770 0.000000 
#    z 0.000000 0.000000 2.272450 
# 
# From -- ./inp_files/9394.got.cif
#   From: 2010.05.17/outbox.cif.g08.bks.cpg/sg33_5_cif.got.tgz:9394.got - 2010.06.03 17:15:25.
