data_PCOD9345061
_publ_section_title
;
Structure prediction by ZEFSAII (Michael W. Deem and Ramdas Pophale) SiO2 
 PCOD9345061
Probable space group: P N A 21
;
_chemical_formula_sum "Si O2"
_cell_formula_units_Z 32
_cell_length_a 10.391858
_cell_length_b 9.158404
_cell_length_c 15.957639
_cell_angle_alpha 90.000000
_cell_angle_beta 90.000000
_cell_angle_gamma 90.000000
_cell_volume 1518.733726
_symmetry_space_group_name_H-M "P N A 21"
_symmetry_group_IT_number 33
_symmetry_cell_setting 'orthorhombic'
loop_
_space_group_symop_operation_xyz
x,y,z
-x,-y,1/2+z
1/2-x,1/2+y,1/2+z
1/2+x,1/2-y,z
loop_
_atom_site_type_symbol
_atom_site_label
_atom_site_fract_x
_atom_site_fract_y
_atom_site_fract_z
Si Si1 0.712303 0.573234 0.873380
Si Si2 0.474358 0.578011 0.110243
Si Si3 0.464959 0.412433 0.944340
Si Si4 0.766437 0.212995 0.648818
Si Si5 0.896008 0.473441 0.217067
Si Si6 0.526513 0.666897 0.737759
Si Si7 0.793287 0.864059 0.860449
Si Si8 0.899962 0.332814 0.812728
O O1 0.594765 0.492515 0.915602
O O2 0.660752 0.627736 0.782921
O O3 0.749529 0.726040 0.915046
O O4 0.825888 0.462076 0.859459
O O5 0.339924 0.667347 0.119008
O O6 0.597241 0.686883 0.101003
O O7 0.506279 0.484498 0.193023
O O8 0.465159 0.445687 0.043045
O O9 0.341680 0.503801 0.915198
O O10 0.456606 0.268351 0.886748
O O11 0.805528 0.252241 0.745898
O O12 0.692690 0.057326 0.650997
O O13 0.812085 0.424647 0.297010
O O14 0.958734 0.319584 0.188566
O O15 0.995669 0.591732 0.252446
O O16 0.416620 0.690972 0.807101
#
# Coordination Sequence:
#
# PCOD9345061 Si02
#       8
#     4   4   4   4   4   4   4   4
#     4  10  21  40  65  92 125 170 225 282 329 402
#     4  12  26  45  65 103 142 183 219 296 355 416
#     4  11  26  41  62  95 140 178 217 284 351 412
#     4  12  23  43  71  97 137 182 241 277 344 421
#     4  11  21  37  72  99 122 173 236 285 329 406
#     4  10  20  40  65  97 126 169 222 285 335 396
#     4  10  20  40  64  93 127 167 226 278 326 406
#     4  12  21  42  70 102 123 180 242 281 335 415
#
# _framework density 21.070184999999999
#
# number of rings (size 3 to 8) (size 9 to 14) (size 15 to 20)
#    0.000    1.000    6.250    1.500    1.750    0.000 
#    2.250    0.000    0.000    0.000    0.000    0.000 
#    0.000    0.000    0.000    0.000    0.000    0.000 
#
# Total GULP energy -178304.834327 kJ/mol
# GULP energy per Si atom -5572.026073 kJ/mol
# Density = 2.102223 g / cm^3
# Si number density = 21.070185 Si / 1000 Ang^3
#
#
#
# Elastic Constant Matrix: (Units=GPa)
#
#
# Indices 1 2 3 4 5 6 
#
# 1 87.2784 37.6190 9.9745 0.0000 0.0000 0.0000
# 2 37.6190 101.5993 10.5832 0.0000 0.0000 0.0000
# 3 9.9745 10.5832 30.4147 0.0000 0.0000 0.0000
# 4 0.0000 0.0000 0.0000 11.2920 0.0000 0.0000
# 5 0.0000 0.0000 0.0000 0.0000 11.7503 0.0000
# 6 0.0000 0.0000 0.0000 0.0000 0.0000 39.0774
#
#
#
# Elastic Compliance Matrix: (Units=1/GPa)
#
#
# Indices 1 2 3 4 5 6 
#
# 1 0.013870 -0.004837 -0.002866 0.000000 0.000000 0.000000
# 2 -0.004837 0.011900 -0.002554 0.000000 0.000000 0.000000
# 3 -0.002866 -0.002554 0.034707 0.000000 0.000000 0.000000
# 4 0.000000 0.000000 0.000000 0.088558 0.000000 0.000000
# 5 0.000000 0.000000 0.000000 0.000000 0.085104 0.000000
# 6 0.000000 0.000000 0.000000 0.000000 0.000000 0.025590
#
#
# Mechanical properties :
#
#
# Convention : Reuss Voigt Hill
#
# Bulk Modulus (GPa) = 25.02307 37.29396 31.15851
# Shear Modulus (GPa) = 17.03203 23.16499 20.09851
#
# Velocity S-wave (km/s) = 2.84623 3.31935 3.09185
# Velocity P-wave (km/s) = 4.76479 5.69465 5.25035
#
# Compressibility (1/GPa) = 0.03996313
#
# Stress axis : x y z
#
# Youngs Moduli (GPa) = 72.09818 84.03579 28.81235
#
# Poissons Ratio (x) = 0.40649 0.08256
# Poissons Ratio (y) = 0.34875 0.07360
# Poissons Ratio (z) = 0.20660 0.21465
#
# Static dielectric constant tensor:
#      x y z
#    x 1.802970 0.000000 0.000000 
#    y 0.000000 1.809460 0.000000 
#    z 0.000000 0.000000 1.811350 
# 
# From -- ./inp_files/7983.got.cif
#   From: 2010.05.17/outbox.cif.g08.bks.cpg/sg33_4_cif.got.tgz:7983.got - 2010.06.03 17:15:25.
