data_PCOD9345853
_publ_section_title
;
Structure prediction by ZEFSAII (Michael W. Deem and Ramdas Pophale) SiO2 
 PCOD9345853
Probable space group: P N A 21
;
_chemical_formula_sum "Si O2"
_cell_formula_units_Z 32
_cell_length_a 11.775318
_cell_length_b 21.272770
_cell_length_c 5.282957
_cell_angle_alpha 90.000000
_cell_angle_beta 90.000000
_cell_angle_gamma 90.000000
_cell_volume 1323.347084
_symmetry_space_group_name_H-M "P N A 21"
_symmetry_group_IT_number 33
_symmetry_cell_setting 'orthorhombic'
loop_
_space_group_symop_operation_xyz
x,y,z
-x,-y,1/2+z
1/2-x,1/2+y,1/2+z
1/2+x,1/2-y,z
loop_
_atom_site_type_symbol
_atom_site_label
_atom_site_fract_x
_atom_site_fract_y
_atom_site_fract_z
Si Si1 0.170100 0.944037 0.930680
Si Si2 0.256446 0.581920 0.530032
Si Si3 0.346102 0.872331 0.646275
Si Si4 0.487333 0.036666 0.936118
Si Si5 0.109780 0.248292 0.380397
Si Si6 0.123388 0.834357 0.337298
Si Si7 0.033084 0.126531 0.229843
Si Si8 0.248294 0.218424 0.868655
O O1 0.293682 0.925368 0.826218
O O2 0.056711 0.928101 0.774502
O O3 0.177152 0.018597 0.954158
O O4 0.152245 0.890773 0.145967
O O5 0.128424 0.560802 0.566232
O O6 0.338661 0.603880 0.758559
O O7 0.245087 0.643085 0.350045
O O8 0.422499 0.906563 0.441078
O O9 0.416430 0.819071 0.794684
O O10 0.227739 0.844935 0.537243
O O11 0.528464 0.986074 0.147831
O O12 0.017227 0.192213 0.380068
O O13 0.167136 0.247074 0.652911
O O14 0.196773 0.228580 0.151557
O O15 0.137684 0.758887 0.311822
O O16 0.000424 0.850843 0.448443
#
# Coordination Sequence:
#
# PCOD9345853 Si02
#       8
#     4   4   4   4   4   4   4   4
#     4  11  22  45  72 101 145 196 240 301 373 451
#     4  11  26  46  70 111 148 189 249 310 368 444
#     4  10  22  44  72  99 136 193 243 303 359 444
#     4  12  27  48  72 103 145 193 248 305 372 437
#     4  10  22  43  69 100 141 183 247 290 358 436
#     4  10  22  44  72 101 144 190 247 292 375 446
#     4  10  26  40  68 107 143 192 236 305 371 445
#     4  10  23  44  69 102 142 188 234 306 352 431
#
# _framework density 24.181108999999999
#
# number of rings (size 3 to 8) (size 9 to 14) (size 15 to 20)
#    0.000    1.500    2.500    0.750    7.000    2.000 
#    6.750    1.250    0.000    0.000    0.000    0.000 
#    0.000    0.000    0.000    0.000    0.000    0.000 
#
# Total GULP energy -178135.876282 kJ/mol
# GULP energy per Si atom -5566.746134 kJ/mol
# Density = 2.412607 g / cm^3
# Si number density = 24.181109 Si / 1000 Ang^3
#
#
#
# Elastic Constant Matrix: (Units=GPa)
#
#
# Indices 1 2 3 4 5 6 
#
# 1 67.1622 -2.4470 -10.0703 0.0000 0.0000 0.0000
# 2 -2.4470 142.5541 7.3092 0.0000 0.0000 0.0000
# 3 -10.0703 7.3092 46.0817 0.0000 0.0000 0.0000
# 4 0.0000 0.0000 0.0000 21.6918 0.0000 0.0000
# 5 0.0000 0.0000 0.0000 0.0000 14.7454 0.0000
# 6 0.0000 0.0000 0.0000 0.0000 0.0000 42.0161
#
#
#
# Elastic Compliance Matrix: (Units=1/GPa)
#
#
# Indices 1 2 3 4 5 6 
#
# 1 0.015395 0.000093 0.003350 0.000000 0.000000 0.000000
# 2 0.000093 0.007073 -0.001102 0.000000 0.000000 0.000000
# 3 0.003350 -0.001102 0.022607 0.000000 0.000000 0.000000
# 4 0.000000 0.000000 0.000000 0.046100 0.000000 0.000000
# 5 0.000000 0.000000 0.000000 0.000000 0.067818 0.000000
# 6 0.000000 0.000000 0.000000 0.000000 0.000000 0.023800
#
#
# Mechanical properties :
#
#
# Convention : Reuss Voigt Hill
#
# Bulk Modulus (GPa) = 20.09800 27.26464 23.68132
# Shear Modulus (GPa) = 25.68079 33.09108 29.38593
#
# Velocity S-wave (km/s) = 3.26240 3.70329 3.48982
# Velocity P-wave (km/s) = 4.74557 5.43926 5.10421
#
# Compressibility (1/GPa) = 0.04975619
#
# Stress axis : x y z
#
# Youngs Moduli (GPa) = 64.95638 141.38368 44.23343
#
# Poissons Ratio (x) = -0.01308 -0.14816
# Poissons Ratio (y) = -0.00601 0.04873
# Poissons Ratio (z) = -0.21758 0.15576
#
# Static dielectric constant tensor:
#      x y z
#    x 1.964420 0.000000 0.000000 
#    y 0.000000 2.115420 0.000000 
#    z 0.000000 0.000000 2.020140 
# 
# From -- ./inp_files/1025.got.cif
#   From: 2010.05.17/outbox.cif.g08.bks.cpg/sg33_1_cif.got.tgz:1025.got - 2010.06.03 17:15:25.
