data_PCOD9345118
_publ_section_title
;
Structure prediction by ZEFSAII (Michael W. Deem and Ramdas Pophale) SiO2 
 PCOD9345118
Probable space group: P N A 21
;
_chemical_formula_sum "Si O2"
_cell_formula_units_Z 32
_cell_length_a 33.085251
_cell_length_b 5.174189
_cell_length_c 8.360043
_cell_angle_alpha 90.000000
_cell_angle_beta 90.000000
_cell_angle_gamma 90.000000
_cell_volume 1431.150258
_symmetry_space_group_name_H-M "P N A 21"
_symmetry_group_IT_number 33
_symmetry_cell_setting 'orthorhombic'
loop_
_space_group_symop_operation_xyz
x,y,z
-x,-y,1/2+z
1/2-x,1/2+y,1/2+z
1/2+x,1/2-y,z
loop_
_atom_site_type_symbol
_atom_site_label
_atom_site_fract_x
_atom_site_fract_y
_atom_site_fract_z
Si Si1 0.824483 0.884155 0.352400
Si Si2 0.193992 0.968769 0.205861
Si Si3 0.109869 0.905142 0.678496
Si Si4 0.236340 0.465628 0.316442
Si Si5 0.179210 0.537045 0.576242
Si Si6 0.377265 0.692897 0.874223
Si Si7 0.528866 0.783843 0.550635
Si Si8 0.464273 0.720588 0.828604
O O1 0.815071 0.888227 0.539270
O O2 0.784228 0.034797 0.292133
O O3 0.822067 0.635584 0.236430
O O4 0.871222 0.981989 0.339470
O O5 0.222379 0.170142 0.299722
O O6 0.150232 0.973706 0.293170
O O7 0.214621 0.685488 0.205394
O O8 0.151217 0.775609 0.616976
O O9 0.070483 0.732609 0.656580
O O10 0.103675 0.124979 0.547106
O O11 0.222895 0.562060 0.494902
O O12 0.154545 0.407367 0.427717
O O13 0.417263 0.756325 0.776500
O O14 0.492936 0.742499 0.675464
O O15 0.529770 0.555082 0.417706
O O16 0.526195 0.051200 0.454698
#
# Coordination Sequence:
#
# PCOD9345118 Si02
#       8
#     4   4   4   4   4   4   4   4
#     4  11  26  37  63  96 127 164 222 281 318 380
#     4  11  25  42  62  95 126 165 217 277 321 380
#     4  10  21  41  65  90 128 178 210 262 328 405
#     4  11  25  42  63  88 130 173 216 264 331 389
#     4  10  20  42  64  85 123 175 209 254 324 393
#     4   9  20  41  66  88 126 173 214 254 327 406
#     4  11  24  44  70  99 138 172 227 270 340 403
#     4  11  23  43  69 101 132 176 221 276 333 404
#
# _framework density 22.359639000000001
#
# number of rings (size 3 to 8) (size 9 to 14) (size 15 to 20)
#    0.000    1.500    2.500    1.500    5.250    1.000 
#    2.250    0.000    0.000    0.000    0.000    0.000 
#    0.000    0.000    0.000    0.000    0.000    0.000 
#
# Total GULP energy -178205.319452 kJ/mol
# GULP energy per Si atom -5568.916233 kJ/mol
# Density = 2.230875 g / cm^3
# Si number density = 22.359639 Si / 1000 Ang^3
#
#
#
# Elastic Constant Matrix: (Units=GPa)
#
#
# Indices 1 2 3 4 5 6 
#
# 1 82.6914 -7.1806 9.9423 0.0000 0.0000 0.0000
# 2 -7.1806 61.6525 7.5259 0.0000 0.0000 0.0000
# 3 9.9423 7.5259 48.9102 0.0000 0.0000 0.0000
# 4 0.0000 0.0000 0.0000 22.1344 0.0000 0.0000
# 5 0.0000 0.0000 0.0000 0.0000 33.8076 0.0000
# 6 0.0000 0.0000 0.0000 0.0000 0.0000 21.0513
#
#
#
# Elastic Compliance Matrix: (Units=1/GPa)
#
#
# Indices 1 2 3 4 5 6 
#
# 1 0.012592 0.001813 -0.002839 0.000000 0.000000 0.000000
# 2 0.001813 0.016791 -0.002952 0.000000 0.000000 0.000000
# 3 -0.002839 -0.002952 0.021477 0.000000 0.000000 0.000000
# 4 0.000000 0.000000 0.000000 0.045179 0.000000 0.000000
# 5 0.000000 0.000000 0.000000 0.000000 0.029579 0.000000
# 6 0.000000 0.000000 0.000000 0.000000 0.000000 0.047503
#
#
# Mechanical properties :
#
#
# Convention : Reuss Voigt Hill
#
# Bulk Modulus (GPa) = 23.30749 23.75880 23.53315
# Shear Modulus (GPa) = 25.59139 27.59644 26.59391
#
# Velocity S-wave (km/s) = 3.38677 3.51694 3.45247
# Velocity P-wave (km/s) = 5.07347 5.20967 5.14202
#
# Compressibility (1/GPa) = 0.04290466
#
# Stress axis : x y z
#
# Youngs Moduli (GPa) = 79.41620 59.55398 46.56159
#
# Poissons Ratio (x) = -0.10798 0.13217
# Poissons Ratio (y) = -0.14399 0.13746
# Poissons Ratio (z) = 0.22543 0.17582
#
# Static dielectric constant tensor:
#      x y z
#    x 1.920390 0.000000 0.000000 
#    y 0.000000 1.894350 0.000000 
#    z 0.000000 0.000000 1.964810 
# 
# From -- ./inp_files/5306.got.cif
#   From: 2010.05.17/outbox.cif.g08.bks.cpg/sg33_3_cif.got.tgz:5306.got - 2010.06.03 17:15:25.
