data_PCOD9345391
_publ_section_title
;
Structure prediction by ZEFSAII (Michael W. Deem and Ramdas Pophale) SiO2 
 PCOD9345391
Probable space group: P N A 21
;
_chemical_formula_sum "Si O2"
_cell_formula_units_Z 24
_cell_length_a 13.598299
_cell_length_b 6.992032
_cell_length_c 9.514875
_cell_angle_alpha 90.000000
_cell_angle_beta 90.000000
_cell_angle_gamma 90.000000
_cell_volume 904.671858
_symmetry_space_group_name_H-M "P N A 21"
_symmetry_group_IT_number 33
_symmetry_cell_setting 'orthorhombic'
loop_
_space_group_symop_operation_xyz
x,y,z
-x,-y,1/2+z
1/2-x,1/2+y,1/2+z
1/2+x,1/2-y,z
loop_
_atom_site_type_symbol
_atom_site_label
_atom_site_fract_x
_atom_site_fract_y
_atom_site_fract_z
Si Si1 0.245902 0.753622 0.611960
Si Si2 0.286938 0.172501 0.560314
Si Si3 0.540820 0.640985 0.242273
Si Si4 0.526185 0.768890 0.667409
Si Si5 0.119439 0.188278 0.373378
Si Si6 0.391691 0.872497 0.411441
O O1 0.137028 0.681686 0.632195
O O2 0.315871 0.673356 0.731788
O O3 0.300189 0.732977 0.460237
O O4 0.249347 0.982766 0.638884
O O5 0.369114 0.277747 0.651042
O O6 0.188300 0.266019 0.496552
O O7 0.340167 0.078229 0.423789
O O8 0.489065 0.461724 0.166664
O O9 0.583379 0.533215 0.382225
O O10 0.456653 0.791347 0.285590
O O11 0.473842 0.810648 0.819839
O O12 0.460646 0.864358 0.548428
#
# Coordination Sequence:
#
# PCOD9345391 Si02
#       6
#     4   4   4   4   4   4
#     4   9  20  42  65  86 134 176 215 277 337 386
#     4  10  21  40  64 101 130 170 224 278 342 406
#     4  10  21  40  67  98 132 176 225 278 336 405
#     4   9  20  41  66  90 128 183 221 270 341 394
#     4   9  21  41  62  93 132 175 225 273 330 415
#     4   9  21  40  62  94 134 172 214 284 328 402
#
# _framework density 26.528956000000001
#
# number of rings (size 3 to 8) (size 9 to 14) (size 15 to 20)
#    2.000    0.667    0.000    1.000    0.000    4.000 
#    0.000    0.000    0.000    0.000    0.000    0.000 
#    0.000    0.000    0.000    0.000    0.000    0.000 
#
# Total GULP energy -133802.133504 kJ/mol
# GULP energy per Si atom -5575.088896 kJ/mol
# Density = 2.646858 g / cm^3
# Si number density = 26.528956 Si / 1000 Ang^3
#
#
#
# Elastic Constant Matrix: (Units=GPa)
#
#
# Indices 1 2 3 4 5 6 
#
# 1 190.6987 21.1204 54.4730 0.0000 0.0000 0.0000
# 2 21.1204 74.6293 32.0789 0.0000 0.0000 0.0000
# 3 54.4730 32.0789 95.6074 0.0000 0.0000 0.0000
# 4 0.0000 0.0000 0.0000 23.6464 0.0000 0.0000
# 5 0.0000 0.0000 0.0000 0.0000 73.4425 0.0000
# 6 0.0000 0.0000 0.0000 0.0000 0.0000 30.1607
#
#
#
# Elastic Compliance Matrix: (Units=1/GPa)
#
#
# Indices 1 2 3 4 5 6 
#
# 1 0.006268 -0.000279 -0.003478 0.000000 0.000000 0.000000
# 2 -0.000279 0.015670 -0.005099 0.000000 0.000000 0.000000
# 3 -0.003478 -0.005099 0.014152 0.000000 0.000000 0.000000
# 4 0.000000 0.000000 0.000000 0.042290 0.000000 0.000000
# 5 0.000000 0.000000 0.000000 0.000000 0.013616 0.000000
# 6 0.000000 0.000000 0.000000 0.000000 0.000000 0.033156
#
#
# Mechanical properties :
#
#
# Convention : Reuss Voigt Hill
#
# Bulk Modulus (GPa) = 54.41002 64.03110 59.22056
# Shear Modulus (GPa) = 33.55953 42.33414 37.94684
#
# Velocity S-wave (km/s) = 3.56056 3.99904 3.78616
# Velocity P-wave (km/s) = 6.12027 6.74625 6.44087
#
# Compressibility (1/GPa) = 0.01837897
#
# Stress axis : x y z
#
# Youngs Moduli (GPa) = 159.53572 63.81533 70.66299
#
# Poissons Ratio (x) = 0.01781 0.24575
# Poissons Ratio (y) = 0.04452 0.36030
# Poissons Ratio (z) = 0.55482 0.32538
#
# Static dielectric constant tensor:
#      x y z
#    x 2.126590 0.000000 0.000000 
#    y 0.000000 2.093630 0.000000 
#    z 0.000000 0.000000 2.143570 
# 
# From -- ./inp_files/3783.got.cif
#   From: 2010.05.17/outbox.cif.g08.bks.cpg/sg33_2_cif.got.tgz:3783.got - 2010.06.03 17:15:25.
