data_PCOD9345969
_publ_section_title
;
Structure prediction by ZEFSAII (Michael W. Deem and Ramdas Pophale) SiO2 
 PCOD9345969
Probable space group: P N A 21
;
_chemical_formula_sum "Si O2"
_cell_formula_units_Z 24
_cell_length_a 8.608480
_cell_length_b 12.399101
_cell_length_c 8.580239
_cell_angle_alpha 90.000000
_cell_angle_beta 90.000000
_cell_angle_gamma 90.000000
_cell_volume 915.832514
_symmetry_space_group_name_H-M "P N A 21"
_symmetry_group_IT_number 33
_symmetry_cell_setting 'orthorhombic'
loop_
_space_group_symop_operation_xyz
x,y,z
-x,-y,1/2+z
1/2-x,1/2+y,1/2+z
1/2+x,1/2-y,z
loop_
_atom_site_type_symbol
_atom_site_label
_atom_site_fract_x
_atom_site_fract_y
_atom_site_fract_z
Si Si1 0.150776 0.993554 0.582130
Si Si2 0.655013 0.831599 0.894524
Si Si3 0.114397 0.885337 0.257196
Si Si4 0.198733 0.624043 0.532675
Si Si5 0.913306 0.704411 0.349019
Si Si6 0.203650 0.395523 0.381225
O O1 0.246912 0.093770 0.511705
O O2 0.104408 0.918365 0.439213
O O3 0.254712 0.928953 0.704685
O O4 0.996328 0.032864 0.668468
O O5 0.710531 0.857577 0.717007
O O6 0.474087 0.860256 0.898235
O O7 0.688191 0.705691 0.923086
O O8 0.263786 0.004167 0.976151
O O9 0.023101 0.643371 0.470414
O O10 0.305825 0.710127 0.441221
O O11 0.799767 0.630143 0.246838
O O12 0.029621 0.770596 0.239733
#
# Coordination Sequence:
#
# PCOD9345969 Si02
#       6
#     4   4   4   4   4   4
#     4  12  29  50  78 116 157 212 263 329 396 471
#     4  12  28  49  79 115 163 207 268 329 399 476
#     4  11  25  48  76 108 155 200 262 321 397 465
#     4  11  23  49  82 111 157 213 261 333 396 472
#     4  10  22  47  81 109 150 207 262 322 394 473
#     4  12  27  53  78 119 160 209 270 326 400 475
#
# _framework density 26.205665
#
# number of rings (size 3 to 8) (size 9 to 14) (size 15 to 20)
#    0.000    0.667    1.667    6.000    4.667    1.333 
#    9.000    0.000    0.000    0.000    0.000    0.000 
#    0.000    0.000    0.000    0.000    0.000    0.000 
#
# Total GULP energy -134848.246421 kJ/mol
# GULP energy per Si atom -5618.676934 kJ/mol
# Density = 2.614602 g / cm^3
# Si number density = 26.205665 Si / 1000 Ang^3
#
#
#
# Elastic Constant Matrix: (Units=GPa)
#
#
# Indices 1 2 3 4 5 6 
#
# 1 180.3566 66.7290 68.4959 0.0000 0.0000 0.0000
# 2 66.7290 159.9679 59.4600 0.0000 0.0000 0.0000
# 3 68.4959 59.4600 138.1756 0.0000 0.0000 0.0000
# 4 0.0000 0.0000 0.0000 47.1170 0.0000 0.0000
# 5 0.0000 0.0000 0.0000 0.0000 53.7655 0.0000
# 6 0.0000 0.0000 0.0000 0.0000 0.0000 29.7129
#
#
#
# Elastic Compliance Matrix: (Units=1/GPa)
#
#
# Indices 1 2 3 4 5 6 
#
# 1 0.007349 -0.002037 -0.002766 0.000000 0.000000 0.000000
# 2 -0.002037 0.008006 -0.002435 0.000000 0.000000 0.000000
# 3 -0.002766 -0.002435 0.009656 0.000000 0.000000 0.000000
# 4 0.000000 0.000000 0.000000 0.021224 0.000000 0.000000
# 5 0.000000 0.000000 0.000000 0.000000 0.018599 0.000000
# 6 0.000000 0.000000 0.000000 0.000000 0.000000 0.033655
#
#
# Mechanical properties :
#
#
# Convention : Reuss Voigt Hill
#
# Bulk Modulus (GPa) = 94.93268 96.42998 95.68133
# Shear Modulus (GPa) = 42.92607 45.04010 43.98309
#
# Velocity S-wave (km/s) = 4.05167 4.15024 4.10125
# Velocity P-wave (km/s) = 7.62841 7.73584 7.68231
#
# Compressibility (1/GPa) = 0.01053378
#
# Stress axis : x y z
#
# Youngs Moduli (GPa) = 136.07446 124.90125 103.55767
#
# Poissons Ratio (x) = 0.25446 0.28647
# Poissons Ratio (y) = 0.27722 0.25220
# Poissons Ratio (z) = 0.37642 0.30418
#
# Static dielectric constant tensor:
#      x y z
#    x 2.030710 0.000000 0.000000 
#    y 0.000000 2.044950 0.000000 
#    z 0.000000 0.000000 2.119210 
# 
# From -- ./inp_files/3390.got.cif
#   From: 2010.05.17/outbox.cif.g08.bks.cpg/sg33_2_cif.got.tgz:3390.got - 2010.06.03 17:15:25.
