data_PCOD9345629
_publ_section_title
;
Structure prediction by ZEFSAII (Michael W. Deem and Ramdas Pophale) SiO2 
 PCOD9345629
Probable space group: P N A 21
;
_chemical_formula_sum "Si O2"
_cell_formula_units_Z 32
_cell_length_a 23.316312
_cell_length_b 11.656528
_cell_length_c 4.973015
_cell_angle_alpha 90.000000
_cell_angle_beta 90.000000
_cell_angle_gamma 90.000000
_cell_volume 1351.602040
_symmetry_space_group_name_H-M "P N A 21"
_symmetry_group_IT_number 33
_symmetry_cell_setting 'orthorhombic'
loop_
_space_group_symop_operation_xyz
x,y,z
-x,-y,1/2+z
1/2-x,1/2+y,1/2+z
1/2+x,1/2-y,z
loop_
_atom_site_type_symbol
_atom_site_label
_atom_site_fract_x
_atom_site_fract_y
_atom_site_fract_z
Si Si1 0.510469 0.921876 0.079980
Si Si2 0.189466 0.782039 0.304935
Si Si3 0.833926 0.690836 0.857739
Si Si4 0.803059 0.831216 0.356490
Si Si5 0.963240 0.001692 0.638854
Si Si6 0.717501 0.582880 0.801122
Si Si7 0.953023 0.746972 0.741649
Si Si8 0.067203 0.752659 0.366945
O O1 0.567212 0.860765 0.181119
O O2 0.486520 0.003743 0.311673
O O3 0.473968 0.805882 0.023878
O O4 0.236224 0.683090 0.283986
O O5 0.216313 0.881458 0.490650
O O6 0.131995 0.752152 0.465440
O O7 0.185443 0.830908 0.004876
O O8 0.807935 0.785815 0.657697
O O9 0.785363 0.593166 0.879438
O O10 0.895674 0.669602 0.715998
O O11 0.838604 0.751806 0.148890
O O12 0.815324 0.963919 0.332791
O O13 0.937079 0.123089 0.722730
O O14 0.934674 0.880054 0.717662
O O15 0.979015 0.002448 0.324834
O O16 0.011683 0.740948 0.563222
#
# Coordination Sequence:
#
# PCOD9345629 Si02
#       8
#     4   4   4   4   4   4   4   4
#     4  12  26  46  66  94 142 186 230 272 330 418
#     4  10  24  41  68  99 132 174 230 278 343 406
#     4  10  24  41  68  99 132 174 230 278 343 406
#     4  10  22  43  65  98 132 176 225 284 338 402
#     4  10  22  38  62  94 134 170 214 276 328 402
#     4  10  22  43  65  98 132 176 225 284 338 402
#     4  11  25  45  68 104 139 180 228 284 347 421
#     4  11  25  45  68 104 139 180 228 284 347 421
#
# _framework density 23.675608
#
# number of rings (size 3 to 8) (size 9 to 14) (size 15 to 20)
#    0.000    1.500    2.500    0.750    7.000    1.000 
#    2.250    0.000    0.000    0.000    0.000    0.000 
#    0.000    0.000    0.000    0.000    0.000    0.000 
#
# Total GULP energy -178247.849155 kJ/mol
# GULP energy per Si atom -5570.245286 kJ/mol
# Density = 2.362172 g / cm^3
# Si number density = 23.675608 Si / 1000 Ang^3
#
#
#
# Elastic Constant Matrix: (Units=GPa)
#
#
# Indices 1 2 3 4 5 6 
#
# 1 101.4798 -19.7431 4.7640 0.0000 0.0000 0.0000
# 2 -19.7431 60.7047 14.3505 0.0000 0.0000 0.0000
# 3 4.7640 14.3505 103.5302 0.0000 0.0000 0.0000
# 4 0.0000 0.0000 0.0000 25.8185 0.0000 0.0000
# 5 0.0000 0.0000 0.0000 0.0000 9.2825 0.0000
# 6 0.0000 0.0000 0.0000 0.0000 0.0000 1.3618
#
#
#
# Elastic Compliance Matrix: (Units=1/GPa)
#
#
# Indices 1 2 3 4 5 6 
#
# 1 0.010619 0.003690 -0.001000 0.000000 0.000000 0.000000
# 2 0.003690 0.018314 -0.002708 0.000000 0.000000 0.000000
# 3 -0.001000 -0.002708 0.010080 0.000000 0.000000 0.000000
# 4 0.000000 0.000000 0.000000 0.038732 0.000000 0.000000
# 5 0.000000 0.000000 0.000000 0.000000 0.107730 0.000000
# 6 0.000000 0.000000 0.000000 0.000000 0.000000 0.734349
#
#
# Mechanical properties :
#
#
# Convention : Reuss Voigt Hill
#
# Bulk Modulus (GPa) = 25.65654 29.38415 27.52034
# Shear Modulus (GPa) = 5.35991 25.04878 15.20434
#
# Velocity S-wave (km/s) = 1.50626 3.25622 2.53690
# Velocity P-wave (km/s) = 3.72630 5.15513 4.49781
#
# Compressibility (1/GPa) = 0.03897642
#
# Stress axis : x y z
#
# Youngs Moduli (GPa) = 94.17041 54.60432 99.20208
#
# Poissons Ratio (x) = -0.20149 0.09922
# Poissons Ratio (y) = -0.34750 0.26867
# Poissons Ratio (z) = 0.09418 0.14788
#
# Static dielectric constant tensor:
#      x y z
#    x 2.067640 0.000000 0.000000 
#    y 0.000000 1.906400 0.000000 
#    z 0.000000 0.000000 1.934200 
# 
# From -- ./inp_files/2053.got.cif
#   From: 2010.05.17/outbox.cif.g08.bks.cpg/sg33_2_cif.got.tgz:2053.got - 2010.06.03 17:15:25.
