data_PCOD9345370
_publ_section_title
;
Structure prediction by ZEFSAII (Michael W. Deem and Ramdas Pophale) SiO2 
 PCOD9345370
Probable space group: P N A 21
;
_chemical_formula_sum "Si O2"
_cell_formula_units_Z 24
_cell_length_a 12.177519
_cell_length_b 12.011821
_cell_length_c 6.952061
_cell_angle_alpha 90.000000
_cell_angle_beta 90.000000
_cell_angle_gamma 90.000000
_cell_volume 1016.907011
_symmetry_space_group_name_H-M "P N A 21"
_symmetry_group_IT_number 33
_symmetry_cell_setting 'orthorhombic'
loop_
_space_group_symop_operation_xyz
x,y,z
-x,-y,1/2+z
1/2-x,1/2+y,1/2+z
1/2+x,1/2-y,z
loop_
_atom_site_type_symbol
_atom_site_label
_atom_site_fract_x
_atom_site_fract_y
_atom_site_fract_z
Si Si1 0.534498 0.164189 0.008980
Si Si2 0.377135 0.829033 0.097145
Si Si3 0.685611 0.409703 0.486700
Si Si4 0.908137 0.446363 0.694471
Si Si5 0.025424 0.902787 0.453422
Si Si6 0.165135 0.965760 0.110753
O O1 0.494021 0.286676 0.058984
O O2 0.581392 0.078947 0.163609
O O3 0.622479 0.179105 0.833570
O O4 0.432978 0.101557 0.904316
O O5 0.374005 0.707473 0.007063
O O6 0.492926 0.890631 0.071303
O O7 0.268180 0.896116 0.038995
O O8 0.794694 0.406273 0.609872
O O9 0.611188 0.513667 0.550679
O O10 0.708822 0.442765 0.265097
O O11 0.082181 0.889832 0.243280
O O12 0.910684 0.968777 0.461632
#
# Coordination Sequence:
#
# PCOD9345370 Si02
#       6
#     4   4   4   4   4   4
#     4  10  21  43  66  94 141 169 232 278 338 402
#     4  10  22  42  68  92 137 181 214 292 333 406
#     4  10  21  39  71  96 132 173 223 274 348 398
#     4  10  22  42  67  95 135 178 226 280 344 397
#     4  10  22  41  69 103 131 178 222 287 336 413
#     4  10  22  43  65 104 132 175 233 267 351 406
#
# _framework density 23.600977
#
# number of rings (size 3 to 8) (size 9 to 14) (size 15 to 20)
#    2.000    0.000    1.667    2.000    2.333    1.333 
#   12.000    1.667    0.000    0.000    0.000    0.000 
#    0.000    0.000    0.000    0.000    0.000    0.000 
#
# Total GULP energy -133909.338080 kJ/mol
# GULP energy per Si atom -5579.555753 kJ/mol
# Density = 2.354726 g / cm^3
# Si number density = 23.600977 Si / 1000 Ang^3
#
#
#
# Elastic Constant Matrix: (Units=GPa)
#
#
# Indices 1 2 3 4 5 6 
#
# 1 116.5490 45.7079 5.7942 0.0000 0.0000 0.0000
# 2 45.7079 165.5735 5.3677 0.0000 0.0000 0.0000
# 3 5.7942 5.3677 51.3215 0.0000 0.0000 0.0000
# 4 0.0000 0.0000 0.0000 16.3056 0.0000 0.0000
# 5 0.0000 0.0000 0.0000 0.0000 22.1832 0.0000
# 6 0.0000 0.0000 0.0000 0.0000 0.0000 26.8596
#
#
#
# Elastic Compliance Matrix: (Units=1/GPa)
#
#
# Indices 1 2 3 4 5 6 
#
# 1 0.009656 -0.002639 -0.000814 0.000000 0.000000 0.000000
# 2 -0.002639 0.006781 -0.000411 0.000000 0.000000 0.000000
# 3 -0.000814 -0.000411 0.019620 0.000000 0.000000 0.000000
# 4 0.000000 0.000000 0.000000 0.061328 0.000000 0.000000
# 5 0.000000 0.000000 0.000000 0.000000 0.045079 0.000000
# 6 0.000000 0.000000 0.000000 0.000000 0.000000 0.037231
#
#
# Mechanical properties :
#
#
# Convention : Reuss Voigt Hill
#
# Bulk Modulus (GPa) = 35.30078 49.68704 42.49391
# Shear Modulus (GPa) = 25.39789 31.50798 28.45293
#
# Velocity S-wave (km/s) = 3.28401 3.65777 3.47592
# Velocity P-wave (km/s) = 5.41936 6.24001 5.84411
#
# Compressibility (1/GPa) = 0.02832799
#
# Stress axis : x y z
#
# Youngs Moduli (GPa) = 103.56734 147.46013 50.96852
#
# Poissons Ratio (x) = 0.38916 0.04149
# Poissons Ratio (y) = 0.27332 0.02096
# Poissons Ratio (z) = 0.08431 0.06065
#
# Static dielectric constant tensor:
#      x y z
#    x 1.845530 0.000000 0.000000 
#    y 0.000000 1.878570 0.000000 
#    z 0.000000 0.000000 2.012870 
# 
# From -- ./inp_files/3822.got.cif
#   From: 2010.05.17/outbox.cif.g08.bks.cpg/sg33_2_cif.got.tgz:3822.got - 2010.06.03 17:15:25.
