data_PCOD9345888
_publ_section_title
;
Structure prediction by ZEFSAII (Michael W. Deem and Ramdas Pophale) SiO2 
 PCOD9345888
Probable space group: P N A 21
;
_chemical_formula_sum "Si O2"
_cell_formula_units_Z 32
_cell_length_a 13.212862
_cell_length_b 19.201906
_cell_length_c 5.767768
_cell_angle_alpha 90.000000
_cell_angle_beta 90.000000
_cell_angle_gamma 90.000000
_cell_volume 1463.352728
_symmetry_space_group_name_H-M "P N A 21"
_symmetry_group_IT_number 33
_symmetry_cell_setting 'orthorhombic'
loop_
_space_group_symop_operation_xyz
x,y,z
-x,-y,1/2+z
1/2-x,1/2+y,1/2+z
1/2+x,1/2-y,z
loop_
_atom_site_type_symbol
_atom_site_label
_atom_site_fract_x
_atom_site_fract_y
_atom_site_fract_z
Si Si1 0.258501 0.874303 0.261970
Si Si2 0.633911 0.565089 0.874859
Si Si3 0.166207 0.663843 0.985300
Si Si4 0.064013 0.063215 0.131770
Si Si5 0.360670 0.674571 0.292354
Si Si6 0.765339 0.977311 0.974793
Si Si7 0.220556 0.273486 0.156990
Si Si8 0.934449 0.700604 0.036766
O O1 0.223772 0.825870 0.477755
O O2 0.370600 0.845226 0.218573
O O3 0.260273 0.954942 0.325851
O O4 0.189455 0.875985 0.028308
O O5 0.546697 0.588737 0.699707
O O6 0.707674 0.513735 0.723482
O O7 0.570421 0.517009 0.053681
O O8 0.179206 0.580935 0.945821
O O9 0.207339 0.720289 0.798206
O O10 0.246317 0.671665 0.195683
O O11 0.049998 0.680418 0.026187
O O12 0.140087 0.063648 0.352470
O O13 0.099246 0.104473 0.903526
O O14 0.351834 0.723017 0.513354
O O15 0.424372 0.717658 0.105015
O O16 0.137388 0.311629 0.315376
#
# Coordination Sequence:
#
# PCOD9345888 Si02
#       8
#     4   4   4   4   4   4   4   4
#     4  10  24  46  64  99 144 180 231 290 353 430
#     4  11  22  40  68 103 143 183 230 290 363 429
#     4  11  23  45  75  99 134 181 239 291 351 420
#     4  11  21  40  65 101 139 178 230 289 358 426
#     4  10  22  44  67  97 136 171 229 286 343 420
#     4  11  22  42  67 102 134 182 229 294 344 418
#     4  10  22  47  67  96 137 177 227 290 347 420
#     4  10  24  48  65 101 131 182 237 282 353 423
#
# _framework density 21.867592999999999
#
# number of rings (size 3 to 8) (size 9 to 14) (size 15 to 20)
#    0.000    1.500    3.750    0.750    0.000    2.000 
#   22.500    0.000    0.000    0.000    0.000    0.000 
#    0.000    0.000    0.000    0.000    0.000    0.000 
#
# Total GULP energy -178346.228171 kJ/mol
# GULP energy per Si atom -5573.319630 kJ/mol
# Density = 2.181782 g / cm^3
# Si number density = 21.867593 Si / 1000 Ang^3
#
#
#
# Elastic Constant Matrix: (Units=GPa)
#
#
# Indices 1 2 3 4 5 6 
#
# 1 100.1059 25.3010 43.3594 0.0000 0.0000 0.0000
# 2 25.3010 86.2193 26.2265 0.0000 0.0000 0.0000
# 3 43.3594 26.2265 92.2009 0.0000 0.0000 0.0000
# 4 0.0000 0.0000 0.0000 45.8147 0.0000 0.0000
# 5 0.0000 0.0000 0.0000 0.0000 19.1299 0.0000
# 6 0.0000 0.0000 0.0000 0.0000 0.0000 28.6257
#
#
#
# Elastic Compliance Matrix: (Units=1/GPa)
#
#
# Indices 1 2 3 4 5 6 
#
# 1 0.012890 -0.002122 -0.005458 0.000000 0.000000 0.000000
# 2 -0.002122 0.013046 -0.002713 0.000000 0.000000 0.000000
# 3 -0.005458 -0.002713 0.014184 0.000000 0.000000 0.000000
# 4 0.000000 0.000000 0.000000 0.021827 0.000000 0.000000
# 5 0.000000 0.000000 0.000000 0.000000 0.052274 0.000000
# 6 0.000000 0.000000 0.000000 0.000000 0.000000 0.034934
#
#
# Mechanical properties :
#
#
# Convention : Reuss Voigt Hill
#
# Bulk Modulus (GPa) = 51.19289 52.03331 51.61310
# Shear Modulus (GPa) = 28.36824 30.95668 29.66246
#
# Velocity S-wave (km/s) = 3.60568 3.76658 3.68701
# Velocity P-wave (km/s) = 6.38715 6.53931 6.46368
#
# Compressibility (1/GPa) = 0.01953396
#
# Stress axis : x y z
#
# Youngs Moduli (GPa) = 77.58023 76.64972 70.50019
#
# Poissons Ratio (x) = 0.16267 0.38479
# Poissons Ratio (y) = 0.16465 0.19127
# Poissons Ratio (z) = 0.42344 0.20795
#
# Static dielectric constant tensor:
#      x y z
#    x 1.766520 0.000000 0.000000 
#    y 0.000000 1.904660 0.000000 
#    z 0.000000 0.000000 1.952230 
# 
# From -- ./inp_files/1052.got.cif
#   From: 2010.05.17/outbox.cif.g08.bks.cpg/sg33_1_cif.got.tgz:1052.got - 2010.06.03 17:15:25.
