data_PCOD9345105
_publ_section_title
;
Structure prediction by ZEFSAII (Michael W. Deem and Ramdas Pophale) SiO2 
 PCOD9345105
Probable space group: P N A 21
;
_chemical_formula_sum "Si O2"
_cell_formula_units_Z 28
_cell_length_a 14.117758
_cell_length_b 5.559741
_cell_length_c 17.406248
_cell_angle_alpha 90.000000
_cell_angle_beta 90.000000
_cell_angle_gamma 90.000000
_cell_volume 1366.235169
_symmetry_space_group_name_H-M "P N A 21"
_symmetry_group_IT_number 33
_symmetry_cell_setting 'orthorhombic'
loop_
_space_group_symop_operation_xyz
x,y,z
-x,-y,1/2+z
1/2-x,1/2+y,1/2+z
1/2+x,1/2-y,z
loop_
_atom_site_type_symbol
_atom_site_label
_atom_site_fract_x
_atom_site_fract_y
_atom_site_fract_z
Si Si1 0.797346 0.491093 0.962420
Si Si2 0.412659 0.460567 0.457356
Si Si3 0.000762 0.211179 0.805169
Si Si4 0.114241 0.003414 0.524060
Si Si5 0.289535 0.219272 0.805246
Si Si6 0.846380 0.017273 0.201516
Si Si7 0.871931 0.403108 0.333005
O O1 0.688151 0.448647 0.988677
O O2 0.795395 0.491088 0.869234
O O3 0.838619 0.744893 0.993703
O O4 0.855651 0.246504 0.981832
O O5 0.453757 0.597417 0.381932
O O6 0.501035 0.458746 0.514290
O O7 0.382500 0.212109 0.416619
O O8 0.891122 0.161208 0.798211
O O9 0.024304 0.491167 0.814406
O O10 0.062391 0.126892 0.733189
O O11 0.143501 0.955113 0.611725
O O12 0.209368 0.397791 0.836368
O O13 0.248431 0.124403 0.725301
O O14 0.846423 0.243757 0.258923
#
# Coordination Sequence:
#
# PCOD9345105 Si02
#       7
#     4   4   4   4   4   4   4
#     4  12  25  44  72 102 137 184 236 285 350 423
#     4  11  23  41  69 101 135 180 234 288 346 417
#     4  10  21  39  68  97 126 181 227 284 344 420
#     4  12  29  45  69 104 147 183 228 300 359 407
#     4  11  21  41  73  99 131 184 237 288 345 430
#     4  10  25  43  62  99 138 179 228 293 344 421
#     4  10  20  41  69  96 140 173 244 286 342 422
#
# _framework density 20.494274000000001
#
# number of rings (size 3 to 8) (size 9 to 14) (size 15 to 20)
#    0.000    1.143    5.714    1.714    4.000    3.429 
#    2.571    0.000    0.000    0.000    0.000    0.000 
#    0.000    0.000    0.000    0.000    0.000    0.000 
#
# Total GULP energy -156075.923914 kJ/mol
# GULP energy per Si atom -5574.140140 kJ/mol
# Density = 2.044763 g / cm^3
# Si number density = 20.494274 Si / 1000 Ang^3
#
#
#
# Elastic Constant Matrix: (Units=GPa)
#
#
# Indices 1 2 3 4 5 6 
#
# 1 123.2747 9.2325 -18.1182 0.0000 0.0000 0.0000
# 2 9.2325 56.5380 -4.4362 0.0000 0.0000 0.0000
# 3 -18.1182 -4.4362 45.1500 0.0000 0.0000 0.0000
# 4 0.0000 0.0000 0.0000 11.5846 0.0000 0.0000
# 5 0.0000 0.0000 0.0000 0.0000 24.1528 0.0000
# 6 0.0000 0.0000 0.0000 0.0000 0.0000 20.0410
#
#
#
# Elastic Compliance Matrix: (Units=1/GPa)
#
#
# Indices 1 2 3 4 5 6 
#
# 1 0.008695 -0.001155 0.003376 0.000000 0.000000 0.000000
# 2 -0.001155 0.017978 0.001303 0.000000 0.000000 0.000000
# 3 0.003376 0.001303 0.023631 0.000000 0.000000 0.000000
# 4 0.000000 0.000000 0.000000 0.086322 0.000000 0.000000
# 5 0.000000 0.000000 0.000000 0.000000 0.041403 0.000000
# 6 0.000000 0.000000 0.000000 0.000000 0.000000 0.049898
#
#
# Mechanical properties :
#
#
# Convention : Reuss Voigt Hill
#
# Bulk Modulus (GPa) = 17.43655 22.03544 19.73599
# Shear Modulus (GPa) = 20.83369 27.04131 23.93750
#
# Velocity S-wave (km/s) = 3.19182 3.63637 3.42132
# Velocity P-wave (km/s) = 4.70213 5.32975 5.02575
#
# Compressibility (1/GPa) = 0.05735080
#
# Stress axis : x y z
#
# Youngs Moduli (GPa) = 115.01420 55.62334 42.31730
#
# Poissons Ratio (x) = 0.06424 -0.14284
# Poissons Ratio (y) = 0.13283 -0.05514
# Poissons Ratio (z) = -0.38824 -0.07248
#
# Static dielectric constant tensor:
#      x y z
#    x 1.758250 0.000000 0.000000 
#    y 0.000000 1.857540 0.000000 
#    z 0.000000 0.000000 1.701150 
# 
# From -- ./inp_files/8738.got.cif
#   From: 2010.05.17/outbox.cif.g08.bks.cpg/sg33_5_cif.got.tgz:8738.got - 2010.06.03 17:15:25.
