data_PCOD9345356
_publ_section_title
;
Structure prediction by ZEFSAII (Michael W. Deem and Ramdas Pophale) SiO2 
 PCOD9345356
Probable space group: P N A 21
;
_chemical_formula_sum "Si O2"
_cell_formula_units_Z 24
_cell_length_a 20.348066
_cell_length_b 11.296507
_cell_length_c 4.959781
_cell_angle_alpha 90.000000
_cell_angle_beta 90.000000
_cell_angle_gamma 90.000000
_cell_volume 1140.065527
_symmetry_space_group_name_H-M "P N A 21"
_symmetry_group_IT_number 33
_symmetry_cell_setting 'orthorhombic'
loop_
_space_group_symop_operation_xyz
x,y,z
-x,-y,1/2+z
1/2-x,1/2+y,1/2+z
1/2+x,1/2-y,z
loop_
_atom_site_type_symbol
_atom_site_label
_atom_site_fract_x
_atom_site_fract_y
_atom_site_fract_z
Si Si1 0.520896 0.813528 0.964930
Si Si2 0.969402 0.059269 0.739432
Si Si3 0.174199 0.881235 0.156477
Si Si4 0.651346 0.762062 0.658192
Si Si5 0.683271 0.014437 0.715620
Si Si6 0.407947 0.958019 0.702611
O O1 0.576455 0.789388 0.738775
O O2 0.455605 0.856755 0.815201
O O3 0.515411 0.692910 0.136591
O O4 0.547900 0.925036 0.140483
O O5 0.890640 0.042584 0.721656
O O6 0.004966 0.969161 0.535898
O O7 0.162264 0.766870 0.347433
O O8 0.245474 0.929391 0.222279
O O9 0.171271 0.848622 0.842269
O O10 0.691073 0.874510 0.763542
O O11 0.646778 0.020155 0.429224
O O12 0.632265 0.067941 0.930769
#
# Coordination Sequence:
#
# PCOD9345356 Si02
#       6
#     4   4   4   4   4   4
#     4  10  22  42  68  94 132 161 216 267 324 375
#     4  11  24  42  64  93 126 176 215 251 312 381
#     4  11  23  43  64  86 129 170 211 249 310 387
#     4  10  21  39  67  86 120 176 203 253 318 376
#     4  11  23  41  62  96 129 159 215 257 323 374
#     4  11  23  39  69 101 124 162 208 281 325 361
#
# _framework density 21.051424000000001
#
# number of rings (size 3 to 8) (size 9 to 14) (size 15 to 20)
#    0.000    1.333    0.000    8.000    0.000    6.667 
#    9.000    0.000    0.000    0.000    0.000    0.000 
#    0.000    0.000    0.000    0.000    0.000    0.000 
#
# Total GULP energy -134178.666762 kJ/mol
# GULP energy per Si atom -5590.777782 kJ/mol
# Density = 2.100351 g / cm^3
# Si number density = 21.051424 Si / 1000 Ang^3
#
#
#
# Elastic Constant Matrix: (Units=GPa)
#
#
# Indices 1 2 3 4 5 6 
#
# 1 111.4864 36.6494 6.1705 0.0000 0.0000 0.0000
# 2 36.6494 50.0821 -1.3337 0.0000 0.0000 0.0000
# 3 6.1705 -1.3337 78.6707 0.0000 0.0000 0.0000
# 4 0.0000 0.0000 0.0000 18.4606 0.0000 0.0000
# 5 0.0000 0.0000 0.0000 0.0000 26.1191 0.0000
# 6 0.0000 0.0000 0.0000 0.0000 0.0000 27.5050
#
#
#
# Elastic Compliance Matrix: (Units=1/GPa)
#
#
# Indices 1 2 3 4 5 6 
#
# 1 0.011902 -0.008739 -0.001082 0.000000 0.000000 0.000000
# 2 -0.008739 0.026392 0.001133 0.000000 0.000000 0.000000
# 3 -0.001082 0.001133 0.012815 0.000000 0.000000 0.000000
# 4 0.000000 0.000000 0.000000 0.054169 0.000000 0.000000
# 5 0.000000 0.000000 0.000000 0.000000 0.038286 0.000000
# 6 0.000000 0.000000 0.000000 0.000000 0.000000 0.036357
#
#
# Mechanical properties :
#
#
# Convention : Reuss Voigt Hill
#
# Bulk Modulus (GPa) = 29.64316 35.91242 32.77779
# Shear Modulus (GPa) = 23.97594 27.66716 25.82155
#
# Velocity S-wave (km/s) = 3.37845 3.62921 3.50608
# Velocity P-wave (km/s) = 5.41576 5.88710 5.65634
#
# Compressibility (1/GPa) = 0.03373460
#
# Stress axis : x y z
#
# Youngs Moduli (GPa) = 84.01738 37.88990 78.03201
#
# Poissons Ratio (x) = 0.33111 0.08441
# Poissons Ratio (y) = 0.73421 -0.08840
# Poissons Ratio (z) = 0.09088 -0.04292
#
# Static dielectric constant tensor:
#      x y z
#    x 1.735660 0.000000 0.000000 
#    y 0.000000 1.798960 0.000000 
#    z 0.000000 0.000000 1.759040 
# 
# From -- ./inp_files/1961.got.cif
#   From: 2010.05.17/outbox.cif.g08.bks.cpg/sg33_1_cif.got.tgz:1961.got - 2010.06.03 17:15:25.
