data_PCOD9345988
_publ_section_title
;
Structure prediction by ZEFSAII (Michael W. Deem and Ramdas Pophale) SiO2 
 PCOD9345988
Probable space group: P N A 21
;
_chemical_formula_sum "Si O2"
_cell_formula_units_Z 32
_cell_length_a 12.879131
_cell_length_b 19.665801
_cell_length_c 5.471443
_cell_angle_alpha 90.000000
_cell_angle_beta 90.000000
_cell_angle_gamma 90.000000
_cell_volume 1385.798478
_symmetry_space_group_name_H-M "P N A 21"
_symmetry_group_IT_number 33
_symmetry_cell_setting 'orthorhombic'
loop_
_space_group_symop_operation_xyz
x,y,z
-x,-y,1/2+z
1/2-x,1/2+y,1/2+z
1/2+x,1/2-y,z
loop_
_atom_site_type_symbol
_atom_site_label
_atom_site_fract_x
_atom_site_fract_y
_atom_site_fract_z
Si Si1 0.056455 0.312871 0.172720
Si Si2 0.532360 0.407597 0.797717
Si Si3 0.316267 0.461248 0.784639
Si Si4 0.740830 0.616233 0.787492
Si Si5 0.266078 0.593026 0.012468
Si Si6 0.870933 0.335501 0.835614
Si Si7 0.420343 0.286199 0.507692
Si Si8 0.660179 0.320434 0.125507
O O1 0.138487 0.363266 0.291824
O O2 0.126563 0.254441 0.047110
O O3 0.992152 0.266484 0.361613
O O4 0.974584 0.346060 0.989530
O O5 0.441992 0.462975 0.805016
O O6 0.642059 0.432012 0.691412
O O7 0.482746 0.348154 0.629802
O O8 0.566195 0.370599 0.048530
O O9 0.285378 0.429679 0.524051
O O10 0.282640 0.416586 0.022105
O O11 0.264875 0.534749 0.811397
O O12 0.667605 0.682090 0.833328
O O13 0.155406 0.609180 0.128311
O O14 0.309913 0.664014 0.904285
O O15 0.875088 0.260233 0.722315
O O16 0.766898 0.338210 0.993430
#
# Coordination Sequence:
#
# PCOD9345988 Si02
#       8
#     4   4   4   4   4   4   4   4
#     4  12  23  41  73  99 143 184 240 296 369 431
#     4  10  23  38  71 105 142 179 231 290 375 431
#     4  11  28  47  71 104 149 188 247 299 348 431
#     4  11  28  45  73 105 142 193 240 303 360 426
#     4  11  25  45  71 101 144 191 242 291 366 428
#     4  11  25  41  69 104 141 189 232 304 355 439
#     4  11  23  42  67 107 143 179 233 302 370 437
#     4  11  23  41  67 105 140 181 231 295 371 437
#
# _framework density 23.091379
#
# number of rings (size 3 to 8) (size 9 to 14) (size 15 to 20)
#    0.000    1.000    2.500    3.000   15.750    0.000 
#    0.000    0.000    5.500    0.000    0.000    0.000 
#    0.000    0.000    0.000    0.000    0.000    0.000 
#
# Total GULP energy -178906.902949 kJ/mol
# GULP energy per Si atom -5590.840717 kJ/mol
# Density = 2.303882 g / cm^3
# Si number density = 23.091379 Si / 1000 Ang^3
#
#
#
# Elastic Constant Matrix: (Units=GPa)
#
#
# Indices 1 2 3 4 5 6 
#
# 1 125.0879 29.9204 40.7886 0.0000 0.0000 0.0000
# 2 29.9204 49.1125 18.1604 0.0000 0.0000 0.0000
# 3 40.7886 18.1604 82.5007 0.0000 0.0000 0.0000
# 4 0.0000 0.0000 0.0000 42.2546 0.0000 0.0000
# 5 0.0000 0.0000 0.0000 0.0000 38.7268 0.0000
# 6 0.0000 0.0000 0.0000 0.0000 0.0000 20.8418
#
#
#
# Elastic Compliance Matrix: (Units=1/GPa)
#
#
# Indices 1 2 3 4 5 6 
#
# 1 0.010504 -0.004876 -0.004120 0.000000 0.000000 0.000000
# 2 -0.004876 0.024429 -0.002967 0.000000 0.000000 0.000000
# 3 -0.004120 -0.002967 0.014811 0.000000 0.000000 0.000000
# 4 0.000000 0.000000 0.000000 0.023666 0.000000 0.000000
# 5 0.000000 0.000000 0.000000 0.000000 0.025822 0.000000
# 6 0.000000 0.000000 0.000000 0.000000 0.000000 0.047980
#
#
# Mechanical properties :
#
#
# Convention : Reuss Voigt Hill
#
# Bulk Modulus (GPa) = 38.73127 48.27108 43.50117
# Shear Modulus (GPa) = 27.81734 31.55342 29.68538
#
# Velocity S-wave (km/s) = 3.47459 3.70057 3.58936
# Velocity P-wave (km/s) = 5.73642 6.26169 6.00480
#
# Compressibility (1/GPa) = 0.02581893
#
# Stress axis : x y z
#
# Youngs Moduli (GPa) = 95.20095 40.93507 67.51697
#
# Poissons Ratio (x) = 0.19959 0.27817
# Poissons Ratio (y) = 0.46419 0.20031
# Poissons Ratio (z) = 0.39222 0.12144
#
# Static dielectric constant tensor:
#      x y z
#    x 1.848980 0.000000 0.000000 
#    y 0.000000 1.900420 0.000000 
#    z 0.000000 0.000000 2.006080 
# 
# From -- ./inp_files/1045.got.cif
#   From: 2010.05.17/outbox.cif.g08.bks.cpg/sg33_1_cif.got.tgz:1045.got - 2010.06.03 17:15:25.
