data_PCOD9345083
_publ_section_title
;
Structure prediction by ZEFSAII (Michael W. Deem and Ramdas Pophale) SiO2 
 PCOD9345083
Probable space group: P N A 21
;
_chemical_formula_sum "Si O2"
_cell_formula_units_Z 20
_cell_length_a 15.115962
_cell_length_b 5.125338
_cell_length_c 12.908878
_cell_angle_alpha 90.000000
_cell_angle_beta 90.000000
_cell_angle_gamma 90.000000
_cell_volume 1000.107764
_symmetry_space_group_name_H-M "P N A 21"
_symmetry_group_IT_number 33
_symmetry_cell_setting 'orthorhombic'
loop_
_space_group_symop_operation_xyz
x,y,z
-x,-y,1/2+z
1/2-x,1/2+y,1/2+z
1/2+x,1/2-y,z
loop_
_atom_site_type_symbol
_atom_site_label
_atom_site_fract_x
_atom_site_fract_y
_atom_site_fract_z
Si Si1 0.479167 0.641958 0.651900
Si Si2 0.940292 0.362804 0.779431
Si Si3 0.406182 0.688705 0.423277
Si Si4 0.659824 0.639936 0.745553
Si Si5 0.748912 0.650738 0.307343
O O1 0.466179 0.348745 0.692241
O O2 0.438495 0.657843 0.538702
O O3 0.584150 0.700985 0.662544
O O4 0.433870 0.854019 0.727791
O O5 0.849862 0.246645 0.825721
O O6 0.019673 0.350701 0.861351
O O7 0.391748 0.425059 0.354508
O O8 0.310474 0.822055 0.409097
O O9 0.708868 0.365093 0.728710
O O10 0.730227 0.867901 0.761963
#
# Coordination Sequence:
#
# PCOD9345083 Si02
#       5
#     4   4   4   4   4
#     4  11  21  39  65  86 119 164 196 241 308 354
#     4  11  23  40  62  88 120 160 197 250 299 356
#     4   9  23  39  62  85 125 152 204 239 299 353
#     4   9  19  39  59  84 121 158 184 260 281 348
#     4  10  20  41  58  81 125 152 193 252 293 335
#
# _framework density 19.997845999999999
#
# number of rings (size 3 to 8) (size 9 to 14) (size 15 to 20)
#    1.200    0.800    2.000    1.200    2.800    0.000 
#    7.200    0.000    0.000    0.000    0.000    0.000 
#    0.000    0.000    0.000    0.000    0.000    0.000 
#
# Total GULP energy -111369.115240 kJ/mol
# GULP energy per Si atom -5568.455762 kJ/mol
# Density = 1.995233 g / cm^3
# Si number density = 19.997846 Si / 1000 Ang^3
#
#
#
# Elastic Constant Matrix: (Units=GPa)
#
#
# Indices 1 2 3 4 5 6 
#
# 1 76.1119 8.8017 -2.3498 0.0000 0.0000 0.0000
# 2 8.8017 81.3894 -14.7059 0.0000 0.0000 0.0000
# 3 -2.3498 -14.7059 32.2477 0.0000 0.0000 0.0000
# 4 0.0000 0.0000 0.0000 7.9106 0.0000 0.0000
# 5 0.0000 0.0000 0.0000 0.0000 -0.6247 0.0000
# 6 0.0000 0.0000 0.0000 0.0000 0.0000 31.1809
#
#
#
# Elastic Compliance Matrix: (Units=1/GPa)
#
#
# Indices 1 2 3 4 5 6 
#
# 1 0.013308 -0.001377 0.000342 0.000000 0.000000 0.000000
# 2 -0.001377 0.013532 0.006071 0.000000 0.000000 0.000000
# 3 0.000342 0.006071 0.033803 0.000000 0.000000 0.000000
# 4 0.000000 0.000000 0.000000 0.126413 0.000000 0.000000
# 5 0.000000 0.000000 0.000000 0.000000 -1.600874 0.000000
# 6 0.000000 0.000000 0.000000 0.000000 0.000000 0.032071
#
#
# Mechanical properties :
#
#
# Convention : Reuss Voigt Hill
#
# Bulk Modulus (GPa) = 14.14148 19.24902 16.69525
# Shear Modulus (GPa) = -3.65432 20.89356 8.61962
#
# Velocity S-wave (km/s) = -1.35326 3.23583 2.07837
# Velocity P-wave (km/s) = 2.15525 4.85873 3.75848
#
# Compressibility (1/GPa) = 0.07071394
#
# Stress axis : x y z
#
# Youngs Moduli (GPa) = 75.14059 73.89627 29.58290
#
# Poissons Ratio (x) = 0.10179 -0.01010
# Poissons Ratio (y) = 0.10351 -0.17959
# Poissons Ratio (z) = -0.02567 -0.44861
#
# Static dielectric constant tensor:
#      x y z
#    x 1.756470 0.000000 0.000000 
#    y 0.000000 1.710720 0.000000 
#    z 0.000000 0.000000 1.673330 
# 
# From -- ./inp_files/6557.got.cif
#   From: 2010.05.17/outbox.cif.g08.bks.cpg/sg33_4_cif.got.tgz:6557.got - 2010.06.03 17:15:25.
