data_PCOD9345995
_publ_section_title
;
Structure prediction by ZEFSAII (Michael W. Deem and Ramdas Pophale) SiO2 
 PCOD9345995
Probable space group: P N A 21
;
_chemical_formula_sum "Si O2"
_cell_formula_units_Z 20
_cell_length_a 8.888153
_cell_length_b 17.721737
_cell_length_c 5.313844
_cell_angle_alpha 90.000000
_cell_angle_beta 90.000000
_cell_angle_gamma 90.000000
_cell_volume 837.002219
_symmetry_space_group_name_H-M "P N A 21"
_symmetry_group_IT_number 33
_symmetry_cell_setting 'orthorhombic'
loop_
_space_group_symop_operation_xyz
x,y,z
-x,-y,1/2+z
1/2-x,1/2+y,1/2+z
1/2+x,1/2-y,z
loop_
_atom_site_type_symbol
_atom_site_label
_atom_site_fract_x
_atom_site_fract_y
_atom_site_fract_z
Si Si1 0.293703 0.491780 0.595140
Si Si2 0.867770 0.925224 0.094784
Si Si3 0.602871 0.750214 0.777804
Si Si4 0.854352 0.789260 0.429809
Si Si5 0.642078 0.161631 0.584828
O O1 0.458089 0.451241 0.599876
O O2 0.287361 0.534585 0.330826
O O3 0.169236 0.426692 0.606499
O O4 0.296797 0.547424 0.834274
O O5 0.862424 0.837855 0.176509
O O6 0.701857 0.797288 0.581069
O O7 0.493476 0.696047 0.614423
O O8 0.504172 0.807455 0.941876
O O9 0.714842 0.699149 0.941778
O O10 0.861824 0.701432 0.355625
#
# Coordination Sequence:
#
# PCOD9345995 Si02
#       5
#     4   4   4   4   4
#     4  10  23  39  66  99 133 173 225 283 341 401
#     4  10  23  39  66  99 133 173 225 283 341 401
#     4  10  24  38  72 100 136 174 234 280 346 400
#     4  11  23  42  69  99 134 178 229 282 338 411
#     4  11  23  42  69  99 134 178 229 282 338 411
#
# _framework density 23.894798999999999
#
# number of rings (size 3 to 8) (size 9 to 14) (size 15 to 20)
#    0.000    1.600    0.000    3.600   19.600    0.000 
#    0.000    0.000    8.800    0.000    0.000    0.000 
#    0.000    0.000    0.000    0.000    0.000    0.000 
#
# Total GULP energy -112046.544390 kJ/mol
# GULP energy per Si atom -5602.327219 kJ/mol
# Density = 2.384041 g / cm^3
# Si number density = 23.894799 Si / 1000 Ang^3
#
#
#
# Elastic Constant Matrix: (Units=GPa)
#
#
# Indices 1 2 3 4 5 6 
#
# 1 91.6389 2.4704 32.6252 0.0000 0.0000 0.0000
# 2 2.4704 69.4360 14.8062 0.0000 0.0000 0.0000
# 3 32.6252 14.8062 107.9669 0.0000 0.0000 0.0000
# 4 0.0000 0.0000 0.0000 43.7138 0.0000 0.0000
# 5 0.0000 0.0000 0.0000 0.0000 33.9373 0.0000
# 6 0.0000 0.0000 0.0000 0.0000 0.0000 25.8101
#
#
#
# Elastic Compliance Matrix: (Units=1/GPa)
#
#
# Indices 1 2 3 4 5 6 
#
# 1 0.012237 0.000364 -0.003748 0.000000 0.000000 0.000000
# 2 0.000364 0.014846 -0.002146 0.000000 0.000000 0.000000
# 3 -0.003748 -0.002146 0.010689 0.000000 0.000000 0.000000
# 4 0.000000 0.000000 0.000000 0.022876 0.000000 0.000000
# 5 0.000000 0.000000 0.000000 0.000000 0.029466 0.000000
# 6 0.000000 0.000000 0.000000 0.000000 0.000000 0.038744
#
#
# Mechanical properties :
#
#
# Convention : Reuss Voigt Hill
#
# Bulk Modulus (GPa) = 37.43558 40.98282 39.20920
# Shear Modulus (GPa) = 33.59713 35.30159 34.44936
#
# Velocity S-wave (km/s) = 3.75379 3.84783 3.80110
# Velocity P-wave (km/s) = 5.87272 6.07698 5.97572
#
# Compressibility (1/GPa) = 0.02671255
#
# Stress axis : x y z
#
# Youngs Moduli (GPa) = 81.72080 67.35645 93.55578
#
# Poissons Ratio (x) = -0.02450 0.35061
# Poissons Ratio (y) = -0.02973 0.20076
# Poissons Ratio (z) = 0.30625 0.14454
#
# Static dielectric constant tensor:
#      x y z
#    x 1.908380 0.000000 0.000000 
#    y 0.000000 1.924910 0.000000 
#    z 0.000000 0.000000 1.893800 
# 
# From -- ./inp_files/320.got.cif
#   From: 2010.05.17/outbox.cif.g08.bks.cpg/sg33_1_cif.got.tgz:320.got - 2010.06.03 17:15:25.
