data_PCOD9345852
_publ_section_title
;
Structure prediction by ZEFSAII (Michael W. Deem and Ramdas Pophale) SiO2 
 PCOD9345852
Probable space group: P N A 21
;
_chemical_formula_sum "Si O2"
_cell_formula_units_Z 32
_cell_length_a 18.804411
_cell_length_b 12.427988
_cell_length_c 5.699319
_cell_angle_alpha 90.000000
_cell_angle_beta 90.000000
_cell_angle_gamma 90.000000
_cell_volume 1331.936517
_symmetry_space_group_name_H-M "P N A 21"
_symmetry_group_IT_number 33
_symmetry_cell_setting 'orthorhombic'
loop_
_space_group_symop_operation_xyz
x,y,z
-x,-y,1/2+z
1/2-x,1/2+y,1/2+z
1/2+x,1/2-y,z
loop_
_atom_site_type_symbol
_atom_site_label
_atom_site_fract_x
_atom_site_fract_y
_atom_site_fract_z
Si Si1 0.572281 0.021326 0.929600
Si Si2 0.481474 0.824859 0.094835
Si Si3 0.846517 0.649135 0.798494
Si Si4 0.400193 0.313927 0.417829
Si Si5 0.787842 0.238072 0.067579
Si Si6 0.165849 0.971951 0.277523
Si Si7 0.483138 0.552638 0.727600
Si Si8 0.195170 0.537262 0.587482
O O1 0.542319 0.136798 0.849590
O O2 0.621321 0.976376 0.722417
O O3 0.619583 0.051317 0.150257
O O4 0.513108 0.934084 0.982322
O O5 0.411050 0.796266 0.943683
O O6 0.547940 0.745137 0.101931
O O7 0.794215 0.718453 0.636861
O O8 0.796664 0.580358 0.971219
O O9 0.338826 0.246627 0.293815
O O10 0.359167 0.410733 0.541666
O O11 0.461638 0.348881 0.234676
O O12 0.798555 0.352770 0.938465
O O13 0.817543 0.128674 0.949973
O O14 0.098923 0.051579 0.311304
O O15 0.237365 0.039854 0.259698
O O16 0.486463 0.514816 0.455266
#
# Coordination Sequence:
#
# PCOD9345852 Si02
#       8
#     4   4   4   4   4   4   4   4
#     4  11  22  42  64  95 135 174 222 291 343 418
#     4  11  24  40  67  96 132 179 232 278 357 421
#     4  11  25  45  64 101 139 169 238 296 348 433
#     4  11  24  43  67  99 137 185 230 292 354 444
#     4  12  24  43  71  99 137 185 233 291 362 439
#     4  11  24  44  67  99 139 176 242 289 359 442
#     4  10  22  43  69 100 140 188 230 296 362 424
#     4  11  25  42  69  97 135 186 225 291 363 427
#
# _framework density 24.025171
#
# number of rings (size 3 to 8) (size 9 to 14) (size 15 to 20)
#    0.000    1.000    6.250    0.000    3.500    1.000 
#    0.000    1.250    0.000    0.000    0.000    0.000 
#    0.000    0.000    0.000    0.000    0.000    0.000 
#
# Total GULP energy -178296.915329 kJ/mol
# GULP energy per Si atom -5571.778604 kJ/mol
# Density = 2.397049 g / cm^3
# Si number density = 24.025171 Si / 1000 Ang^3
#
#
#
# Elastic Constant Matrix: (Units=GPa)
#
#
# Indices 1 2 3 4 5 6 
#
# 1 151.2060 16.2181 -3.7253 0.0000 0.0000 0.0000
# 2 16.2181 57.8820 -8.0220 0.0000 0.0000 0.0000
# 3 -3.7253 -8.0220 12.4559 0.0000 0.0000 0.0000
# 4 0.0000 0.0000 0.0000 13.4880 0.0000 0.0000
# 5 0.0000 0.0000 0.0000 0.0000 22.2512 0.0000
# 6 0.0000 0.0000 0.0000 0.0000 0.0000 15.6939
#
#
#
# Elastic Compliance Matrix: (Units=1/GPa)
#
#
# Indices 1 2 3 4 5 6 
#
# 1 0.006827 -0.001790 0.000889 0.000000 0.000000 0.000000
# 2 -0.001790 0.019439 0.011984 0.000000 0.000000 0.000000
# 3 0.000889 0.011984 0.088267 0.000000 0.000000 0.000000
# 4 0.000000 0.000000 0.000000 0.074140 0.000000 0.000000
# 5 0.000000 0.000000 0.000000 0.000000 0.044941 0.000000
# 6 0.000000 0.000000 0.000000 0.000000 0.000000 0.063719
#
#
# Mechanical properties :
#
#
# Convention : Reuss Voigt Hill
#
# Bulk Modulus (GPa) = 7.31525 25.60951 16.46238
# Shear Modulus (GPa) = 15.58925 24.75817 20.17371
#
# Velocity S-wave (km/s) = 2.55006 3.21364 2.90089
# Velocity P-wave (km/s) = 3.42372 4.94495 4.25290
#
# Compressibility (1/GPa) = 0.13670079
#
# Stress axis : x y z
#
# Youngs Moduli (GPa) = 146.46933 51.44334 11.32920
#
# Poissons Ratio (x) = 0.09207 -0.01008
# Poissons Ratio (y) = 0.26214 -0.13577
# Poissons Ratio (z) = -0.13026 -0.61649
#
# Static dielectric constant tensor:
#      x y z
#    x 1.892250 0.000000 0.000000 
#    y 0.000000 2.112050 0.000000 
#    z 0.000000 0.000000 1.972530 
# 
# From -- ./inp_files/1836.got.cif
#   From: 2010.05.17/outbox.cif.g08.bks.cpg/sg33_1_cif.got.tgz:1836.got - 2010.06.03 17:15:25.
