data_PCOD9345072
_publ_section_title
;
Structure prediction by ZEFSAII (Michael W. Deem and Ramdas Pophale) SiO2 
 PCOD9345072
Probable space group: P N A 21
;
_chemical_formula_sum "Si O2"
_cell_formula_units_Z 32
_cell_length_a 19.213283
_cell_length_b 14.581442
_cell_length_c 5.343204
_cell_angle_alpha 90.000000
_cell_angle_beta 90.000000
_cell_angle_gamma 90.000000
_cell_volume 1496.937989
_symmetry_space_group_name_H-M "P N A 21"
_symmetry_group_IT_number 33
_symmetry_cell_setting 'orthorhombic'
loop_
_space_group_symop_operation_xyz
x,y,z
-x,-y,1/2+z
1/2-x,1/2+y,1/2+z
1/2+x,1/2-y,z
loop_
_atom_site_type_symbol
_atom_site_label
_atom_site_fract_x
_atom_site_fract_y
_atom_site_fract_z
Si Si1 0.669391 0.221489 0.070370
Si Si2 0.032206 0.117106 0.538170
Si Si3 0.427322 0.940871 0.800737
Si Si4 0.666570 0.716218 0.643866
Si Si5 0.629969 0.613229 0.140867
Si Si6 0.438693 0.803602 0.179721
Si Si7 0.610995 0.420376 0.064047
Si Si8 0.058463 0.631287 0.496087
O O1 0.630317 0.132026 0.194165
O O2 0.648920 0.326003 0.138271
O O3 0.751410 0.219363 0.091991
O O4 0.636112 0.216283 0.794620
O O5 0.044786 0.225293 0.482684
O O6 0.055855 0.066738 0.289020
O O7 0.951500 0.106720 0.582660
O O8 0.075333 0.091530 0.790374
O O9 0.501998 0.916714 0.678948
O O10 0.434967 0.905805 0.083330
O O11 0.414186 0.049480 0.813738
O O12 0.639898 0.647439 0.424189
O O13 0.621505 0.809655 0.608580
O O14 0.658100 0.681552 0.928064
O O15 0.658242 0.511011 0.082331
O O16 0.505439 0.798419 0.359663
#
# Coordination Sequence:
#
# PCOD9345072 Si02
#       8
#     4   4   4   4   4   4   4   4
#     4  10  26  43  63  97 135 190 221 276 349 418
#     4  11  20  39  69  99 130 165 216 281 339 386
#     4  11  21  41  72 101 135 173 238 294 353 402
#     4  12  28  45  65  97 145 183 226 279 345 418
#     4  12  25  43  68  99 135 173 223 279 336 396
#     4  10  20  40  67  94 136 170 224 287 341 404
#     4  11  23  41  70  96 130 172 223 272 333 408
#     4  11  23  40  70 107 132 182 235 296 352 410
#
# _framework density 21.376971999999999
#
# number of rings (size 3 to 8) (size 9 to 14) (size 15 to 20)
#    0.000    1.000    3.750    3.000    3.500    1.000 
#    0.000    0.000    0.000    0.000    0.000    0.000 
#    0.000    0.000    0.000    0.000    0.000    0.000 
#
# Total GULP energy -178275.361763 kJ/mol
# GULP energy per Si atom -5571.105055 kJ/mol
# Density = 2.132832 g / cm^3
# Si number density = 21.376972 Si / 1000 Ang^3
#
#
#
# Elastic Constant Matrix: (Units=GPa)
#
#
# Indices 1 2 3 4 5 6 
#
# 1 87.0308 18.0642 -12.8818 0.0000 0.0000 0.0000
# 2 18.0642 102.9635 -9.1826 0.0000 0.0000 0.0000
# 3 -12.8818 -9.1826 25.5219 0.0000 0.0000 0.0000
# 4 0.0000 0.0000 0.0000 16.7530 0.0000 0.0000
# 5 0.0000 0.0000 0.0000 0.0000 7.2981 0.0000
# 6 0.0000 0.0000 0.0000 0.0000 0.0000 10.6478
#
#
#
# Elastic Compliance Matrix: (Units=1/GPa)
#
#
# Indices 1 2 3 4 5 6 
#
# 1 0.012703 -0.001712 0.005796 0.000000 0.000000 0.000000
# 2 -0.001712 0.010265 0.002829 0.000000 0.000000 0.000000
# 3 0.005796 0.002829 0.043125 0.000000 0.000000 0.000000
# 4 0.000000 0.000000 0.000000 0.059691 0.000000 0.000000
# 5 0.000000 0.000000 0.000000 0.000000 0.137021 0.000000
# 6 0.000000 0.000000 0.000000 0.000000 0.000000 0.093916
#
#
# Mechanical properties :
#
#
# Convention : Reuss Voigt Hill
#
# Bulk Modulus (GPa) = 12.51251 23.05733 17.78492
# Shear Modulus (GPa) = 13.53052 21.57422 17.55237
#
# Velocity S-wave (km/s) = 2.51858 3.18028 2.86857
# Velocity P-wave (km/s) = 3.78465 4.92900 4.39424
#
# Compressibility (1/GPa) = 0.07992005
#
# Stress axis : x y z
#
# Youngs Moduli (GPa) = 78.71931 97.42012 23.18825
#
# Poissons Ratio (x) = 0.16677 -0.13440
# Poissons Ratio (y) = 0.13475 -0.06560
# Poissons Ratio (z) = -0.45625 -0.27562
#
# Static dielectric constant tensor:
#      x y z
#    x 1.770910 0.000000 0.000000 
#    y 0.000000 1.898750 0.000000 
#    z 0.000000 0.000000 1.866920 
# 
# From -- ./inp_files/1798.got.cif
#   From: 2010.05.17/outbox.cif.g08.bks.cpg/sg33_1_cif.got.tgz:1798.got - 2010.06.03 17:15:25.
