data_PCOD9345324
_publ_section_title
;
Structure prediction by ZEFSAII (Michael W. Deem and Ramdas Pophale) SiO2 
 PCOD9345324
Probable space group: P N A 21
;
_chemical_formula_sum "Si O2"
_cell_formula_units_Z 28
_cell_length_a 10.955721
_cell_length_b 8.882811
_cell_length_c 11.479947
_cell_angle_alpha 90.000000
_cell_angle_beta 90.000000
_cell_angle_gamma 90.000000
_cell_volume 1117.200879
_symmetry_space_group_name_H-M "P N A 21"
_symmetry_group_IT_number 33
_symmetry_cell_setting 'orthorhombic'
loop_
_space_group_symop_operation_xyz
x,y,z
-x,-y,1/2+z
1/2-x,1/2+y,1/2+z
1/2+x,1/2-y,z
loop_
_atom_site_type_symbol
_atom_site_label
_atom_site_fract_x
_atom_site_fract_y
_atom_site_fract_z
Si Si1 0.723184 0.296143 0.371590
Si Si2 0.396130 0.485082 0.032694
Si Si3 0.410658 0.760163 0.435865
Si Si4 0.080442 0.477449 0.425982
Si Si5 0.120293 0.830119 0.078014
Si Si6 0.233448 0.105913 0.739478
Si Si7 0.235772 0.618119 0.616933
O O1 0.688652 0.455892 0.428569
O O2 0.817022 0.206089 0.454329
O O3 0.778473 0.317592 0.244752
O O4 0.600361 0.192156 0.380721
O O5 0.480056 0.633135 0.060514
O O6 0.324040 0.480408 0.154702
O O7 0.478521 0.344259 0.989863
O O8 0.455244 0.930982 0.418768
O O9 0.370964 0.694689 0.310719
O O10 0.298423 0.734645 0.525728
O O11 0.178685 0.552002 0.340938
O O12 0.126180 0.524470 0.556006
O O13 0.176817 0.704420 0.159651
O O14 0.164713 0.987449 0.129877
#
# Coordination Sequence:
#
# PCOD9345324 Si02
#       7
#     4   4   4   4   4   4   4
#     4  10  22  40  59  93 121 160 201 257 317 368
#     4  10  22  38  66  87 116 164 216 242 312 380
#     4  10  22  39  63  92 121 162 211 255 309 384
#     4  10  22  40  58  90 130 150 205 260 307 377
#     4   9  20  42  61  87 123 158 210 261 296 386
#     4  10  21  39  63  88 121 165 203 256 320 362
#     4   9  21  40  62  87 124 163 206 253 317 371
#
# _framework density 25.062636999999999
#
# number of rings (size 3 to 8) (size 9 to 14) (size 15 to 20)
#    0.000    2.286    0.000    1.714    8.000    1.143 
#   12.857    0.000    0.000    0.000    0.000    0.000 
#    0.000    0.000    0.000    0.000    0.000    0.000 
#
# Total GULP energy -156339.085880 kJ/mol
# GULP energy per Si atom -5583.538781 kJ/mol
# Density = 2.500559 g / cm^3
# Si number density = 25.062637 Si / 1000 Ang^3
#
#
#
# Elastic Constant Matrix: (Units=GPa)
#
#
# Indices 1 2 3 4 5 6 
#
# 1 51.2853 0.4492 5.8475 0.0000 0.0000 0.0000
# 2 0.4492 31.7701 31.0390 0.0000 0.0000 0.0000
# 3 5.8475 31.0390 149.6707 0.0000 0.0000 0.0000
# 4 0.0000 0.0000 0.0000 1.9201 0.0000 0.0000
# 5 0.0000 0.0000 0.0000 0.0000 10.1447 0.0000
# 6 0.0000 0.0000 0.0000 0.0000 0.0000 30.3397
#
#
#
# Elastic Compliance Matrix: (Units=1/GPa)
#
#
# Indices 1 2 3 4 5 6 
#
# 1 0.019595 0.000591 -0.000888 0.000000 0.000000 0.000000
# 2 0.000591 0.039492 -0.008213 0.000000 0.000000 0.000000
# 3 -0.000888 -0.008213 0.008419 0.000000 0.000000 0.000000
# 4 0.000000 0.000000 0.000000 0.520813 0.000000 0.000000
# 5 0.000000 0.000000 0.000000 0.000000 0.098574 0.000000
# 6 0.000000 0.000000 0.000000 0.000000 0.000000 0.032960
#
#
# Mechanical properties :
#
#
# Convention : Reuss Voigt Hill
#
# Bulk Modulus (GPa) = 19.80785 34.15527 26.98156
# Shear Modulus (GPa) = 6.63392 21.50691 14.07042
#
# Velocity S-wave (km/s) = 1.62871 2.93256 2.37198
# Velocity P-wave (km/s) = 3.38488 5.01239 4.27677
#
# Compressibility (1/GPa) = 0.05048502
#
# Stress axis : x y z
#
# Youngs Moduli (GPa) = 51.03381 25.32171 118.77551
#
# Poissons Ratio (x) = -0.01495 0.10547
# Poissons Ratio (y) = -0.03014 0.97550
# Poissons Ratio (z) = 0.04532 0.20797
#
# Static dielectric constant tensor:
#      x y z
#    x 2.065850 0.000000 0.000000 
#    y 0.000000 2.078760 0.000000 
#    z 0.000000 0.000000 1.935580 
# 
# From -- ./inp_files/6356.got.cif
#   From: 2010.05.17/outbox.cif.g08.bks.cpg/sg33_4_cif.got.tgz:6356.got - 2010.06.03 17:15:25.
