data_PCOD9345244
_publ_section_title
;
Structure prediction by ZEFSAII (Michael W. Deem and Ramdas Pophale) SiO2 
 PCOD9345244
Probable space group: P N A 21
;
_chemical_formula_sum "Si O2"
_cell_formula_units_Z 32
_cell_length_a 16.254796
_cell_length_b 10.942509
_cell_length_c 8.422083
_cell_angle_alpha 90.000000
_cell_angle_beta 90.000000
_cell_angle_gamma 90.000000
_cell_volume 1498.021177
_symmetry_space_group_name_H-M "P N A 21"
_symmetry_group_IT_number 33
_symmetry_cell_setting 'orthorhombic'
loop_
_space_group_symop_operation_xyz
x,y,z
-x,-y,1/2+z
1/2-x,1/2+y,1/2+z
1/2+x,1/2-y,z
loop_
_atom_site_type_symbol
_atom_site_label
_atom_site_fract_x
_atom_site_fract_y
_atom_site_fract_z
Si Si1 0.134744 0.050035 0.965130
Si Si2 0.796601 0.800694 0.739932
Si Si3 0.965154 0.182136 0.982921
Si Si4 0.733173 0.045609 0.865341
Si Si5 0.413731 0.076383 0.495461
Si Si6 0.317377 0.401478 0.181748
Si Si7 0.955930 0.634953 0.733163
Si Si8 0.852937 0.191022 0.673033
O O1 0.046599 0.109557 0.933464
O O2 0.181630 0.007121 0.809411
O O3 0.188782 0.146067 0.063514
O O4 0.120662 0.927536 0.070061
O O5 0.789546 0.925473 0.838390
O O6 0.712598 0.725507 0.757797
O O7 0.874332 0.714189 0.773454
O O8 0.911179 0.209345 0.827240
O O9 0.905596 0.106013 0.099225
O O10 0.994578 0.292945 0.094536
O O11 0.764165 0.148784 0.743575
O O12 0.639667 0.002833 0.869009
O O13 0.751451 0.084458 0.043625
O O14 0.491398 0.121037 0.393233
O O15 0.361826 0.189275 0.566644
O O16 0.435030 0.992369 0.647107
#
# Coordination Sequence:
#
# PCOD9345244 Si02
#       8
#     4   4   4   4   4   4   4   4
#     4  10  21  37  64  92 128 167 220 274 325 390
#     4  10  22  43  60  96 128 167 222 266 329 394
#     4  10  21  38  64  94 128 169 219 274 331 393
#     4  10  23  42  66  93 131 170 226 272 327 399
#     4  12  24  46  64  97 137 174 225 272 346 403
#     4  11  21  40  65  95 129 172 212 276 326 386
#     4  11  24  43  66  94 137 175 216 278 335 412
#     4  10  22  39  65  95 126 176 220 272 335 393
#
# _framework density 21.361512999999999
#
# number of rings (size 3 to 8) (size 9 to 14) (size 15 to 20)
#    0.000    1.500    1.250    3.750    0.000    7.000 
#    9.000    0.000    0.000    0.000    0.000    0.000 
#    0.000    0.000    0.000    0.000    0.000    0.000 
#
# Total GULP energy -178686.148810 kJ/mol
# GULP energy per Si atom -5583.942150 kJ/mol
# Density = 2.131289 g / cm^3
# Si number density = 21.361513 Si / 1000 Ang^3
#
#
#
# Elastic Constant Matrix: (Units=GPa)
#
#
# Indices 1 2 3 4 5 6 
#
# 1 41.1460 11.7774 16.0288 0.0000 0.0000 0.0000
# 2 11.7774 65.9363 25.9432 0.0000 0.0000 0.0000
# 3 16.0288 25.9432 68.2555 0.0000 0.0000 0.0000
# 4 0.0000 0.0000 0.0000 31.4200 0.0000 0.0000
# 5 0.0000 0.0000 0.0000 0.0000 17.5823 0.0000
# 6 0.0000 0.0000 0.0000 0.0000 0.0000 27.0056
#
#
#
# Elastic Compliance Matrix: (Units=1/GPa)
#
#
# Indices 1 2 3 4 5 6 
#
# 1 0.027170 -0.002754 -0.005334 0.000000 0.000000 0.000000
# 2 -0.002754 0.018112 -0.006237 0.000000 0.000000 0.000000
# 3 -0.005334 -0.006237 0.018274 0.000000 0.000000 0.000000
# 4 0.000000 0.000000 0.000000 0.031827 0.000000 0.000000
# 5 0.000000 0.000000 0.000000 0.000000 0.056875 0.000000
# 6 0.000000 0.000000 0.000000 0.000000 0.000000 0.037029
#
#
# Mechanical properties :
#
#
# Convention : Reuss Voigt Hill
#
# Bulk Modulus (GPa) = 28.64885 31.42629 30.03757
# Shear Modulus (GPa) = 21.77948 23.30747 22.54347
#
# Velocity S-wave (km/s) = 3.19653 3.30676 3.25211
# Velocity P-wave (km/s) = 5.20233 5.41508 5.30977
#
# Compressibility (1/GPa) = 0.03490541
#
# Stress axis : x y z
#
# Youngs Moduli (GPa) = 36.80551 55.21100 54.72214
#
# Poissons Ratio (x) = 0.15208 0.29186
# Poissons Ratio (y) = 0.10138 0.34133
# Poissons Ratio (z) = 0.19630 0.34438
#
# Static dielectric constant tensor:
#      x y z
#    x 1.780420 0.000000 0.000000 
#    y 0.000000 1.793510 0.000000 
#    z 0.000000 0.000000 1.764010 
# 
# From -- ./inp_files/4867.got.cif
#   From: 2010.05.17/outbox.cif.g08.bks.cpg/sg33_3_cif.got.tgz:4867.got - 2010.06.03 17:15:25.
