data_PCOD9345351
_publ_section_title
;
Structure prediction by ZEFSAII (Michael W. Deem and Ramdas Pophale) SiO2 
 PCOD9345351
Probable space group: P N A 21
;
_chemical_formula_sum "Si O2"
_cell_formula_units_Z 20
_cell_length_a 13.729212
_cell_length_b 13.217762
_cell_length_c 4.818469
_cell_angle_alpha 90.000000
_cell_angle_beta 90.000000
_cell_angle_gamma 90.000000
_cell_volume 874.404951
_symmetry_space_group_name_H-M "P N A 21"
_symmetry_group_IT_number 33
_symmetry_cell_setting 'orthorhombic'
loop_
_space_group_symop_operation_xyz
x,y,z
-x,-y,1/2+z
1/2-x,1/2+y,1/2+z
1/2+x,1/2-y,z
loop_
_atom_site_type_symbol
_atom_site_label
_atom_site_fract_x
_atom_site_fract_y
_atom_site_fract_z
Si Si1 0.056447 0.034471 0.090540
Si Si2 0.170993 0.196072 0.385049
Si Si3 0.358732 0.823141 0.394506
Si Si4 0.463722 0.057047 0.780946
Si Si5 0.772989 0.478856 0.105508
O O1 0.164137 0.001555 0.991115
O O2 0.012730 0.961136 0.326020
O O3 0.076526 0.137905 0.260824
O O4 0.255601 0.117725 0.306515
O O5 0.166300 0.227381 0.702067
O O6 0.983322 0.467771 0.461035
O O7 0.174919 0.297980 0.203218
O O8 0.473805 0.845563 0.366290
O O9 0.307127 0.922356 0.272039
O O10 0.353608 0.050759 0.880374
#
# Coordination Sequence:
#
# PCOD9345351 Si02
#       5
#     4   4   4   4   4
#     4  10  22  43  63  89 135 177 213 274 328 385
#     4  10  24  40  63  99 134 170 231 263 321 418
#     4  11  21  43  66  96 135 174 218 282 328 387
#     4  10  21  39  66  94 127 175 218 275 337 383
#     4   9  24  43  68  94 139 174 224 276 330 397
#
# _framework density 22.872699000000001
#
# number of rings (size 3 to 8) (size 9 to 14) (size 15 to 20)
#    1.200    0.800    0.000    3.600    0.000    9.600 
#   10.800    0.000    0.000    0.000    0.000    0.000 
#    0.000    0.000    0.000    0.000    0.000    0.000 
#
# Total GULP energy -111658.462236 kJ/mol
# GULP energy per Si atom -5582.923112 kJ/mol
# Density = 2.282064 g / cm^3
# Si number density = 22.872699 Si / 1000 Ang^3
#
#
#
# Elastic Constant Matrix: (Units=GPa)
#
#
# Indices 1 2 3 4 5 6 
#
# 1 124.3475 22.9648 14.0501 0.0000 0.0000 0.0000
# 2 22.9648 67.0858 7.7906 0.0000 0.0000 0.0000
# 3 14.0501 7.7906 79.0081 0.0000 0.0000 0.0000
# 4 0.0000 0.0000 0.0000 33.8887 0.0000 0.0000
# 5 0.0000 0.0000 0.0000 0.0000 31.4844 0.0000
# 6 0.0000 0.0000 0.0000 0.0000 0.0000 34.5741
#
#
#
# Elastic Compliance Matrix: (Units=1/GPa)
#
#
# Indices 1 2 3 4 5 6 
#
# 1 0.008709 -0.002834 -0.001269 0.000000 0.000000 0.000000
# 2 -0.002834 0.016001 -0.001074 0.000000 0.000000 0.000000
# 3 -0.001269 -0.001074 0.012989 0.000000 0.000000 0.000000
# 4 0.000000 0.000000 0.000000 0.029508 0.000000 0.000000
# 5 0.000000 0.000000 0.000000 0.000000 0.031762 0.000000
# 6 0.000000 0.000000 0.000000 0.000000 0.000000 0.028923
#
#
# Mechanical properties :
#
#
# Convention : Reuss Voigt Hill
#
# Bulk Modulus (GPa) = 36.57037 40.00581 38.28809
# Shear Modulus (GPa) = 33.93040 35.03182 34.48111
#
# Velocity S-wave (km/s) = 3.85573 3.91781 3.88690
# Velocity P-wave (km/s) = 5.98712 6.16395 6.07618
#
# Compressibility (1/GPa) = 0.02734454
#
# Stress axis : x y z
#
# Youngs Moduli (GPa) = 114.82716 62.49595 76.99101
#
# Poissons Ratio (x) = 0.17710 0.09772
# Poissons Ratio (y) = 0.32539 0.08268
# Poissons Ratio (z) = 0.14575 0.06711
#
# Static dielectric constant tensor:
#      x y z
#    x 1.886950 0.000000 0.000000 
#    y 0.000000 1.897510 0.000000 
#    z 0.000000 0.000000 1.817770 
# 
# From -- ./inp_files/799.got.cif
#   From: 2010.05.17/outbox.cif.g08.bks.cpg/sg33_1_cif.got.tgz:799.got - 2010.06.03 17:15:25.
