data_PCOD9345316
_publ_section_title
;
Structure prediction by ZEFSAII (Michael W. Deem and Ramdas Pophale) SiO2 
 PCOD9345316
Probable space group: P N A 21
;
_chemical_formula_sum "Si O2"
_cell_formula_units_Z 32
_cell_length_a 11.653366
_cell_length_b 12.070729
_cell_length_c 11.058566
_cell_angle_alpha 90.000000
_cell_angle_beta 90.000000
_cell_angle_gamma 90.000000
_cell_volume 1555.549016
_symmetry_space_group_name_H-M "P N A 21"
_symmetry_group_IT_number 33
_symmetry_cell_setting 'orthorhombic'
loop_
_space_group_symop_operation_xyz
x,y,z
-x,-y,1/2+z
1/2-x,1/2+y,1/2+z
1/2+x,1/2-y,z
loop_
_atom_site_type_symbol
_atom_site_label
_atom_site_fract_x
_atom_site_fract_y
_atom_site_fract_z
Si Si1 0.831915 0.674480 0.997040
Si Si2 0.204578 0.974285 0.189735
Si Si3 0.294986 0.648350 0.487041
Si Si4 0.531525 0.387701 0.783134
Si Si5 0.828042 0.590340 0.438007
Si Si6 0.719147 0.393866 0.572579
Si Si7 0.923322 0.474288 0.881399
Si Si8 0.457972 0.163745 0.677990
O O1 0.864455 0.593219 0.889987
O O2 0.736972 0.611151 0.079895
O O3 0.811229 0.802801 0.970530
O O4 0.947338 0.673686 0.076858
O O5 0.288426 0.938683 0.300118
O O6 0.078678 0.959407 0.247463
O O7 0.211177 0.092723 0.120423
O O8 0.401720 0.597010 0.409225
O O9 0.310157 0.780807 0.471587
O O10 0.176680 0.610036 0.422690
O O11 0.624059 0.400760 0.675955
O O12 0.486100 0.261099 0.772729
O O13 0.749737 0.512045 0.520455
O O14 0.959688 0.549376 0.454573
O O15 0.830220 0.335266 0.629821
O O16 0.962374 0.451683 0.746260
#
# Coordination Sequence:
#
# PCOD9345316 Si02
#       8
#     4   4   4   4   4   4   4   4
#     4  10  21  39  61  94 125 163 224 276 328 402
#     4  11  24  41  66  99 136 176 227 288 346 415
#     4  11  25  42  68 103 133 181 236 283 343 431
#     4  11  22  39  67  94 134 171 223 286 346 407
#     4  12  24  43  69  94 142 184 226 283 356 416
#     4  11  23  39  64  97 126 180 223 275 348 416
#     4  11  21  38  68  94 124 172 226 284 334 410
#     4  11  18  37  65  93 118 169 227 267 333 417
#
# _framework density 20.571515000000002
#
# number of rings (size 3 to 8) (size 9 to 14) (size 15 to 20)
#    0.000    1.000    6.250    1.500    1.750    0.000 
#    2.250    0.000    2.750    0.000    0.000    0.000 
#    0.000    0.000    0.000    0.000    0.000    0.000 
#
# Total GULP energy -178354.480631 kJ/mol
# GULP energy per Si atom -5573.577520 kJ/mol
# Density = 2.052469 g / cm^3
# Si number density = 20.571515 Si / 1000 Ang^3
#
#
#
# Elastic Constant Matrix: (Units=GPa)
#
#
# Indices 1 2 3 4 5 6 
#
# 1 115.7486 31.7384 16.6319 0.0000 0.0000 0.0000
# 2 31.7384 102.9281 24.8575 0.0000 0.0000 0.0000
# 3 16.6319 24.8575 44.3024 0.0000 0.0000 0.0000
# 4 0.0000 0.0000 0.0000 32.8193 0.0000 0.0000
# 5 0.0000 0.0000 0.0000 0.0000 23.6671 0.0000
# 6 0.0000 0.0000 0.0000 0.0000 0.0000 42.0115
#
#
#
# Elastic Compliance Matrix: (Units=1/GPa)
#
#
# Indices 1 2 3 4 5 6 
#
# 1 0.009628 -0.002424 -0.002254 0.000000 0.000000 0.000000
# 2 -0.002424 0.011849 -0.005738 0.000000 0.000000 0.000000
# 3 -0.002254 -0.005738 0.026638 0.000000 0.000000 0.000000
# 4 0.000000 0.000000 0.000000 0.030470 0.000000 0.000000
# 5 0.000000 0.000000 0.000000 0.000000 0.042253 0.000000
# 6 0.000000 0.000000 0.000000 0.000000 0.000000 0.023803
#
#
# Mechanical properties :
#
#
# Convention : Reuss Voigt Hill
#
# Bulk Modulus (GPa) = 36.65493 45.49275 41.07384
# Shear Modulus (GPa) = 28.64213 32.34966 30.49590
#
# Velocity S-wave (km/s) = 3.73543 3.96984 3.85441
# Velocity P-wave (km/s) = 6.03834 6.57079 6.31018
#
# Compressibility (1/GPa) = 0.02728146
#
# Stress axis : x y z
#
# Youngs Moduli (GPa) = 103.86245 84.39619 37.54038
#
# Poissons Ratio (x) = 0.20462 0.08462
# Poissons Ratio (y) = 0.25181 0.21541
# Poissons Ratio (z) = 0.23413 0.48427
#
# Static dielectric constant tensor:
#      x y z
#    x 1.762240 0.000000 0.000000 
#    y 0.000000 1.787680 0.000000 
#    z 0.000000 0.000000 1.778650 
# 
# From -- ./inp_files/6478.got.cif
#   From: 2010.05.17/outbox.cif.g08.bks.cpg/sg33_4_cif.got.tgz:6478.got - 2010.06.03 17:15:25.
