data_PCOD9345538
_publ_section_title
;
Structure prediction by ZEFSAII (Michael W. Deem and Ramdas Pophale) SiO2 
 PCOD9345538
Probable space group: P N A 21
;
_chemical_formula_sum "Si O2"
_cell_formula_units_Z 20
_cell_length_a 8.578671
_cell_length_b 10.866827
_cell_length_c 7.988477
_cell_angle_alpha 90.000000
_cell_angle_beta 90.000000
_cell_angle_gamma 90.000000
_cell_volume 744.709261
_symmetry_space_group_name_H-M "P N A 21"
_symmetry_group_IT_number 33
_symmetry_cell_setting 'orthorhombic'
loop_
_space_group_symop_operation_xyz
x,y,z
-x,-y,1/2+z
1/2-x,1/2+y,1/2+z
1/2+x,1/2-y,z
loop_
_atom_site_type_symbol
_atom_site_label
_atom_site_fract_x
_atom_site_fract_y
_atom_site_fract_z
Si Si1 0.234317 0.802362 0.411570
Si Si2 0.643685 0.129906 0.379333
Si Si3 0.448215 0.628899 0.222994
Si Si4 0.849725 0.453544 0.565497
Si Si5 0.452231 0.345827 0.248932
O O1 0.346867 0.688440 0.375275
O O2 0.138686 0.798460 0.584582
O O3 0.110971 0.803719 0.259433
O O4 0.321863 0.933765 0.434000
O O5 0.515181 0.107160 0.520851
O O6 0.583293 0.249141 0.282999
O O7 0.827656 0.148005 0.401999
O O8 0.636748 0.017684 0.246785
O O9 0.314249 0.622704 0.077560
O O10 0.498648 0.486421 0.228297
#
# Coordination Sequence:
#
# PCOD9345538 Si02
#       5
#     4   4   4   4   4
#     4  10  21  43  67  95 143 180 226 282 341 414
#     4  10  23  45  66  99 141 177 232 288 336 416
#     4  10  23  41  68  99 132 181 232 272 345 415
#     4  10  25  44  70 104 133 188 235 272 358 400
#     4  10  24  41  69  99 139 180 233 274 356 403
#
# _framework density 26.856121000000002
#
# number of rings (size 3 to 8) (size 9 to 14) (size 15 to 20)
#    0.000    2.400    0.000    2.400   14.000    1.600 
#    3.600    0.000    0.000    0.000    0.000    0.000 
#    0.000    0.000    0.000    0.000    0.000    0.000 
#
# Total GULP energy -111740.194648 kJ/mol
# GULP energy per Si atom -5587.009732 kJ/mol
# Density = 2.679500 g / cm^3
# Si number density = 26.856121 Si / 1000 Ang^3
#
#
#
# Elastic Constant Matrix: (Units=GPa)
#
#
# Indices 1 2 3 4 5 6 
#
# 1 88.8241 7.3816 2.5142 0.0000 0.0000 0.0000
# 2 7.3816 46.6208 0.1039 0.0000 0.0000 0.0000
# 3 2.5142 0.1039 95.2090 0.0000 0.0000 0.0000
# 4 0.0000 0.0000 0.0000 44.4294 0.0000 0.0000
# 5 0.0000 0.0000 0.0000 0.0000 56.7091 0.0000
# 6 0.0000 0.0000 0.0000 0.0000 0.0000 50.5866
#
#
#
# Elastic Compliance Matrix: (Units=1/GPa)
#
#
# Indices 1 2 3 4 5 6 
#
# 1 0.011417 -0.001807 -0.000300 0.000000 0.000000 0.000000
# 2 -0.001807 0.021736 0.000024 0.000000 0.000000 0.000000
# 3 -0.000300 0.000024 0.010511 0.000000 0.000000 0.000000
# 4 0.000000 0.000000 0.000000 0.022508 0.000000 0.000000
# 5 0.000000 0.000000 0.000000 0.000000 0.017634 0.000000
# 6 0.000000 0.000000 0.000000 0.000000 0.000000 0.019768
#
#
# Mechanical properties :
#
#
# Convention : Reuss Voigt Hill
#
# Bulk Modulus (GPa) = 25.31733 27.85036 26.58385
# Shear Modulus (GPa) = 41.35496 45.05528 43.20512
#
# Velocity S-wave (km/s) = 3.92838 4.10036 4.01529
# Velocity P-wave (km/s) = 5.47939 5.72800 5.60507
#
# Compressibility (1/GPa) = 0.03949864
#
# Stress axis : x y z
#
# Youngs Moduli (GPa) = 87.58979 46.00723 95.13755
#
# Poissons Ratio (x) = 0.08313 0.02850
# Poissons Ratio (y) = 0.15827 -0.00228
# Poissons Ratio (z) = 0.02623 -0.00110
#
# Static dielectric constant tensor:
#      x y z
#    x 2.111090 0.000000 0.000000 
#    y 0.000000 2.059690 0.000000 
#    z 0.000000 0.000000 2.202720 
# 
# From -- ./inp_files/3026.got.cif
#   From: 2010.05.17/outbox.cif.g08.bks.cpg/sg33_2_cif.got.tgz:3026.got - 2010.06.03 17:15:25.
