data_PCOD9345193
_publ_section_title
;
Structure prediction by ZEFSAII (Michael W. Deem and Ramdas Pophale) SiO2 
 PCOD9345193
Probable space group: P N A 21
;
_chemical_formula_sum "Si O2"
_cell_formula_units_Z 28
_cell_length_a 9.531449
_cell_length_b 7.937780
_cell_length_c 17.810584
_cell_angle_alpha 90.000000
_cell_angle_beta 90.000000
_cell_angle_gamma 90.000000
_cell_volume 1347.522875
_symmetry_space_group_name_H-M "P N A 21"
_symmetry_group_IT_number 33
_symmetry_cell_setting 'orthorhombic'
loop_
_space_group_symop_operation_xyz
x,y,z
-x,-y,1/2+z
1/2-x,1/2+y,1/2+z
1/2+x,1/2-y,z
loop_
_atom_site_type_symbol
_atom_site_label
_atom_site_fract_x
_atom_site_fract_y
_atom_site_fract_z
Si Si1 0.438489 0.045542 0.381610
Si Si2 0.152462 0.198455 0.407767
Si Si3 0.220448 0.074556 0.682053
Si Si4 0.901831 0.080790 0.033048
Si Si5 0.945030 0.975039 0.322550
Si Si6 0.982054 0.653617 0.234773
Si Si7 0.836898 0.788362 0.465866
O O1 0.316823 0.184047 0.393449
O O2 0.584479 0.119288 0.410533
O O3 0.441028 0.988397 0.294854
O O4 0.394537 0.887190 0.431818
O O5 0.117498 0.082869 0.479800
O O6 0.063625 0.108452 0.341671
O O7 0.166171 0.983209 0.757878
O O8 0.386802 0.097861 0.685146
O O9 0.144139 0.258638 0.688655
O O10 0.162242 0.972409 0.611991
O O11 0.062995 0.138128 0.030709
O O12 0.814098 0.234324 0.996052
O O13 0.026261 0.810398 0.289154
O O14 0.860862 0.913241 0.395808
#
# Coordination Sequence:
#
# PCOD9345193 Si02
#       7
#     4   4   4   4   4   4   4
#     4  10  21  35  61  91 118 153 205 248 294 354
#     4  10  21  36  59  91 121 151 203 254 290 352
#     4  10  21  37  62  87 120 158 198 248 299 365
#     4  10  22  41  59  87 120 158 199 248 304 359
#     4   8  19  36  64  83 116 155 204 241 295 355
#     4   9  20  37  61  81 118 159 199 235 309 355
#     4   9  20  38  64  84 115 162 202 240 299 370
#
# _framework density 20.778867999999999
#
# number of rings (size 3 to 8) (size 9 to 14) (size 15 to 20)
#    0.857    1.714    0.000    0.857    8.000    3.429 
#    2.571    1.429    0.000    0.000    0.000    0.000 
#    0.000    0.000    0.000    0.000    0.000    0.000 
#
# Total GULP energy -156101.829647 kJ/mol
# GULP energy per Si atom -5575.065345 kJ/mol
# Density = 2.073157 g / cm^3
# Si number density = 20.778868 Si / 1000 Ang^3
#
#
#
# Elastic Constant Matrix: (Units=GPa)
#
#
# Indices 1 2 3 4 5 6 
#
# 1 61.4618 10.6397 4.4302 0.0000 0.0000 0.0000
# 2 10.6397 34.7513 5.2218 0.0000 0.0000 0.0000
# 3 4.4302 5.2218 36.2854 0.0000 0.0000 0.0000
# 4 0.0000 0.0000 0.0000 21.5857 0.0000 0.0000
# 5 0.0000 0.0000 0.0000 0.0000 19.2059 0.0000
# 6 0.0000 0.0000 0.0000 0.0000 0.0000 33.8771
#
#
#
# Elastic Compliance Matrix: (Units=1/GPa)
#
#
# Indices 1 2 3 4 5 6 
#
# 1 0.017248 -0.005074 -0.001376 0.000000 0.000000 0.000000
# 2 -0.005074 0.030905 -0.003828 0.000000 0.000000 0.000000
# 3 -0.001376 -0.003828 0.028278 0.000000 0.000000 0.000000
# 4 0.000000 0.000000 0.000000 0.046327 0.000000 0.000000
# 5 0.000000 0.000000 0.000000 0.000000 0.052067 0.000000
# 6 0.000000 0.000000 0.000000 0.000000 0.000000 0.029518
#
#
# Mechanical properties :
#
#
# Convention : Reuss Voigt Hill
#
# Bulk Modulus (GPa) = 17.89700 19.23133 18.56416
# Shear Modulus (GPa) = 20.53190 22.41419 21.47304
#
# Velocity S-wave (km/s) = 3.14684 3.28792 3.21815
# Velocity P-wave (km/s) = 4.67282 4.86716 4.77098
#
# Compressibility (1/GPa) = 0.05587529
#
# Stress axis : x y z
#
# Youngs Moduli (GPa) = 57.97843 32.35771 35.36302
#
# Poissons Ratio (x) = 0.16418 0.04865
# Poissons Ratio (y) = 0.29418 0.13537
# Poissons Ratio (z) = 0.07976 0.12386
#
# Static dielectric constant tensor:
#      x y z
#    x 1.755900 0.000000 0.000000 
#    y 0.000000 1.792630 0.000000 
#    z 0.000000 0.000000 1.726090 
# 
# From -- ./inp_files/8471.got.cif
#   From: 2010.05.17/outbox.cif.g08.bks.cpg/sg33_5_cif.got.tgz:8471.got - 2010.06.03 17:15:25.
