data_PCOD9345136
_publ_section_title
;
Structure prediction by ZEFSAII (Michael W. Deem and Ramdas Pophale) SiO2 
 PCOD9345136
Probable space group: P N A 21
;
_chemical_formula_sum "Si O2"
_cell_formula_units_Z 28
_cell_length_a 28.434953
_cell_length_b 8.673757
_cell_length_c 5.073620
_cell_angle_alpha 90.000000
_cell_angle_beta 90.000000
_cell_angle_gamma 90.000000
_cell_volume 1251.346843
_symmetry_space_group_name_H-M "P N A 21"
_symmetry_group_IT_number 33
_symmetry_cell_setting 'orthorhombic'
loop_
_space_group_symop_operation_xyz
x,y,z
-x,-y,1/2+z
1/2-x,1/2+y,1/2+z
1/2+x,1/2-y,z
loop_
_atom_site_type_symbol
_atom_site_label
_atom_site_fract_x
_atom_site_fract_y
_atom_site_fract_z
Si Si1 0.948567 0.106684 0.853720
Si Si2 0.552681 0.392250 0.859799
Si Si3 0.679896 0.028085 0.384675
Si Si4 0.798566 0.946918 0.969428
Si Si5 0.649457 0.214789 0.858249
Si Si6 0.850480 0.194586 0.701064
Si Si7 0.729794 0.688048 0.809827
O O1 0.948917 0.967041 0.647132
O O2 0.905818 0.211665 0.753237
O O3 0.941251 0.029146 0.141579
O O4 0.000593 0.178911 0.825744
O O5 0.596943 0.280264 0.855353
O O6 0.652953 0.078833 0.644943
O O7 0.734726 0.063760 0.438721
O O8 0.671023 0.851242 0.322748
O O9 0.665063 0.142388 0.140192
O O10 0.774471 0.111384 0.027569
O O11 0.818205 0.850325 0.221328
O O12 0.841163 0.017111 0.800996
O O13 0.758581 0.842024 0.845931
O O14 0.822672 0.193280 0.423695
#
# Coordination Sequence:
#
# PCOD9345136 Si02
#       7
#     4   4   4   4   4   4   4
#     4  10  22  39  70 104 131 171 224 289 334 413
#     4  10  20  42  69 102 133 168 228 279 346 408
#     4  11  28  43  66  97 143 174 234 273 348 401
#     4  11  26  40  72  87 139 172 240 263 351 387
#     4  11  24  47  67 100 134 188 217 288 337 415
#     4  12  26  44  66 100 133 183 227 290 336 414
#     4  11  26  41  62  98 131 184 218 290 324 412
#
# _framework density 22.375889000000001
#
# number of rings (size 3 to 8) (size 9 to 14) (size 15 to 20)
#    0.000    1.143    2.857    1.714   14.000    0.000 
#    0.000    1.429    0.000    0.000    0.000    0.000 
#    0.000    0.000    0.000    0.000    0.000    0.000 
#
# Total GULP energy -156164.572230 kJ/mol
# GULP energy per Si atom -5577.306151 kJ/mol
# Density = 2.232496 g / cm^3
# Si number density = 22.375889 Si / 1000 Ang^3
#
#
#
# Elastic Constant Matrix: (Units=GPa)
#
#
# Indices 1 2 3 4 5 6 
#
# 1 109.9470 40.1521 16.6456 0.0000 0.0000 0.0000
# 2 40.1521 91.9901 21.2421 0.0000 0.0000 0.0000
# 3 16.6456 21.2421 75.6918 0.0000 0.0000 0.0000
# 4 0.0000 0.0000 0.0000 26.6244 0.0000 0.0000
# 5 0.0000 0.0000 0.0000 0.0000 26.8071 0.0000
# 6 0.0000 0.0000 0.0000 0.0000 0.0000 19.4790
#
#
#
# Elastic Compliance Matrix: (Units=1/GPa)
#
#
# Indices 1 2 3 4 5 6 
#
# 1 0.010911 -0.004500 -0.001137 0.000000 0.000000 0.000000
# 2 -0.004500 0.013480 -0.002793 0.000000 0.000000 0.000000
# 3 -0.001137 -0.002793 0.014245 0.000000 0.000000 0.000000
# 4 0.000000 0.000000 0.000000 0.037560 0.000000 0.000000
# 5 0.000000 0.000000 0.000000 0.000000 0.037304 0.000000
# 6 0.000000 0.000000 0.000000 0.000000 0.000000 0.051337
#
#
# Mechanical properties :
#
#
# Convention : Reuss Voigt Hill
#
# Bulk Modulus (GPa) = 45.92156 48.18982 47.05569
# Shear Modulus (GPa) = 26.46136 27.88805 27.17471
#
# Velocity S-wave (km/s) = 3.44260 3.53419 3.48870
# Velocity P-wave (km/s) = 6.03070 6.18363 6.10764
#
# Compressibility (1/GPa) = 0.02177626
#
# Stress axis : x y z
#
# Youngs Moduli (GPa) = 91.65318 74.18449 70.19827
#
# Poissons Ratio (x) = 0.33382 0.07978
# Poissons Ratio (y) = 0.41243 0.19609
# Poissons Ratio (z) = 0.10417 0.20723
#
# Static dielectric constant tensor:
#      x y z
#    x 2.009750 0.000000 0.000000 
#    y 0.000000 1.843490 0.000000 
#    z 0.000000 0.000000 1.929970 
# 
# From -- ./inp_files/2440.got.cif
#   From: 2010.05.17/outbox.cif.g08.bks.cpg/sg33_2_cif.got.tgz:2440.got - 2010.06.03 17:15:25.
