data_PCOD9345415
_publ_section_title
;
Structure prediction by ZEFSAII (Michael W. Deem and Ramdas Pophale) SiO2 
 PCOD9345415
Probable space group: P N A 21
;
_chemical_formula_sum "Si O2"
_cell_formula_units_Z 32
_cell_length_a 5.299257
_cell_length_b 20.494899
_cell_length_c 12.387243
_cell_angle_alpha 90.000000
_cell_angle_beta 90.000000
_cell_angle_gamma 90.000000
_cell_volume 1345.350430
_symmetry_space_group_name_H-M "P N A 21"
_symmetry_group_IT_number 33
_symmetry_cell_setting 'orthorhombic'
loop_
_space_group_symop_operation_xyz
x,y,z
-x,-y,1/2+z
1/2-x,1/2+y,1/2+z
1/2+x,1/2-y,z
loop_
_atom_site_type_symbol
_atom_site_label
_atom_site_fract_x
_atom_site_fract_y
_atom_site_fract_z
Si Si1 0.915203 0.913019 0.090870
Si Si2 0.432058 0.460679 0.806274
Si Si3 0.701656 0.580316 0.891099
Si Si4 0.587093 0.330476 0.912166
Si Si5 0.563200 0.019399 0.998003
Si Si6 0.848998 0.782337 0.176651
Si Si7 0.586532 0.209400 0.293976
Si Si8 0.572054 0.164087 0.049720
O O1 0.107352 0.932383 0.187036
O O2 0.759212 0.853380 0.139974
O O3 0.007439 0.888250 0.974971
O O4 0.760200 0.977501 0.066174
O O5 0.561139 0.532108 0.807318
O O6 0.599480 0.405514 0.867915
O O7 0.186480 0.465598 0.880744
O O8 0.872658 0.637214 0.843629
O O9 0.838886 0.529059 0.970183
O O10 0.610326 0.286438 0.805677
O O11 0.326463 0.328436 0.978965
O O12 0.823675 0.313630 0.986347
O O13 0.520081 0.086376 0.059794
O O14 0.632719 0.733254 0.138753
O O15 0.324249 0.244438 0.322818
O O16 0.594754 0.197801 0.164775
#
# Coordination Sequence:
#
# PCOD9345415 Si02
#       8
#     4   4   4   4   4   4   4   4
#     4  10  24  41  67  96 132 178 227 284 353 413
#     4   9  20  41  65 103 135 165 222 299 363 412
#     4  11  24  45  69  97 133 183 229 293 348 418
#     4  10  21  40  69 102 137 166 226 295 356 410
#     4  10  22  41  69 105 130 176 226 297 362 401
#     4  11  25  42  63  97 135 183 231 281 338 408
#     4  12  30  48  68 100 143 194 238 277 339 430
#     4  11  22  44  72 102 135 177 231 288 351 412
#
# _framework density 23.785627000000002
#
# number of rings (size 3 to 8) (size 9 to 14) (size 15 to 20)
#    0.000    1.500    1.250    2.250    5.250    6.000 
#    0.000    0.000    0.000    0.000    0.000    0.000 
#    0.000    0.000    0.000    0.000    0.000    0.000 
#
# Total GULP energy -178872.083077 kJ/mol
# GULP energy per Si atom -5589.752596 kJ/mol
# Density = 2.373149 g / cm^3
# Si number density = 23.785627 Si / 1000 Ang^3
#
#
#
# Elastic Constant Matrix: (Units=GPa)
#
#
# Indices 1 2 3 4 5 6 
#
# 1 91.6438 15.0915 3.5179 0.0000 0.0000 0.0000
# 2 15.0915 97.9861 16.0320 0.0000 0.0000 0.0000
# 3 3.5179 16.0320 53.1390 0.0000 0.0000 0.0000
# 4 0.0000 0.0000 0.0000 16.4536 0.0000 0.0000
# 5 0.0000 0.0000 0.0000 0.0000 -2.4561 0.0000
# 6 0.0000 0.0000 0.0000 0.0000 0.0000 68.5276
#
#
#
# Elastic Compliance Matrix: (Units=1/GPa)
#
#
# Indices 1 2 3 4 5 6 
#
# 1 0.011198 -0.001687 -0.000232 0.000000 0.000000 0.000000
# 2 -0.001687 0.010990 -0.003204 0.000000 0.000000 0.000000
# 3 -0.000232 -0.003204 0.019801 0.000000 0.000000 0.000000
# 4 0.000000 0.000000 0.000000 0.060777 0.000000 0.000000
# 5 0.000000 0.000000 0.000000 0.000000 -0.407146 0.000000
# 6 0.000000 0.000000 0.000000 0.000000 0.000000 0.014593
#
#
# Mechanical properties :
#
#
# Convention : Reuss Voigt Hill
#
# Bulk Modulus (GPa) = 31.50357 34.67243 33.08800
# Shear Modulus (GPa) = -18.59006 30.38016 5.89505
#
# Velocity S-wave (km/s) = -2.79868 3.57774 1.57600
# Velocity P-wave (km/s) = 1.68227 5.62811 4.15365
#
# Compressibility (1/GPa) = 0.03174244
#
# Stress axis : x y z
#
# Youngs Moduli (GPa) = 89.29770 90.99584 50.50355
#
# Poissons Ratio (x) = 0.15348 0.01174
# Poissons Ratio (y) = 0.15062 0.16181
# Poissons Ratio (z) = 0.02076 0.29154
#
# Static dielectric constant tensor:
#      x y z
#    x 1.935620 0.000000 0.000000 
#    y 0.000000 1.866910 0.000000 
#    z 0.000000 0.000000 1.888210 
# 
# From -- ./inp_files/5551.got.cif
#   From: 2010.05.17/outbox.cif.g08.bks.cpg/sg33_3_cif.got.tgz:5551.got - 2010.06.03 17:15:25.
