data_PCOD9345678
_publ_section_title
;
Structure prediction by ZEFSAII (Michael W. Deem and Ramdas Pophale) SiO2 
 PCOD9345678
Probable space group: P N A 21
;
_chemical_formula_sum "Si O2"
_cell_formula_units_Z 32
_cell_length_a 10.966507
_cell_length_b 5.134736
_cell_length_c 22.878029
_cell_angle_alpha 90.000000
_cell_angle_beta 90.000000
_cell_angle_gamma 90.000000
_cell_volume 1288.264519
_symmetry_space_group_name_H-M "P N A 21"
_symmetry_group_IT_number 33
_symmetry_cell_setting 'orthorhombic'
loop_
_space_group_symop_operation_xyz
x,y,z
-x,-y,1/2+z
1/2-x,1/2+y,1/2+z
1/2+x,1/2-y,z
loop_
_atom_site_type_symbol
_atom_site_label
_atom_site_fract_x
_atom_site_fract_y
_atom_site_fract_z
Si Si1 0.659743 0.353073 0.180740
Si Si2 0.710644 0.850718 0.908104
Si Si3 0.560784 0.921008 0.301767
Si Si4 0.526179 0.417812 0.374140
Si Si5 0.656743 0.870180 0.572002
Si Si6 0.701449 0.136536 0.783433
Si Si7 0.564990 0.858692 0.136126
Si Si8 0.255143 0.628856 0.029889
O O1 0.747056 0.339773 0.124532
O O2 0.737145 0.449709 0.235513
O O3 0.560890 0.572961 0.163607
O O4 0.600589 0.070991 0.185111
O O5 0.608545 0.627376 0.899799
O O6 0.857788 0.814376 0.910921
O O7 0.698289 0.015573 0.848520
O O8 0.684976 0.966138 0.972187
O O9 0.547791 0.716887 0.356895
O O10 0.439559 0.821563 0.267261
O O11 0.702653 0.873274 0.286103
O O12 0.536600 0.221607 0.318275
O O13 0.641122 0.583853 0.545068
O O14 0.547873 0.020189 0.602856
O O15 0.703403 0.072972 0.523486
O O16 0.668968 0.854407 0.086439
#
# Coordination Sequence:
#
# PCOD9345678 Si02
#       8
#     4   4   4   4   4   4   4   4
#     4  10  23  40  64  96 122 168 212 267 319 383
#     4  10  23  43  64  99 131 171 211 265 323 392
#     4  10  22  40  62  89 132 171 212 254 313 383
#     4  10  22  40  62  89 132 171 212 254 313 383
#     4  10  22  43  65  91 126 165 219 265 322 370
#     4  10  23  43  64  99 131 171 211 265 323 392
#     4  10  22  43  65  91 126 165 219 265 322 370
#     4  10  23  40  64  96 122 168 212 267 319 383
#
# _framework density 24.83962
#
# number of rings (size 3 to 8) (size 9 to 14) (size 15 to 20)
#    0.000    2.000    0.000    1.500    3.500    8.000 
#    9.000    0.000    0.000    0.000    0.000    0.000 
#    0.000    0.000    0.000    0.000    0.000    0.000 
#
# Total GULP energy -178532.110057 kJ/mol
# GULP energy per Si atom -5579.128439 kJ/mol
# Density = 2.478308 g / cm^3
# Si number density = 24.839620 Si / 1000 Ang^3
#
#
#
# Elastic Constant Matrix: (Units=GPa)
#
#
# Indices 1 2 3 4 5 6 
#
# 1 84.3248 -0.8946 -4.0074 0.0000 0.0000 0.0000
# 2 -0.8946 81.8898 15.3087 0.0000 0.0000 0.0000
# 3 -4.0074 15.3087 78.6996 0.0000 0.0000 0.0000
# 4 0.0000 0.0000 0.0000 20.5010 0.0000 0.0000
# 5 0.0000 0.0000 0.0000 0.0000 23.2501 0.0000
# 6 0.0000 0.0000 0.0000 0.0000 0.0000 28.4946
#
#
#
# Elastic Compliance Matrix: (Units=1/GPa)
#
#
# Indices 1 2 3 4 5 6 
#
# 1 0.011888 0.000017 0.000602 0.000000 0.000000 0.000000
# 2 0.000017 0.012672 -0.002464 0.000000 0.000000 0.000000
# 3 0.000602 -0.002464 0.013217 0.000000 0.000000 0.000000
# 4 0.000000 0.000000 0.000000 0.048778 0.000000 0.000000
# 5 0.000000 0.000000 0.000000 0.000000 0.043011 0.000000
# 6 0.000000 0.000000 0.000000 0.000000 0.000000 0.035094
#
#
# Mechanical properties :
#
#
# Convention : Reuss Voigt Hill
#
# Bulk Modulus (GPa) = 29.33681 29.52529 29.43105
# Shear Modulus (GPa) = 27.82233 30.08296 28.95264
#
# Velocity S-wave (km/s) = 3.35039 3.48384 3.41777
# Velocity P-wave (km/s) = 5.17715 5.30048 5.23918
#
# Compressibility (1/GPa) = 0.03408687
#
# Stress axis : x y z
#
# Youngs Moduli (GPa) = 84.12061 78.91179 75.66283
#
# Poissons Ratio (x) = -0.00137 -0.04555
# Poissons Ratio (y) = -0.00146 0.18645
# Poissons Ratio (z) = -0.05064 0.19445
#
# Static dielectric constant tensor:
#      x y z
#    x 2.018740 0.000000 0.000000 
#    y 0.000000 2.201440 0.000000 
#    z 0.000000 0.000000 2.029110 
# 
# From -- ./inp_files/9286.got.cif
#   From: 2010.05.17/outbox.cif.g08.bks.cpg/sg33_5_cif.got.tgz:9286.got - 2010.06.03 17:15:25.
