data_PCOD9345321
_publ_section_title
;
Structure prediction by ZEFSAII (Michael W. Deem and Ramdas Pophale) SiO2 
 PCOD9345321
Probable space group: P N A 21
;
_chemical_formula_sum "Si O2"
_cell_formula_units_Z 28
_cell_length_a 9.406225
_cell_length_b 18.125625
_cell_length_c 8.295761
_cell_angle_alpha 90.000000
_cell_angle_beta 90.000000
_cell_angle_gamma 90.000000
_cell_volume 1414.375045
_symmetry_space_group_name_H-M "P N A 21"
_symmetry_group_IT_number 33
_symmetry_cell_setting 'orthorhombic'
loop_
_space_group_symop_operation_xyz
x,y,z
-x,-y,1/2+z
1/2-x,1/2+y,1/2+z
1/2+x,1/2-y,z
loop_
_atom_site_type_symbol
_atom_site_label
_atom_site_fract_x
_atom_site_fract_y
_atom_site_fract_z
Si Si1 0.895435 0.261068 0.756370
Si Si2 0.564535 0.294458 0.443719
Si Si3 0.959508 0.521686 0.528777
Si Si4 0.286116 0.313547 0.289760
Si Si5 0.746593 0.404752 0.611591
Si Si6 0.156451 0.325910 0.933503
Si Si7 0.795853 0.526150 0.841352
O O1 0.811694 0.335812 0.709052
O O2 0.780850 0.200943 0.814013
O O3 0.981713 0.235538 0.599600
O O4 0.014199 0.280238 0.890628
O O5 0.451459 0.294131 0.299689
O O6 0.695116 0.242567 0.396545
O O7 0.627023 0.373420 0.495098
O O8 0.871625 0.445583 0.512768
O O9 0.891519 0.588308 0.426117
O O10 0.926242 0.540604 0.714815
O O11 0.123894 0.509881 0.490685
O O12 0.274100 0.395449 0.365214
O O13 0.220396 0.313650 0.111561
O O14 0.702271 0.467087 0.742164
#
# Coordination Sequence:
#
# PCOD9345321 Si02
#       7
#     4   4   4   4   4   4   4
#     4  12  21  39  67  90 122 164 213 257 312 378
#     4  12  23  42  65  92 125 167 216 253 311 387
#     4   9  19  37  62  86 125 157 206 249 312 381
#     4  11  24  40  64  95 129 163 208 269 316 365
#     4  10  21  39  62  89 122 163 211 253 305 385
#     4  11  22  40  61  95 124 160 206 268 315 369
#     4   9  20  37  61  87 125 160 202 253 313 371
#
# _framework density 19.796731000000001
#
# number of rings (size 3 to 8) (size 9 to 14) (size 15 to 20)
#    0.857    0.571    4.286    1.714    0.000    1.143 
#    2.571    0.000    0.000    0.000    0.000    0.000 
#    0.000    0.000    0.000    0.000    0.000    0.000 
#
# Total GULP energy -156038.243201 kJ/mol
# GULP energy per Si atom -5572.794400 kJ/mol
# Density = 1.975167 g / cm^3
# Si number density = 19.796731 Si / 1000 Ang^3
#
#
#
# Elastic Constant Matrix: (Units=GPa)
#
#
# Indices 1 2 3 4 5 6 
#
# 1 69.8285 8.9738 10.5166 0.0000 0.0000 0.0000
# 2 8.9738 63.5277 -0.9821 0.0000 0.0000 0.0000
# 3 10.5166 -0.9821 32.7029 0.0000 0.0000 0.0000
# 4 0.0000 0.0000 0.0000 28.4229 0.0000 0.0000
# 5 0.0000 0.0000 0.0000 0.0000 24.0500 0.0000
# 6 0.0000 0.0000 0.0000 0.0000 0.0000 33.8814
#
#
#
# Elastic Compliance Matrix: (Units=1/GPa)
#
#
# Indices 1 2 3 4 5 6 
#
# 1 0.015364 -0.002248 -0.005008 0.000000 0.000000 0.000000
# 2 -0.002248 0.016077 0.001206 0.000000 0.000000 0.000000
# 3 -0.005008 0.001206 0.032225 0.000000 0.000000 0.000000
# 4 0.000000 0.000000 0.000000 0.035183 0.000000 0.000000
# 5 0.000000 0.000000 0.000000 0.000000 0.041580 0.000000
# 6 0.000000 0.000000 0.000000 0.000000 0.000000 0.029515
#
#
# Mechanical properties :
#
#
# Convention : Reuss Voigt Hill
#
# Bulk Modulus (GPa) = 19.39272 22.56397 20.97835
# Shear Modulus (GPa) = 25.09622 27.10759 26.10190
#
# Velocity S-wave (km/s) = 3.56433 3.70441 3.63505
# Velocity P-wave (km/s) = 5.17267 5.45156 5.31394
#
# Compressibility (1/GPa) = 0.05156575
#
# Stress axis : x y z
#
# Youngs Moduli (GPa) = 65.08753 62.19944 31.03167
#
# Poissons Ratio (x) = 0.13981 0.15541
# Poissons Ratio (y) = 0.14630 -0.03741
# Poissons Ratio (z) = 0.32598 -0.07499
#
# Static dielectric constant tensor:
#      x y z
#    x 1.694480 0.000000 0.000000 
#    y 0.000000 1.706420 0.000000 
#    z 0.000000 0.000000 1.738370 
# 
# From -- ./inp_files/3376.got.cif
#   From: 2010.05.17/outbox.cif.g08.bks.cpg/sg33_2_cif.got.tgz:3376.got - 2010.06.03 17:15:25.
