data_PCOD9345673
_publ_section_title
;
Structure prediction by ZEFSAII (Michael W. Deem and Ramdas Pophale) SiO2 
 PCOD9345673
Probable space group: P N A 21
;
_chemical_formula_sum "Si O2"
_cell_formula_units_Z 32
_cell_length_a 24.951786
_cell_length_b 6.706797
_cell_length_c 8.053770
_cell_angle_alpha 90.000000
_cell_angle_beta 90.000000
_cell_angle_gamma 90.000000
_cell_volume 1347.770733
_symmetry_space_group_name_H-M "P N A 21"
_symmetry_group_IT_number 33
_symmetry_cell_setting 'orthorhombic'
loop_
_space_group_symop_operation_xyz
x,y,z
-x,-y,1/2+z
1/2-x,1/2+y,1/2+z
1/2+x,1/2-y,z
loop_
_atom_site_type_symbol
_atom_site_label
_atom_site_fract_x
_atom_site_fract_y
_atom_site_fract_z
Si Si1 0.400031 0.024759 0.090080
Si Si2 0.000334 0.761063 0.705285
Si Si3 0.247962 0.436216 0.491151
Si Si4 0.690860 0.734012 0.673563
Si Si5 0.854055 0.848867 0.022198
Si Si6 0.150655 0.124363 0.134594
Si Si7 0.558386 0.608878 0.033227
Si Si8 0.393736 0.009481 0.709108
O O1 0.455334 0.139420 0.102612
O O2 0.355511 0.106178 0.218884
O O3 0.400524 0.786056 0.101575
O O4 0.379379 0.050443 0.900423
O O5 0.947476 0.625609 0.711802
O O6 0.027793 0.797192 0.880763
O O7 0.983813 0.976282 0.635550
O O8 0.270785 0.350922 0.317368
O O9 0.223044 0.657641 0.523586
O O10 0.201573 0.278716 0.538411
O O11 0.299715 0.476086 0.606282
O O12 0.655748 0.552494 0.611475
O O13 0.865017 0.894115 0.828901
O O14 0.151598 0.367695 0.124265
O O15 0.106109 0.050170 0.004761
O O16 0.589235 0.786173 0.126058
#
# Coordination Sequence:
#
# PCOD9345673 Si02
#       8
#     4   4   4   4   4   4   4   4
#     4  10  22  41  60  91 129 160 221 263 323 399
#     4  11  23  39  62  93 124 168 216 269 326 401
#     4  11  23  41  60  95 126 163 222 270 324 408
#     4  11  24  38  65  90 125 172 211 271 332 390
#     4  10  23  41  64  90 128 171 209 275 329 390
#     4  10  22  41  61  91 129 163 218 266 329 395
#     4  11  23  39  65  90 126 171 209 270 329 385
#     4  10  22  40  61  90 125 166 210 272 326 392
#
# _framework density 23.742908
#
# number of rings (size 3 to 8) (size 9 to 14) (size 15 to 20)
#    0.000    1.500    1.250    3.000    1.750    6.000 
#    0.000    0.000    0.000    0.000    0.000    0.000 
#    0.000    0.000    0.000    0.000    0.000    0.000 
#
# Total GULP energy -178534.190215 kJ/mol
# GULP energy per Si atom -5579.193444 kJ/mol
# Density = 2.368887 g / cm^3
# Si number density = 23.742908 Si / 1000 Ang^3
#
#
#
# Elastic Constant Matrix: (Units=GPa)
#
#
# Indices 1 2 3 4 5 6 
#
# 1 69.1674 9.0904 10.0989 0.0000 0.0000 0.0000
# 2 9.0904 100.0755 38.0672 0.0000 0.0000 0.0000
# 3 10.0989 38.0672 50.7918 0.0000 0.0000 0.0000
# 4 0.0000 0.0000 0.0000 26.4345 0.0000 0.0000
# 5 0.0000 0.0000 0.0000 0.0000 33.9608 0.0000
# 6 0.0000 0.0000 0.0000 0.0000 0.0000 47.2193
#
#
#
# Elastic Compliance Matrix: (Units=1/GPa)
#
#
# Indices 1 2 3 4 5 6 
#
# 1 0.014897 -0.000317 -0.002725 0.000000 0.000000 0.000000
# 2 -0.000317 0.013984 -0.010418 0.000000 0.000000 0.000000
# 3 -0.002725 -0.010418 0.028038 0.000000 0.000000 0.000000
# 4 0.000000 0.000000 0.000000 0.037829 0.000000 0.000000
# 5 0.000000 0.000000 0.000000 0.000000 0.029446 0.000000
# 6 0.000000 0.000000 0.000000 0.000000 0.000000 0.021178
#
#
# Mechanical properties :
#
#
# Convention : Reuss Voigt Hill
#
# Bulk Modulus (GPa) = 33.33246 37.17197 35.25222
# Shear Modulus (GPa) = 27.42886 32.37480 29.90183
#
# Velocity S-wave (km/s) = 3.40258 3.69664 3.55265
# Velocity P-wave (km/s) = 5.43195 5.82325 5.63100
#
# Compressibility (1/GPa) = 0.03000078
#
# Stress axis : x y z
#
# Youngs Moduli (GPa) = 67.12708 71.51068 35.66633
#
# Poissons Ratio (x) = 0.02266 0.09717
# Poissons Ratio (y) = 0.02127 0.37156
# Poissons Ratio (z) = 0.18289 0.74497
#
# Static dielectric constant tensor:
#      x y z
#    x 1.997800 0.000000 0.000000 
#    y 0.000000 1.957330 0.000000 
#    z 0.000000 0.000000 1.903410 
# 
# From -- ./inp_files/5340.got.cif
#   From: 2010.05.17/outbox.cif.g08.bks.cpg/sg33_3_cif.got.tgz:5340.got - 2010.06.03 17:15:25.
