data_PCOD9345142
_publ_section_title
;
Structure prediction by ZEFSAII (Michael W. Deem and Ramdas Pophale) SiO2 
 PCOD9345142
Probable space group: P N A 21
;
_chemical_formula_sum "Si O2"
_cell_formula_units_Z 32
_cell_length_a 5.653729
_cell_length_b 22.916551
_cell_length_c 12.051055
_cell_angle_alpha 90.000000
_cell_angle_beta 90.000000
_cell_angle_gamma 90.000000
_cell_volume 1561.382516
_symmetry_space_group_name_H-M "P N A 21"
_symmetry_group_IT_number 33
_symmetry_cell_setting 'orthorhombic'
loop_
_space_group_symop_operation_xyz
x,y,z
-x,-y,1/2+z
1/2-x,1/2+y,1/2+z
1/2+x,1/2-y,z
loop_
_atom_site_type_symbol
_atom_site_label
_atom_site_fract_x
_atom_site_fract_y
_atom_site_fract_z
Si Si1 0.535955 0.407761 0.164770
Si Si2 0.981614 0.721499 0.143579
Si Si3 0.759286 0.058014 0.362131
Si Si4 0.627007 0.009849 0.747330
Si Si5 0.116852 0.179247 0.982071
Si Si6 0.889275 0.692323 0.399496
Si Si7 0.145301 0.991725 0.486395
Si Si8 0.977979 0.406782 0.564051
O O1 0.416733 0.401210 0.284462
O O2 0.737641 0.455583 0.190800
O O3 0.605892 0.348572 0.103840
O O4 0.373151 0.439609 0.072534
O O5 0.208798 0.761945 0.110858
O O6 0.947712 0.715819 0.276702
O O7 0.064661 0.658470 0.101144
O O8 0.594390 0.094525 0.442602
O O9 0.894429 0.015323 0.445687
O O10 0.628875 0.015102 0.277229
O O11 0.628144 0.063443 0.663330
O O12 0.730453 0.023270 0.869397
O O13 0.126669 0.249458 0.975702
O O14 0.872532 0.164393 0.914521
O O15 0.370521 0.158001 0.932479
O O16 0.267854 0.047181 0.544641
#
# Coordination Sequence:
#
# PCOD9345142 Si02
#       8
#     4   4   4   4   4   4   4   4
#     4  11  22  37  66  95 132 175 219 264 338 397
#     4  12  25  44  69  98 130 174 230 282 337 393
#     4  10  22  43  58  90 136 162 222 262 322 412
#     4  10  22  39  61  98 129 171 213 268 327 415
#     4  10  21  36  66  89 136 169 210 272 336 380
#     4  10  20  43  58 100 132 167 220 283 331 384
#     4  10  22  39  61  96 129 167 220 265 329 408
#     4  11  24  41  69  90 136 177 212 276 342 389
#
# _framework density 20.494658000000001
#
# number of rings (size 3 to 8) (size 9 to 14) (size 15 to 20)
#    0.000    1.500    5.000    0.000    5.250    1.000 
#    0.000    0.000    5.500    0.000    0.000    0.000 
#    0.000    0.000    0.000    0.000    0.000    0.000 
#
# Total GULP energy -178193.525944 kJ/mol
# GULP energy per Si atom -5568.547686 kJ/mol
# Density = 2.044801 g / cm^3
# Si number density = 20.494658 Si / 1000 Ang^3
#
#
#
# Elastic Constant Matrix: (Units=GPa)
#
#
# Indices 1 2 3 4 5 6 
#
# 1 83.7205 -6.5436 1.1591 0.0000 0.0000 0.0000
# 2 -6.5436 60.3180 23.4062 0.0000 0.0000 0.0000
# 3 1.1591 23.4062 69.0974 0.0000 0.0000 0.0000
# 4 0.0000 0.0000 0.0000 14.3349 0.0000 0.0000
# 5 0.0000 0.0000 0.0000 0.0000 -10.9310 0.0000
# 6 0.0000 0.0000 0.0000 0.0000 0.0000 12.2007
#
#
#
# Elastic Compliance Matrix: (Units=1/GPa)
#
#
# Indices 1 2 3 4 5 6 
#
# 1 0.012080 0.001599 -0.000744 0.000000 0.000000 0.000000
# 2 0.001599 0.019300 -0.006564 0.000000 0.000000 0.000000
# 3 -0.000744 -0.006564 0.016708 0.000000 0.000000 0.000000
# 4 0.000000 0.000000 0.000000 0.069760 0.000000 0.000000
# 5 0.000000 0.000000 0.000000 0.000000 -0.091483 0.000000
# 6 0.000000 0.000000 0.000000 0.000000 0.000000 0.081963
#
#
# Mechanical properties :
#
#
# Convention : Reuss Voigt Hill
#
# Bulk Modulus (GPa) = 27.27105 27.68658 27.47881
# Shear Modulus (GPa) = 37.88752 16.12852 27.00802
#
# Velocity S-wave (km/s) = 4.30426 2.80833 3.63410
# Velocity P-wave (km/s) = 6.16746 4.90450 5.57188
#
# Compressibility (1/GPa) = 0.03666893
#
# Stress axis : x y z
#
# Youngs Moduli (GPa) = 82.78271 51.81453 59.84994
#
# Poissons Ratio (x) = -0.08287 0.04455
# Poissons Ratio (y) = -0.13240 0.39288
# Poissons Ratio (z) = 0.06162 0.34013
#
# Static dielectric constant tensor:
#      x y z
#    x 1.874690 0.000000 0.000000 
#    y 0.000000 1.749610 0.000000 
#    z 0.000000 0.000000 1.753220 
# 
# From -- ./inp_files/5559.got.cif
#   From: 2010.05.17/outbox.cif.g08.bks.cpg/sg33_3_cif.got.tgz:5559.got - 2010.06.03 17:15:25.
