data_PCOD9345176
_publ_section_title
;
Structure prediction by ZEFSAII (Michael W. Deem and Ramdas Pophale) SiO2 
 PCOD9345176
Probable space group: P N A 21
;
_chemical_formula_sum "Si O2"
_cell_formula_units_Z 32
_cell_length_a 15.613693
_cell_length_b 11.371032
_cell_length_c 7.214146
_cell_angle_alpha 90.000000
_cell_angle_beta 90.000000
_cell_angle_gamma 90.000000
_cell_volume 1280.826914
_symmetry_space_group_name_H-M "P N A 21"
_symmetry_group_IT_number 33
_symmetry_cell_setting 'orthorhombic'
loop_
_space_group_symop_operation_xyz
x,y,z
-x,-y,1/2+z
1/2-x,1/2+y,1/2+z
1/2+x,1/2-y,z
loop_
_atom_site_type_symbol
_atom_site_label
_atom_site_fract_x
_atom_site_fract_y
_atom_site_fract_z
Si Si1 0.438535 0.803432 0.858410
Si Si2 0.958563 0.660793 0.412823
Si Si3 0.057566 0.075599 0.860057
Si Si4 0.636132 0.802189 0.879793
Si Si5 0.382440 0.551392 0.781791
Si Si6 0.368131 0.049639 0.990222
Si Si7 0.208705 0.470610 0.938546
Si Si8 0.787367 0.059189 0.299198
O O1 0.448962 0.832822 0.637992
O O2 0.536463 0.783119 0.920220
O O3 0.385010 0.683040 0.865788
O O4 0.400742 0.913033 0.970748
O O5 0.949650 0.787463 0.322802
O O6 0.877293 0.583248 0.355191
O O7 0.053114 0.610514 0.379707
O O8 0.097493 0.062763 0.064431
O O9 0.126089 0.006814 0.735895
O O10 0.964568 0.018764 0.855801
O O11 0.641302 0.867535 0.675101
O O12 0.682944 0.678262 0.896587
O O13 0.680676 0.899816 0.005551
O O14 0.292825 0.486825 0.815561
O O15 0.274032 0.031258 0.905407
O O16 0.237027 0.398649 0.117286
#
# Coordination Sequence:
#
# PCOD9345176 Si02
#       8
#     4   4   4   4   4   4   4   4
#     4  10  20  46  72  96 138 188 229 294 358 414
#     4  10  24  43  70 101 143 181 235 293 353 420
#     4  11  25  49  68 105 142 191 235 292 358 424
#     4  11  25  47  70 102 145 183 238 297 359 424
#     4  11  24  44  74  99 144 187 235 293 356 427
#     4  11  23  44  77 100 135 188 236 293 363 417
#     4  12  25  44  68 103 139 184 236 291 357 426
#     4  12  26  47  71 102 144 190 232 299 364 420
#
# _framework density 24.983861000000001
#
# number of rings (size 3 to 8) (size 9 to 14) (size 15 to 20)
#    0.000    1.000    3.750    2.250    7.000    0.000 
#   11.250    0.000    0.000    0.000    0.000    0.000 
#    0.000    0.000    0.000    0.000    0.000    0.000 
#
# Total GULP energy -179015.915687 kJ/mol
# GULP energy per Si atom -5594.247365 kJ/mol
# Density = 2.492700 g / cm^3
# Si number density = 24.983861 Si / 1000 Ang^3
#
#
#
# Elastic Constant Matrix: (Units=GPa)
#
#
# Indices 1 2 3 4 5 6 
#
# 1 188.3148 46.1455 19.6543 0.0000 0.0000 0.0000
# 2 46.1455 132.4334 0.9254 0.0000 0.0000 0.0000
# 3 19.6543 0.9254 61.5501 0.0000 0.0000 0.0000
# 4 0.0000 0.0000 0.0000 23.7712 0.0000 0.0000
# 5 0.0000 0.0000 0.0000 0.0000 32.9371 0.0000
# 6 0.0000 0.0000 0.0000 0.0000 0.0000 26.6957
#
#
#
# Elastic Compliance Matrix: (Units=1/GPa)
#
#
# Indices 1 2 3 4 5 6 
#
# 1 0.006018 -0.002084 -0.001890 0.000000 0.000000 0.000000
# 2 -0.002084 0.008273 0.000541 0.000000 0.000000 0.000000
# 3 -0.001890 0.000541 0.016842 0.000000 0.000000 0.000000
# 4 0.000000 0.000000 0.000000 0.042068 0.000000 0.000000
# 5 0.000000 0.000000 0.000000 0.000000 0.030361 0.000000
# 6 0.000000 0.000000 0.000000 0.000000 0.000000 0.037459
#
#
# Mechanical properties :
#
#
# Convention : Reuss Voigt Hill
#
# Bulk Modulus (GPa) = 41.20734 57.30541 49.25638
# Shear Modulus (GPa) = 32.05593 37.71898 34.88746
#
# Velocity S-wave (km/s) = 3.58588 3.88974 3.74090
# Velocity P-wave (km/s) = 5.80294 6.56965 6.19816
#
# Compressibility (1/GPa) = 0.02426752
#
# Stress axis : x y z
#
# Youngs Moduli (GPa) = 166.16328 120.87126 59.37380
#
# Poissons Ratio (x) = 0.25187 0.11224
# Poissons Ratio (y) = 0.34625 -0.03212
# Poissons Ratio (z) = 0.31412 -0.06539
#
# Static dielectric constant tensor:
#      x y z
#    x 1.971730 0.000000 0.000000 
#    y 0.000000 1.915130 0.000000 
#    z 0.000000 0.000000 2.124760 
# 
# From -- ./inp_files/4446.got.cif
#   From: 2010.05.17/outbox.cif.g08.bks.cpg/sg33_3_cif.got.tgz:4446.got - 2010.06.03 17:15:25.
