data_PCOD9345688
_publ_section_title
;
Structure prediction by ZEFSAII (Michael W. Deem and Ramdas Pophale) SiO2 
 PCOD9345688
Probable space group: P N A 21
;
_chemical_formula_sum "Si O2"
_cell_formula_units_Z 28
_cell_length_a 20.341278
_cell_length_b 5.236653
_cell_length_c 12.530523
_cell_angle_alpha 90.000000
_cell_angle_beta 90.000000
_cell_angle_gamma 90.000000
_cell_volume 1334.753997
_symmetry_space_group_name_H-M "P N A 21"
_symmetry_group_IT_number 33
_symmetry_cell_setting 'orthorhombic'
loop_
_space_group_symop_operation_xyz
x,y,z
-x,-y,1/2+z
1/2-x,1/2+y,1/2+z
1/2+x,1/2-y,z
loop_
_atom_site_type_symbol
_atom_site_label
_atom_site_fract_x
_atom_site_fract_y
_atom_site_fract_z
Si Si1 0.922298 0.340500 0.060270
Si Si2 0.750000 0.249999 0.476531
Si Si3 0.357170 0.359041 0.643039
Si Si4 0.822181 0.654599 0.374702
Si Si5 0.642830 0.359040 0.643039
Si Si6 0.922298 0.659498 0.560270
Si Si7 0.677819 0.845402 0.374702
O O1 0.899404 0.620559 0.098105
O O2 0.000000 0.330709 0.046491
O O3 0.897966 0.120857 0.141597
O O4 0.882877 0.283198 0.951035
O O5 0.795090 0.101831 0.564222
O O6 0.805856 0.357544 0.395878
O O7 0.704909 0.398168 0.564222
O O8 0.694143 0.142457 0.395878
O O9 0.397965 0.620859 0.641597
O O10 0.333971 0.264308 0.758495
O O11 0.399404 0.120561 0.598105
O O12 0.833971 0.764307 0.258495
O O13 0.882877 0.716801 0.451035
O O14 0.750000 0.750002 0.411256
#
# Coordination Sequence:
#
# PCOD9345688 Si02
#       7
#     4   4   4   4   4   4   4
#     4  11  26  45  64  97 139 178 222 270 329 404
#     4  10  22  40  64 104 136 164 220 284 334 388
#     4  11  24  41  70  97 135 174 221 274 337 392
#     4  11  23  41  72 100 129 172 223 280 333 391
#     4  11  24  41  70  97 135 174 221 274 337 392
#     4  11  26  45  64  97 139 178 222 270 329 404
#     4  11  23  41  72 100 129 172 223 280 333 391
#
# _framework density 20.977647000000001
#
# number of rings (size 3 to 8) (size 9 to 14) (size 15 to 20)
#    0.000    1.143    4.286    0.857    4.000    2.286 
#    0.000    0.000    0.000    0.000    0.000    0.000 
#    0.000    0.000    0.000    0.000    0.000    0.000 
#
# Total GULP energy -155947.760572 kJ/mol
# GULP energy per Si atom -5569.562878 kJ/mol
# Density = 2.092990 g / cm^3
# Si number density = 20.977647 Si / 1000 Ang^3
#
#
#
# Elastic Constant Matrix: (Units=GPa)
#
#
# Indices 1 2 3 4 5 6 
#
# 1 159.5808 20.1655 54.7692 0.0000 0.0000 0.0000
# 2 20.1655 46.2897 27.8850 0.0000 0.0000 0.0000
# 3 54.7692 27.8850 123.6311 0.0000 0.0000 0.0000
# 4 0.0000 0.0000 0.0000 19.1889 0.0000 0.0000
# 5 0.0000 0.0000 0.0000 0.0000 19.5595 0.0000
# 6 0.0000 0.0000 0.0000 0.0000 0.0000 3.5155
#
#
#
# Elastic Compliance Matrix: (Units=1/GPa)
#
#
# Indices 1 2 3 4 5 6 
#
# 1 0.007474 -0.001460 -0.002982 0.000000 0.000000 0.000000
# 2 -0.001460 0.025285 -0.005056 0.000000 0.000000 0.000000
# 3 -0.002982 -0.005056 0.010550 0.000000 0.000000 0.000000
# 4 0.000000 0.000000 0.000000 0.052113 0.000000 0.000000
# 5 0.000000 0.000000 0.000000 0.000000 0.051126 0.000000
# 6 0.000000 0.000000 0.000000 0.000000 0.000000 0.284452
#
#
# Mechanical properties :
#
#
# Convention : Reuss Voigt Hill
#
# Bulk Modulus (GPa) = 41.12984 59.46010 50.29497
# Shear Modulus (GPa) = 10.91462 23.56492 17.23977
#
# Velocity S-wave (km/s) = 2.28348 3.35525 2.86984
# Velocity P-wave (km/s) = 5.15766 6.58911 5.91683
#
# Compressibility (1/GPa) = 0.02431325
#
# Stress axis : x y z
#
# Youngs Moduli (GPa) = 133.79201 39.54925 94.78643
#
# Poissons Ratio (x) = 0.05773 0.28264
# Poissons Ratio (y) = 0.19531 0.47927
# Poissons Ratio (z) = 0.39895 0.19997
#
# Static dielectric constant tensor:
#      x y z
#    x 1.721760 0.000000 0.000000 
#    y 0.000000 3.004340 0.000000 
#    z 0.000000 0.000000 1.729240 
# 
# From -- ./inp_files/6945.got.cif
#   From: 2010.05.17/outbox.cif.g08.bks.cpg/sg33_4_cif.got.tgz:6945.got - 2010.06.03 17:15:25.
