data_PCOD9345626
_publ_section_title
;
Structure prediction by ZEFSAII (Michael W. Deem and Ramdas Pophale) SiO2 
 PCOD9345626
Probable space group: P N A 21
;
_chemical_formula_sum "Si O2"
_cell_formula_units_Z 20
_cell_length_a 5.230916
_cell_length_b 23.206295
_cell_length_c 7.107522
_cell_angle_alpha 90.000000
_cell_angle_beta 90.000000
_cell_angle_gamma 90.000000
_cell_volume 862.783374
_symmetry_space_group_name_H-M "P N A 21"
_symmetry_group_IT_number 33
_symmetry_cell_setting 'orthorhombic'
loop_
_space_group_symop_operation_xyz
x,y,z
-x,-y,1/2+z
1/2-x,1/2+y,1/2+z
1/2+x,1/2-y,z
loop_
_atom_site_type_symbol
_atom_site_label
_atom_site_fract_x
_atom_site_fract_y
_atom_site_fract_z
Si Si1 0.304548 0.473622 0.239730
Si Si2 0.404797 0.873712 0.465716
Si Si3 0.685037 0.712554 0.716325
Si Si4 0.676066 0.383895 0.258939
Si Si5 0.991943 0.423563 0.575374
O O1 0.594887 0.451253 0.252090
O O2 0.226739 0.536027 0.168930
O O3 0.197561 0.428680 0.083971
O O4 0.175965 0.461703 0.442486
O O5 0.242639 0.816465 0.512036
O O6 0.684941 0.865970 0.564751
O O7 0.390429 0.890598 0.250591
O O8 0.454345 0.756820 0.752939
O O9 0.569476 0.654671 0.810547
O O10 0.870215 0.379095 0.429172
#
# Coordination Sequence:
#
# PCOD9345626 Si02
#       5
#     4   4   4   4   4
#     4  10  22  38  60  94 142 187 221 275 342 414
#     4  10  22  42  66  98 135 177 235 281 340 422
#     4  11  22  46  76  96 135 183 233 300 365 398
#     4  10  24  39  66 100 134 179 231 290 339 421
#     4  11  22  39  62 100 142 186 230 274 346 421
#
# _framework density 23.180788
#
# number of rings (size 3 to 8) (size 9 to 14) (size 15 to 20)
#    0.000    1.600    4.000    0.000    2.800    3.200 
#    0.000    2.000    0.000    0.000    0.000    0.000 
#    0.000    0.000    0.000    0.000    0.000    0.000 
#
# Total GULP energy -111476.075989 kJ/mol
# GULP energy per Si atom -5573.803799 kJ/mol
# Density = 2.312803 g / cm^3
# Si number density = 23.180788 Si / 1000 Ang^3
#
#
#
# Elastic Constant Matrix: (Units=GPa)
#
#
# Indices 1 2 3 4 5 6 
#
# 1 92.1847 9.9784 35.1969 0.0000 0.0000 0.0000
# 2 9.9784 57.3697 4.4889 0.0000 0.0000 0.0000
# 3 35.1969 4.4889 131.0199 0.0000 0.0000 0.0000
# 4 0.0000 0.0000 0.0000 23.5493 0.0000 0.0000
# 5 0.0000 0.0000 0.0000 0.0000 13.5740 0.0000
# 6 0.0000 0.0000 0.0000 0.0000 0.0000 42.9008
#
#
#
# Elastic Compliance Matrix: (Units=1/GPa)
#
#
# Indices 1 2 3 4 5 6 
#
# 1 0.012287 -0.001884 -0.003236 0.000000 0.000000 0.000000
# 2 -0.001884 0.017766 -0.000103 0.000000 0.000000 0.000000
# 3 -0.003236 -0.000103 0.008505 0.000000 0.000000 0.000000
# 4 0.000000 0.000000 0.000000 0.042464 0.000000 0.000000
# 5 0.000000 0.000000 0.000000 0.000000 0.073670 0.000000
# 6 0.000000 0.000000 0.000000 0.000000 0.000000 0.023310
#
#
# Mechanical properties :
#
#
# Convention : Reuss Voigt Hill
#
# Bulk Modulus (GPa) = 35.57007 42.21140 38.89073
# Shear Modulus (GPa) = 25.27549 31.39884 28.33716
#
# Velocity S-wave (km/s) = 3.30565 3.68437 3.50014
# Velocity P-wave (km/s) = 5.47245 6.02898 5.75744
#
# Compressibility (1/GPa) = 0.02811353
#
# Stress axis : x y z
#
# Youngs Moduli (GPa) = 81.38441 56.28572 117.57319
#
# Poissons Ratio (x) = 0.10604 0.38050
# Poissons Ratio (y) = 0.15332 0.01206
# Poissons Ratio (z) = 0.26339 0.00578
#
# Static dielectric constant tensor:
#      x y z
#    x 2.071710 0.000000 0.000000 
#    y 0.000000 1.941220 0.000000 
#    z 0.000000 0.000000 1.829540 
# 
# From -- ./inp_files/158.got.cif
#   From: 2010.05.17/outbox.cif.g08.bks.cpg/sg33_1_cif.got.tgz:158.got - 2010.06.03 17:15:25.
