data_PCOD9345899
_publ_section_title
;
Structure prediction by ZEFSAII (Michael W. Deem and Ramdas Pophale) SiO2 
 PCOD9345899
Probable space group: P N A 21
;
_chemical_formula_sum "Si O2"
_cell_formula_units_Z 32
_cell_length_a 8.550152
_cell_length_b 11.846208
_cell_length_c 15.191916
_cell_angle_alpha 90.000000
_cell_angle_beta 90.000000
_cell_angle_gamma 90.000000
_cell_volume 1538.741758
_symmetry_space_group_name_H-M "P N A 21"
_symmetry_group_IT_number 33
_symmetry_cell_setting 'orthorhombic'
loop_
_space_group_symop_operation_xyz
x,y,z
-x,-y,1/2+z
1/2-x,1/2+y,1/2+z
1/2+x,1/2-y,z
loop_
_atom_site_type_symbol
_atom_site_label
_atom_site_fract_x
_atom_site_fract_y
_atom_site_fract_z
Si Si1 0.105849 0.506108 0.127270
Si Si2 0.963780 0.816661 0.761119
Si Si3 0.706783 0.703999 0.882550
Si Si4 0.152779 0.603870 0.314840
Si Si5 0.984490 0.592770 0.941849
Si Si6 0.043233 0.207330 0.897511
Si Si7 0.227068 0.820940 0.521388
Si Si8 0.179044 0.640092 0.656123
O O1 0.168410 0.571472 0.212242
O O2 0.935714 0.463542 0.157204
O O3 0.220693 0.402705 0.100172
O O4 0.066644 0.559274 0.032748
O O5 0.840905 0.738554 0.813457
O O6 0.846966 0.884578 0.698798
O O7 0.078034 0.872808 0.832825
O O8 0.076584 0.736700 0.704988
O O9 0.812875 0.649584 0.957953
O O10 0.609533 0.816150 0.904901
O O11 0.062522 0.505387 0.371218
O O12 0.322013 0.630426 0.356856
O O13 0.057021 0.720839 0.327620
O O14 0.130118 0.303389 0.955406
O O15 0.923686 0.145856 0.964604
O O16 0.201361 0.695659 0.560881
#
# Coordination Sequence:
#
# PCOD9345899 Si02
#       8
#     4   4   4   4   4   4   4   4
#     4  12  23  38  68  98 136 178 241 281 331 426
#     4   9  17  31  57  87 121 155 203 269 353 373
#     4   9  20  38  60  85 131 173 204 274 346 396
#     4  11  24  44  71  98 134 183 232 277 355 415
#     4  11  23  44  65  94 132 180 222 284 344 414
#     4  10  22  44  69  91 140 183 222 287 350 415
#     4  11  19  39  65  96 128 176 229 296 345 389
#     4  11  18  32  61  97 128 160 215 300 342 376
#
# _framework density 20.796211
#
# number of rings (size 3 to 8) (size 9 to 14) (size 15 to 20)
#    0.000    1.500    3.750    3.000    1.750    1.000 
#    4.500    1.250    5.500    0.000    0.000    0.000 
#    0.000    0.000    0.000    0.000    0.000    0.000 
#
# Total GULP energy -178247.617058 kJ/mol
# GULP energy per Si atom -5570.238033 kJ/mol
# Density = 2.074888 g / cm^3
# Si number density = 20.796211 Si / 1000 Ang^3
#
#
#
# Elastic Constant Matrix: (Units=GPa)
#
#
# Indices 1 2 3 4 5 6 
#
# 1 114.1242 17.6789 37.0258 0.0000 0.0000 0.0000
# 2 17.6789 44.4686 22.0590 0.0000 0.0000 0.0000
# 3 37.0258 22.0590 99.4893 0.0000 0.0000 0.0000
# 4 0.0000 0.0000 0.0000 21.5243 0.0000 0.0000
# 5 0.0000 0.0000 0.0000 0.0000 35.3795 0.0000
# 6 0.0000 0.0000 0.0000 0.0000 0.0000 28.5278
#
#
#
# Elastic Compliance Matrix: (Units=1/GPa)
#
#
# Indices 1 2 3 4 5 6 
#
# 1 0.010196 -0.002439 -0.003254 0.000000 0.000000 0.000000
# 2 -0.002439 0.025850 -0.004824 0.000000 0.000000 0.000000
# 3 -0.003254 -0.004824 0.012332 0.000000 0.000000 0.000000
# 4 0.000000 0.000000 0.000000 0.046459 0.000000 0.000000
# 5 0.000000 0.000000 0.000000 0.000000 0.028265 0.000000
# 6 0.000000 0.000000 0.000000 0.000000 0.000000 0.035053
#
#
# Mechanical properties :
#
#
# Convention : Reuss Voigt Hill
#
# Bulk Modulus (GPa) = 36.57055 45.73438 41.15247
# Shear Modulus (GPa) = 26.55282 29.17423 27.86352
#
# Velocity S-wave (km/s) = 3.57712 3.74954 3.66435
# Velocity P-wave (km/s) = 5.88935 6.38630 6.14286
#
# Compressibility (1/GPa) = 0.02734440
#
# Stress axis : x y z
#
# Youngs Moduli (GPa) = 98.07900 38.68402 81.09173
#
# Poissons Ratio (x) = 0.09437 0.26384
# Poissons Ratio (y) = 0.23926 0.39117
# Poissons Ratio (z) = 0.31911 0.18660
#
# Static dielectric constant tensor:
#      x y z
#    x 1.752940 0.000000 0.000000 
#    y 0.000000 1.800010 0.000000 
#    z 0.000000 0.000000 1.854880 
# 
# From -- ./inp_files/7637.got.cif
#   From: 2010.05.17/outbox.cif.g08.bks.cpg/sg33_4_cif.got.tgz:7637.got - 2010.06.03 17:15:25.
