data_PCOD9345938
_publ_section_title
;
Structure prediction by ZEFSAII (Michael W. Deem and Ramdas Pophale) SiO2 
 PCOD9345938
Probable space group: P N A 21
;
_chemical_formula_sum "Si O2"
_cell_formula_units_Z 28
_cell_length_a 15.820513
_cell_length_b 12.871023
_cell_length_c 5.275282
_cell_angle_alpha 90.000000
_cell_angle_beta 90.000000
_cell_angle_gamma 90.000000
_cell_volume 1074.185557
_symmetry_space_group_name_H-M "P N A 21"
_symmetry_group_IT_number 33
_symmetry_cell_setting 'orthorhombic'
loop_
_space_group_symop_operation_xyz
x,y,z
-x,-y,1/2+z
1/2-x,1/2+y,1/2+z
1/2+x,1/2-y,z
loop_
_atom_site_type_symbol
_atom_site_label
_atom_site_fract_x
_atom_site_fract_y
_atom_site_fract_z
Si Si1 0.389521 0.467408 0.201590
Si Si2 0.060890 0.179881 0.747000
Si Si3 0.345722 0.758318 0.744742
Si Si4 0.615904 0.032782 0.514883
Si Si5 0.443932 0.131461 0.673805
Si Si6 0.207967 0.933973 0.193714
Si Si7 0.656648 0.742108 0.858863
O O1 0.458944 0.557038 0.228749
O O2 0.325507 0.488929 0.436341
O O3 0.406585 0.344825 0.241797
O O4 0.340615 0.472476 0.937754
O O5 0.119589 0.205037 0.502913
O O6 0.981470 0.255572 0.733848
O O7 0.390272 0.152778 0.422634
O O8 0.391793 0.711703 0.502877
O O9 0.244891 0.747836 0.714598
O O10 0.367626 0.879432 0.796616
O O11 0.612747 0.921920 0.383043
O O12 0.692545 0.050137 0.706564
O O13 0.525605 0.060143 0.632898
O O14 0.188221 0.814231 0.120913
#
# Coordination Sequence:
#
# PCOD9345938 Si02
#       7
#     4   4   4   4   4   4   4
#     4  10  22  45  71 105 135 190 247 307 351 437
#     4  11  24  45  68 107 144 193 237 306 383 439
#     4  10  23  42  72 101 145 190 248 296 360 453
#     4  10  23  43  73 104 158 190 245 302 388 441
#     4  11  24  47  67 118 147 203 235 322 382 467
#     4   9  22  44  74 100 139 190 248 302 353 441
#     4   9  24  42  71 105 140 188 258 297 365 442
#
# _framework density 26.066261000000001
#
# number of rings (size 3 to 8) (size 9 to 14) (size 15 to 20)
#    0.857    1.143    0.000    1.714    8.000    1.143 
#   12.857    0.000    0.000    0.000    0.000    0.000 
#    0.000    0.000    0.000    0.000    0.000    0.000 
#
# Total GULP energy -156800.053470 kJ/mol
# GULP energy per Si atom -5600.001910 kJ/mol
# Density = 2.600693 g / cm^3
# Si number density = 26.066261 Si / 1000 Ang^3
#
#
#
# Elastic Constant Matrix: (Units=GPa)
#
#
# Indices 1 2 3 4 5 6 
#
# 1 62.6547 43.6716 16.9574 0.0000 0.0000 0.0000
# 2 43.6716 67.1119 35.1447 0.0000 0.0000 0.0000
# 3 16.9574 35.1447 160.6566 0.0000 0.0000 0.0000
# 4 0.0000 0.0000 0.0000 -14.3138 0.0000 0.0000
# 5 0.0000 0.0000 0.0000 0.0000 20.4672 0.0000
# 6 0.0000 0.0000 0.0000 0.0000 0.0000 36.9299
#
#
#
# Elastic Compliance Matrix: (Units=1/GPa)
#
#
# Indices 1 2 3 4 5 6 
#
# 1 0.029420 -0.019785 0.001223 0.000000 0.000000 0.000000
# 2 -0.019785 0.030133 -0.004504 0.000000 0.000000 0.000000
# 3 0.001223 -0.004504 0.007081 0.000000 0.000000 0.000000
# 4 0.000000 0.000000 0.000000 -0.069862 0.000000 0.000000
# 5 0.000000 0.000000 0.000000 0.000000 0.048859 0.000000
# 6 0.000000 0.000000 0.000000 0.000000 0.000000 0.027078
#
#
# Mechanical properties :
#
#
# Convention : Reuss Voigt Hill
#
# Bulk Modulus (GPa) = 48.77385 53.55228 51.16307
# Shear Modulus (GPa) = 39.78551 21.59327 30.68939
#
# Velocity S-wave (km/s) = 3.91106 2.88131 3.43499
# Velocity P-wave (km/s) = 6.25678 5.62660 5.95003
#
# Compressibility (1/GPa) = 0.02050279
#
# Stress axis : x y z
#
# Youngs Moduli (GPa) = 33.99057 33.18578 141.23122
#
# Poissons Ratio (x) = 0.65657 -0.17269
# Poissons Ratio (y) = 0.67249 0.63605
# Poissons Ratio (z) = -0.04156 0.14946
#
# Static dielectric constant tensor:
#      x y z
#    x 2.005930 0.000000 0.000000 
#    y 0.000000 2.091610 0.000000 
#    z 0.000000 0.000000 2.048470 
# 
# From -- ./inp_files/2132.got.cif
#   From: 2010.05.17/outbox.cif.g08.bks.cpg/sg33_2_cif.got.tgz:2132.got - 2010.06.03 17:15:25.
