data_PCOD9345796
_publ_section_title
;
Structure prediction by ZEFSAII (Michael W. Deem and Ramdas Pophale) SiO2 
 PCOD9345796
Probable space group: P N A 21
;
_chemical_formula_sum "Si O2"
_cell_formula_units_Z 28
_cell_length_a 8.884064
_cell_length_b 10.791845
_cell_length_c 12.132296
_cell_angle_alpha 90.000000
_cell_angle_beta 90.000000
_cell_angle_gamma 90.000000
_cell_volume 1163.189237
_symmetry_space_group_name_H-M "P N A 21"
_symmetry_group_IT_number 33
_symmetry_cell_setting 'orthorhombic'
loop_
_space_group_symop_operation_xyz
x,y,z
-x,-y,1/2+z
1/2-x,1/2+y,1/2+z
1/2+x,1/2-y,z
loop_
_atom_site_type_symbol
_atom_site_label
_atom_site_fract_x
_atom_site_fract_y
_atom_site_fract_z
Si Si1 0.080316 0.157496 0.849520
Si Si2 0.977282 0.156265 0.210525
Si Si3 0.549898 0.870044 0.002560
Si Si4 0.988466 0.356031 0.036434
Si Si5 0.827252 0.213891 0.693246
Si Si6 0.330619 0.517122 0.544883
Si Si7 0.208364 0.267382 0.352835
O O1 0.207022 0.205233 0.762959
O O2 0.927850 0.143995 0.782510
O O3 0.118429 0.033080 0.918076
O O4 0.042505 0.264760 0.939446
O O5 0.010276 0.287851 0.151201
O O6 0.811781 0.164481 0.261487
O O7 0.023833 0.059373 0.116547
O O8 0.105092 0.159612 0.302231
O O9 0.678338 0.802471 0.933406
O O10 0.403632 0.852410 0.924497
O O11 0.563208 0.801948 0.120500
O O12 0.572021 0.014683 0.022039
O O13 0.810418 0.388434 0.041283
O O14 0.775840 0.106698 0.607616
#
# Coordination Sequence:
#
# PCOD9345796 Si02
#       7
#     4   4   4   4   4   4   4
#     4  11  26  49  73 105 145 193 247 300 376 430
#     4  10  22  43  70 103 134 181 244 293 366 424
#     4  11  25  44  68 104 144 187 248 289 375 440
#     4  11  23  45  73 100 141 191 241 300 357 462
#     4  12  26  48  72 104 152 192 240 313 364 442
#     4  11  24  45  73 106 141 186 254 295 367 442
#     4  10  22  42  67  98 141 180 230 302 347 440
#
# _framework density 24.071747999999999
#
# number of rings (size 3 to 8) (size 9 to 14) (size 15 to 20)
#    0.000    1.143    2.857    2.571    2.000    5.714 
#   10.286    0.000    0.000    0.000    0.000    0.000 
#    0.000    0.000    0.000    0.000    0.000    0.000 
#
# Total GULP energy -156378.295031 kJ/mol
# GULP energy per Si atom -5584.939108 kJ/mol
# Density = 2.401696 g / cm^3
# Si number density = 24.071748 Si / 1000 Ang^3
#
#
#
# Elastic Constant Matrix: (Units=GPa)
#
#
# Indices 1 2 3 4 5 6 
#
# 1 93.7601 13.5724 43.6507 0.0000 0.0000 0.0000
# 2 13.5724 88.2217 54.6559 0.0000 0.0000 0.0000
# 3 43.6507 54.6559 125.5505 0.0000 0.0000 0.0000
# 4 0.0000 0.0000 0.0000 18.7481 0.0000 0.0000
# 5 0.0000 0.0000 0.0000 0.0000 55.1456 0.0000
# 6 0.0000 0.0000 0.0000 0.0000 0.0000 25.8854
#
#
#
# Elastic Compliance Matrix: (Units=1/GPa)
#
#
# Indices 1 2 3 4 5 6 
#
# 1 0.012800 0.001079 -0.004920 0.000000 0.000000 0.000000
# 2 0.001079 0.015612 -0.007171 0.000000 0.000000 0.000000
# 3 -0.004920 -0.007171 0.012797 0.000000 0.000000 0.000000
# 4 0.000000 0.000000 0.000000 0.053339 0.000000 0.000000
# 5 0.000000 0.000000 0.000000 0.000000 0.018134 0.000000
# 6 0.000000 0.000000 0.000000 0.000000 0.000000 0.038632
#
#
# Mechanical properties :
#
#
# Convention : Reuss Voigt Hill
#
# Bulk Modulus (GPa) = 52.12605 59.03225 55.57915
# Shear Modulus (GPa) = 27.81900 32.99937 30.40919
#
# Velocity S-wave (km/s) = 3.40320 3.70655 3.55811
# Velocity P-wave (km/s) = 6.09458 6.54941 6.32608
#
# Compressibility (1/GPa) = 0.01918427
#
# Stress axis : x y z
#
# Youngs Moduli (GPa) = 78.12621 64.05313 78.14114
#
# Poissons Ratio (x) = -0.06910 0.38444
# Poissons Ratio (y) = -0.08428 0.56039
# Poissons Ratio (z) = 0.38436 0.45935
#
# Static dielectric constant tensor:
#      x y z
#    x 1.911620 0.000000 0.000000 
#    y 0.000000 1.940360 0.000000 
#    z 0.000000 0.000000 1.964330 
# 
# From -- ./inp_files/5866.got.cif
#   From: 2010.05.17/outbox.cif.g08.bks.cpg/sg33_3_cif.got.tgz:5866.got - 2010.06.03 17:15:25.
