data_PCOD9345266
_publ_section_title
;
Structure prediction by ZEFSAII (Michael W. Deem and Ramdas Pophale) SiO2 
 PCOD9345266
Probable space group: P N A 21
;
_chemical_formula_sum "Si O2"
_cell_formula_units_Z 32
_cell_length_a 16.943946
_cell_length_b 10.618056
_cell_length_c 8.731261
_cell_angle_alpha 90.000000
_cell_angle_beta 90.000000
_cell_angle_gamma 90.000000
_cell_volume 1570.856599
_symmetry_space_group_name_H-M "P N A 21"
_symmetry_group_IT_number 33
_symmetry_cell_setting 'orthorhombic'
loop_
_space_group_symop_operation_xyz
x,y,z
-x,-y,1/2+z
1/2-x,1/2+y,1/2+z
1/2+x,1/2-y,z
loop_
_atom_site_type_symbol
_atom_site_label
_atom_site_fract_x
_atom_site_fract_y
_atom_site_fract_z
Si Si1 0.297509 0.869094 0.304590
Si Si2 0.646852 0.539279 0.460436
Si Si3 0.906754 0.581873 0.904051
Si Si4 0.138155 0.176199 0.216511
Si Si5 0.745228 0.977132 0.524971
Si Si6 0.640638 0.415329 0.780485
Si Si7 0.007911 0.185906 0.948987
Si Si8 0.964594 0.571155 0.248623
O O1 0.231293 0.898610 0.427367
O O2 0.326595 0.726426 0.303183
O O3 0.376564 0.953989 0.315033
O O4 0.260667 0.906998 0.141917
O O5 0.625312 0.448346 0.318664
O O6 0.651153 0.453273 0.608395
O O7 0.578598 0.640189 0.488544
O O8 0.863998 0.703360 0.829274
O O9 0.972321 0.536555 0.782628
O O10 0.840427 0.476056 0.944357
O O11 0.949638 0.603783 0.069451
O O12 0.219090 0.140185 0.123788
O O13 0.068078 0.194464 0.092349
O O14 0.808634 0.000407 0.393431
O O15 0.550897 0.413868 0.836406
O O16 0.005082 0.312524 0.850039
#
# Coordination Sequence:
#
# PCOD9345266 Si02
#       8
#     4   4   4   4   4   4   4   4
#     4   9  21  41  58  88 124 160 208 260 312 379
#     4  11  21  37  66  87 124 165 212 259 319 385
#     4  11  22  41  67  90 129 170 214 263 328 381
#     4  10  21  39  63  91 126 169 207 272 322 378
#     4   9  21  38  61  88 124 163 209 254 316 383
#     4  10  21  38  61  90 124 163 202 265 318 366
#     4  10  21  38  60  90 125 162 213 264 319 383
#     4  10  22  40  62  90 126 162 211 267 316 389
#
# _framework density 20.371051999999999
#
# number of rings (size 3 to 8) (size 9 to 14) (size 15 to 20)
#    0.000    2.000    0.000    3.750    1.750    4.000 
#    0.000    1.250   16.500    0.000    0.000    0.000 
#    0.000    0.000    0.000    0.000    0.000    0.000 
#
# Total GULP energy -178412.172325 kJ/mol
# GULP energy per Si atom -5575.380385 kJ/mol
# Density = 2.032469 g / cm^3
# Si number density = 20.371052 Si / 1000 Ang^3
#
#
#
# Elastic Constant Matrix: (Units=GPa)
#
#
# Indices 1 2 3 4 5 6 
#
# 1 97.0571 35.7165 25.0910 0.0000 0.0000 0.0000
# 2 35.7165 53.2987 22.1035 0.0000 0.0000 0.0000
# 3 25.0910 22.1035 86.0642 0.0000 0.0000 0.0000
# 4 0.0000 0.0000 0.0000 32.6689 0.0000 0.0000
# 5 0.0000 0.0000 0.0000 0.0000 25.4437 0.0000
# 6 0.0000 0.0000 0.0000 0.0000 0.0000 25.7805
#
#
#
# Elastic Compliance Matrix: (Units=1/GPa)
#
#
# Indices 1 2 3 4 5 6 
#
# 1 0.013938 -0.008567 -0.001863 0.000000 0.000000 0.000000
# 2 -0.008567 0.026265 -0.004248 0.000000 0.000000 0.000000
# 3 -0.001863 -0.004248 0.013253 0.000000 0.000000 0.000000
# 4 0.000000 0.000000 0.000000 0.030610 0.000000 0.000000
# 5 0.000000 0.000000 0.000000 0.000000 0.039302 0.000000
# 6 0.000000 0.000000 0.000000 0.000000 0.000000 0.038789
#
#
# Mechanical properties :
#
#
# Convention : Reuss Voigt Hill
#
# Bulk Modulus (GPa) = 41.49448 44.69355 43.09402
# Shear Modulus (GPa) = 25.05681 27.01257 26.03469
#
# Velocity S-wave (km/s) = 3.51097 3.64542 3.57882
# Velocity P-wave (km/s) = 6.07037 6.30128 6.18690
#
# Compressibility (1/GPa) = 0.02409959
#
# Stress axis : x y z
#
# Youngs Moduli (GPa) = 71.74869 38.07369 75.45280
#
# Poissons Ratio (x) = 0.32619 0.14057
# Poissons Ratio (y) = 0.61469 0.32051
# Poissons Ratio (z) = 0.13367 0.16173
#
# Static dielectric constant tensor:
#      x y z
#    x 1.766520 0.000000 0.000000 
#    y 0.000000 1.734130 0.000000 
#    z 0.000000 0.000000 1.736930 
# 
# From -- ./inp_files/4452.got.cif
#   From: 2010.05.17/outbox.cif.g08.bks.cpg/sg33_3_cif.got.tgz:4452.got - 2010.06.03 17:15:25.
