data_PCOD9345435
_publ_section_title
;
Structure prediction by ZEFSAII (Michael W. Deem and Ramdas Pophale) SiO2 
 PCOD9345435
Probable space group: P N A 21
;
_chemical_formula_sum "Si O2"
_cell_formula_units_Z 32
_cell_length_a 18.534041
_cell_length_b 8.176867
_cell_length_c 8.557839
_cell_angle_alpha 90.000000
_cell_angle_beta 90.000000
_cell_angle_gamma 90.000000
_cell_volume 1296.943823
_symmetry_space_group_name_H-M "P N A 21"
_symmetry_group_IT_number 33
_symmetry_cell_setting 'orthorhombic'
loop_
_space_group_symop_operation_xyz
x,y,z
-x,-y,1/2+z
1/2-x,1/2+y,1/2+z
1/2+x,1/2-y,z
loop_
_atom_site_type_symbol
_atom_site_label
_atom_site_fract_x
_atom_site_fract_y
_atom_site_fract_z
Si Si1 0.214793 0.184196 0.858120
Si Si2 0.645735 0.445005 0.543512
Si Si3 0.218090 0.576083 0.870029
Si Si4 0.000964 0.951837 0.185394
Si Si5 0.415331 0.155961 0.579935
Si Si6 0.565417 0.323113 0.978349
Si Si7 0.519357 0.989010 0.380733
Si Si8 0.649204 0.831893 0.545711
O O1 0.189327 0.095502 0.701990
O O2 0.219300 0.380382 0.842054
O O3 0.150471 0.160342 0.982368
O O4 0.289419 0.118595 0.922416
O O5 0.699220 0.377424 0.410738
O O6 0.565670 0.384499 0.580589
O O7 0.635069 0.639369 0.520894
O O8 0.183130 0.651558 0.716311
O O9 0.164199 0.623319 0.013245
O O10 0.967664 0.953402 0.356753
O O11 0.068355 0.829280 0.162236
O O12 0.027449 0.130224 0.137469
O O13 0.441776 0.026594 0.713228
O O14 0.470306 0.137945 0.434543
O O15 0.539842 0.156922 0.897394
O O16 0.580141 0.942026 0.508785
#
# Coordination Sequence:
#
# PCOD9345435 Si02
#       8
#     4   4   4   4   4   4   4   4
#     4  10  23  44  62  90 128 163 207 263 307 369
#     4  10  23  44  63  91 127 163 211 258 310 375
#     4  11  24  43  65  92 126 166 210 258 316 373
#     4  10  23  39  64  93 122 164 203 254 309 369
#     4  11  24  41  64  96 124 167 207 256 313 371
#     4  10  21  41  62  90 125 158 201 255 309 363
#     4  11  22  41  64  92 127 160 207 255 310 368
#     4  11  24  41  66  92 123 169 206 259 316 370
#
# _framework density 24.673389
#
# number of rings (size 3 to 8) (size 9 to 14) (size 15 to 20)
#    0.000    1.500    2.500    1.500    7.000    3.000 
#    6.750    0.000    0.000    0.000    0.000    0.000 
#    0.000    0.000    0.000    0.000    0.000    0.000 
#
# Total GULP energy -178921.133747 kJ/mol
# GULP energy per Si atom -5591.285430 kJ/mol
# Density = 2.461723 g / cm^3
# Si number density = 24.673389 Si / 1000 Ang^3
#
#
#
# Elastic Constant Matrix: (Units=GPa)
#
#
# Indices 1 2 3 4 5 6 
#
# 1 93.4913 6.3110 5.1405 0.0000 0.0000 0.0000
# 2 6.3110 35.4200 0.3607 0.0000 0.0000 0.0000
# 3 5.1405 0.3607 59.0250 0.0000 0.0000 0.0000
# 4 0.0000 0.0000 0.0000 31.1983 0.0000 0.0000
# 5 0.0000 0.0000 0.0000 0.0000 41.9167 0.0000
# 6 0.0000 0.0000 0.0000 0.0000 0.0000 19.7960
#
#
#
# Elastic Compliance Matrix: (Units=1/GPa)
#
#
# Indices 1 2 3 4 5 6 
#
# 1 0.010878 -0.001929 -0.000936 0.000000 0.000000 0.000000
# 2 -0.001929 0.028576 -0.000007 0.000000 0.000000 0.000000
# 3 -0.000936 -0.000007 0.017024 0.000000 0.000000 0.000000
# 4 0.000000 0.000000 0.000000 0.032053 0.000000 0.000000
# 5 0.000000 0.000000 0.000000 0.000000 0.023857 0.000000
# 6 0.000000 0.000000 0.000000 0.000000 0.000000 0.050515
#
#
# Mechanical properties :
#
#
# Convention : Reuss Voigt Hill
#
# Bulk Modulus (GPa) = 19.70991 23.50675 21.60833
# Shear Modulus (GPa) = 26.94595 30.32380 28.63488
#
# Velocity S-wave (km/s) = 3.30829 3.50952 3.41039
# Velocity P-wave (km/s) = 4.75381 5.09610 4.92793
#
# Compressibility (1/GPa) = 0.05073589
#
# Stress axis : x y z
#
# Youngs Moduli (GPa) = 91.93020 34.99396 58.74232
#
# Poissons Ratio (x) = 0.06749 0.05496
# Poissons Ratio (y) = 0.17730 0.00039
# Poissons Ratio (z) = 0.08601 0.00023
#
# Static dielectric constant tensor:
#      x y z
#    x 1.931030 0.000000 0.000000 
#    y 0.000000 1.976830 0.000000 
#    z 0.000000 0.000000 2.017070 
# 
# From -- ./inp_files/4973.got.cif
#   From: 2010.05.17/outbox.cif.g08.bks.cpg/sg33_3_cif.got.tgz:4973.got - 2010.06.03 17:15:25.
