data_PCOD9345903
_publ_section_title
;
Structure prediction by ZEFSAII (Michael W. Deem and Ramdas Pophale) SiO2 
 PCOD9345903
Probable space group: P N A 21
;
_chemical_formula_sum "Si O2"
_cell_formula_units_Z 32
_cell_length_a 5.283226
_cell_length_b 31.030249
_cell_length_c 8.644132
_cell_angle_alpha 90.000000
_cell_angle_beta 90.000000
_cell_angle_gamma 90.000000
_cell_volume 1417.117429
_symmetry_space_group_name_H-M "P N A 21"
_symmetry_group_IT_number 33
_symmetry_cell_setting 'orthorhombic'
loop_
_space_group_symop_operation_xyz
x,y,z
-x,-y,1/2+z
1/2-x,1/2+y,1/2+z
1/2+x,1/2-y,z
loop_
_atom_site_type_symbol
_atom_site_label
_atom_site_fract_x
_atom_site_fract_y
_atom_site_fract_z
Si Si1 0.699066 0.049616 0.109090
Si Si2 0.307997 0.129782 0.757937
Si Si3 0.120615 0.635001 0.622424
Si Si4 0.653602 0.002572 0.801081
Si Si5 0.939304 0.918889 0.814737
Si Si6 0.191144 0.918014 0.128104
Si Si7 0.056570 0.724795 0.746529
Si Si8 0.076795 0.723672 0.118955
O O1 0.564246 0.094649 0.141581
O O2 0.985013 0.060209 0.148688
O O3 0.604221 0.012776 0.223890
O O4 0.629296 0.034865 0.941369
O O5 0.550365 0.102987 0.693024
O O6 0.350827 0.177868 0.692139
O O7 0.051769 0.106877 0.698314
O O8 0.293471 0.132949 0.944349
O O9 0.321243 0.625876 0.760892
O O10 0.999567 0.680547 0.659715
O O11 0.804574 0.031594 0.676465
O O12 0.765719 0.958250 0.872288
O O13 0.153894 0.913736 0.943325
O O14 0.335079 0.741871 0.705269
O O15 0.062024 0.718729 0.932349
O O16 0.301332 0.757203 0.161779
#
# Coordination Sequence:
#
# PCOD9345903 Si02
#       8
#     4   4   4   4   4   4   4   4
#     4  11  24  43  67 100 141 186 241 299 353 427
#     4  12  27  45  70 104 142 183 227 295 356 427
#     4  11  26  44  69 105 142 184 235 297 357 424
#     4  11  24  42  67  97 141 188 244 292 366 413
#     4  11  26  41  71  97 138 191 243 298 349 434
#     4  12  27  44  70 101 140 186 238 291 355 421
#     4  10  24  43  72 102 138 182 230 286 349 430
#     4  10  22  44  70 100 136 178 228 284 351 430
#
# _framework density 22.581050999999999
#
# number of rings (size 3 to 8) (size 9 to 14) (size 15 to 20)
#    0.000    1.000    1.250    3.750   10.500    4.000 
#    0.000    0.000    0.000    0.000    0.000    0.000 
#    0.000    0.000    0.000    0.000    0.000    0.000 
#
# Total GULP energy -178754.581198 kJ/mol
# GULP energy per Si atom -5586.080662 kJ/mol
# Density = 2.252966 g / cm^3
# Si number density = 22.581051 Si / 1000 Ang^3
#
#
#
# Elastic Constant Matrix: (Units=GPa)
#
#
# Indices 1 2 3 4 5 6 
#
# 1 75.6222 13.8694 4.8476 0.0000 0.0000 0.0000
# 2 13.8694 83.0646 18.2824 0.0000 0.0000 0.0000
# 3 4.8476 18.2824 63.0428 0.0000 0.0000 0.0000
# 4 0.0000 0.0000 0.0000 42.9537 0.0000 0.0000
# 5 0.0000 0.0000 0.0000 0.0000 22.0851 0.0000
# 6 0.0000 0.0000 0.0000 0.0000 0.0000 28.1529
#
#
#
# Elastic Compliance Matrix: (Units=1/GPa)
#
#
# Indices 1 2 3 4 5 6 
#
# 1 0.013652 -0.002188 -0.000415 0.000000 0.000000 0.000000
# 2 -0.002188 0.013210 -0.003663 0.000000 0.000000 0.000000
# 3 -0.000415 -0.003663 0.016956 0.000000 0.000000 0.000000
# 4 0.000000 0.000000 0.000000 0.023281 0.000000 0.000000
# 5 0.000000 0.000000 0.000000 0.000000 0.045279 0.000000
# 6 0.000000 0.000000 0.000000 0.000000 0.000000 0.035520
#
#
# Mechanical properties :
#
#
# Convention : Reuss Voigt Hill
#
# Bulk Modulus (GPa) = 31.96289 32.85872 32.41081
# Shear Modulus (GPa) = 29.26381 30.95369 30.10875
#
# Velocity S-wave (km/s) = 3.60383 3.70642 3.65549
# Velocity P-wave (km/s) = 5.61269 5.73584 5.67460
#
# Compressibility (1/GPa) = 0.03128628
#
# Stress axis : x y z
#
# Youngs Moduli (GPa) = 73.25185 75.69835 58.97490
#
# Poissons Ratio (x) = 0.16563 0.02449
# Poissons Ratio (y) = 0.16028 0.21601
# Poissons Ratio (z) = 0.03041 0.27726
#
# Static dielectric constant tensor:
#      x y z
#    x 1.938940 0.000000 0.000000 
#    y 0.000000 1.811560 0.000000 
#    z 0.000000 0.000000 1.873720 
# 
# From -- ./inp_files/2859.got.cif
#   From: 2010.05.17/outbox.cif.g08.bks.cpg/sg33_2_cif.got.tgz:2859.got - 2010.06.03 17:15:25.
