data_PCOD9345289
_publ_section_title
;
Structure prediction by ZEFSAII (Michael W. Deem and Ramdas Pophale) SiO2 
 PCOD9345289
Probable space group: P N A 21
;
_chemical_formula_sum "Si O2"
_cell_formula_units_Z 28
_cell_length_a 10.326192
_cell_length_b 18.947072
_cell_length_c 6.887529
_cell_angle_alpha 90.000000
_cell_angle_beta 90.000000
_cell_angle_gamma 90.000000
_cell_volume 1347.552648
_symmetry_space_group_name_H-M "P N A 21"
_symmetry_group_IT_number 33
_symmetry_cell_setting 'orthorhombic'
loop_
_space_group_symop_operation_xyz
x,y,z
-x,-y,1/2+z
1/2-x,1/2+y,1/2+z
1/2+x,1/2-y,z
loop_
_atom_site_type_symbol
_atom_site_label
_atom_site_fract_x
_atom_site_fract_y
_atom_site_fract_z
Si Si1 0.991512 0.559130 0.064140
Si Si2 0.369468 0.574884 0.642050
Si Si3 0.491014 0.817225 0.778823
Si Si4 0.088617 0.409362 0.966559
Si Si5 0.728431 0.400478 0.728991
Si Si6 0.638990 0.527993 0.494402
Si Si7 0.284423 0.703727 0.910301
O O1 0.133009 0.578744 0.143449
O O2 0.899916 0.586131 0.234092
O O3 0.973208 0.605640 0.874760
O O4 0.997534 0.476768 0.017541
O O5 0.277667 0.588814 0.457954
O O6 0.511328 0.571430 0.546016
O O7 0.351503 0.505617 0.777590
O O8 0.343277 0.639340 0.785417
O O9 0.469150 0.837250 0.553007
O O10 0.376502 0.768823 0.860740
O O11 0.633646 0.789523 0.841742
O O12 0.232915 0.426929 0.040198
O O13 0.635783 0.459557 0.634748
O O14 0.704905 0.323606 0.633640
#
# Coordination Sequence:
#
# PCOD9345289 Si02
#       7
#     4   4   4   4   4   4   4
#     4  10  21  38  64  94 125 163 211 272 327 379
#     4  11  20  40  62  92 134 169 213 275 320 401
#     4  11  24  46  65  95 134 169 223 269 321 404
#     4  11  22  37  64  99 123 167 217 273 330 383
#     4   9  20  39  61  88 129 168 208 263 325 383
#     4  10  22  34  60  99 126 166 217 262 336 379
#     4  10  25  42  66  91 129 182 215 262 335 391
#
# _framework density 20.778410000000001
#
# number of rings (size 3 to 8) (size 9 to 14) (size 15 to 20)
#    0.000    1.714    2.857    1.714    4.000    1.143 
#    2.571    0.000    0.000    0.000    0.000    0.000 
#    0.000    0.000    0.000    0.000    0.000    0.000 
#
# Total GULP energy -156122.754948 kJ/mol
# GULP energy per Si atom -5575.812677 kJ/mol
# Density = 2.073112 g / cm^3
# Si number density = 20.778410 Si / 1000 Ang^3
#
#
#
# Elastic Constant Matrix: (Units=GPa)
#
#
# Indices 1 2 3 4 5 6 
#
# 1 106.0767 45.7708 7.4317 0.0000 0.0000 0.0000
# 2 45.7708 47.4099 3.7452 0.0000 0.0000 0.0000
# 3 7.4317 3.7452 78.5127 0.0000 0.0000 0.0000
# 4 0.0000 0.0000 0.0000 14.0517 0.0000 0.0000
# 5 0.0000 0.0000 0.0000 0.0000 24.7443 0.0000
# 6 0.0000 0.0000 0.0000 0.0000 0.0000 17.8694
#
#
#
# Elastic Compliance Matrix: (Units=1/GPa)
#
#
# Indices 1 2 3 4 5 6 
#
# 1 0.016207 -0.015584 -0.000791 0.000000 0.000000 0.000000
# 2 -0.015584 0.036158 -0.000250 0.000000 0.000000 0.000000
# 3 -0.000791 -0.000250 0.012824 0.000000 0.000000 0.000000
# 4 0.000000 0.000000 0.000000 0.071166 0.000000 0.000000
# 5 0.000000 0.000000 0.000000 0.000000 0.040413 0.000000
# 6 0.000000 0.000000 0.000000 0.000000 0.000000 0.055962
#
#
# Mechanical properties :
#
#
# Convention : Reuss Voigt Hill
#
# Bulk Modulus (GPa) = 31.30949 38.43274 34.87111
# Shear Modulus (GPa) = 18.07508 23.00320 20.53914
#
# Velocity S-wave (km/s) = 2.95260 3.33088 3.14743
# Velocity P-wave (km/s) = 5.16960 5.77318 5.47971
#
# Compressibility (1/GPa) = 0.03193920
#
# Stress axis : x y z
#
# Youngs Moduli (GPa) = 61.70216 27.65667 77.98160
#
# Poissons Ratio (x) = 0.43100 0.06166
# Poissons Ratio (y) = 0.96157 0.01947
# Poissons Ratio (z) = 0.04879 0.00690
#
# Static dielectric constant tensor:
#      x y z
#    x 1.771770 0.000000 0.000000 
#    y 0.000000 1.734920 0.000000 
#    z 0.000000 0.000000 1.839370 
# 
# From -- ./inp_files/994.got.cif
#   From: 2010.05.17/outbox.cif.g08.bks.cpg/sg33_1_cif.got.tgz:994.got - 2010.06.03 17:15:25.
