data_PCOD9345649
_publ_section_title
;
Structure prediction by ZEFSAII (Michael W. Deem and Ramdas Pophale) SiO2 
 PCOD9345649
Probable space group: P N A 21
;
_chemical_formula_sum "Si O2"
_cell_formula_units_Z 20
_cell_length_a 6.209869
_cell_length_b 21.511910
_cell_length_c 6.678724
_cell_angle_alpha 90.000000
_cell_angle_beta 90.000000
_cell_angle_gamma 90.000000
_cell_volume 892.184980
_symmetry_space_group_name_H-M "P N A 21"
_symmetry_group_IT_number 33
_symmetry_cell_setting 'orthorhombic'
loop_
_space_group_symop_operation_xyz
x,y,z
-x,-y,1/2+z
1/2-x,1/2+y,1/2+z
1/2+x,1/2-y,z
loop_
_atom_site_type_symbol
_atom_site_label
_atom_site_fract_x
_atom_site_fract_y
_atom_site_fract_z
Si Si1 0.999164 0.884109 0.596770
Si Si2 0.235631 0.871450 0.197772
Si Si3 0.258621 0.965260 0.830520
Si Si4 0.329364 0.277224 0.362509
Si Si5 0.071853 0.592859 0.496209
O O1 0.063981 0.889842 0.366387
O O2 0.034063 0.947688 0.722206
O O3 0.144463 0.831561 0.697424
O O4 0.750440 0.867042 0.608055
O O5 0.450495 0.867537 0.329678
O O6 0.267269 0.924773 0.032052
O O7 0.169423 0.810200 0.079951
O O8 0.421700 0.939087 0.662171
O O9 0.315663 0.035132 0.882813
O O10 0.573963 0.245538 0.345750
#
# Coordination Sequence:
#
# PCOD9345649 Si02
#       5
#     4   4   4   4   4
#     4  10  26  41  68  99 138 181 238 295 351 435
#     4  10  24  44  66 102 131 182 235 287 354 426
#     4  10  22  39  61 101 141 185 226 279 352 426
#     4  11  28  50  75 101 140 185 245 312 367 414
#     4  11  22  40  66  97 146 183 230 285 350 439
#
# _framework density 22.416876999999999
#
# number of rings (size 3 to 8) (size 9 to 14) (size 15 to 20)
#    0.000    1.600    2.000    0.000   14.000    3.200 
#    0.000    0.000    0.000    0.000    0.000    0.000 
#    0.000    0.000    0.000    0.000    0.000    0.000 
#
# Total GULP energy -111397.441058 kJ/mol
# GULP energy per Si atom -5569.872053 kJ/mol
# Density = 2.236586 g / cm^3
# Si number density = 22.416877 Si / 1000 Ang^3
#
#
#
# Elastic Constant Matrix: (Units=GPa)
#
#
# Indices 1 2 3 4 5 6 
#
# 1 140.8069 46.4214 39.8517 0.0000 0.0000 0.0000
# 2 46.4214 60.2164 25.3134 0.0000 0.0000 0.0000
# 3 39.8517 25.3134 119.5389 0.0000 0.0000 0.0000
# 4 0.0000 0.0000 0.0000 25.2844 0.0000 0.0000
# 5 0.0000 0.0000 0.0000 0.0000 3.7911 0.0000
# 6 0.0000 0.0000 0.0000 0.0000 0.0000 27.1242
#
#
#
# Elastic Compliance Matrix: (Units=1/GPa)
#
#
# Indices 1 2 3 4 5 6 
#
# 1 0.009879 -0.006840 -0.001845 0.000000 0.000000 0.000000
# 2 -0.006840 0.022966 -0.002583 0.000000 0.000000 0.000000
# 3 -0.001845 -0.002583 0.009527 0.000000 0.000000 0.000000
# 4 0.000000 0.000000 0.000000 0.039550 0.000000 0.000000
# 5 0.000000 0.000000 0.000000 0.000000 0.263774 0.000000
# 6 0.000000 0.000000 0.000000 0.000000 0.000000 0.036867
#
#
# Mechanical properties :
#
#
# Convention : Reuss Voigt Hill
#
# Bulk Modulus (GPa) = 50.41292 60.41503 55.41398
# Shear Modulus (GPa) = 12.14440 25.17167 18.65803
#
# Velocity S-wave (km/s) = 2.33008 3.35459 2.88813
# Velocity P-wave (km/s) = 5.45680 6.48179 5.99125
#
# Compressibility (1/GPa) = 0.01983618
#
# Stress axis : x y z
#
# Youngs Moduli (GPa) = 101.22212 43.54297 104.95939
#
# Poissons Ratio (x) = 0.29785 0.19365
# Poissons Ratio (y) = 0.69240 0.27108
# Poissons Ratio (z) = 0.18676 0.11246
#
# Static dielectric constant tensor:
#      x y z
#    x 1.984030 0.000000 0.000000 
#    y 0.000000 1.852770 0.000000 
#    z 0.000000 0.000000 1.780640 
# 
# From -- ./inp_files/126.got.cif
#   From: 2010.05.17/outbox.cif.g08.bks.cpg/sg33_1_cif.got.tgz:126.got - 2010.06.03 17:15:25.
