data_PCOD9345444
_publ_section_title
;
Structure prediction by ZEFSAII (Michael W. Deem and Ramdas Pophale) SiO2 
 PCOD9345444
Probable space group: P N A 21
;
_chemical_formula_sum "Si O2"
_cell_formula_units_Z 28
_cell_length_a 15.777609
_cell_length_b 8.294446
_cell_length_c 10.074545
_cell_angle_alpha 90.000000
_cell_angle_beta 90.000000
_cell_angle_gamma 90.000000
_cell_volume 1318.420704
_symmetry_space_group_name_H-M "P N A 21"
_symmetry_group_IT_number 33
_symmetry_cell_setting 'orthorhombic'
loop_
_space_group_symop_operation_xyz
x,y,z
-x,-y,1/2+z
1/2-x,1/2+y,1/2+z
1/2+x,1/2-y,z
loop_
_atom_site_type_symbol
_atom_site_label
_atom_site_fract_x
_atom_site_fract_y
_atom_site_fract_z
Si Si1 0.000000 0.681186 0.617810
Si Si2 0.322788 0.361341 0.057169
Si Si3 0.139740 0.102348 0.773297
Si Si4 0.677213 0.361336 0.057169
Si Si5 1.000000 0.309044 0.652428
Si Si6 0.639739 0.602347 0.273295
Si Si7 0.499999 0.353421 0.372898
O O1 0.084542 0.773961 0.566621
O O2 0.000001 0.489975 0.597013
O O3 0.915457 0.773957 0.566621
O O4 0.000000 0.699737 0.777705
O O5 0.322988 0.527734 0.138855
O O6 0.250001 0.250003 0.118724
O O7 0.302409 0.381127 0.901798
O O8 0.082896 0.258060 0.737101
O O9 0.197593 0.118881 0.901799
O O10 0.077826 0.962534 0.827918
O O11 0.677013 0.527728 0.138855
O O12 0.000000 0.189306 0.525998
O O13 0.917101 0.258064 0.737097
O O14 0.577819 0.462540 0.327913
#
# Coordination Sequence:
#
# PCOD9345444 Si02
#       7
#     4   4   4   4   4   4   4
#     4  10  24  39  64 100 127 168 209 270 313 377
#     4  11  24  45  66  92 133 165 218 263 317 383
#     4  10  21  41  63  91 124 176 210 256 320 380
#     4  11  24  45  66  92 133 165 218 263 317 383
#     4  11  20  36  71  95 128 170 212 262 320 380
#     4  10  21  41  63  91 124 176 210 256 320 380
#     4   9  18  37  63  91 123 164 217 252 313 377
#
# _framework density 21.237532000000002
#
# number of rings (size 3 to 8) (size 9 to 14) (size 15 to 20)
#    0.000    1.714    2.857    2.571    4.000    2.286 
#    5.143    1.429    0.000    0.000    0.000    0.000 
#    0.000    0.000    0.000    0.000    0.000    0.000 
#
# Total GULP energy -156114.928386 kJ/mol
# GULP energy per Si atom -5575.533157 kJ/mol
# Density = 2.118919 g / cm^3
# Si number density = 21.237532 Si / 1000 Ang^3
#
#
#
# Elastic Constant Matrix: (Units=GPa)
#
#
# Indices 1 2 3 4 5 6 
#
# 1 50.7116 7.7148 -8.1034 0.0000 0.0000 0.0000
# 2 7.7148 74.3107 3.7194 0.0000 0.0000 0.0000
# 3 -8.1034 3.7194 108.9227 0.0000 0.0000 0.0000
# 4 0.0000 0.0000 0.0000 26.3663 0.0000 0.0000
# 5 0.0000 0.0000 0.0000 0.0000 -9.9114 0.0000
# 6 0.0000 0.0000 0.0000 0.0000 0.0000 8.4051
#
#
#
# Elastic Compliance Matrix: (Units=1/GPa)
#
#
# Indices 1 2 3 4 5 6 
#
# 1 0.020305 -0.002187 0.001585 0.000000 0.000000 0.000000
# 2 -0.002187 0.013716 -0.000631 0.000000 0.000000 0.000000
# 3 0.001585 -0.000631 0.009320 0.000000 0.000000 0.000000
# 4 0.000000 0.000000 0.000000 0.037927 0.000000 0.000000
# 5 0.000000 0.000000 0.000000 0.000000 -0.100894 0.000000
# 6 0.000000 0.000000 0.000000 0.000000 0.000000 0.118976
#
#
# Mechanical properties :
#
#
# Convention : Reuss Voigt Hill
#
# Bulk Modulus (GPa) = 24.46476 26.73406 25.59941
# Shear Modulus (GPa) = 43.31178 20.34629 31.82903
#
# Velocity S-wave (km/s) = 4.52087 3.09857 3.87553
# Velocity P-wave (km/s) = 6.22861 5.04152 5.66624
#
# Compressibility (1/GPa) = 0.04087513
#
# Stress axis : x y z
#
# Youngs Moduli (GPa) = 49.24787 72.90922 107.29254
#
# Poissons Ratio (x) = 0.15948 -0.17009
# Poissons Ratio (y) = 0.10773 0.06771
# Poissons Ratio (z) = -0.07807 0.04601
#
# Static dielectric constant tensor:
#      x y z
#    x 1.886240 0.000000 0.000000 
#    y 0.000000 1.793920 0.000000 
#    z 0.000000 0.000000 1.802180 
# 
# From -- ./inp_files/4777.got.cif
#   From: 2010.05.17/outbox.cif.g08.bks.cpg/sg33_3_cif.got.tgz:4777.got - 2010.06.03 17:15:25.
