data_PCOD9345697
_publ_section_title
;
Structure prediction by ZEFSAII (Michael W. Deem and Ramdas Pophale) SiO2 
 PCOD9345697
Probable space group: P N A 21
;
_chemical_formula_sum "Si O2"
_cell_formula_units_Z 32
_cell_length_a 5.279001
_cell_length_b 18.934242
_cell_length_c 12.659163
_cell_angle_alpha 90.000000
_cell_angle_beta 90.000000
_cell_angle_gamma 90.000000
_cell_volume 1265.332490
_symmetry_space_group_name_H-M "P N A 21"
_symmetry_group_IT_number 33
_symmetry_cell_setting 'orthorhombic'
loop_
_space_group_symop_operation_xyz
x,y,z
-x,-y,1/2+z
1/2-x,1/2+y,1/2+z
1/2+x,1/2-y,z
loop_
_atom_site_type_symbol
_atom_site_label
_atom_site_fract_x
_atom_site_fract_y
_atom_site_fract_z
Si Si1 0.238382 0.559841 0.982770
Si Si2 0.431626 0.409955 0.305054
Si Si3 0.360522 0.543378 0.594963
Si Si4 0.333393 0.298318 0.782225
Si Si5 0.072267 0.409156 0.668417
Si Si6 0.652768 0.204471 0.991895
Si Si7 0.659940 0.955166 0.375186
Si Si8 0.616511 0.203605 0.230527
O O1 0.396398 0.608350 0.903870
O O2 0.065186 0.507028 0.913373
O O3 0.415416 0.508172 0.053993
O O4 0.078450 0.607078 0.062906
O O5 0.561651 0.406121 0.190377
O O6 0.368527 0.491367 0.328568
O O7 0.181867 0.362667 0.302622
O O8 0.160475 0.489291 0.646857
O O9 0.252580 0.577195 0.486783
O O10 0.600255 0.258149 0.777254
O O11 0.298868 0.355490 0.690834
O O12 0.263824 0.339142 0.893356
O O13 0.906966 0.408038 0.774996
O O14 0.368678 0.234366 0.983216
O O15 0.650806 0.176125 0.109852
O O16 0.347792 0.240828 0.244652
#
# Coordination Sequence:
#
# PCOD9345697 Si02
#       8
#     4   4   4   4   4   4   4   4
#     4  10  22  41  62  96 130 162 215 280 328 394
#     4  11  22  41  68  92 135 168 219 270 334 397
#     4  10  22  40  65  97 125 168 214 275 337 394
#     4  10  23  41  64  94 132 179 224 271 328 398
#     4  11  22  41  68  92 135 168 219 270 334 397
#     4   8  16  37  56  84 124 160 209 264 308 364
#     4  10  22  40  65  97 125 168 214 275 337 394
#     4  10  23  41  64  94 132 179 224 271 328 398
#
# _framework density 25.289795000000002
#
# number of rings (size 3 to 8) (size 9 to 14) (size 15 to 20)
#    0.000    2.000    2.500    0.000    3.500    1.000 
#   13.500    1.250    0.000    0.000    0.000    0.000 
#    0.000    0.000    0.000    0.000    0.000    0.000 
#
# Total GULP energy -178927.214321 kJ/mol
# GULP energy per Si atom -5591.475448 kJ/mol
# Density = 2.523223 g / cm^3
# Si number density = 25.289795 Si / 1000 Ang^3
#
#
#
# Elastic Constant Matrix: (Units=GPa)
#
#
# Indices 1 2 3 4 5 6 
#
# 1 96.4979 19.7821 35.9020 0.0000 0.0000 0.0000
# 2 19.7821 52.6581 33.0987 0.0000 0.0000 0.0000
# 3 35.9020 33.0987 115.3885 0.0000 0.0000 0.0000
# 4 0.0000 0.0000 0.0000 14.0270 0.0000 0.0000
# 5 0.0000 0.0000 0.0000 0.0000 35.6942 0.0000
# 6 0.0000 0.0000 0.0000 0.0000 0.0000 22.3332
#
#
#
# Elastic Compliance Matrix: (Units=1/GPa)
#
#
# Indices 1 2 3 4 5 6 
#
# 1 0.012013 -0.002639 -0.002981 0.000000 0.000000 0.000000
# 2 -0.002639 0.023747 -0.005991 0.000000 0.000000 0.000000
# 3 -0.002981 -0.005991 0.011312 0.000000 0.000000 0.000000
# 4 0.000000 0.000000 0.000000 0.071291 0.000000 0.000000
# 5 0.000000 0.000000 0.000000 0.000000 0.028016 0.000000
# 6 0.000000 0.000000 0.000000 0.000000 0.000000 0.044776
#
#
# Mechanical properties :
#
#
# Convention : Reuss Voigt Hill
#
# Bulk Modulus (GPa) = 41.92658 49.12337 45.52497
# Shear Modulus (GPa) = 22.48937 26.12833 24.30885
#
# Velocity S-wave (km/s) = 2.98529 3.21776 3.10370
# Velocity P-wave (km/s) = 5.33827 5.76816 5.55737
#
# Compressibility (1/GPa) = 0.02385122
#
# Stress axis : x y z
#
# Youngs Moduli (GPa) = 83.24364 42.10977 88.40050
#
# Poissons Ratio (x) = 0.11115 0.26349
# Poissons Ratio (y) = 0.21972 0.52958
# Poissons Ratio (z) = 0.24812 0.25226
#
# Static dielectric constant tensor:
#      x y z
#    x 2.075550 0.000000 0.000000 
#    y 0.000000 1.968530 0.000000 
#    z 0.000000 0.000000 2.039480 
# 
# From -- ./inp_files/5561.got.cif
#   From: 2010.05.17/outbox.cif.g08.bks.cpg/sg33_3_cif.got.tgz:5561.got - 2010.06.03 17:15:25.
