data_PCOD9345467
_publ_section_title
;
Structure prediction by ZEFSAII (Michael W. Deem and Ramdas Pophale) SiO2 
 PCOD9345467
Probable space group: P N A 21
;
_chemical_formula_sum "Si O2"
_cell_formula_units_Z 28
_cell_length_a 8.993083
_cell_length_b 9.615977
_cell_length_c 14.028503
_cell_angle_alpha 90.000000
_cell_angle_beta 90.000000
_cell_angle_gamma 90.000000
_cell_volume 1213.146772
_symmetry_space_group_name_H-M "P N A 21"
_symmetry_group_IT_number 33
_symmetry_cell_setting 'orthorhombic'
loop_
_space_group_symop_operation_xyz
x,y,z
-x,-y,1/2+z
1/2-x,1/2+y,1/2+z
1/2+x,1/2-y,z
loop_
_atom_site_type_symbol
_atom_site_label
_atom_site_fract_x
_atom_site_fract_y
_atom_site_fract_z
Si Si1 0.649991 0.087322 0.939570
Si Si2 0.421068 0.672860 0.830383
Si Si3 0.209014 0.164047 0.530755
Si Si4 0.885203 0.258205 0.011133
Si Si5 0.434045 0.458623 0.166918
Si Si6 0.095820 0.566059 0.765531
Si Si7 0.256277 0.981116 0.079114
O O1 0.553959 0.198136 0.996525
O O2 0.816635 0.148095 0.937554
O O3 0.661334 0.938148 0.991805
O O4 0.581108 0.062892 0.837103
O O5 0.412748 0.663328 0.944650
O O6 0.538380 0.570924 0.777757
O O7 0.254222 0.635509 0.796208
O O8 0.468506 0.823165 0.789446
O O9 0.247299 0.323270 0.546517
O O10 0.155784 0.090331 0.627963
O O11 0.799554 0.403887 0.001921
O O12 0.868550 0.177782 0.112391
O O13 0.598213 0.479923 0.123584
O O14 0.117828 0.509577 0.659758
#
# Coordination Sequence:
#
# PCOD9345467 Si02
#       7
#     4   4   4   4   4   4   4
#     4  10  23  42  63  92 125 166 218 261 317 390
#     4  10  21  41  67  89 130 172 211 257 327 391
#     4  10  24  40  65  95 129 166 212 276 324 378
#     4  11  20  41  66  89 126 174 210 254 326 382
#     4  10  22  41  64  94 125 169 219 262 313 396
#     4  10  22  42  62  95 128 162 220 261 317 396
#     4  11  22  39  65  94 129 167 208 269 324 379
#
# _framework density 23.080473000000001
#
# number of rings (size 3 to 8) (size 9 to 14) (size 15 to 20)
#    0.000    1.714    2.857    0.857    6.000    0.000 
#   10.286    0.000    0.000    0.000    0.000    0.000 
#    0.000    0.000    0.000    0.000    0.000    0.000 
#
# Total GULP energy -156334.352036 kJ/mol
# GULP energy per Si atom -5583.369716 kJ/mol
# Density = 2.302794 g / cm^3
# Si number density = 23.080473 Si / 1000 Ang^3
#
#
#
# Elastic Constant Matrix: (Units=GPa)
#
#
# Indices 1 2 3 4 5 6 
#
# 1 30.2521 18.1671 -7.8466 0.0000 0.0000 0.0000
# 2 18.1671 147.4043 20.4467 0.0000 0.0000 0.0000
# 3 -7.8466 20.4467 51.9472 0.0000 0.0000 0.0000
# 4 0.0000 0.0000 0.0000 26.5898 0.0000 0.0000
# 5 0.0000 0.0000 0.0000 0.0000 20.9452 0.0000
# 6 0.0000 0.0000 0.0000 0.0000 0.0000 32.2328
#
#
#
# Elastic Compliance Matrix: (Units=1/GPa)
#
#
# Indices 1 2 3 4 5 6 
#
# 1 0.038722 -0.005906 0.008174 0.000000 0.000000 0.000000
# 2 -0.005906 0.008077 -0.004071 0.000000 0.000000 0.000000
# 3 0.008174 -0.004071 0.022087 0.000000 0.000000 0.000000
# 4 0.000000 0.000000 0.000000 0.037608 0.000000 0.000000
# 5 0.000000 0.000000 0.000000 0.000000 0.047744 0.000000
# 6 0.000000 0.000000 0.000000 0.000000 0.000000 0.031024
#
#
# Mechanical properties :
#
#
# Convention : Reuss Voigt Hill
#
# Bulk Modulus (GPa) = 15.31886 32.34867 23.83376
# Shear Modulus (GPa) = 23.73836 29.20934 26.47385
#
# Velocity S-wave (km/s) = 3.21051 3.56131 3.39045
# Velocity P-wave (km/s) = 4.51605 5.56386 5.06711
#
# Compressibility (1/GPa) = 0.06527902
#
# Stress axis : x y z
#
# Youngs Moduli (GPa) = 25.82490 123.81311 45.27482
#
# Poissons Ratio (x) = 0.73126 -0.37006
# Poissons Ratio (y) = 0.15253 0.18432
# Poissons Ratio (z) = -0.21108 0.50406
#
# Static dielectric constant tensor:
#      x y z
#    x 1.896730 0.000000 0.000000 
#    y 0.000000 1.841660 0.000000 
#    z 0.000000 0.000000 1.920430 
# 
# From -- ./inp_files/7904.got.cif
#   From: 2010.05.17/outbox.cif.g08.bks.cpg/sg33_4_cif.got.tgz:7904.got - 2010.06.03 17:15:25.
