data_PCOD9345810
_publ_section_title
;
Structure prediction by ZEFSAII (Michael W. Deem and Ramdas Pophale) SiO2 
 PCOD9345810
Probable space group: P N A 21
;
_chemical_formula_sum "Si O2"
_cell_formula_units_Z 24
_cell_length_a 13.255535
_cell_length_b 13.965799
_cell_length_c 5.017793
_cell_angle_alpha 90.000000
_cell_angle_beta 90.000000
_cell_angle_gamma 90.000000
_cell_volume 928.914601
_symmetry_space_group_name_H-M "P N A 21"
_symmetry_group_IT_number 33
_symmetry_cell_setting 'orthorhombic'
loop_
_space_group_symop_operation_xyz
x,y,z
-x,-y,1/2+z
1/2-x,1/2+y,1/2+z
1/2+x,1/2-y,z
loop_
_atom_site_type_symbol
_atom_site_label
_atom_site_fract_x
_atom_site_fract_y
_atom_site_fract_z
Si Si1 0.412613 0.363592 0.388150
Si Si2 0.402893 0.082160 0.651567
Si Si3 0.575795 0.274679 0.726936
Si Si4 0.038391 0.382200 0.144464
Si Si5 0.886972 0.932016 0.570494
Si Si6 0.751439 0.285407 0.376130
O O1 0.468392 0.292464 0.593556
O O2 0.503948 0.406000 0.205605
O O3 0.369454 0.455541 0.543800
O O4 0.326769 0.295589 0.258079
O O5 0.444163 0.094101 0.948587
O O6 0.313378 0.152308 0.588287
O O7 0.383321 0.969200 0.609684
O O8 0.491953 0.108460 0.438937
O O9 0.573936 0.215280 0.001461
O O10 0.660154 0.233340 0.531197
O O11 0.605217 0.385047 0.780107
O O12 0.798974 0.868194 0.698615
#
# Coordination Sequence:
#
# PCOD9345810 Si02
#       6
#     4   4   4   4   4   4
#     4  11  23  48  72  96 150 184 245 307 369 459
#     4  10  22  43  67  98 140 181 231 295 366 437
#     4  11  24  43  69  99 135 189 238 290 375 436
#     4  10  22  42  70  94 136 190 225 289 374 431
#     4  11  25  45  71 103 136 200 241 300 381 450
#     4  11  26  41  67 108 135 182 250 305 363 443
#
# _framework density 25.836604999999999
#
# number of rings (size 3 to 8) (size 9 to 14) (size 15 to 20)
#    0.000    1.333    3.333    1.000    7.000    1.333 
#    3.000    0.000    0.000    0.000    0.000    0.000 
#    0.000    0.000    0.000    0.000    0.000    0.000 
#
# Total GULP energy -134102.959680 kJ/mol
# GULP energy per Si atom -5587.623320 kJ/mol
# Density = 2.577780 g / cm^3
# Si number density = 25.836605 Si / 1000 Ang^3
#
#
#
# Elastic Constant Matrix: (Units=GPa)
#
#
# Indices 1 2 3 4 5 6 
#
# 1 111.0338 51.0818 17.5265 0.0000 0.0000 0.0000
# 2 51.0818 179.3148 4.3211 0.0000 0.0000 0.0000
# 3 17.5265 4.3211 27.4056 0.0000 0.0000 0.0000
# 4 0.0000 0.0000 0.0000 38.7994 0.0000 0.0000
# 5 0.0000 0.0000 0.0000 0.0000 32.0420 0.0000
# 6 0.0000 0.0000 0.0000 0.0000 0.0000 38.6737
#
#
#
# Elastic Compliance Matrix: (Units=1/GPa)
#
#
# Indices 1 2 3 4 5 6 
#
# 1 0.011527 -0.003118 -0.006880 0.000000 0.000000 0.000000
# 2 -0.003118 0.006441 0.000978 0.000000 0.000000 0.000000
# 3 -0.006880 0.000978 0.040734 0.000000 0.000000 0.000000
# 4 0.000000 0.000000 0.000000 0.025774 0.000000 0.000000
# 5 0.000000 0.000000 0.000000 0.000000 0.031209 0.000000
# 6 0.000000 0.000000 0.000000 0.000000 0.000000 0.025857
#
#
# Mechanical properties :
#
#
# Convention : Reuss Voigt Hill
#
# Bulk Modulus (GPa) = 24.59204 51.51255 38.05230
# Shear Modulus (GPa) = 28.87902 38.22466 33.55184
#
# Velocity S-wave (km/s) = 3.34691 3.85057 3.60754
# Velocity P-wave (km/s) = 4.94719 6.30478 5.66679
#
# Compressibility (1/GPa) = 0.04066356
#
# Stress axis : x y z
#
# Youngs Moduli (GPa) = 86.75568 155.24601 24.54923
#
# Poissons Ratio (x) = 0.48403 0.16890
# Poissons Ratio (y) = 0.27049 -0.02402
# Poissons Ratio (z) = 0.59687 -0.15188
#
# Static dielectric constant tensor:
#      x y z
#    x 2.087510 0.000000 0.000000 
#    y 0.000000 2.076670 0.000000 
#    z 0.000000 0.000000 2.064490 
# 
# From -- ./inp_files/834.got.cif
#   From: 2010.05.17/outbox.cif.g08.bks.cpg/sg33_1_cif.got.tgz:834.got - 2010.06.03 17:15:25.
