data_PCOD9345586
_publ_section_title
;
Structure prediction by ZEFSAII (Michael W. Deem and Ramdas Pophale) SiO2 
 PCOD9345586
Probable space group: P N A 21
;
_chemical_formula_sum "Si O2"
_cell_formula_units_Z 28
_cell_length_a 9.607655
_cell_length_b 5.223643
_cell_length_c 19.743162
_cell_angle_alpha 90.000000
_cell_angle_beta 90.000000
_cell_angle_gamma 90.000000
_cell_volume 990.849277
_symmetry_space_group_name_H-M "P N A 21"
_symmetry_group_IT_number 33
_symmetry_cell_setting 'orthorhombic'
loop_
_space_group_symop_operation_xyz
x,y,z
-x,-y,1/2+z
1/2-x,1/2+y,1/2+z
1/2+x,1/2-y,z
loop_
_atom_site_type_symbol
_atom_site_label
_atom_site_fract_x
_atom_site_fract_y
_atom_site_fract_z
Si Si1 0.693541 0.426909 0.584290
Si Si2 0.551758 0.253295 0.069429
Si Si3 0.002086 0.225893 0.357217
Si Si4 0.330486 0.765401 0.373221
Si Si5 0.295658 0.286919 0.728026
Si Si6 0.037306 0.566102 0.716538
Si Si7 0.841995 0.529328 0.975493
O O1 0.530417 0.477175 0.568212
O O2 0.786302 0.680374 0.571530
O O3 0.729098 0.348860 0.661161
O O4 0.733744 0.203792 0.531642
O O5 0.498635 0.161140 0.142839
O O6 0.477838 0.090122 0.010735
O O7 0.954397 0.940294 0.371532
O O8 0.025524 0.262716 0.276989
O O9 0.118492 0.293842 0.411462
O O10 0.888092 0.448656 0.370323
O O11 0.246510 0.706536 0.304076
O O12 0.244701 0.692556 0.439031
O O13 0.204240 0.547240 0.723114
O O14 0.457497 0.208356 0.723446
#
# Coordination Sequence:
#
# PCOD9345586 Si02
#       7
#     4   4   4   4   4   4   4
#     4  11  26  46  75 109 156 202 263 326 395 474
#     4  11  26  44  75 109 152 203 260 320 396 466
#     4  11  26  46  75 107 151 200 252 323 380 473
#     4  11  26  46  74 107 154 194 261 310 399 453
#     4  10  21  46  72 108 144 200 255 325 381 473
#     4  10  21  46  72 110 144 200 257 319 387 467
#     4  12  26  46  71 110 149 203 252 327 388 470
#
# _framework density 28.258588
#
# number of rings (size 3 to 8) (size 9 to 14) (size 15 to 20)
#    0.000    1.143    2.857    1.714    6.000    2.286 
#    2.571    0.000    0.000    0.000    0.000    0.000 
#    0.000    0.000    0.000    0.000    0.000    0.000 
#
# Total GULP energy -156876.147150 kJ/mol
# GULP energy per Si atom -5602.719541 kJ/mol
# Density = 2.819427 g / cm^3
# Si number density = 28.258588 Si / 1000 Ang^3
#
#
#
# Elastic Constant Matrix: (Units=GPa)
#
#
# Indices 1 2 3 4 5 6 
#
# 1 133.3964 34.2895 41.3398 0.0000 0.0000 0.0000
# 2 34.2895 77.2779 47.3394 0.0000 0.0000 0.0000
# 3 41.3398 47.3394 218.7314 0.0000 0.0000 0.0000
# 4 0.0000 0.0000 0.0000 41.0247 0.0000 0.0000
# 5 0.0000 0.0000 0.0000 0.0000 44.5832 0.0000
# 6 0.0000 0.0000 0.0000 0.0000 0.0000 44.7646
#
#
#
# Elastic Compliance Matrix: (Units=1/GPa)
#
#
# Indices 1 2 3 4 5 6 
#
# 1 0.008621 -0.003259 -0.000924 0.000000 0.000000 0.000000
# 2 -0.003259 0.016150 -0.002879 0.000000 0.000000 0.000000
# 3 -0.000924 -0.002879 0.005370 0.000000 0.000000 0.000000
# 4 0.000000 0.000000 0.000000 0.024376 0.000000 0.000000
# 5 0.000000 0.000000 0.000000 0.000000 0.022430 0.000000
# 6 0.000000 0.000000 0.000000 0.000000 0.000000 0.022339
#
#
# Mechanical properties :
#
#
# Convention : Reuss Voigt Hill
#
# Bulk Modulus (GPa) = 62.43898 75.03812 68.73855
# Shear Modulus (GPa) = 42.10583 46.50363 44.30473
#
# Velocity S-wave (km/s) = 3.86426 4.06106 3.96388
# Velocity P-wave (km/s) = 6.48487 6.97146 6.73257
#
# Compressibility (1/GPa) = 0.01601564
#
# Stress axis : x y z
#
# Youngs Moduli (GPa) = 116.00222 61.91838 186.23313
#
# Poissons Ratio (x) = 0.20180 0.17206
# Poissons Ratio (y) = 0.37806 0.53624
# Poissons Ratio (z) = 0.10718 0.17829
#
# Static dielectric constant tensor:
#      x y z
#    x 2.234810 0.000000 0.000000 
#    y 0.000000 2.205440 0.000000 
#    z 0.000000 0.000000 2.123520 
# 
# From -- ./inp_files/8634.got.cif
#   From: 2010.05.17/outbox.cif.g08.bks.cpg/sg33_5_cif.got.tgz:8634.got - 2010.06.03 17:15:25.
