data_PCOD9345497
_publ_section_title
;
Structure prediction by ZEFSAII (Michael W. Deem and Ramdas Pophale) SiO2 
 PCOD9345497
Probable space group: P N A 21
;
_chemical_formula_sum "Si O2"
_cell_formula_units_Z 28
_cell_length_a 9.141533
_cell_length_b 6.178765
_cell_length_c 21.837676
_cell_angle_alpha 90.000000
_cell_angle_beta 90.000000
_cell_angle_gamma 90.000000
_cell_volume 1233.465842
_symmetry_space_group_name_H-M "P N A 21"
_symmetry_group_IT_number 33
_symmetry_cell_setting 'orthorhombic'
loop_
_space_group_symop_operation_xyz
x,y,z
-x,-y,1/2+z
1/2-x,1/2+y,1/2+z
1/2+x,1/2-y,z
loop_
_atom_site_type_symbol
_atom_site_label
_atom_site_fract_x
_atom_site_fract_y
_atom_site_fract_z
Si Si1 0.150536 0.936701 0.598930
Si Si2 0.020493 0.546241 0.259417
Si Si3 0.481197 0.443291 0.854309
Si Si4 0.957821 0.005830 0.484394
Si Si5 0.353122 0.861965 0.033852
Si Si6 0.461821 0.881253 0.632278
Si Si7 0.231020 0.729052 0.811659
O O1 0.301570 0.818411 0.610276
O O2 0.045171 0.841192 0.651430
O O3 0.049504 0.903160 0.539435
O O4 0.199536 0.180534 0.583640
O O5 0.043344 0.556015 0.186800
O O6 0.864487 0.430168 0.269629
O O7 0.523269 0.740986 0.302131
O O8 0.150115 0.384098 0.280096
O O9 0.514721 0.369986 0.923278
O O10 0.327831 0.571701 0.854007
O O11 0.611666 0.614047 0.842002
O O12 0.788473 0.039025 0.501157
O O13 0.039231 0.242118 0.485000
O O14 0.449057 0.010478 0.077474
#
# Coordination Sequence:
#
# PCOD9345497 Si02
#       7
#     4   4   4   4   4   4   4
#     4  10  23  41  63 108 131 187 226 294 357 429
#     4  11  25  44  70 101 143 194 245 305 359 437
#     4  11  23  46  68 106 140 195 241 305 360 443
#     4  10  21  44  67 100 143 176 239 284 369 434
#     4  10  21  42  64 104 132 186 219 300 356 428
#     4  12  23  42  69  99 143 177 243 287 364 433
#     4  10  24  45  65 100 138 189 249 287 377 412
#
# _framework density 22.700265000000002
#
# number of rings (size 3 to 8) (size 9 to 14) (size 15 to 20)
#    0.857    0.571    1.429    3.429    0.000    4.571 
#   15.429    0.000    0.000    0.000    0.000    0.000 
#    0.000    0.000    0.000    0.000    0.000    0.000 
#
# Total GULP energy -155975.742378 kJ/mol
# GULP energy per Si atom -5570.562228 kJ/mol
# Density = 2.264860 g / cm^3
# Si number density = 22.700265 Si / 1000 Ang^3
#
#
#
# Elastic Constant Matrix: (Units=GPa)
#
#
# Indices 1 2 3 4 5 6 
#
# 1 125.1682 0.4786 -1.1970 0.0000 0.0000 0.0000
# 2 0.4786 54.9840 8.1642 0.0000 0.0000 0.0000
# 3 -1.1970 8.1642 51.1773 0.0000 0.0000 0.0000
# 4 0.0000 0.0000 0.0000 13.6696 0.0000 0.0000
# 5 0.0000 0.0000 0.0000 0.0000 16.8844 0.0000
# 6 0.0000 0.0000 0.0000 0.0000 0.0000 35.0978
#
#
#
# Elastic Compliance Matrix: (Units=1/GPa)
#
#
# Indices 1 2 3 4 5 6 
#
# 1 0.007992 -0.000100 0.000203 0.000000 0.000000 0.000000
# 2 -0.000100 0.018630 -0.002974 0.000000 0.000000 0.000000
# 3 0.000203 -0.002974 0.020019 0.000000 0.000000 0.000000
# 4 0.000000 0.000000 0.000000 0.073155 0.000000 0.000000
# 5 0.000000 0.000000 0.000000 0.000000 0.059226 0.000000
# 6 0.000000 0.000000 0.000000 0.000000 0.000000 0.028492
#
#
# Mechanical properties :
#
#
# Convention : Reuss Voigt Hill
#
# Bulk Modulus (GPa) = 24.45103 27.35789 25.90446
# Shear Modulus (GPa) = 22.03729 28.05595 25.04662
#
# Velocity S-wave (km/s) = 3.11914 3.51939 3.32529
# Velocity P-wave (km/s) = 4.87511 5.34722 5.11661
#
# Compressibility (1/GPa) = 0.04089807
#
# Stress axis : x y z
#
# Youngs Moduli (GPa) = 125.13181 53.67801 49.95219
#
# Poissons Ratio (x) = 0.00535 -0.01013
# Poissons Ratio (y) = 0.01247 0.14857
# Poissons Ratio (z) = -0.02538 0.15965
#
# Static dielectric constant tensor:
#      x y z
#    x 1.843980 0.000000 0.000000 
#    y 0.000000 2.038650 0.000000 
#    z 0.000000 0.000000 1.883770 
# 
# From -- ./inp_files/9260.got.cif
#   From: 2010.05.17/outbox.cif.g08.bks.cpg/sg33_5_cif.got.tgz:9260.got - 2010.06.03 17:15:25.
