data_PCOD9345190
_publ_section_title
;
Structure prediction by ZEFSAII (Michael W. Deem and Ramdas Pophale) SiO2 
 PCOD9345190
Probable space group: P N A 21
;
_chemical_formula_sum "Si O2"
_cell_formula_units_Z 32
_cell_length_a 18.959164
_cell_length_b 13.002092
_cell_length_c 5.606782
_cell_angle_alpha 90.000000
_cell_angle_beta 90.000000
_cell_angle_gamma 90.000000
_cell_volume 1382.121072
_symmetry_space_group_name_H-M "P N A 21"
_symmetry_group_IT_number 33
_symmetry_cell_setting 'orthorhombic'
loop_
_space_group_symop_operation_xyz
x,y,z
-x,-y,1/2+z
1/2-x,1/2+y,1/2+z
1/2+x,1/2-y,z
loop_
_atom_site_type_symbol
_atom_site_label
_atom_site_fract_x
_atom_site_fract_y
_atom_site_fract_z
Si Si1 0.259529 0.728608 0.615920
Si Si2 0.913425 0.263983 0.695283
Si Si3 0.795849 0.041874 0.105803
Si Si4 0.546978 0.119587 0.468581
Si Si5 0.664459 0.563893 0.110988
Si Si6 0.543688 0.892946 0.596957
Si Si7 0.673223 0.914681 0.908377
Si Si8 0.306500 0.797886 0.117041
O O1 0.211741 0.833406 0.612837
O O2 0.216175 0.625941 0.678053
O O3 0.298886 0.734003 0.362444
O O4 0.302543 0.739575 0.863672
O O5 0.898246 0.147481 0.626403
O O6 0.844698 0.321444 0.587471
O O7 0.985665 0.314147 0.597036
O O8 0.918859 0.297731 0.968880
O O9 0.831708 0.010242 0.354217
O O10 0.837545 0.008962 0.867551
O O11 0.717192 0.997132 0.058265
O O12 0.531274 0.146625 0.192963
O O13 0.619920 0.143408 0.593471
O O14 0.537702 0.995978 0.445517
O O15 0.740997 0.622171 0.118794
O O16 0.595964 0.933914 0.805046
#
# Coordination Sequence:
#
# PCOD9345190 Si02
#       8
#     4   4   4   4   4   4   4   4
#     4  10  21  38  57  88 120 162 213 265 314 384
#     4  11  23  38  58  82 133 170 208 258 328 395
#     4  10  21  35  58  88 115 160 210 262 313 369
#     4  11  24  35  55  90 122 176 208 260 319 413
#     4  10  21  40  56  84 118 163 211 260 300 379
#     4  11  22  36  54  86 129 168 217 248 328 415
#     4  11  23  36  64  88 124 173 210 277 330 389
#     4  10  21  36  58  78 121 158 209 258 308 364
#
# _framework density 23.152822
#
# number of rings (size 3 to 8) (size 9 to 14) (size 15 to 20)
#    0.000    1.500    3.750    3.000    8.750    0.000 
#    0.000    0.000    0.000    0.000    0.000    3.500 
#    0.000    0.000    0.000    0.000    0.000    0.000 
#
# Total GULP energy -178296.401517 kJ/mol
# GULP energy per Si atom -5571.762547 kJ/mol
# Density = 2.310012 g / cm^3
# Si number density = 23.152822 Si / 1000 Ang^3
#
#
#
# Elastic Constant Matrix: (Units=GPa)
#
#
# Indices 1 2 3 4 5 6 
#
# 1 53.3262 5.6631 18.1356 0.0000 0.0000 0.0000
# 2 5.6631 39.0908 6.7513 0.0000 0.0000 0.0000
# 3 18.1356 6.7513 166.3378 0.0000 0.0000 0.0000
# 4 0.0000 0.0000 0.0000 21.5807 0.0000 0.0000
# 5 0.0000 0.0000 0.0000 0.0000 28.6893 0.0000
# 6 0.0000 0.0000 0.0000 0.0000 0.0000 22.7340
#
#
#
# Elastic Compliance Matrix: (Units=1/GPa)
#
#
# Indices 1 2 3 4 5 6 
#
# 1 0.019715 -0.002502 -0.002048 0.000000 0.000000 0.000000
# 2 -0.002502 0.026080 -0.000786 0.000000 0.000000 0.000000
# 3 -0.002048 -0.000786 0.006267 0.000000 0.000000 0.000000
# 4 0.000000 0.000000 0.000000 0.046338 0.000000 0.000000
# 5 0.000000 0.000000 0.000000 0.000000 0.034856 0.000000
# 6 0.000000 0.000000 0.000000 0.000000 0.000000 0.043987
#
#
# Mechanical properties :
#
#
# Convention : Reuss Voigt Hill
#
# Bulk Modulus (GPa) = 24.16075 35.53942 29.85009
# Shear Modulus (GPa) = 24.78797 29.81445 27.30121
#
# Velocity S-wave (km/s) = 3.27559 3.59238 3.43764
# Velocity P-wave (km/s) = 4.97634 5.70878 5.35510
#
# Compressibility (1/GPa) = 0.04138945
#
# Stress axis : x y z
#
# Youngs Moduli (GPa) = 50.72354 38.34406 159.56511
#
# Poissons Ratio (x) = 0.09595 0.32677
# Poissons Ratio (y) = 0.12693 0.12537
# Poissons Ratio (z) = 0.10388 0.03013
#
# Static dielectric constant tensor:
#      x y z
#    x 1.886320 0.000000 0.000000 
#    y 0.000000 1.933820 0.000000 
#    z 0.000000 0.000000 2.105490 
# 
# From -- ./inp_files/1806.got.cif
#   From: 2010.05.17/outbox.cif.g08.bks.cpg/sg33_1_cif.got.tgz:1806.got - 2010.06.03 17:15:25.
