data_PCOD9345051
_publ_section_title
;
Structure prediction by ZEFSAII (Michael W. Deem and Ramdas Pophale) SiO2 
 PCOD9345051
Probable space group: P N A 21
;
_chemical_formula_sum "Si O2"
_cell_formula_units_Z 32
_cell_length_a 13.645670
_cell_length_b 19.272558
_cell_length_c 5.201944
_cell_angle_alpha 90.000000
_cell_angle_beta 90.000000
_cell_angle_gamma 90.000000
_cell_volume 1368.043473
_symmetry_space_group_name_H-M "P N A 21"
_symmetry_group_IT_number 33
_symmetry_cell_setting 'orthorhombic'
loop_
_space_group_symop_operation_xyz
x,y,z
-x,-y,1/2+z
1/2-x,1/2+y,1/2+z
1/2+x,1/2-y,z
loop_
_atom_site_type_symbol
_atom_site_label
_atom_site_fract_x
_atom_site_fract_y
_atom_site_fract_z
Si Si1 0.023967 0.237188 0.632810
Si Si2 0.785099 0.837849 0.143735
Si Si3 0.351914 0.253793 0.963179
Si Si4 0.584175 0.852098 0.815179
Si Si5 0.862239 0.646477 0.355929
Si Si6 0.383867 0.001791 0.315525
Si Si7 0.752570 0.986917 0.317043
Si Si8 0.228926 0.862331 0.847412
O O1 0.109846 0.187029 0.531974
O O2 0.077252 0.284020 0.844683
O O3 0.926438 0.207474 0.769590
O O4 0.987583 0.296625 0.441026
O O5 0.744731 0.776220 0.327099
O O6 0.801634 0.911526 0.285385
O O7 0.692741 0.847832 0.949580
O O8 0.397157 0.179106 0.036732
O O9 0.336366 0.300915 0.218390
O O10 0.548108 0.930861 0.821155
O O11 0.923538 0.575987 0.306795
O O12 0.814782 0.639526 0.634736
O O13 0.779080 0.645966 0.127384
O O14 0.315997 0.005821 0.567206
O O15 0.314889 0.013143 0.068782
O O16 0.813754 0.059141 0.333782
#
# Coordination Sequence:
#
# PCOD9345051 Si02
#       8
#     4   4   4   4   4   4   4   4
#     4  11  24  37  58  94 125 163 214 255 325 382
#     4  10  20  40  63  84 124 166 210 258 315 382
#     4  11  22  37  62  87 128 160 209 264 312 370
#     4  10  22  38  58  89 123 162 203 262 310 374
#     4  10  21  39  61  92 120 166 205 252 311 389
#     4   9  18  37  60  87 121 156 202 248 312 374
#     4   9  18  36  64  89 111 162 211 249 307 375
#     4  10  21  38  66  88 120 163 210 256 314 372
#
# _framework density 23.391069000000002
#
# number of rings (size 3 to 8) (size 9 to 14) (size 15 to 20)
#    0.000    2.000    2.500    0.750    3.500    1.000 
#    2.250    0.000    2.750    0.000    0.000    0.000 
#    0.000    0.000    0.000    0.000    0.000    0.000 
#
# Total GULP energy -178407.087282 kJ/mol
# GULP energy per Si atom -5575.221478 kJ/mol
# Density = 2.333783 g / cm^3
# Si number density = 23.391069 Si / 1000 Ang^3
#
#
#
# Elastic Constant Matrix: (Units=GPa)
#
#
# Indices 1 2 3 4 5 6 
#
# 1 62.4061 14.1067 9.4003 0.0000 0.0000 0.0000
# 2 14.1067 111.2308 -7.6232 0.0000 0.0000 0.0000
# 3 9.4003 -7.6232 74.4813 0.0000 0.0000 0.0000
# 4 0.0000 0.0000 0.0000 32.0527 0.0000 0.0000
# 5 0.0000 0.0000 0.0000 0.0000 32.6203 0.0000
# 6 0.0000 0.0000 0.0000 0.0000 0.0000 19.9743
#
#
#
# Elastic Compliance Matrix: (Units=1/GPa)
#
#
# Indices 1 2 3 4 5 6 
#
# 1 0.016902 -0.002306 -0.002369 0.000000 0.000000 0.000000
# 2 -0.002306 0.009368 0.001250 0.000000 0.000000 0.000000
# 3 -0.002369 0.001250 0.013853 0.000000 0.000000 0.000000
# 4 0.000000 0.000000 0.000000 0.031199 0.000000 0.000000
# 5 0.000000 0.000000 0.000000 0.000000 0.030656 0.000000
# 6 0.000000 0.000000 0.000000 0.000000 0.000000 0.050064
#
#
# Mechanical properties :
#
#
# Convention : Reuss Voigt Hill
#
# Bulk Modulus (GPa) = 30.05426 31.09840 30.57633
# Shear Modulus (GPa) = 29.41452 32.41177 30.91315
#
# Velocity S-wave (km/s) = 3.54999 3.72647 3.63930
# Velocity P-wave (km/s) = 5.44791 5.64263 5.54612
#
# Compressibility (1/GPa) = 0.03327316
#
# Stress axis : x y z
#
# Youngs Moduli (GPa) = 59.16380 106.74147 72.18580
#
# Poissons Ratio (x) = 0.24614 0.17103
# Poissons Ratio (y) = 0.13643 -0.09023
# Poissons Ratio (z) = 0.14017 -0.13342
#
# Static dielectric constant tensor:
#      x y z
#    x 2.028850 0.000000 0.000000 
#    y 0.000000 1.989510 0.000000 
#    z 0.000000 0.000000 1.950770 
# 
# From -- ./inp_files/1015.got.cif
#   From: 2010.05.17/outbox.cif.g08.bks.cpg/sg33_1_cif.got.tgz:1015.got - 2010.06.03 17:15:25.
