data_PCOD9345348
_publ_section_title
;
Structure prediction by ZEFSAII (Michael W. Deem and Ramdas Pophale) SiO2 
 PCOD9345348
Probable space group: P N A 21
;
_chemical_formula_sum "Si O2"
_cell_formula_units_Z 28
_cell_length_a 10.912639
_cell_length_b 8.086562
_cell_length_c 11.807394
_cell_angle_alpha 90.000000
_cell_angle_beta 90.000000
_cell_angle_gamma 90.000000
_cell_volume 1041.952125
_symmetry_space_group_name_H-M "P N A 21"
_symmetry_group_IT_number 33
_symmetry_cell_setting 'orthorhombic'
loop_
_space_group_symop_operation_xyz
x,y,z
-x,-y,1/2+z
1/2-x,1/2+y,1/2+z
1/2+x,1/2-y,z
loop_
_atom_site_type_symbol
_atom_site_label
_atom_site_fract_x
_atom_site_fract_y
_atom_site_fract_z
Si Si1 0.013074 0.888870 0.728130
Si Si2 0.365548 0.020396 0.454614
Si Si3 0.245944 0.082078 0.985286
Si Si4 0.710921 0.417112 0.647861
Si Si5 0.082045 0.268883 0.448403
Si Si6 0.778886 0.054214 0.731824
Si Si7 0.519538 0.717331 0.473358
O O1 0.948693 0.780185 0.821386
O O2 0.015903 0.796379 0.608953
O O3 0.926269 0.051509 0.736458
O O4 0.148590 0.960312 0.734792
O O5 0.312833 0.984550 0.578749
O O6 0.445436 0.179924 0.484590
O O7 0.279779 0.026942 0.344442
O O8 0.463233 0.883050 0.422564
O O9 0.333523 0.240739 0.950584
O O10 0.101518 0.097674 0.950810
O O11 0.249787 0.059191 0.122329
O O12 0.316876 0.913812 0.950135
O O13 0.625410 0.369697 0.537862
O O14 0.738378 0.241274 0.704543
#
# Coordination Sequence:
#
# PCOD9345348 Si02
#       7
#     4   4   4   4   4   4   4
#     4  11  22  42  70  96 138 186 240 293 371 437
#     4  11  22  41  65  98 142 177 239 297 361 434
#     4   9  20  40  67  96 140 179 235 294 351 432
#     4  11  23  42  66 101 138 185 238 305 361 444
#     4  10  22  42  68  99 138 186 234 298 369 436
#     4  10  22  42  65  99 138 185 236 297 367 439
#     4  10  21  39  65  99 132 182 230 294 348 426
#
# _framework density 26.872634999999999
#
# number of rings (size 3 to 8) (size 9 to 14) (size 15 to 20)
#    0.000    1.714    1.429    2.571    0.000    2.286 
#    7.714    0.000    0.000    0.000    0.000    0.000 
#    0.000    0.000    0.000    0.000    0.000    0.000 
#
# Total GULP energy -156135.503777 kJ/mol
# GULP energy per Si atom -5576.267992 kJ/mol
# Density = 2.681147 g / cm^3
# Si number density = 26.872635 Si / 1000 Ang^3
#
#
#
# Elastic Constant Matrix: (Units=GPa)
#
#
# Indices 1 2 3 4 5 6 
#
# 1 111.7686 29.3519 29.3947 0.0000 0.0000 0.0000
# 2 29.3519 52.0590 4.8058 0.0000 0.0000 0.0000
# 3 29.3947 4.8058 112.4237 0.0000 0.0000 0.0000
# 4 0.0000 0.0000 0.0000 23.0147 0.0000 0.0000
# 5 0.0000 0.0000 0.0000 0.0000 35.1283 0.0000
# 6 0.0000 0.0000 0.0000 0.0000 0.0000 46.6571
#
#
#
# Elastic Compliance Matrix: (Units=1/GPa)
#
#
# Indices 1 2 3 4 5 6 
#
# 1 0.011254 -0.006097 -0.002682 0.000000 0.000000 0.000000
# 2 -0.006097 0.022589 0.000629 0.000000 0.000000 0.000000
# 3 -0.002682 0.000629 0.009569 0.000000 0.000000 0.000000
# 4 0.000000 0.000000 0.000000 0.043451 0.000000 0.000000
# 5 0.000000 0.000000 0.000000 0.000000 0.028467 0.000000
# 6 0.000000 0.000000 0.000000 0.000000 0.000000 0.021433
#
#
# Mechanical properties :
#
#
# Convention : Reuss Voigt Hill
#
# Bulk Modulus (GPa) = 36.88604 44.81734 40.85169
# Shear Modulus (GPa) = 30.84514 35.13995 32.99254
#
# Velocity S-wave (km/s) = 3.39164 3.62006 3.50771
# Velocity P-wave (km/s) = 5.39385 5.84697 5.62497
#
# Compressibility (1/GPa) = 0.02711053
#
# Stress axis : x y z
#
# Youngs Moduli (GPa) = 88.86037 44.26977 104.50159
#
# Poissons Ratio (x) = 0.26993 0.28025
# Poissons Ratio (y) = 0.54182 -0.06569
# Poissons Ratio (z) = 0.23830 -0.02783
#
# Static dielectric constant tensor:
#      x y z
#    x 2.248840 0.000000 0.000000 
#    y 0.000000 2.200750 0.000000 
#    z 0.000000 0.000000 2.106960 
# 
# From -- ./inp_files/6369.got.cif
#   From: 2010.05.17/outbox.cif.g08.bks.cpg/sg33_4_cif.got.tgz:6369.got - 2010.06.03 17:15:25.
