data_PCOD9345512
_publ_section_title
;
Structure prediction by ZEFSAII (Michael W. Deem and Ramdas Pophale) SiO2 
 PCOD9345512
Probable space group: P N A 21
;
_chemical_formula_sum "Si O2"
_cell_formula_units_Z 32
_cell_length_a 14.235983
_cell_length_b 8.987917
_cell_length_c 10.508122
_cell_angle_alpha 90.000000
_cell_angle_beta 90.000000
_cell_angle_gamma 90.000000
_cell_volume 1344.533478
_symmetry_space_group_name_H-M "P N A 21"
_symmetry_group_IT_number 33
_symmetry_cell_setting 'orthorhombic'
loop_
_space_group_symop_operation_xyz
x,y,z
-x,-y,1/2+z
1/2-x,1/2+y,1/2+z
1/2+x,1/2-y,z
loop_
_atom_site_type_symbol
_atom_site_label
_atom_site_fract_x
_atom_site_fract_y
_atom_site_fract_z
Si Si1 0.094450 0.300283 0.091510
Si Si2 0.736833 0.438562 0.094913
Si Si3 0.760286 0.004942 0.210239
Si Si4 0.674105 0.709785 0.256629
Si Si5 0.858938 0.975414 0.978424
Si Si6 0.424786 0.077773 0.926189
Si Si7 0.491220 0.752460 0.862490
Si Si8 0.709854 0.775875 0.861917
O O1 0.156542 0.166335 0.036774
O O2 0.169651 0.428073 0.133995
O O3 0.041803 0.237044 0.216575
O O4 0.015310 0.358918 0.997993
O O5 0.690839 0.596909 0.138313
O O6 0.763391 0.360757 0.230853
O O7 0.832259 0.420320 0.015016
O O8 0.755163 0.832506 0.244316
O O9 0.767111 0.104707 0.335206
O O10 0.850091 0.034097 0.120789
O O11 0.667471 0.603423 0.379175
O O12 0.590383 0.826525 0.295654
O O13 0.952410 0.889384 0.938913
O O14 0.775814 0.853200 0.964442
O O15 0.442028 0.905064 0.902283
O O16 0.600106 0.782412 0.883338
#
# Coordination Sequence:
#
# PCOD9345512 Si02
#       8
#     4   4   4   4   4   4   4   4
#     4  11  22  44  69  95 140 181 224 287 350 407
#     4  10  22  43  71  98 140 183 226 290 350 412
#     4  11  22  44  70  97 132 182 229 278 344 426
#     4  11  22  41  70 100 134 176 231 283 343 417
#     4  11  23  43  67  98 138 178 220 286 346 407
#     4  12  24  42  74 100 135 190 238 282 349 425
#     4  12  22  43  67  99 137 176 226 289 341 412
#     4  10  21  42  68  91 136 178 218 283 343 400
#
# _framework density 23.800077999999999
#
# number of rings (size 3 to 8) (size 9 to 14) (size 15 to 20)
#    0.000    1.000    6.250    3.000    0.000    1.000 
#    0.000   12.500    2.750    0.000    0.000    0.000 
#    0.000    0.000    0.000    0.000    0.000    0.000 
#
# Total GULP energy -178839.457590 kJ/mol
# GULP energy per Si atom -5588.733050 kJ/mol
# Density = 2.374591 g / cm^3
# Si number density = 23.800078 Si / 1000 Ang^3
#
#
#
# Elastic Constant Matrix: (Units=GPa)
#
#
# Indices 1 2 3 4 5 6 
#
# 1 63.4864 2.9298 18.7841 0.0000 0.0000 0.0000
# 2 2.9298 134.5619 16.9183 0.0000 0.0000 0.0000
# 3 18.7841 16.9183 34.9662 0.0000 0.0000 0.0000
# 4 0.0000 0.0000 0.0000 32.2041 0.0000 0.0000
# 5 0.0000 0.0000 0.0000 0.0000 34.3082 0.0000
# 6 0.0000 0.0000 0.0000 0.0000 0.0000 32.9001
#
#
#
# Elastic Compliance Matrix: (Units=1/GPa)
#
#
# Indices 1 2 3 4 5 6 
#
# 1 0.018834 0.000918 -0.010562 0.000000 0.000000 0.000000
# 2 0.000918 0.007958 -0.004343 0.000000 0.000000 0.000000
# 3 -0.010562 -0.004343 0.036375 0.000000 0.000000 0.000000
# 4 0.000000 0.000000 0.000000 0.031052 0.000000 0.000000
# 5 0.000000 0.000000 0.000000 0.000000 0.029148 0.000000
# 6 0.000000 0.000000 0.000000 0.000000 0.000000 0.030395
#
#
# Mechanical properties :
#
#
# Convention : Reuss Voigt Hill
#
# Bulk Modulus (GPa) = 28.41604 34.47543 31.44573
# Shear Modulus (GPa) = 25.84432 32.84130 29.34281
#
# Velocity S-wave (km/s) = 3.29886 3.71871 3.51506
# Velocity P-wave (km/s) = 5.14542 5.74067 5.45118
#
# Compressibility (1/GPa) = 0.03519140
#
# Stress axis : x y z
#
# Youngs Moduli (GPa) = 53.09528 125.66561 27.49174
#
# Poissons Ratio (x) = -0.11534 0.29037
# Poissons Ratio (y) = -0.04873 0.11941
# Poissons Ratio (z) = 0.56079 0.54581
#
# Static dielectric constant tensor:
#      x y z
#    x 1.885500 0.000000 0.000000 
#    y 0.000000 1.946790 0.000000 
#    z 0.000000 0.000000 1.926890 
# 
# From -- ./inp_files/6757.got.cif
#   From: 2010.05.17/outbox.cif.g08.bks.cpg/sg33_4_cif.got.tgz:6757.got - 2010.06.03 17:15:25.
