data_PCOD9345184
_publ_section_title
;
Structure prediction by ZEFSAII (Michael W. Deem and Ramdas Pophale) SiO2 
 PCOD9345184
Probable space group: P N A 21
;
_chemical_formula_sum "Si O2"
_cell_formula_units_Z 32
_cell_length_a 27.720865
_cell_length_b 10.701675
_cell_length_c 5.108366
_cell_angle_alpha 90.000000
_cell_angle_beta 90.000000
_cell_angle_gamma 90.000000
_cell_volume 1515.446263
_symmetry_space_group_name_H-M "P N A 21"
_symmetry_group_IT_number 33
_symmetry_cell_setting 'orthorhombic'
loop_
_space_group_symop_operation_xyz
x,y,z
-x,-y,1/2+z
1/2-x,1/2+y,1/2+z
1/2+x,1/2-y,z
loop_
_atom_site_type_symbol
_atom_site_label
_atom_site_fract_x
_atom_site_fract_y
_atom_site_fract_z
Si Si1 0.737859 0.196051 0.785990
Si Si2 0.121563 0.792677 0.635796
Si Si3 0.203472 0.623161 0.610872
Si Si4 0.835074 0.095301 0.625896
Si Si5 0.200067 0.142537 0.402469
Si Si6 0.535746 0.864433 0.713951
Si Si7 0.826465 0.583934 0.687698
Si Si8 0.562208 0.023628 0.211957
O O1 0.778799 0.140638 0.591499
O O2 0.709234 0.322789 0.705071
O O3 0.775234 0.245271 0.000208
O O4 0.698681 0.101861 0.904617
O O5 0.151751 0.666946 0.719191
O O6 0.134738 0.820365 0.333523
O O7 0.065544 0.761461 0.669555
O O8 0.140192 0.895485 0.842954
O O9 0.246877 0.601260 0.810082
O O10 0.195022 0.524475 0.375882
O O11 0.832917 0.962666 0.775995
O O12 0.184602 0.280722 0.312050
O O13 0.477898 0.867411 0.685942
O O14 0.555524 0.961040 0.495351
O O15 0.548184 0.920357 0.996988
O O16 0.883227 0.564487 0.669672
#
# Coordination Sequence:
#
# PCOD9345184 Si02
#       8
#     4   4   4   4   4   4   4   4
#     4  10  22  35  55  85 118 171 198 258 293 367
#     4  11  22  39  62  87 116 163 199 258 300 370
#     4  10  21  35  56  85 120 154 208 246 311 362
#     4  11  24  38  59  85 121 165 217 237 299 360
#     4  11  23  37  54  82 127 165 211 246 294 366
#     4  10  21  40  63  92 124 148 197 257 326 364
#     4  11  23  36  60  87 123 164 199 256 316 369
#     4  10  22  38  63  95 123 152 191 260 317 384
#
# _framework density 21.115893
#
# number of rings (size 3 to 8) (size 9 to 14) (size 15 to 20)
#    0.000    1.500    2.500    2.250   10.500    1.000 
#    0.000    0.000    0.000    1.500    0.000    0.000 
#    0.000    0.000    0.000    0.000    0.000    0.000 
#
# Total GULP energy -178325.281612 kJ/mol
# GULP energy per Si atom -5572.665050 kJ/mol
# Density = 2.106783 g / cm^3
# Si number density = 21.115893 Si / 1000 Ang^3
#
#
#
# Elastic Constant Matrix: (Units=GPa)
#
#
# Indices 1 2 3 4 5 6 
#
# 1 112.1550 24.2451 14.1429 0.0000 0.0000 0.0000
# 2 24.2451 54.6531 -0.8629 0.0000 0.0000 0.0000
# 3 14.1429 -0.8629 63.7867 0.0000 0.0000 0.0000
# 4 0.0000 0.0000 0.0000 28.8815 0.0000 0.0000
# 5 0.0000 0.0000 0.0000 0.0000 26.0920 0.0000
# 6 0.0000 0.0000 0.0000 0.0000 0.0000 24.9202
#
#
#
# Elastic Compliance Matrix: (Units=1/GPa)
#
#
# Indices 1 2 3 4 5 6 
#
# 1 0.010195 -0.004559 -0.002322 0.000000 0.000000 0.000000
# 2 -0.004559 0.020340 0.001286 0.000000 0.000000 0.000000
# 3 -0.002322 0.001286 0.016210 0.000000 0.000000 0.000000
# 4 0.000000 0.000000 0.000000 0.034624 0.000000 0.000000
# 5 0.000000 0.000000 0.000000 0.000000 0.038326 0.000000
# 6 0.000000 0.000000 0.000000 0.000000 0.000000 0.040128
#
#
# Mechanical properties :
#
#
# Convention : Reuss Voigt Hill
#
# Bulk Modulus (GPa) = 28.12638 33.96055 31.04346
# Shear Modulus (GPa) = 27.34272 28.85006 28.09639
#
# Velocity S-wave (km/s) = 3.60236 3.70032 3.65167
# Velocity P-wave (km/s) = 5.53639 5.86297 5.70201
#
# Compressibility (1/GPa) = 0.03555381
#
# Stress axis : x y z
#
# Youngs Moduli (GPa) = 98.09093 49.16406 61.69218
#
# Poissons Ratio (x) = 0.22415 0.14325
# Poissons Ratio (y) = 0.44721 -0.07934
# Poissons Ratio (z) = 0.22777 -0.06323
#
# Static dielectric constant tensor:
#      x y z
#    x 1.776900 0.000000 0.000000 
#    y 0.000000 1.893740 0.000000 
#    z 0.000000 0.000000 1.972560 
# 
# From -- ./inp_files/2303.got.cif
#   From: 2010.05.17/outbox.cif.g08.bks.cpg/sg33_2_cif.got.tgz:2303.got - 2010.06.03 17:15:25.
