data_PCOD9345162
_publ_section_title
;
Structure prediction by ZEFSAII (Michael W. Deem and Ramdas Pophale) SiO2 
 PCOD9345162
Probable space group: P N A 21
;
_chemical_formula_sum "Si O2"
_cell_formula_units_Z 28
_cell_length_a 9.605289
_cell_length_b 13.030826
_cell_length_c 8.737892
_cell_angle_alpha 90.000000
_cell_angle_beta 90.000000
_cell_angle_gamma 90.000000
_cell_volume 1093.676938
_symmetry_space_group_name_H-M "P N A 21"
_symmetry_group_IT_number 33
_symmetry_cell_setting 'orthorhombic'
loop_
_space_group_symop_operation_xyz
x,y,z
-x,-y,1/2+z
1/2-x,1/2+y,1/2+z
1/2+x,1/2-y,z
loop_
_atom_site_type_symbol
_atom_site_label
_atom_site_fract_x
_atom_site_fract_y
_atom_site_fract_z
Si Si1 0.995892 0.470657 0.132560
Si Si2 0.961114 0.303361 0.655952
Si Si3 0.805329 0.269795 0.146459
Si Si4 0.396216 0.888904 0.904492
Si Si5 0.182972 0.182900 0.827190
Si Si6 0.448338 0.630038 0.774949
Si Si7 0.119290 0.977724 0.004208
O O1 0.976621 0.585158 0.199636
O O2 0.119244 0.415353 0.225355
O O3 0.882993 0.380670 0.139476
O O4 0.993377 0.513236 0.960332
O O5 0.007717 0.299443 0.477795
O O6 0.038669 0.222540 0.760725
O O7 0.800048 0.307455 0.697134
O O8 0.736538 0.256220 0.978639
O O9 0.681409 0.291346 0.266594
O O10 0.918898 0.186387 0.195813
O O11 0.250234 0.900657 0.991964
O O12 0.161503 0.067966 0.886409
O O13 0.408181 0.534682 0.662763
O O14 0.487172 0.580489 0.936169
#
# Coordination Sequence:
#
# PCOD9345162 Si02
#       7
#     4   4   4   4   4   4   4
#     4  10  20  44  67  96 136 177 228 288 338 421
#     4  10  22  38  70  97 135 176 229 282 341 412
#     4  11  24  43  71 100 135 181 237 281 353 419
#     4  10  21  42  68  95 138 176 232 283 348 409
#     4  11  20  43  67 101 133 184 232 276 347 432
#     4  11  26  46  72 100 142 180 234 290 347 420
#     4  11  23  48  65  99 139 182 232 292 342 421
#
# _framework density 25.601710000000001
#
# number of rings (size 3 to 8) (size 9 to 14) (size 15 to 20)
#    0.857    0.571    4.286    1.714    2.000    4.571 
#   12.857    0.000    0.000    0.000    0.000    0.000 
#    0.000    0.000    0.000    0.000    0.000    0.000 
#
# Total GULP energy -156239.004209 kJ/mol
# GULP energy per Si atom -5579.964436 kJ/mol
# Density = 2.554344 g / cm^3
# Si number density = 25.601710 Si / 1000 Ang^3
#
#
#
# Elastic Constant Matrix: (Units=GPa)
#
#
# Indices 1 2 3 4 5 6 
#
# 1 62.0236 -2.3496 -3.7738 0.0000 0.0000 0.0000
# 2 -2.3496 57.1739 4.4729 0.0000 0.0000 0.0000
# 3 -3.7738 4.4729 24.5618 0.0000 0.0000 0.0000
# 4 0.0000 0.0000 0.0000 21.2512 0.0000 0.0000
# 5 0.0000 0.0000 0.0000 0.0000 51.5062 0.0000
# 6 0.0000 0.0000 0.0000 0.0000 0.0000 36.6785
#
#
#
# Elastic Compliance Matrix: (Units=1/GPa)
#
#
# Indices 1 2 3 4 5 6 
#
# 1 0.016288 0.000480 0.002415 0.000000 0.000000 0.000000
# 2 0.000480 0.017757 -0.003160 0.000000 0.000000 0.000000
# 3 0.002415 -0.003160 0.041660 0.000000 0.000000 0.000000
# 4 0.000000 0.000000 0.000000 0.047056 0.000000 0.000000
# 5 0.000000 0.000000 0.000000 0.000000 0.019415 0.000000
# 6 0.000000 0.000000 0.000000 0.000000 0.000000 0.027264
#
#
# Mechanical properties :
#
#
# Convention : Reuss Voigt Hill
#
# Bulk Modulus (GPa) = 13.30199 15.60648 14.45424
# Shear Modulus (GPa) = 25.63726 31.58117 28.60922
#
# Velocity S-wave (km/s) = 3.16791 3.51601 3.34649
# Velocity P-wave (km/s) = 4.31136 4.75313 4.53763
#
# Compressibility (1/GPa) = 0.07517670
#
# Stress axis : x y z
#
# Youngs Moduli (GPa) = 61.39477 56.31441 24.00379
#
# Poissons Ratio (x) = -0.02706 -0.05797
# Poissons Ratio (y) = -0.02950 0.07585
# Poissons Ratio (z) = -0.14827 0.17795
#
# Static dielectric constant tensor:
#      x y z
#    x 1.978530 0.000000 0.000000 
#    y 0.000000 2.093190 0.000000 
#    z 0.000000 0.000000 2.165270 
# 
# From -- ./inp_files/5907.got.cif
#   From: 2010.05.17/outbox.cif.g08.bks.cpg/sg33_3_cif.got.tgz:5907.got - 2010.06.03 17:15:25.
