data_PCOD9345863
_publ_section_title
;
Structure prediction by ZEFSAII (Michael W. Deem and Ramdas Pophale) SiO2 
 PCOD9345863
Probable space group: P N A 21
;
_chemical_formula_sum "Si O2"
_cell_formula_units_Z 32
_cell_length_a 26.985313
_cell_length_b 5.322526
_cell_length_c 8.270398
_cell_angle_alpha 90.000000
_cell_angle_beta 90.000000
_cell_angle_gamma 90.000000
_cell_volume 1187.877513
_symmetry_space_group_name_H-M "P N A 21"
_symmetry_group_IT_number 33
_symmetry_cell_setting 'orthorhombic'
loop_
_space_group_symop_operation_xyz
x,y,z
-x,-y,1/2+z
1/2-x,1/2+y,1/2+z
1/2+x,1/2-y,z
loop_
_atom_site_type_symbol
_atom_site_label
_atom_site_fract_x
_atom_site_fract_y
_atom_site_fract_z
Si Si1 0.352670 0.306178 0.375000
Si Si2 0.550020 0.037705 0.196239
Si Si3 0.930793 0.834038 0.379887
Si Si4 0.046769 0.949750 0.362571
Si Si5 0.721188 0.996600 0.078940
Si Si6 0.434506 0.062694 0.155773
Si Si7 0.691744 0.203316 0.428081
Si Si8 0.686133 0.701562 0.535053
O O1 0.378672 0.549706 0.443657
O O2 0.326578 0.113651 0.492797
O O3 0.399808 0.200731 0.281575
O O4 0.316192 0.359389 0.224323
O O5 0.561358 0.125143 0.017213
O O6 0.564621 0.265247 0.321131
O O7 0.491082 0.038129 0.209049
O O8 0.563342 0.745366 0.220863
O O9 0.919918 0.729121 0.197653
O O10 0.985810 0.964021 0.374757
O O11 0.062521 0.762210 0.508810
O O12 0.706783 0.104826 0.252495
O O13 0.754926 0.210493 0.992004
O O14 0.761754 0.771235 0.047835
O O15 0.662825 0.970899 0.505052
O O16 0.665617 0.474171 0.428901
#
# Coordination Sequence:
#
# PCOD9345863 Si02
#       8
#     4   4   4   4   4   4   4   4
#     4  12  24  45  69 105 140 183 235 299 346 426
#     4  10  22  43  71  98 140 189 237 281 353 424
#     4  10  24  41  66 103 141 185 238 287 354 420
#     4  10  22  43  71  96 140 192 234 282 354 426
#     4  10  23  43  72  99 133 178 232 280 360 416
#     4  10  24  40  69 101 140 188 235 289 353 424
#     4  10  23  43  69  98 128 180 224 281 350 422
#     4  10  24  44  69  98 132 179 229 279 354 416
#
# _framework density 26.938803
#
# number of rings (size 3 to 8) (size 9 to 14) (size 15 to 20)
#    0.750    1.000    2.500    0.000    8.750    3.000 
#    2.250    0.000    0.000    0.000    0.000    0.000 
#    0.000    0.000    0.000    0.000    0.000    0.000 
#
# Total GULP energy -178277.695962 kJ/mol
# GULP energy per Si atom -5571.177999 kJ/mol
# Density = 2.687749 g / cm^3
# Si number density = 26.938803 Si / 1000 Ang^3
#
#
#
# Elastic Constant Matrix: (Units=GPa)
#
#
# Indices 1 2 3 4 5 6 
#
# 1 59.6679 24.8205 16.2808 0.0000 0.0000 0.0000
# 2 24.8205 142.8528 32.0499 0.0000 0.0000 0.0000
# 3 16.2808 32.0499 99.6437 0.0000 0.0000 0.0000
# 4 0.0000 0.0000 0.0000 43.1501 0.0000 0.0000
# 5 0.0000 0.0000 0.0000 0.0000 27.7507 0.0000
# 6 0.0000 0.0000 0.0000 0.0000 0.0000 32.7718
#
#
#
# Elastic Compliance Matrix: (Units=1/GPa)
#
#
# Indices 1 2 3 4 5 6 
#
# 1 0.018479 -0.002730 -0.002141 0.000000 0.000000 0.000000
# 2 -0.002730 0.007948 -0.002110 0.000000 0.000000 0.000000
# 3 -0.002141 -0.002110 0.011064 0.000000 0.000000 0.000000
# 4 0.000000 0.000000 0.000000 0.023175 0.000000 0.000000
# 5 0.000000 0.000000 0.000000 0.000000 0.036035 0.000000
# 6 0.000000 0.000000 0.000000 0.000000 0.000000 0.030514
#
#
# Mechanical properties :
#
#
# Convention : Reuss Voigt Hill
#
# Bulk Modulus (GPa) = 42.50230 49.82963 46.16597
# Shear Modulus (GPa) = 33.55200 36.00208 34.77704
#
# Velocity S-wave (km/s) = 3.53298 3.65970 3.59690
# Velocity P-wave (km/s) = 5.69686 6.03286 5.86726
#
# Compressibility (1/GPa) = 0.02352814
#
# Stress axis : x y z
#
# Youngs Moduli (GPa) = 54.11423 125.81654 90.38008
#
# Poissons Ratio (x) = 0.34353 0.19352
# Poissons Ratio (y) = 0.14775 0.19073
# Poissons Ratio (z) = 0.11587 0.26552
#
# Static dielectric constant tensor:
#      x y z
#    x 2.203320 0.000000 0.000000 
#    y 0.000000 2.769290 0.000000 
#    z 0.000000 0.000000 2.179510 
# 
# From -- ./inp_files/5303.got.cif
#   From: 2010.05.17/outbox.cif.g08.bks.cpg/sg33_3_cif.got.tgz:5303.got - 2010.06.03 17:15:25.
