data_PCOD9345733
_publ_section_title
;
Structure prediction by ZEFSAII (Michael W. Deem and Ramdas Pophale) SiO2 
 PCOD9345733
Probable space group: P N A 21
;
_chemical_formula_sum "Si O2"
_cell_formula_units_Z 20
_cell_length_a 12.968709
_cell_length_b 4.887343
_cell_length_c 13.079366
_cell_angle_alpha 90.000000
_cell_angle_beta 90.000000
_cell_angle_gamma 90.000000
_cell_volume 829.003297
_symmetry_space_group_name_H-M "P N A 21"
_symmetry_group_IT_number 33
_symmetry_cell_setting 'orthorhombic'
loop_
_space_group_symop_operation_xyz
x,y,z
-x,-y,1/2+z
1/2-x,1/2+y,1/2+z
1/2+x,1/2-y,z
loop_
_atom_site_type_symbol
_atom_site_label
_atom_site_fract_x
_atom_site_fract_y
_atom_site_fract_z
Si Si1 0.742062 0.282227 0.969090
Si Si2 0.140638 0.529484 0.158466
Si Si3 0.037573 0.917177 0.920228
Si Si4 0.648646 0.470676 0.285704
Si Si5 0.540464 0.914712 0.532579
O O1 0.654079 0.482471 0.925546
O O2 0.784697 0.091366 0.877976
O O3 0.696768 0.092657 0.059503
O O4 0.838644 0.446743 0.016736
O O5 0.164296 0.838489 0.187179
O O6 0.018473 0.495782 0.135325
O O7 0.169822 0.338707 0.253933
O O8 0.970656 0.989798 0.821162
O O9 0.015684 0.602907 0.947013
O O10 0.983924 0.098041 0.009820
#
# Coordination Sequence:
#
# PCOD9345733 Si02
#       5
#     4   4   4   4   4
#     4  10  24  44  70  98 138 188 232 286 356 420
#     4  11  24  41  65 100 136 178 232 284 343 412
#     4  10  22  41  64  92 132 178 227 287 347 410
#     4  11  24  41  65 100 136 178 232 284 343 412
#     4  10  22  41  64  92 132 178 227 287 347 410
#
# _framework density 24.125354000000002
#
# number of rings (size 3 to 8) (size 9 to 14) (size 15 to 20)
#    0.000    1.600    0.000    4.800    0.000   17.600 
#    0.000    0.000    0.000    0.000    0.000    0.000 
#    0.000    0.000    0.000    0.000    0.000    0.000 
#
# Total GULP energy -111902.200388 kJ/mol
# GULP energy per Si atom -5595.110019 kJ/mol
# Density = 2.407044 g / cm^3
# Si number density = 24.125354 Si / 1000 Ang^3
#
#
#
# Elastic Constant Matrix: (Units=GPa)
#
#
# Indices 1 2 3 4 5 6 
#
# 1 162.2054 21.5891 43.3985 0.0000 0.0000 0.0000
# 2 21.5891 78.6623 20.6743 0.0000 0.0000 0.0000
# 3 43.3985 20.6743 85.2937 0.0000 0.0000 0.0000
# 4 0.0000 0.0000 0.0000 40.6855 0.0000 0.0000
# 5 0.0000 0.0000 0.0000 0.0000 47.5312 0.0000
# 6 0.0000 0.0000 0.0000 0.0000 0.0000 24.6900
#
#
#
# Elastic Compliance Matrix: (Units=1/GPa)
#
#
# Indices 1 2 3 4 5 6 
#
# 1 0.007222 -0.001086 -0.003412 0.000000 0.000000 0.000000
# 2 -0.001086 0.013741 -0.002778 0.000000 0.000000 0.000000
# 3 -0.003412 -0.002778 0.014134 0.000000 0.000000 0.000000
# 4 0.000000 0.000000 0.000000 0.024579 0.000000 0.000000
# 5 0.000000 0.000000 0.000000 0.000000 0.021039 0.000000
# 6 0.000000 0.000000 0.000000 0.000000 0.000000 0.040502
#
#
# Mechanical properties :
#
#
# Convention : Reuss Voigt Hill
#
# Bulk Modulus (GPa) = 48.67229 55.27613 51.97421
# Shear Modulus (GPa) = 35.05923 38.61464 36.83694
#
# Velocity S-wave (km/s) = 3.81624 4.00507 3.91179
# Velocity P-wave (km/s) = 6.29577 6.65952 6.48020
#
# Compressibility (1/GPa) = 0.02054557
#
# Stress axis : x y z
#
# Youngs Moduli (GPa) = 138.45994 72.77657 70.75376
#
# Poissons Ratio (x) = 0.07900 0.24139
# Poissons Ratio (y) = 0.15030 0.19657
# Poissons Ratio (z) = 0.47238 0.20219
#
# Static dielectric constant tensor:
#      x y z
#    x 1.961450 0.000000 0.000000 
#    y 0.000000 1.871430 0.000000 
#    z 0.000000 0.000000 1.927680 
# 
# From -- ./inp_files/6635.got.cif
#   From: 2010.05.17/outbox.cif.g08.bks.cpg/sg33_4_cif.got.tgz:6635.got - 2010.06.03 17:15:25.
