data_PCOD9345929
_publ_section_title
;
Structure prediction by ZEFSAII (Michael W. Deem and Ramdas Pophale) SiO2 
 PCOD9345929
Probable space group: P N A 21
;
_chemical_formula_sum "Si O2"
_cell_formula_units_Z 32
_cell_length_a 12.884479
_cell_length_b 18.957036
_cell_length_c 5.317899
_cell_angle_alpha 90.000000
_cell_angle_beta 90.000000
_cell_angle_gamma 90.000000
_cell_volume 1298.904979
_symmetry_space_group_name_H-M "P N A 21"
_symmetry_group_IT_number 33
_symmetry_cell_setting 'orthorhombic'
loop_
_space_group_symop_operation_xyz
x,y,z
-x,-y,1/2+z
1/2-x,1/2+y,1/2+z
1/2+x,1/2-y,z
loop_
_atom_site_type_symbol
_atom_site_label
_atom_site_fract_x
_atom_site_fract_y
_atom_site_fract_z
Si Si1 0.046400 0.022874 0.925960
Si Si2 0.432898 0.168147 0.515865
Si Si3 0.077079 0.849169 0.419774
Si Si4 0.264990 0.624028 0.773362
Si Si5 0.273797 0.237568 0.882782
Si Si6 0.089955 0.229969 0.578139
Si Si7 0.778024 0.032919 0.673385
Si Si8 0.464802 0.961567 0.244475
O O1 0.007239 0.098057 0.045729
O O2 0.005976 0.025286 0.642067
O O3 0.162477 0.990436 0.916995
O O4 0.358127 0.125995 0.332230
O O5 0.349714 0.216875 0.657179
O O6 0.527375 0.214228 0.408014
O O7 0.481648 0.114211 0.713509
O O8 0.153022 0.790104 0.547063
O O9 0.162756 0.901285 0.295486
O O10 0.999254 0.809289 0.232385
O O11 0.263969 0.664662 0.507613
O O12 0.339443 0.673656 0.936456
O O13 0.296584 0.543196 0.805609
O O14 0.169418 0.269665 0.766045
O O15 0.656151 0.044140 0.670648
O O16 0.517312 0.009270 0.024798
#
# Coordination Sequence:
#
# PCOD9345929 Si02
#       8
#     4   4   4   4   4   4   4   4
#     4  10  24  44  68 105 147 186 231 302 364 429
#     4  10  23  44  68  96 142 183 241 296 362 433
#     4  10  23  43  70 105 143 191 243 302 365 446
#     4  11  23  43  69 100 138 190 233 304 371 435
#     4  10  22  45  68  98 141 188 244 293 370 439
#     4  10  23  43  69 100 139 184 239 298 366 430
#     4  11  24  43  71 104 146 190 248 303 373 445
#     4  12  26  47  73 106 142 194 245 302 367 433
#
# _framework density 24.636137999999999
#
# number of rings (size 3 to 8) (size 9 to 14) (size 15 to 20)
#    0.000    1.500    1.250    2.250    7.000    6.000 
#   13.500    0.000    0.000    0.000    0.000    0.000 
#    0.000    0.000    0.000    0.000    0.000    0.000 
#
# Total GULP energy -178264.065265 kJ/mol
# GULP energy per Si atom -5570.752040 kJ/mol
# Density = 2.458007 g / cm^3
# Si number density = 24.636138 Si / 1000 Ang^3
#
#
#
# Elastic Constant Matrix: (Units=GPa)
#
#
# Indices 1 2 3 4 5 6 
#
# 1 155.6217 35.2277 18.7941 0.0000 0.0000 0.0000
# 2 35.2277 67.1314 -9.1276 0.0000 0.0000 0.0000
# 3 18.7941 -9.1276 44.1801 0.0000 0.0000 0.0000
# 4 0.0000 0.0000 0.0000 15.2785 0.0000 0.0000
# 5 0.0000 0.0000 0.0000 0.0000 32.9889 0.0000
# 6 0.0000 0.0000 0.0000 0.0000 0.0000 39.6752
#
#
#
# Elastic Compliance Matrix: (Units=1/GPa)
#
#
# Indices 1 2 3 4 5 6 
#
# 1 0.008053 -0.004827 -0.004423 0.000000 0.000000 0.000000
# 2 -0.004827 0.018220 0.005818 0.000000 0.000000 0.000000
# 3 -0.004423 0.005818 0.025718 0.000000 0.000000 0.000000
# 4 0.000000 0.000000 0.000000 0.065451 0.000000 0.000000
# 5 0.000000 0.000000 0.000000 0.000000 0.030313 0.000000
# 6 0.000000 0.000000 0.000000 0.000000 0.000000 0.025205
#
#
# Mechanical properties :
#
#
# Convention : Reuss Voigt Hill
#
# Bulk Modulus (GPa) = 22.15991 39.63574 30.89782
# Shear Modulus (GPa) = 25.65855 32.39112 29.02483
#
# Velocity S-wave (km/s) = 3.23073 3.62992 3.43613
# Velocity P-wave (km/s) = 4.78866 5.80447 5.32086
#
# Compressibility (1/GPa) = 0.04512653
#
# Stress axis : x y z
#
# Youngs Moduli (GPa) = 124.18244 54.88413 38.88320
#
# Poissons Ratio (x) = 0.26493 0.17198
# Poissons Ratio (y) = 0.59944 -0.22621
# Poissons Ratio (z) = 0.54924 -0.31930
#
# Static dielectric constant tensor:
#      x y z
#    x 2.024100 0.000000 0.000000 
#    y 0.000000 2.084980 0.000000 
#    z 0.000000 0.000000 2.010070 
# 
# From -- ./inp_files/1082.got.cif
#   From: 2010.05.17/outbox.cif.g08.bks.cpg/sg33_1_cif.got.tgz:1082.got - 2010.06.03 17:15:25.
