data_PCOD9345293
_publ_section_title
;
Structure prediction by ZEFSAII (Michael W. Deem and Ramdas Pophale) SiO2 
 PCOD9345293
Probable space group: P N A 21
;
_chemical_formula_sum "Si O2"
_cell_formula_units_Z 28
_cell_length_a 13.551702
_cell_length_b 4.939130
_cell_length_c 16.965886
_cell_angle_alpha 90.000000
_cell_angle_beta 90.000000
_cell_angle_gamma 90.000000
_cell_volume 1135.588131
_symmetry_space_group_name_H-M "P N A 21"
_symmetry_group_IT_number 33
_symmetry_cell_setting 'orthorhombic'
loop_
_space_group_symop_operation_xyz
x,y,z
-x,-y,1/2+z
1/2-x,1/2+y,1/2+z
1/2+x,1/2-y,z
loop_
_atom_site_type_symbol
_atom_site_label
_atom_site_fract_x
_atom_site_fract_y
_atom_site_fract_z
Si Si1 0.909436 0.851099 0.046720
Si Si2 0.524205 0.611774 0.381964
Si Si3 0.238198 0.858578 0.333648
Si Si4 0.627163 0.046675 0.967994
Si Si5 0.819070 0.346161 0.116296
Si Si6 0.617629 0.536512 0.075270
Si Si7 0.148034 0.868213 0.780008
O O1 0.604264 0.235946 0.041701
O O2 0.874506 0.546777 0.057201
O O3 0.008217 0.878228 0.100938
O O4 0.823715 0.051054 0.076500
O O5 0.622100 0.676626 0.333496
O O6 0.559188 0.447051 0.459780
O O7 0.448021 0.437290 0.330411
O O8 0.464334 0.879173 0.410070
O O9 0.293659 0.652223 0.275576
O O10 0.281157 0.817451 0.422029
O O11 0.275788 0.163946 0.321561
O O12 0.640429 0.747272 0.003135
O O13 0.712609 0.487282 0.129679
O O14 0.871928 0.284062 0.198548
#
# Coordination Sequence:
#
# PCOD9345293 Si02
#       7
#     4   4   4   4   4   4   4
#     4  11  24  41  71 101 131 180 234 286 347 407
#     4  10  23  43  72 108 141 181 240 301 355 423
#     4  11  22  41  67  94 135 186 222 281 366 415
#     4  10  21  38  65 101 133 165 223 289 338 409
#     4  12  25  45  66  98 141 185 231 285 347 424
#     4  11  22  40  65  97 135 172 221 282 343 410
#     4  11  27  44  64 101 144 183 237 290 348 438
#
# _framework density 24.656825000000001
#
# number of rings (size 3 to 8) (size 9 to 14) (size 15 to 20)
#    0.000    1.143    0.000    7.714    0.000    8.000 
#    0.000    2.857    0.000    0.000    0.000    0.000 
#    0.000    0.000    0.000    0.000    0.000    0.000 
#
# Total GULP energy -156448.609353 kJ/mol
# GULP energy per Si atom -5587.450334 kJ/mol
# Density = 2.460071 g / cm^3
# Si number density = 24.656825 Si / 1000 Ang^3
#
#
#
# Elastic Constant Matrix: (Units=GPa)
#
#
# Indices 1 2 3 4 5 6 
#
# 1 129.4296 29.7660 8.3801 0.0000 0.0000 0.0000
# 2 29.7660 129.0770 18.6899 0.0000 0.0000 0.0000
# 3 8.3801 18.6899 45.0256 0.0000 0.0000 0.0000
# 4 0.0000 0.0000 0.0000 29.3175 0.0000 0.0000
# 5 0.0000 0.0000 0.0000 0.0000 21.4537 0.0000
# 6 0.0000 0.0000 0.0000 0.0000 0.0000 37.5622
#
#
#
# Elastic Compliance Matrix: (Units=1/GPa)
#
#
# Indices 1 2 3 4 5 6 
#
# 1 0.008185 -0.001774 -0.000787 0.000000 0.000000 0.000000
# 2 -0.001774 0.008627 -0.003251 0.000000 0.000000 0.000000
# 3 -0.000787 -0.003251 0.023706 0.000000 0.000000 0.000000
# 4 0.000000 0.000000 0.000000 0.034109 0.000000 0.000000
# 5 0.000000 0.000000 0.000000 0.000000 0.046612 0.000000
# 6 0.000000 0.000000 0.000000 0.000000 0.000000 0.026622
#
#
# Mechanical properties :
#
#
# Convention : Reuss Voigt Hill
#
# Bulk Modulus (GPa) = 34.60896 46.35602 40.48249
# Shear Modulus (GPa) = 29.56547 34.11311 31.83929
#
# Velocity S-wave (km/s) = 3.46653 3.72360 3.59736
# Velocity P-wave (km/s) = 5.48536 6.10968 5.80592
#
# Compressibility (1/GPa) = 0.02889425
#
# Stress axis : x y z
#
# Youngs Moduli (GPa) = 122.17396 115.91477 42.18421
#
# Poissons Ratio (x) = 0.20558 0.03321
# Poissons Ratio (y) = 0.21668 0.13714
# Poissons Ratio (z) = 0.09617 0.37683
#
# Static dielectric constant tensor:
#      x y z
#    x 2.030350 0.000000 0.000000 
#    y 0.000000 1.907100 0.000000 
#    z 0.000000 0.000000 2.042730 
# 
# From -- ./inp_files/9067.got.cif
#   From: 2010.05.17/outbox.cif.g08.bks.cpg/sg33_5_cif.got.tgz:9067.got - 2010.06.03 17:15:25.
