data_PCOD9345146
_publ_section_title
;
Structure prediction by ZEFSAII (Michael W. Deem and Ramdas Pophale) SiO2 
 PCOD9345146
Probable space group: P N A 21
;
_chemical_formula_sum "Si O2"
_cell_formula_units_Z 32
_cell_length_a 16.837560
_cell_length_b 10.340686
_cell_length_c 7.445583
_cell_angle_alpha 90.000000
_cell_angle_beta 90.000000
_cell_angle_gamma 90.000000
_cell_volume 1296.364759
_symmetry_space_group_name_H-M "P N A 21"
_symmetry_group_IT_number 33
_symmetry_cell_setting 'orthorhombic'
loop_
_space_group_symop_operation_xyz
x,y,z
-x,-y,1/2+z
1/2-x,1/2+y,1/2+z
1/2+x,1/2-y,z
loop_
_atom_site_type_symbol
_atom_site_label
_atom_site_fract_x
_atom_site_fract_y
_atom_site_fract_z
Si Si1 0.859519 0.328762 0.836110
Si Si2 0.368313 0.342778 0.522165
Si Si3 0.780855 0.521918 0.593545
Si Si4 0.643335 0.112278 0.769595
Si Si5 0.301747 0.785020 0.904226
Si Si6 0.505248 0.047460 0.033380
Si Si7 0.526593 0.216660 0.387522
Si Si8 0.683399 0.390178 0.866549
O O1 0.876434 0.196610 0.730873
O O2 0.771785 0.340412 0.921513
O O3 0.070124 0.452351 0.873603
O O4 0.927569 0.375729 0.965075
O O5 0.290207 0.259212 0.456571
O O6 0.448243 0.302155 0.416259
O O7 0.349813 0.493424 0.484671
O O8 0.785201 0.548577 0.385973
O O9 0.791149 0.650867 0.710491
O O10 0.702824 0.453579 0.671110
O O11 0.851963 0.434094 0.674722
O O12 0.675646 0.115116 0.566819
O O13 0.634024 0.262512 0.829290
O O14 0.387280 0.713340 0.896301
O O15 0.529264 0.133357 0.204369
O O16 0.481044 0.895273 0.042052
#
# Coordination Sequence:
#
# PCOD9345146 Si02
#       8
#     4   4   4   4   4   4   4   4
#     4  10  20  43  65  97 134 170 237 285 337 409
#     4  11  22  42  69  95 142 182 220 294 345 404
#     4   9  20  41  64  96 136 165 233 279 333 407
#     4  12  21  39  71  91 141 183 212 289 352 401
#     4  11  21  42  67 101 136 180 224 288 345 397
#     4  12  23  39  69 104 133 179 235 297 346 405
#     4  12  24  41  68 104 141 176 237 295 344 407
#     4   9  23  41  65  98 141 171 232 277 336 432
#
# _framework density 24.684411000000001
#
# number of rings (size 3 to 8) (size 9 to 14) (size 15 to 20)
#    0.750    0.500    3.750    3.000    0.000    2.000 
#    0.000    7.500    0.000    0.000    0.000    0.000 
#    0.000    0.000    0.000    0.000    0.000    0.000 
#
# Total GULP energy -178289.746057 kJ/mol
# GULP energy per Si atom -5571.554564 kJ/mol
# Density = 2.462823 g / cm^3
# Si number density = 24.684411 Si / 1000 Ang^3
#
#
#
# Elastic Constant Matrix: (Units=GPa)
#
#
# Indices 1 2 3 4 5 6 
#
# 1 124.9414 11.0749 -18.1801 0.0000 0.0000 0.0000
# 2 11.0749 67.1047 -15.5115 0.0000 0.0000 0.0000
# 3 -18.1801 -15.5115 69.7541 0.0000 0.0000 0.0000
# 4 0.0000 0.0000 0.0000 31.8838 0.0000 0.0000
# 5 0.0000 0.0000 0.0000 0.0000 24.9104 0.0000
# 6 0.0000 0.0000 0.0000 0.0000 0.0000 37.4739
#
#
#
# Elastic Compliance Matrix: (Units=1/GPa)
#
#
# Indices 1 2 3 4 5 6 
#
# 1 0.008373 -0.000925 0.001977 0.000000 0.000000 0.000000
# 2 -0.000925 0.015812 0.003275 0.000000 0.000000 0.000000
# 3 0.001977 0.003275 0.015580 0.000000 0.000000 0.000000
# 4 0.000000 0.000000 0.000000 0.031364 0.000000 0.000000
# 5 0.000000 0.000000 0.000000 0.000000 0.040144 0.000000
# 6 0.000000 0.000000 0.000000 0.000000 0.000000 0.026685
#
#
# Mechanical properties :
#
#
# Convention : Reuss Voigt Hill
#
# Bulk Modulus (GPa) = 20.65346 24.06298 22.35822
# Shear Modulus (GPa) = 34.37757 37.81475 36.09616
#
# Velocity S-wave (km/s) = 3.73592 3.91823 3.82816
# Velocity P-wave (km/s) = 5.19563 5.49904 5.34949
#
# Compressibility (1/GPa) = 0.04841804
#
# Stress axis : x y z
#
# Youngs Moduli (GPa) = 119.42625 63.24396 64.18679
#
# Poissons Ratio (x) = 0.05850 -0.12688
# Poissons Ratio (y) = 0.11047 -0.21021
# Poissons Ratio (z) = -0.23607 -0.20713
#
# Static dielectric constant tensor:
#      x y z
#    x 2.097460 0.000000 0.000000 
#    y 0.000000 2.025130 0.000000 
#    z 0.000000 0.000000 2.022350 
# 
# From -- ./inp_files/4435.got.cif
#   From: 2010.05.17/outbox.cif.g08.bks.cpg/sg33_3_cif.got.tgz:4435.got - 2010.06.03 17:15:25.
