data_PCOD9345416
_publ_section_title
;
Structure prediction by ZEFSAII (Michael W. Deem and Ramdas Pophale) SiO2 
 PCOD9345416
Probable space group: P N A 21
;
_chemical_formula_sum "Si O2"
_cell_formula_units_Z 32
_cell_length_a 21.346704
_cell_length_b 5.218436
_cell_length_c 12.118300
_cell_angle_alpha 90.000000
_cell_angle_beta 90.000000
_cell_angle_gamma 90.000000
_cell_volume 1349.935099
_symmetry_space_group_name_H-M "P N A 21"
_symmetry_group_IT_number 33
_symmetry_cell_setting 'orthorhombic'
loop_
_space_group_symop_operation_xyz
x,y,z
-x,-y,1/2+z
1/2-x,1/2+y,1/2+z
1/2+x,1/2-y,z
loop_
_atom_site_type_symbol
_atom_site_label
_atom_site_fract_x
_atom_site_fract_y
_atom_site_fract_z
Si Si1 0.323139 0.479562 0.281300
Si Si2 0.606365 0.009420 0.723931
Si Si3 0.099361 0.764842 0.138361
Si Si4 0.857462 0.729724 0.000299
Si Si5 0.343745 0.636128 0.503519
Si Si6 0.460604 0.980692 0.442493
Si Si7 0.408894 0.247402 0.894136
Si Si8 0.765943 0.482308 0.600550
O O1 0.344520 0.776694 0.271621
O O2 0.331041 0.419647 0.410295
O O3 0.257134 0.452879 0.223219
O O4 0.363696 0.272669 0.213422
O O5 0.599151 0.141325 0.604858
O O6 0.551062 0.954768 0.812324
O O7 0.078239 0.744374 0.263090
O O8 0.163704 0.613875 0.115254
O O9 0.127949 0.044701 0.118871
O O10 0.051229 0.691218 0.039268
O O11 0.860290 0.479623 0.923520
O O12 0.885185 0.978835 0.938706
O O13 0.788871 0.806699 0.048339
O O14 0.402931 0.791915 0.460969
O O15 0.278347 0.776613 0.522013
O O16 0.525695 0.834113 0.450407
#
# Coordination Sequence:
#
# PCOD9345416 Si02
#       8
#     4   4   4   4   4   4   4   4
#     4  10  21  40  69 104 137 185 246 294 363 438
#     4  10  21  44  72 102 137 188 249 297 362 434
#     4  11  26  48  72 110 147 202 249 307 388 440
#     4  11  27  49  72 115 148 199 249 309 386 445
#     4  10  23  45  73 106 146 197 250 307 378 453
#     4  10  25  48  74 107 145 201 256 312 370 450
#     4  12  30  47  75 112 154 198 249 320 376 445
#     4  10  25  43  73 106 150 192 242 314 371 463
#
# _framework density 23.704843
#
# number of rings (size 3 to 8) (size 9 to 14) (size 15 to 20)
#    0.000    1.500    1.250    1.500   14.000    0.000 
#    0.000    0.000    0.000    0.000    0.000    0.000 
#    0.000    0.000    0.000    0.000    0.000    0.000 
#
# Total GULP energy -178244.879021 kJ/mol
# GULP energy per Si atom -5570.152469 kJ/mol
# Density = 2.365089 g / cm^3
# Si number density = 23.704843 Si / 1000 Ang^3
#
#
#
# Elastic Constant Matrix: (Units=GPa)
#
#
# Indices 1 2 3 4 5 6 
#
# 1 68.5822 10.1023 35.1550 0.0000 0.0000 0.0000
# 2 10.1023 65.4734 42.5867 0.0000 0.0000 0.0000
# 3 35.1550 42.5867 125.0712 0.0000 0.0000 0.0000
# 4 0.0000 0.0000 0.0000 34.2615 0.0000 0.0000
# 5 0.0000 0.0000 0.0000 0.0000 34.7524 0.0000
# 6 0.0000 0.0000 0.0000 0.0000 0.0000 4.8403
#
#
#
# Elastic Compliance Matrix: (Units=1/GPa)
#
#
# Indices 1 2 3 4 5 6 
#
# 1 0.017055 0.000625 -0.005007 0.000000 0.000000 0.000000
# 2 0.000625 0.019641 -0.006864 0.000000 0.000000 0.000000
# 3 -0.005007 -0.006864 0.011740 0.000000 0.000000 0.000000
# 4 0.000000 0.000000 0.000000 0.029187 0.000000 0.000000
# 5 0.000000 0.000000 0.000000 0.000000 0.028775 0.000000
# 6 0.000000 0.000000 0.000000 0.000000 0.000000 0.206598
#
#
# Mechanical properties :
#
#
# Convention : Reuss Voigt Hill
#
# Bulk Modulus (GPa) = 38.54165 48.31276 43.42720
# Shear Modulus (GPa) = 14.52914 26.18971 20.35943
#
# Velocity S-wave (km/s) = 2.47841 3.32750 2.93383
# Velocity P-wave (km/s) = 4.94816 5.93196 5.46225
#
# Compressibility (1/GPa) = 0.02594596
#
# Stress axis : x y z
#
# Youngs Moduli (GPa) = 58.63240 50.91318 85.18052
#
# Poissons Ratio (x) = -0.03182 0.42648
# Poissons Ratio (y) = -0.03665 0.58464
# Poissons Ratio (z) = 0.29356 0.34944
#
# Static dielectric constant tensor:
#      x y z
#    x 1.853110 0.000000 0.000000 
#    y 0.000000 2.236560 0.000000 
#    z 0.000000 0.000000 2.038690 
# 
# From -- ./inp_files/7209.got.cif
#   From: 2010.05.17/outbox.cif.g08.bks.cpg/sg33_4_cif.got.tgz:7209.got - 2010.06.03 17:15:25.
