data_PCOD9345167
_publ_section_title
;
Structure prediction by ZEFSAII (Michael W. Deem and Ramdas Pophale) SiO2 
 PCOD9345167
Probable space group: P N A 21
;
_chemical_formula_sum "Si O2"
_cell_formula_units_Z 28
_cell_length_a 7.777738
_cell_length_b 22.252882
_cell_length_c 5.719218
_cell_angle_alpha 90.000000
_cell_angle_beta 90.000000
_cell_angle_gamma 90.000000
_cell_volume 989.865585
_symmetry_space_group_name_H-M "P N A 21"
_symmetry_group_IT_number 33
_symmetry_cell_setting 'orthorhombic'
loop_
_space_group_symop_operation_xyz
x,y,z
-x,-y,1/2+z
1/2-x,1/2+y,1/2+z
1/2+x,1/2-y,z
loop_
_atom_site_type_symbol
_atom_site_label
_atom_site_fract_x
_atom_site_fract_y
_atom_site_fract_z
Si Si1 0.036611 0.943487 0.259700
Si Si2 0.945493 0.793744 0.984712
Si Si3 0.903544 0.488324 0.278501
Si Si4 0.514781 0.121569 0.124059
Si Si5 0.255720 0.272577 0.160854
Si Si6 0.626894 0.805930 0.258830
Si Si7 0.887113 0.072630 0.253111
O O1 0.022912 0.909402 0.506953
O O2 0.228473 0.973642 0.270047
O O3 0.036089 0.911110 0.008294
O O4 0.907119 0.999558 0.255938
O O5 0.821473 0.820666 0.180147
O O6 0.992767 0.725805 0.083092
O O7 0.804280 0.788614 0.778648
O O8 0.118744 0.806211 0.839763
O O9 0.002889 0.501217 0.523480
O O10 0.875110 0.416092 0.265961
O O11 0.582760 0.189616 0.137604
O O12 0.447662 0.131299 0.859284
O O13 0.689906 0.089967 0.212924
O O14 0.336746 0.254231 0.918040
#
# Coordination Sequence:
#
# PCOD9345167 Si02
#       7
#     4   4   4   4   4   4   4
#     4  10  20  45  64  97 138 179 217 304 348 413
#     4  10  22  42  70  93 143 192 224 297 367 409
#     4  12  24  45  70 103 143 181 237 305 356 437
#     4  12  24  42  72 102 136 194 237 295 377 441
#     4  11  22  44  66 101 143 184 237 301 355 440
#     4  11  22  44  66 100 142 181 240 299 353 442
#     4  10  22  40  72  94 133 179 234 277 364 426
#
# _framework density 28.286669
#
# number of rings (size 3 to 8) (size 9 to 14) (size 15 to 20)
#    0.000    1.143    5.714    0.000    0.000    2.286 
#    5.143    2.857    0.000    0.000    0.000    0.000 
#    0.000    0.000    0.000    0.000    0.000    0.000 
#
# Total GULP energy -156047.495596 kJ/mol
# GULP energy per Si atom -5573.124843 kJ/mol
# Density = 2.822229 g / cm^3
# Si number density = 28.286669 Si / 1000 Ang^3
#
#
#
# Elastic Constant Matrix: (Units=GPa)
#
#
# Indices 1 2 3 4 5 6 
#
# 1 116.4933 19.8414 33.7787 0.0000 0.0000 0.0000
# 2 19.8414 46.7465 32.3768 0.0000 0.0000 0.0000
# 3 33.7787 32.3768 161.0217 0.0000 0.0000 0.0000
# 4 0.0000 0.0000 0.0000 12.9073 0.0000 0.0000
# 5 0.0000 0.0000 0.0000 0.0000 52.1009 0.0000
# 6 0.0000 0.0000 0.0000 0.0000 0.0000 26.2809
#
#
#
# Elastic Compliance Matrix: (Units=1/GPa)
#
#
# Indices 1 2 3 4 5 6 
#
# 1 0.009508 -0.003084 -0.001375 0.000000 0.000000 0.000000
# 2 -0.003084 0.025853 -0.004551 0.000000 0.000000 0.000000
# 3 -0.001375 -0.004551 0.007414 0.000000 0.000000 0.000000
# 4 0.000000 0.000000 0.000000 0.077476 0.000000 0.000000
# 5 0.000000 0.000000 0.000000 0.000000 0.019194 0.000000
# 6 0.000000 0.000000 0.000000 0.000000 0.000000 0.038050
#
#
# Mechanical properties :
#
#
# Convention : Reuss Voigt Hill
#
# Bulk Modulus (GPa) = 40.39461 55.13947 47.76704
# Shear Modulus (GPa) = 24.53800 34.14212 29.34006
#
# Velocity S-wave (km/s) = 2.94849 3.47797 3.22411
# Velocity P-wave (km/s) = 5.08949 5.97191 5.54827
#
# Compressibility (1/GPa) = 0.02475578
#
# Stress axis : x y z
#
# Youngs Moduli (GPa) = 105.17513 38.68000 134.88259
#
# Poissons Ratio (x) = 0.11927 0.18540
# Poissons Ratio (y) = 0.32432 0.61391
# Poissons Ratio (z) = 0.14457 0.17605
#
# Static dielectric constant tensor:
#      x y z
#    x 2.182410 0.000000 0.000000 
#    y 0.000000 2.481760 0.000000 
#    z 0.000000 0.000000 2.356840 
# 
# From -- ./inp_files/550.got.cif
#   From: 2010.05.17/outbox.cif.g08.bks.cpg/sg33_1_cif.got.tgz:550.got - 2010.06.03 17:15:25.
