data_PCOD9345839
_publ_section_title
;
Structure prediction by ZEFSAII (Michael W. Deem and Ramdas Pophale) SiO2 
 PCOD9345839
Probable space group: P N A 21
;
_chemical_formula_sum "Si O2"
_cell_formula_units_Z 32
_cell_length_a 18.212182
_cell_length_b 8.140666
_cell_length_c 9.686269
_cell_angle_alpha 90.000000
_cell_angle_beta 90.000000
_cell_angle_gamma 90.000000
_cell_volume 1436.079372
_symmetry_space_group_name_H-M "P N A 21"
_symmetry_group_IT_number 33
_symmetry_cell_setting 'orthorhombic'
loop_
_space_group_symop_operation_xyz
x,y,z
-x,-y,1/2+z
1/2-x,1/2+y,1/2+z
1/2+x,1/2-y,z
loop_
_atom_site_type_symbol
_atom_site_label
_atom_site_fract_x
_atom_site_fract_y
_atom_site_fract_z
Si Si1 0.499216 0.871867 0.493840
Si Si2 0.294173 0.949148 0.193979
Si Si3 0.149411 0.073901 0.303329
Si Si4 0.839552 0.077804 0.524247
Si Si5 0.607474 0.308974 0.806210
Si Si6 0.919098 0.043778 0.085842
Si Si7 0.109860 0.715922 0.797790
Si Si8 0.553218 0.114532 0.285736
O O1 0.435838 0.834291 0.384124
O O2 0.527276 0.690564 0.538910
O O3 0.465074 0.951522 0.631948
O O4 0.557142 0.980854 0.407703
O O5 0.247327 0.942006 0.054191
O O6 0.319915 0.769506 0.238595
O O7 0.236419 0.040565 0.296066
O O8 0.365471 0.060540 0.208528
O O9 0.120294 0.257864 0.277111
O O10 0.125134 0.957089 0.174668
O O11 0.117449 0.021413 0.448678
O O12 0.856552 0.246487 0.446664
O O13 0.870549 0.937168 0.424733
O O14 0.558728 0.392790 0.685275
O O15 0.866399 0.138360 0.193654
O O16 0.022053 0.715755 0.820216
#
# Coordination Sequence:
#
# PCOD9345839 Si02
#       8
#     4   4   4   4   4   4   4   4
#     4  11  24  43  66 104 136 184 235 293 360 427
#     4  10  23  41  70  99 135 175 242 284 363 417
#     4  10  24  40  65 102 135 182 236 291 345 430
#     4   9  23  41  67  93 138 180 228 293 354 423
#     4  11  22  46  71  96 138 186 231 293 361 434
#     4  10  26  39  67 100 135 178 231 286 356 421
#     4  10  22  43  66  97 138 184 232 291 358 427
#     4  11  24  43  66 101 143 183 239 291 357 429
#
# _framework density 22.282890999999999
#
# number of rings (size 3 to 8) (size 9 to 14) (size 15 to 20)
#    0.750    1.000    2.500    0.000   10.500    1.000 
#    0.000    0.000    0.000    0.000    0.000    0.000 
#    0.000    0.000    0.000    0.000    0.000    0.000 
#
# Total GULP energy -178173.212805 kJ/mol
# GULP energy per Si atom -5567.912900 kJ/mol
# Density = 2.223217 g / cm^3
# Si number density = 22.282891 Si / 1000 Ang^3
#
#
#
# Elastic Constant Matrix: (Units=GPa)
#
#
# Indices 1 2 3 4 5 6 
#
# 1 50.4136 16.3702 10.5220 0.0000 0.0000 0.0000
# 2 16.3702 35.2314 35.7583 0.0000 0.0000 0.0000
# 3 10.5220 35.7583 138.9009 0.0000 0.0000 0.0000
# 4 0.0000 0.0000 0.0000 43.1666 0.0000 0.0000
# 5 0.0000 0.0000 0.0000 0.0000 23.6362 0.0000
# 6 0.0000 0.0000 0.0000 0.0000 0.0000 30.0984
#
#
#
# Elastic Compliance Matrix: (Units=1/GPa)
#
#
# Indices 1 2 3 4 5 6 
#
# 1 0.023560 -0.012367 0.001399 0.000000 0.000000 0.000000
# 2 -0.012367 0.044915 -0.010626 0.000000 0.000000 0.000000
# 3 0.001399 -0.010626 0.009829 0.000000 0.000000 0.000000
# 4 0.000000 0.000000 0.000000 0.023166 0.000000 0.000000
# 5 0.000000 0.000000 0.000000 0.000000 0.042308 0.000000
# 6 0.000000 0.000000 0.000000 0.000000 0.000000 0.033224
#
#
# Mechanical properties :
#
#
# Convention : Reuss Voigt Hill
#
# Bulk Modulus (GPa) = 28.47720 38.87187 33.67454
# Shear Modulus (GPa) = 21.56148 30.17326 25.86737
#
# Velocity S-wave (km/s) = 3.11404 3.68380 3.41084
# Velocity P-wave (km/s) = 5.07319 5.96460 5.53686
#
# Compressibility (1/GPa) = 0.03511581
#
# Stress axis : x y z
#
# Youngs Moduli (GPa) = 42.44536 22.26429 101.74062
#
# Poissons Ratio (x) = 0.27534 -0.14234
# Poissons Ratio (y) = 0.52492 1.08109
# Poissons Ratio (z) = -0.05938 0.23658
#
# Static dielectric constant tensor:
#      x y z
#    x 1.845520 0.000000 0.000000 
#    y 0.000000 1.942340 0.000000 
#    z 0.000000 0.000000 1.844110 
# 
# From -- ./inp_files/5022.got.cif
#   From: 2010.05.17/outbox.cif.g08.bks.cpg/sg33_3_cif.got.tgz:5022.got - 2010.06.03 17:15:25.
