data_PCOD9345599
_publ_section_title
;
Structure prediction by ZEFSAII (Michael W. Deem and Ramdas Pophale) SiO2 
 PCOD9345599
Probable space group: P N A 21
;
_chemical_formula_sum "Si O2"
_cell_formula_units_Z 32
_cell_length_a 5.528267
_cell_length_b 17.144243
_cell_length_c 14.020237
_cell_angle_alpha 90.000000
_cell_angle_beta 90.000000
_cell_angle_gamma 90.000000
_cell_volume 1328.809361
_symmetry_space_group_name_H-M "P N A 21"
_symmetry_group_IT_number 33
_symmetry_cell_setting 'orthorhombic'
loop_
_space_group_symop_operation_xyz
x,y,z
-x,-y,1/2+z
1/2-x,1/2+y,1/2+z
1/2+x,1/2-y,z
loop_
_atom_site_type_symbol
_atom_site_label
_atom_site_fract_x
_atom_site_fract_y
_atom_site_fract_z
Si Si1 0.271994 0.457070 0.944070
Si Si2 0.967178 0.710595 0.444132
Si Si3 0.710597 0.434016 0.728059
Si Si4 0.507355 0.270396 0.729626
Si Si5 0.448842 0.204971 0.372123
Si Si6 0.638191 0.487875 0.087715
Si Si7 0.997601 0.397327 0.546898
Si Si8 0.106058 0.539295 0.774676
O O1 0.111629 0.379441 0.954106
O O2 0.305112 0.492522 0.837825
O O3 0.524246 0.442429 0.999462
O O4 0.141540 0.530033 0.996089
O O5 0.731408 0.760357 0.480375
O O6 0.995597 0.724615 0.330125
O O7 0.548813 0.360867 0.757047
O O8 0.572239 0.495425 0.662616
O O9 0.901060 0.393829 0.653970
O O10 0.874516 0.484860 0.797057
O O11 0.249813 0.260814 0.679763
O O12 0.703473 0.247344 0.352767
O O13 0.454439 0.176870 0.482044
O O14 0.432539 0.125491 0.311912
O O15 0.728247 0.571808 0.049542
O O16 0.841095 0.457064 0.161215
#
# Coordination Sequence:
#
# PCOD9345599 Si02
#       8
#     4   4   4   4   4   4   4   4
#     4  10  22  41  67  97 138 187 232 292 345 427
#     4  10  22  37  59  94 132 174 218 266 339 407
#     4  10  22  39  66  96 135 181 233 293 352 435
#     4  10  22  36  55  93 137 168 209 263 338 412
#     4  11  27  46  71 102 143 187 244 301 367 431
#     4  10  23  41  72 101 135 176 256 290 353 417
#     4   9  23  43  65  96 131 181 238 292 361 421
#     4  10  23  43  71 101 135 192 242 297 357 426
#
# _framework density 24.081710000000001
#
# number of rings (size 3 to 8) (size 9 to 14) (size 15 to 20)
#    0.000    2.000    0.000    1.500   15.750    2.000 
#    0.000    1.250    0.000    0.000    0.000    0.000 
#    0.000    0.000    0.000    0.000    0.000    0.000 
#
# Total GULP energy -178664.803218 kJ/mol
# GULP energy per Si atom -5583.275101 kJ/mol
# Density = 2.402690 g / cm^3
# Si number density = 24.081710 Si / 1000 Ang^3
#
#
#
# Elastic Constant Matrix: (Units=GPa)
#
#
# Indices 1 2 3 4 5 6 
#
# 1 135.3696 43.3670 19.5033 0.0000 0.0000 0.0000
# 2 43.3670 124.3458 24.7883 0.0000 0.0000 0.0000
# 3 19.5033 24.7883 52.0568 0.0000 0.0000 0.0000
# 4 0.0000 0.0000 0.0000 28.9160 0.0000 0.0000
# 5 0.0000 0.0000 0.0000 0.0000 26.6345 0.0000
# 6 0.0000 0.0000 0.0000 0.0000 0.0000 41.7702
#
#
#
# Elastic Compliance Matrix: (Units=1/GPa)
#
#
# Indices 1 2 3 4 5 6 
#
# 1 0.008493 -0.002572 -0.001957 0.000000 0.000000 0.000000
# 2 -0.002572 0.009664 -0.003638 0.000000 0.000000 0.000000
# 3 -0.001957 -0.003638 0.021676 0.000000 0.000000 0.000000
# 4 0.000000 0.000000 0.000000 0.034583 0.000000 0.000000
# 5 0.000000 0.000000 0.000000 0.000000 0.037545 0.000000
# 6 0.000000 0.000000 0.000000 0.000000 0.000000 0.023941
#
#
# Mechanical properties :
#
#
# Convention : Reuss Voigt Hill
#
# Bulk Modulus (GPa) = 42.55691 54.12103 48.33897
# Shear Modulus (GPa) = 31.23638 34.40503 32.82071
#
# Velocity S-wave (km/s) = 3.60543 3.78389 3.69574
# Velocity P-wave (km/s) = 5.91967 6.45082 6.19094
#
# Compressibility (1/GPa) = 0.02349795
#
# Stress axis : x y z
#
# Youngs Moduli (GPa) = 117.74253 103.47277 46.13477
#
# Poissons Ratio (x) = 0.26612 0.09030
# Poissons Ratio (y) = 0.30282 0.16786
# Poissons Ratio (z) = 0.23046 0.37648
#
# Static dielectric constant tensor:
#      x y z
#    x 2.071750 0.000000 0.000000 
#    y 0.000000 1.923020 0.000000 
#    z 0.000000 0.000000 1.954750 
# 
# From -- ./inp_files/7442.got.cif
#   From: 2010.05.17/outbox.cif.g08.bks.cpg/sg33_4_cif.got.tgz:7442.got - 2010.06.03 17:15:25.
