data_PCOD9345610
_publ_section_title
;
Structure prediction by ZEFSAII (Michael W. Deem and Ramdas Pophale) SiO2 
 PCOD9345610
Probable space group: P N A 21
;
_chemical_formula_sum "Si O2"
_cell_formula_units_Z 32
_cell_length_a 23.457096
_cell_length_b 12.222872
_cell_length_c 5.206729
_cell_angle_alpha 90.000000
_cell_angle_beta 90.000000
_cell_angle_gamma 90.000000
_cell_volume 1492.837318
_symmetry_space_group_name_H-M "P N A 21"
_symmetry_group_IT_number 33
_symmetry_cell_setting 'orthorhombic'
loop_
_space_group_symop_operation_xyz
x,y,z
-x,-y,1/2+z
1/2-x,1/2+y,1/2+z
1/2+x,1/2-y,z
loop_
_atom_site_type_symbol
_atom_site_label
_atom_site_fract_x
_atom_site_fract_y
_atom_site_fract_z
Si Si1 0.404461 0.703764 0.023990
Si Si2 0.119535 0.780354 0.116327
Si Si3 0.341779 0.642491 0.506736
Si Si4 0.360922 0.156739 0.128940
Si Si5 0.748103 0.702248 0.658004
Si Si6 0.166543 0.412488 0.564265
Si Si7 0.285177 0.432671 0.759875
Si Si8 0.512878 0.571980 0.087414
O O1 0.371247 0.627280 0.231589
O O2 0.470004 0.674265 0.058776
O O3 0.385484 0.681359 0.730387
O O4 0.383445 0.824741 0.102934
O O5 0.113737 0.727420 0.396001
O O6 0.183769 0.831481 0.114881
O O7 0.076554 0.881209 0.084185
O O8 0.109492 0.690772 0.895503
O O9 0.293157 0.734578 0.470298
O O10 0.311770 0.538784 0.636617
O O11 0.296460 0.198134 0.189217
O O12 0.360215 0.032212 0.031682
O O13 0.792068 0.645910 0.854333
O O14 0.707199 0.604665 0.553642
O O15 0.216787 0.439114 0.764940
O O16 0.500156 0.508614 0.351139
#
# Coordination Sequence:
#
# PCOD9345610 Si02
#       8
#     4   4   4   4   4   4   4   4
#     4  11  25  43  64  98 126 168 224 273 315 396
#     4  11  25  42  62  98 129 171 218 276 323 388
#     4  11  23  37  63  95 130 164 211 263 325 377
#     4  11  24  40  62  94 135 172 213 264 327 387
#     4  10  22  37  57  91 132 171 215 251 311 397
#     4  11  23  39  64  92 133 178 211 262 328 393
#     4  11  21  36  62  90 130 170 209 259 324 389
#     4  12  25  48  74  96 127 170 221 282 333 379
#
# _framework density 21.435690000000001
#
# number of rings (size 3 to 8) (size 9 to 14) (size 15 to 20)
#    0.000    1.000    3.750    3.000    3.500    1.000 
#    0.000    1.250    0.000    0.000    0.000    0.000 
#    0.000    0.000    0.000    0.000    0.000    0.000 
#
# Total GULP energy -178189.127126 kJ/mol
# GULP energy per Si atom -5568.410223 kJ/mol
# Density = 2.138690 g / cm^3
# Si number density = 21.435690 Si / 1000 Ang^3
#
#
#
# Elastic Constant Matrix: (Units=GPa)
#
#
# Indices 1 2 3 4 5 6 
#
# 1 60.4443 17.2048 10.9199 0.0000 0.0000 0.0000
# 2 17.2048 87.4897 7.1877 0.0000 0.0000 0.0000
# 3 10.9199 7.1877 81.9483 0.0000 0.0000 0.0000
# 4 0.0000 0.0000 0.0000 26.3342 0.0000 0.0000
# 5 0.0000 0.0000 0.0000 0.0000 17.8812 0.0000
# 6 0.0000 0.0000 0.0000 0.0000 0.0000 34.5445
#
#
#
# Elastic Compliance Matrix: (Units=1/GPa)
#
#
# Indices 1 2 3 4 5 6 
#
# 1 0.017873 -0.003343 -0.002088 0.000000 0.000000 0.000000
# 2 -0.003343 0.012138 -0.000619 0.000000 0.000000 0.000000
# 3 -0.002088 -0.000619 0.012535 0.000000 0.000000 0.000000
# 4 0.000000 0.000000 0.000000 0.037973 0.000000 0.000000
# 5 0.000000 0.000000 0.000000 0.000000 0.055925 0.000000
# 6 0.000000 0.000000 0.000000 0.000000 0.000000 0.028948
#
#
# Mechanical properties :
#
#
# Convention : Reuss Voigt Hill
#
# Bulk Modulus (GPa) = 32.84590 33.38968 33.11779
# Shear Modulus (GPa) = 26.64637 28.72331 27.68484
#
# Velocity S-wave (km/s) = 3.52956 3.66454 3.59769
# Velocity P-wave (km/s) = 5.65391 5.78927 5.72199
#
# Compressibility (1/GPa) = 0.03044520
#
# Stress axis : x y z
#
# Youngs Moduli (GPa) = 55.95020 82.38444 79.77397
#
# Poissons Ratio (x) = 0.27542 0.16660
# Poissons Ratio (y) = 0.18705 0.04939
# Poissons Ratio (z) = 0.11685 0.05101
#
# Static dielectric constant tensor:
#      x y z
#    x 1.793620 0.000000 0.000000 
#    y 0.000000 1.837740 0.000000 
#    z 0.000000 0.000000 1.912000 
# 
# From -- ./inp_files/2096.got.cif
#   From: 2010.05.17/outbox.cif.g08.bks.cpg/sg33_2_cif.got.tgz:2096.got - 2010.06.03 17:15:25.
