data_PCOD9345690
_publ_section_title
;
Structure prediction by ZEFSAII (Michael W. Deem and Ramdas Pophale) SiO2 
 PCOD9345690
Probable space group: P N A 21
;
_chemical_formula_sum "Si O2"
_cell_formula_units_Z 28
_cell_length_a 7.742785
_cell_length_b 18.196547
_cell_length_c 8.046079
_cell_angle_alpha 90.000000
_cell_angle_beta 90.000000
_cell_angle_gamma 90.000000
_cell_volume 1133.627770
_symmetry_space_group_name_H-M "P N A 21"
_symmetry_group_IT_number 33
_symmetry_cell_setting 'orthorhombic'
loop_
_space_group_symop_operation_xyz
x,y,z
-x,-y,1/2+z
1/2-x,1/2+y,1/2+z
1/2+x,1/2-y,z
loop_
_atom_site_type_symbol
_atom_site_label
_atom_site_fract_x
_atom_site_fract_y
_atom_site_fract_z
Si Si1 0.737964 0.212911 0.434510
Si Si2 0.875659 0.684512 0.569513
Si Si3 0.476716 0.665807 0.478192
Si Si4 0.337094 0.930062 0.113402
Si Si5 0.494689 0.493384 0.966922
Si Si6 0.610493 0.352360 0.342761
Si Si7 0.369026 0.968680 0.499363
O O1 0.627164 0.203921 0.264684
O O2 0.674697 0.157073 0.575758
O O3 0.737106 0.301313 0.452758
O O4 0.925713 0.181895 0.392382
O O5 0.677757 0.671507 0.520924
O O6 0.936277 0.748602 0.444077
O O7 0.962992 0.605061 0.563524
O O8 0.460826 0.586903 0.386327
O O9 0.364225 0.654954 0.645606
O O10 0.345917 0.949596 0.306220
O O11 0.168299 0.971664 0.040543
O O12 0.508216 0.962962 0.029053
O O13 0.408142 0.561398 0.870597
O O14 0.323183 0.476130 0.081123
#
# Coordination Sequence:
#
# PCOD9345690 Si02
#       7
#     4   4   4   4   4   4   4
#     4   9  19  36  59  87 120 160 213 260 309 376
#     4   9  19  36  59  87 120 160 213 260 309 376
#     4   9  18  34  59  86 115 159 211 260 309 370
#     4  11  24  41  65  95 130 167 211 263 322 384
#     4  10  22  40  64  90 126 166 216 262 310 372
#     4   9  18  34  59  86 115 159 211 260 309 370
#     4  11  24  41  65  95 130 167 211 263 322 384
#
# _framework density 24.699466999999999
#
# number of rings (size 3 to 8) (size 9 to 14) (size 15 to 20)
#    0.000    2.286    0.000    1.714    4.000    3.429 
#    0.000    7.143    0.000    0.000    0.000    0.000 
#    0.000    0.000    0.000    0.000    0.000    0.000 
#
# Total GULP energy -155986.212664 kJ/mol
# GULP energy per Si atom -5570.936167 kJ/mol
# Density = 2.464325 g / cm^3
# Si number density = 24.699467 Si / 1000 Ang^3
#
#
#
# Elastic Constant Matrix: (Units=GPa)
#
#
# Indices 1 2 3 4 5 6 
#
# 1 70.5133 7.3260 2.0673 0.0000 0.0000 0.0000
# 2 7.3260 129.0697 2.6538 0.0000 0.0000 0.0000
# 3 2.0673 2.6538 30.4382 0.0000 0.0000 0.0000
# 4 0.0000 0.0000 0.0000 34.9420 0.0000 0.0000
# 5 0.0000 0.0000 0.0000 0.0000 17.7028 0.0000
# 6 0.0000 0.0000 0.0000 0.0000 0.0000 42.4891
#
#
#
# Elastic Compliance Matrix: (Units=1/GPa)
#
#
# Indices 1 2 3 4 5 6 
#
# 1 0.014290 -0.000793 -0.000901 0.000000 0.000000 0.000000
# 2 -0.000793 0.007806 -0.000627 0.000000 0.000000 0.000000
# 3 -0.000901 -0.000627 0.032969 0.000000 0.000000 0.000000
# 4 0.000000 0.000000 0.000000 0.028619 0.000000 0.000000
# 5 0.000000 0.000000 0.000000 0.000000 0.056488 0.000000
# 6 0.000000 0.000000 0.000000 0.000000 0.000000 0.023535
#
#
# Mechanical properties :
#
#
# Convention : Reuss Voigt Hill
#
# Bulk Modulus (GPa) = 19.83190 28.23506 24.03348
# Shear Modulus (GPa) = 27.00406 33.55841 30.28123
#
# Velocity S-wave (km/s) = 3.31010 3.69001 3.50521
# Velocity P-wave (km/s) = 4.75981 5.44162 5.11209
#
# Compressibility (1/GPa) = 0.05042382
#
# Stress axis : x y z
#
# Youngs Moduli (GPa) = 69.97662 128.11273 30.33125
#
# Poissons Ratio (x) = 0.10154 0.02734
# Poissons Ratio (y) = 0.05546 0.01901
# Poissons Ratio (z) = 0.06308 0.08029
#
# Static dielectric constant tensor:
#      x y z
#    x 1.971460 0.000000 0.000000 
#    y 0.000000 2.157020 0.000000 
#    z 0.000000 0.000000 2.035600 
# 
# From -- ./inp_files/3303.got.cif
#   From: 2010.05.17/outbox.cif.g08.bks.cpg/sg33_2_cif.got.tgz:3303.got - 2010.06.03 17:15:25.
