data_PCOD9345677
_publ_section_title
;
Structure prediction by ZEFSAII (Michael W. Deem and Ramdas Pophale) SiO2 
 PCOD9345677
Probable space group: P N A 21
;
_chemical_formula_sum "Si O2"
_cell_formula_units_Z 20
_cell_length_a 16.241578
_cell_length_b 5.038051
_cell_length_c 10.415831
_cell_angle_alpha 90.000000
_cell_angle_beta 90.000000
_cell_angle_gamma 90.000000
_cell_volume 852.284728
_symmetry_space_group_name_H-M "P N A 21"
_symmetry_group_IT_number 33
_symmetry_cell_setting 'orthorhombic'
loop_
_space_group_symop_operation_xyz
x,y,z
-x,-y,1/2+z
1/2-x,1/2+y,1/2+z
1/2+x,1/2-y,z
loop_
_atom_site_type_symbol
_atom_site_label
_atom_site_fract_x
_atom_site_fract_y
_atom_site_fract_z
Si Si1 0.677586 0.261058 0.909400
Si Si2 0.180622 0.605921 0.269135
Si Si3 0.604512 0.167594 0.519840
Si Si4 0.807298 0.206059 0.120647
Si Si5 0.087873 0.745541 0.005456
O O1 0.751474 0.179024 0.813301
O O2 0.616969 0.512072 0.915482
O O3 0.619808 0.015333 0.935262
O O4 0.737104 0.326605 0.029082
O O5 0.126874 0.473297 0.382677
O O6 0.250964 0.389587 0.236247
O O7 0.129192 0.712240 0.148218
O O8 0.655904 0.432365 0.557961
O O9 0.509666 0.247182 0.520753
O O10 0.623788 0.932496 0.622230
#
# Coordination Sequence:
#
# PCOD9345677 Si02
#       5
#     4   4   4   4   4
#     4  10  22  40  62  89 120 162 208 243 298 378
#     4  10  22  40  66  86 126 172 198 248 310 358
#     4  11  24  41  62  96 125 154 208 260 300 359
#     4  10  22  40  62  89 120 162 208 243 298 378
#     4  11  24  41  62  96 125 154 208 260 300 359
#
# _framework density 23.466335000000001
#
# number of rings (size 3 to 8) (size 9 to 14) (size 15 to 20)
#    0.000    1.600    0.000    6.000    0.000   17.600 
#    0.000    0.000    0.000    0.000    0.000    0.000 
#    0.000    0.000    0.000    0.000    0.000    0.000 
#
# Total GULP energy -111410.443719 kJ/mol
# GULP energy per Si atom -5570.522186 kJ/mol
# Density = 2.341292 g / cm^3
# Si number density = 23.466335 Si / 1000 Ang^3
#
#
#
# Elastic Constant Matrix: (Units=GPa)
#
#
# Indices 1 2 3 4 5 6 
#
# 1 141.0695 21.7103 40.8010 0.0000 0.0000 0.0000
# 2 21.7103 72.2550 -9.5657 0.0000 0.0000 0.0000
# 3 40.8010 -9.5657 71.6659 0.0000 0.0000 0.0000
# 4 0.0000 0.0000 0.0000 8.7794 0.0000 0.0000
# 5 0.0000 0.0000 0.0000 0.0000 42.6078 0.0000
# 6 0.0000 0.0000 0.0000 0.0000 0.0000 33.6321
#
#
#
# Elastic Compliance Matrix: (Units=1/GPa)
#
#
# Indices 1 2 3 4 5 6 
#
# 1 0.009307 -0.003561 -0.005774 0.000000 0.000000 0.000000
# 2 -0.003561 0.015451 0.004090 0.000000 0.000000 0.000000
# 3 -0.005774 0.004090 0.017787 0.000000 0.000000 0.000000
# 4 0.000000 0.000000 0.000000 0.113904 0.000000 0.000000
# 5 0.000000 0.000000 0.000000 0.000000 0.023470 0.000000
# 6 0.000000 0.000000 0.000000 0.000000 0.000000 0.029734
#
#
# Mechanical properties :
#
#
# Convention : Reuss Voigt Hill
#
# Bulk Modulus (GPa) = 31.19677 43.43129 37.31403
# Shear Modulus (GPa) = 21.66134 32.47349 27.06742
#
# Velocity S-wave (km/s) = 3.04152 3.72403 3.39994
# Velocity P-wave (km/s) = 5.06533 6.08599 5.59897
#
# Compressibility (1/GPa) = 0.03205460
#
# Stress axis : x y z
#
# Youngs Moduli (GPa) = 107.45062 64.72003 56.22208
#
# Poissons Ratio (x) = 0.23045 0.32461
# Poissons Ratio (y) = 0.38260 -0.22992
# Poissons Ratio (z) = 0.62039 -0.26468
#
# Static dielectric constant tensor:
#      x y z
#    x 1.800600 0.000000 0.000000 
#    y 0.000000 2.103130 0.000000 
#    z 0.000000 0.000000 2.265930 
# 
# From -- ./inp_files/6552.got.cif
#   From: 2010.05.17/outbox.cif.g08.bks.cpg/sg33_4_cif.got.tgz:6552.got - 2010.06.03 17:15:25.
