data_PCOD9345275
_publ_section_title
;
Structure prediction by ZEFSAII (Michael W. Deem and Ramdas Pophale) SiO2 
 PCOD9345275
Probable space group: P N A 21
;
_chemical_formula_sum "Si O2"
_cell_formula_units_Z 28
_cell_length_a 29.871061
_cell_length_b 5.246540
_cell_length_c 7.093631
_cell_angle_alpha 90.000000
_cell_angle_beta 90.000000
_cell_angle_gamma 90.000000
_cell_volume 1111.711838
_symmetry_space_group_name_H-M "P N A 21"
_symmetry_group_IT_number 33
_symmetry_cell_setting 'orthorhombic'
loop_
_space_group_symop_operation_xyz
x,y,z
-x,-y,1/2+z
1/2-x,1/2+y,1/2+z
1/2+x,1/2-y,z
loop_
_atom_site_type_symbol
_atom_site_label
_atom_site_fract_x
_atom_site_fract_y
_atom_site_fract_z
Si Si1 0.306906 0.301010 0.452510
Si Si2 0.561228 0.925984 0.959714
Si Si3 0.917166 0.887572 0.949799
Si Si4 0.101361 0.072246 0.011936
Si Si5 0.766854 0.698877 0.382283
Si Si6 0.815512 0.994013 0.064967
Si Si7 0.962262 0.389572 0.899611
O O1 0.351137 0.433279 0.530130
O O2 0.269618 0.521281 0.475214
O O3 0.314708 0.289187 0.226168
O O4 0.293487 0.015413 0.504148
O O5 0.598374 0.145539 0.924136
O O6 0.555742 0.887975 0.185808
O O7 0.573095 0.639460 0.898330
O O8 0.514016 0.036514 0.894445
O O9 0.936161 0.614375 0.007459
O O10 0.916008 0.884757 0.722023
O O11 0.950995 0.118805 0.991061
O O12 0.866334 0.935346 0.013230
O O13 0.792327 0.767965 0.187685
O O14 0.716479 0.588817 0.395415
#
# Coordination Sequence:
#
# PCOD9345275 Si02
#       7
#     4   4   4   4   4   4   4
#     4  10  24  40  62  93 122 164 209 253 315 374
#     4  10  21  38  61  89 124 162 205 253 307 374
#     4  10  23  38  63  88 125 161 207 259 310 377
#     4  10  21  39  61  91 124 165 205 254 314 367
#     4  10  25  40  64  91 127 155 217 252 320 369
#     4  10  26  42  66  92 125 164 211 260 318 375
#     4  10  22  39  59  92 121 163 206 251 314 366
#
# _framework density 25.186381000000001
#
# number of rings (size 3 to 8) (size 9 to 14) (size 15 to 20)
#    0.857    1.143    0.000    1.714    6.000    2.286 
#    0.000    0.000    0.000    0.000    0.000    0.000 
#    0.000    0.000    0.000    0.000    0.000    0.000 
#
# Total GULP energy -156266.037883 kJ/mol
# GULP energy per Si atom -5580.929924 kJ/mol
# Density = 2.512906 g / cm^3
# Si number density = 25.186381 Si / 1000 Ang^3
#
#
#
# Elastic Constant Matrix: (Units=GPa)
#
#
# Indices 1 2 3 4 5 6 
#
# 1 62.7819 -16.6221 -21.3070 0.0000 0.0000 0.0000
# 2 -16.6221 86.9965 8.1073 0.0000 0.0000 0.0000
# 3 -21.3070 8.1073 49.2962 0.0000 0.0000 0.0000
# 4 0.0000 0.0000 0.0000 4.6679 0.0000 0.0000
# 5 0.0000 0.0000 0.0000 0.0000 23.2602 0.0000
# 6 0.0000 0.0000 0.0000 0.0000 0.0000 40.1161
#
#
#
# Elastic Compliance Matrix: (Units=1/GPa)
#
#
# Indices 1 2 3 4 5 6 
#
# 1 0.019393 0.002970 0.007894 0.000000 0.000000 0.000000
# 2 0.002970 0.012128 -0.000711 0.000000 0.000000 0.000000
# 3 0.007894 -0.000711 0.023814 0.000000 0.000000 0.000000
# 4 0.000000 0.000000 0.000000 0.214230 0.000000 0.000000
# 5 0.000000 0.000000 0.000000 0.000000 0.042992 0.000000
# 6 0.000000 0.000000 0.000000 0.000000 0.000000 0.024928
#
#
# Mechanical properties :
#
#
# Convention : Reuss Voigt Hill
#
# Bulk Modulus (GPa) = 13.22021 15.49231 14.35626
# Shear Modulus (GPa) = 14.60303 28.86858 21.73580
#
# Velocity S-wave (km/s) = 2.41051 3.38923 2.94087
# Velocity P-wave (km/s) = 3.60663 4.63468 4.15259
#
# Compressibility (1/GPa) = 0.07564178
#
# Stress axis : x y z
#
# Youngs Moduli (GPa) = 51.56367 82.45103 41.99133
#
# Poissons Ratio (x) = -0.24486 -0.33148
# Poissons Ratio (y) = -0.15313 0.02986
# Poissons Ratio (z) = -0.40704 0.05862
#
# Static dielectric constant tensor:
#      x y z
#    x 1.994640 0.000000 0.000000 
#    y 0.000000 2.196150 0.000000 
#    z 0.000000 0.000000 2.033490 
# 
# From -- ./inp_files/5235.got.cif
#   From: 2010.05.17/outbox.cif.g08.bks.cpg/sg33_3_cif.got.tgz:5235.got - 2010.06.03 17:15:25.
