data_PCOD9345777
_publ_section_title
;
Structure prediction by ZEFSAII (Michael W. Deem and Ramdas Pophale) SiO2 
 PCOD9345777
Probable space group: P N A 21
;
_chemical_formula_sum "Si O2"
_cell_formula_units_Z 28
_cell_length_a 9.099349
_cell_length_b 12.875213
_cell_length_c 10.354613
_cell_angle_alpha 90.000000
_cell_angle_beta 90.000000
_cell_angle_gamma 90.000000
_cell_volume 1213.105626
_symmetry_space_group_name_H-M "P N A 21"
_symmetry_group_IT_number 33
_symmetry_cell_setting 'orthorhombic'
loop_
_space_group_symop_operation_xyz
x,y,z
-x,-y,1/2+z
1/2-x,1/2+y,1/2+z
1/2+x,1/2-y,z
loop_
_atom_site_type_symbol
_atom_site_label
_atom_site_fract_x
_atom_site_fract_y
_atom_site_fract_z
Si Si1 0.042987 0.690860 0.770840
Si Si2 0.694053 0.005854 0.656089
Si Si3 0.260590 0.381393 0.186074
Si Si4 0.058686 0.652582 0.054930
Si Si5 0.368979 0.533299 0.394645
Si Si6 0.636461 0.451776 0.510297
Si Si7 0.944442 0.154290 0.732850
O O1 0.146106 0.590659 0.743413
O O2 0.127073 0.793127 0.728581
O O3 0.898477 0.669259 0.687584
O O4 0.995309 0.699513 0.921401
O O5 0.788625 0.967168 0.532098
O O6 0.548311 0.061327 0.600517
O O7 0.789508 0.092838 0.732235
O O8 0.264345 0.475912 0.291519
O O9 0.308845 0.434381 0.053380
O O10 0.219686 0.617370 0.010570
O O11 0.075045 0.732480 0.172750
O O12 0.518253 0.462919 0.397430
O O13 0.442851 0.642125 0.352350
O O14 0.537005 0.407501 0.625093
#
# Coordination Sequence:
#
# PCOD9345777 Si02
#       7
#     4   4   4   4   4   4   4
#     4  12  26  41  69  99 136 175 237 282 342 411
#     4  11  23  44  67 101 142 179 228 294 349 408
#     4  11  25  42  66  99 128 182 230 282 332 415
#     4  12  23  42  70 103 133 177 231 289 342 409
#     4  10  22  46  67  98 139 183 224 285 351 412
#     4  10  22  42  65  94 137 173 222 276 343 409
#     4  10  23  39  70 100 135 179 228 276 351 416
#
# _framework density 23.081257000000001
#
# number of rings (size 3 to 8) (size 9 to 14) (size 15 to 20)
#    0.000    1.143    2.857    3.429   10.000    0.000 
#    0.000    7.143    0.000    0.000    0.000    0.000 
#    0.000    0.000    0.000    0.000    0.000    0.000 
#
# Total GULP energy -156408.560935 kJ/mol
# GULP energy per Si atom -5586.020033 kJ/mol
# Density = 2.302872 g / cm^3
# Si number density = 23.081257 Si / 1000 Ang^3
#
#
#
# Elastic Constant Matrix: (Units=GPa)
#
#
# Indices 1 2 3 4 5 6 
#
# 1 99.8782 18.8727 10.4563 0.0000 0.0000 0.0000
# 2 18.8727 86.2894 21.4322 0.0000 0.0000 0.0000
# 3 10.4563 21.4322 47.3380 0.0000 0.0000 0.0000
# 4 0.0000 0.0000 0.0000 26.5720 0.0000 0.0000
# 5 0.0000 0.0000 0.0000 0.0000 23.3924 0.0000
# 6 0.0000 0.0000 0.0000 0.0000 0.0000 35.3365
#
#
#
# Elastic Compliance Matrix: (Units=1/GPa)
#
#
# Indices 1 2 3 4 5 6 
#
# 1 0.010531 -0.001944 -0.001446 0.000000 0.000000 0.000000
# 2 -0.001944 0.013416 -0.005645 0.000000 0.000000 0.000000
# 3 -0.001446 -0.005645 0.024000 0.000000 0.000000 0.000000
# 4 0.000000 0.000000 0.000000 0.037634 0.000000 0.000000
# 5 0.000000 0.000000 0.000000 0.000000 0.042749 0.000000
# 6 0.000000 0.000000 0.000000 0.000000 0.000000 0.028299
#
#
# Mechanical properties :
#
#
# Convention : Reuss Voigt Hill
#
# Bulk Modulus (GPa) = 33.47029 37.22533 35.34781
# Shear Modulus (GPa) = 27.07718 29.24313 28.16015
#
# Velocity S-wave (km/s) = 3.42881 3.56331 3.49670
# Velocity P-wave (km/s) = 5.49620 5.75261 5.62586
#
# Compressibility (1/GPa) = 0.02987724
#
# Stress axis : x y z
#
# Youngs Moduli (GPa) = 94.95846 74.53724 41.66716
#
# Poissons Ratio (x) = 0.14491 0.06025
# Poissons Ratio (y) = 0.18461 0.23520
# Poissons Ratio (z) = 0.13730 0.42074
#
# Static dielectric constant tensor:
#      x y z
#    x 1.854110 0.000000 0.000000 
#    y 0.000000 1.890280 0.000000 
#    z 0.000000 0.000000 1.939500 
# 
# From -- ./inp_files/5835.got.cif
#   From: 2010.05.17/outbox.cif.g08.bks.cpg/sg33_3_cif.got.tgz:5835.got - 2010.06.03 17:15:25.
