data_PCOD9345968
_publ_section_title
;
Structure prediction by ZEFSAII (Michael W. Deem and Ramdas Pophale) SiO2 
 PCOD9345968
Probable space group: P N A 21
;
_chemical_formula_sum "Si O2"
_cell_formula_units_Z 32
_cell_length_a 10.057865
_cell_length_b 11.722710
_cell_length_c 9.525323
_cell_angle_alpha 90.000000
_cell_angle_beta 90.000000
_cell_angle_gamma 90.000000
_cell_volume 1123.087348
_symmetry_space_group_name_H-M "P N A 21"
_symmetry_group_IT_number 33
_symmetry_cell_setting 'orthorhombic'
loop_
_space_group_symop_operation_xyz
x,y,z
-x,-y,1/2+z
1/2-x,1/2+y,1/2+z
1/2+x,1/2-y,z
loop_
_atom_site_type_symbol
_atom_site_label
_atom_site_fract_x
_atom_site_fract_y
_atom_site_fract_z
Si Si1 0.089547 0.587295 0.071260
Si Si2 0.193365 0.075805 0.805303
Si Si3 0.851945 0.670565 0.234181
Si Si4 0.810446 0.181830 0.470571
Si Si5 0.840443 0.152755 0.950476
Si Si6 0.043072 0.023606 0.142986
Si Si7 0.427175 0.114184 0.002722
Si Si8 0.138026 0.276798 0.194316
O O1 0.981239 0.602163 0.194810
O O2 0.033310 0.484848 0.979128
O O3 0.218207 0.559535 0.164461
O O4 0.105627 0.701222 0.980227
O O5 0.152083 0.207842 0.808838
O O6 0.056693 0.011690 0.769101
O O7 0.271619 0.824614 0.823739
O O8 0.806097 0.703259 0.079764
O O9 0.735998 0.602729 0.316702
O O10 0.713451 0.941829 0.445544
O O11 0.895014 0.084519 0.556032
O O12 0.944130 0.075589 0.027372
O O13 0.915799 0.270277 0.913907
O O14 0.730566 0.192678 0.062441
O O15 0.121972 0.138256 0.196698
O O16 0.492807 0.166926 0.150277
#
# Coordination Sequence:
#
# PCOD9345968 Si02
#       8
#     4   4   4   4   4   4   4   4
#     4  11  23  44  77 116 164 220 296 367 443 543
#     4  10  22  47  78 116 161 229 295 356 451 544
#     4  10  23  47  73 115 163 225 299 361 441 556
#     4  11  27  50  79 125 177 234 299 377 471 545
#     4  10  24  48  76 118 166 229 304 361 458 552
#     4  11  25  52  84 126 178 243 296 389 458 555
#     4  10  24  46  77 116 165 230 290 370 451 550
#     4  11  26  52  80 124 180 230 303 381 461 551
#
# _framework density 28.492884
#
# number of rings (size 3 to 8) (size 9 to 14) (size 15 to 20)
#    0.000    1.500    1.250    1.500    1.750    7.000 
#   13.500    1.250    5.500    0.000    0.000    0.000 
#    0.000    0.000    0.000    0.000    0.000    0.000 
#
# Total GULP energy -178607.682484 kJ/mol
# GULP energy per Si atom -5581.490078 kJ/mol
# Density = 2.842803 g / cm^3
# Si number density = 28.492884 Si / 1000 Ang^3
#
#
#
# Elastic Constant Matrix: (Units=GPa)
#
#
# Indices 1 2 3 4 5 6 
#
# 1 137.1487 71.2164 59.1878 0.0000 0.0000 0.0000
# 2 71.2164 165.5930 38.8369 0.0000 0.0000 0.0000
# 3 59.1878 38.8369 173.3803 0.0000 0.0000 0.0000
# 4 0.0000 0.0000 0.0000 29.5370 0.0000 0.0000
# 5 0.0000 0.0000 0.0000 0.0000 64.0969 0.0000
# 6 0.0000 0.0000 0.0000 0.0000 0.0000 54.1921
#
#
#
# Elastic Compliance Matrix: (Units=1/GPa)
#
#
# Indices 1 2 3 4 5 6 
#
# 1 0.010468 -0.003867 -0.002707 0.000000 0.000000 0.000000
# 2 -0.003867 0.007802 -0.000428 0.000000 0.000000 0.000000
# 3 -0.002707 -0.000428 0.006788 0.000000 0.000000 0.000000
# 4 0.000000 0.000000 0.000000 0.033856 0.000000 0.000000
# 5 0.000000 0.000000 0.000000 0.000000 0.015601 0.000000
# 6 0.000000 0.000000 0.000000 0.000000 0.000000 0.018453
#
#
# Mechanical properties :
#
#
# Convention : Reuss Voigt Hill
#
# Bulk Modulus (GPa) = 90.46468 90.51157 90.48813
# Shear Modulus (GPa) = 45.18525 50.02394 47.60459
#
# Velocity S-wave (km/s) = 3.98659 4.19461 4.09192
# Velocity P-wave (km/s) = 7.28075 7.43606 7.35882
#
# Compressibility (1/GPa) = 0.01105404
#
# Stress axis : x y z
#
# Youngs Moduli (GPa) = 95.53288 128.16880 147.32682
#
# Poissons Ratio (x) = 0.49561 0.39884
# Poissons Ratio (y) = 0.36941 0.06300
# Poissons Ratio (z) = 0.25863 0.05481
#
# Static dielectric constant tensor:
#      x y z
#    x 2.370560 0.000000 0.000000 
#    y 0.000000 2.327260 0.000000 
#    z 0.000000 0.000000 2.304480 
# 
# From -- ./inp_files/6495.got.cif
#   From: 2010.05.17/outbox.cif.g08.bks.cpg/sg33_4_cif.got.tgz:6495.got - 2010.06.03 17:15:25.
