data_PCOD9345615
_publ_section_title
;
Structure prediction by ZEFSAII (Michael W. Deem and Ramdas Pophale) SiO2 
 PCOD9345615
Probable space group: P N A 21
;
_chemical_formula_sum "Si O2"
_cell_formula_units_Z 32
_cell_length_a 8.129748
_cell_length_b 8.912463
_cell_length_c 19.618371
_cell_angle_alpha 90.000000
_cell_angle_beta 90.000000
_cell_angle_gamma 90.000000
_cell_volume 1421.470224
_symmetry_space_group_name_H-M "P N A 21"
_symmetry_group_IT_number 33
_symmetry_cell_setting 'orthorhombic'
loop_
_space_group_symop_operation_xyz
x,y,z
-x,-y,1/2+z
1/2-x,1/2+y,1/2+z
1/2+x,1/2-y,z
loop_
_atom_site_type_symbol
_atom_site_label
_atom_site_fract_x
_atom_site_fract_y
_atom_site_fract_z
Si Si1 0.669149 0.623762 0.170050
Si Si2 0.948080 0.381551 0.345018
Si Si3 0.134115 0.978377 0.635219
Si Si4 0.850889 0.157212 0.999154
Si Si5 0.545702 0.953089 0.209283
Si Si6 0.610326 0.394395 0.404703
Si Si7 0.683112 0.228437 0.544005
Si Si8 0.514421 0.965509 0.483429
O O1 0.520736 0.507905 0.184427
O O2 0.621082 0.781894 0.206850
O O3 0.854769 0.570229 0.186414
O O4 0.675190 0.645074 0.086796
O O5 0.978237 0.207290 0.365279
O O6 0.024703 0.467611 0.408788
O O7 0.027462 0.452099 0.278451
O O8 0.755252 0.419322 0.350633
O O9 0.314013 0.955957 0.667366
O O10 0.153273 0.134361 0.594040
O O11 0.088782 0.862270 0.576429
O O12 0.663589 0.102803 0.996232
O O13 0.858664 0.331401 0.985373
O O14 0.939815 0.047978 0.943638
O O15 0.192806 0.201554 0.468133
O O16 0.546088 0.100476 0.535373
#
# Coordination Sequence:
#
# PCOD9345615 Si02
#       8
#     4   4   4   4   4   4   4   4
#     4  11  21  37  69  96 125 171 214 269 322 379
#     4  10  23  43  63  89 129 167 221 267 309 397
#     4  10  22  40  67  96 124 177 215 270 317 391
#     4  10  22  37  62  97 133 157 212 268 344 380
#     4  11  22  40  62  97 129 169 227 259 310 387
#     4   9  21  40  66  91 119 171 212 270 331 382
#     4   9  19  35  69  95 124 155 221 272 323 383
#     4  10  22  38  60  99 131 165 202 279 328 385
#
# _framework density 22.511903
#
# number of rings (size 3 to 8) (size 9 to 14) (size 15 to 20)
#    0.000    2.000    2.500    0.750   10.500    3.000 
#    2.250    2.500    0.000    0.000    0.000    0.000 
#    0.000    0.000    0.000    0.000    0.000    0.000 
#
# Total GULP energy -178315.188797 kJ/mol
# GULP energy per Si atom -5572.349650 kJ/mol
# Density = 2.246066 g / cm^3
# Si number density = 22.511903 Si / 1000 Ang^3
#
#
#
# Elastic Constant Matrix: (Units=GPa)
#
#
# Indices 1 2 3 4 5 6 
#
# 1 90.6989 12.7504 22.5078 0.0000 0.0000 0.0000
# 2 12.7504 38.7692 6.1348 0.0000 0.0000 0.0000
# 3 22.5078 6.1348 57.4972 0.0000 0.0000 0.0000
# 4 0.0000 0.0000 0.0000 25.1672 0.0000 0.0000
# 5 0.0000 0.0000 0.0000 0.0000 23.3019 0.0000
# 6 0.0000 0.0000 0.0000 0.0000 0.0000 29.5916
#
#
#
# Elastic Compliance Matrix: (Units=1/GPa)
#
#
# Indices 1 2 3 4 5 6 
#
# 1 0.012646 -0.003434 -0.004584 0.000000 0.000000 0.000000
# 2 -0.003434 0.027169 -0.001555 0.000000 0.000000 0.000000
# 3 -0.004584 -0.001555 0.019352 0.000000 0.000000 0.000000
# 4 0.000000 0.000000 0.000000 0.039734 0.000000 0.000000
# 5 0.000000 0.000000 0.000000 0.000000 0.042915 0.000000
# 6 0.000000 0.000000 0.000000 0.000000 0.000000 0.033793
#
#
# Mechanical properties :
#
#
# Convention : Reuss Voigt Hill
#
# Bulk Modulus (GPa) = 24.98588 29.97237 27.47913
# Shear Modulus (GPa) = 24.02748 25.31696 24.67222
#
# Velocity S-wave (km/s) = 3.27054 3.35715 3.31413
# Velocity P-wave (km/s) = 5.03835 5.32637 5.18436
#
# Compressibility (1/GPa) = 0.04002261
#
# Stress axis : x y z
#
# Youngs Moduli (GPa) = 79.07815 36.80676 51.67301
#
# Poissons Ratio (x) = 0.12638 0.23687
# Poissons Ratio (y) = 0.27152 0.08034
# Poissons Ratio (z) = 0.36249 0.05723
#
# Static dielectric constant tensor:
#      x y z
#    x 1.908170 0.000000 0.000000 
#    y 0.000000 1.879050 0.000000 
#    z 0.000000 0.000000 1.882800 
# 
# From -- ./inp_files/8959.got.cif
#   From: 2010.05.17/outbox.cif.g08.bks.cpg/sg33_5_cif.got.tgz:8959.got - 2010.06.03 17:15:25.
