data_PCOD9345765
_publ_section_title
;
Structure prediction by ZEFSAII (Michael W. Deem and Ramdas Pophale) SiO2 
 PCOD9345765
Probable space group: P N A 21
;
_chemical_formula_sum "Si O2"
_cell_formula_units_Z 28
_cell_length_a 16.940881
_cell_length_b 5.738302
_cell_length_c 12.106047
_cell_angle_alpha 90.000000
_cell_angle_beta 90.000000
_cell_angle_gamma 90.000000
_cell_volume 1176.851725
_symmetry_space_group_name_H-M "P N A 21"
_symmetry_group_IT_number 33
_symmetry_cell_setting 'orthorhombic'
loop_
_space_group_symop_operation_xyz
x,y,z
-x,-y,1/2+z
1/2-x,1/2+y,1/2+z
1/2+x,1/2-y,z
loop_
_atom_site_type_symbol
_atom_site_label
_atom_site_fract_x
_atom_site_fract_y
_atom_site_fract_z
Si Si1 0.977517 0.950833 0.118690
Si Si2 0.365383 0.371007 0.940012
Si Si3 0.130788 0.263796 0.117994
Si Si4 0.458928 0.079175 0.771326
Si Si5 0.101981 0.710413 0.795216
Si Si6 0.215135 0.627176 0.969331
Si Si7 0.706528 0.995841 0.611969
O O1 0.931116 0.084122 0.217922
O O2 0.056590 0.098113 0.092274
O O3 0.919875 0.962198 0.014794
O O4 0.002689 0.699881 0.163267
O O5 0.418315 0.278752 0.841396
O O6 0.284383 0.493120 0.905150
O O7 0.338217 0.151391 0.016020
O O8 0.106376 0.403452 0.227051
O O9 0.211197 0.129050 0.137440
O O10 0.154016 0.446050 0.022677
O O11 0.525734 0.933880 0.834561
O O12 0.162070 0.788287 0.890549
O O13 0.151401 0.531539 0.717943
O O14 0.263558 0.758791 0.065118
#
# Coordination Sequence:
#
# PCOD9345765 Si02
#       7
#     4   4   4   4   4   4   4
#     4  10  22  42  61  91 132 172 215 282 322 402
#     4  10  24  40  61  96 128 171 223 265 340 391
#     4  10  23  39  62  96 125 169 223 270 333 396
#     4  11  23  41  69  94 131 178 220 281 326 408
#     4  10  24  40  64  95 128 171 226 265 344 396
#     4  11  23  39  66  94 129 176 213 283 332 402
#     4  10  23  43  63  94 133 165 218 282 327 403
#
# _framework density 23.792292
#
# number of rings (size 3 to 8) (size 9 to 14) (size 15 to 20)
#    0.000    1.714    0.000    2.571    6.000    5.714 
#    0.000    0.000    0.000    0.000    0.000    0.000 
#    0.000    0.000    0.000    0.000    0.000    0.000 
#
# Total GULP energy -156713.583932 kJ/mol
# GULP energy per Si atom -5596.913712 kJ/mol
# Density = 2.373814 g / cm^3
# Si number density = 23.792292 Si / 1000 Ang^3
#
#
#
# Elastic Constant Matrix: (Units=GPa)
#
#
# Indices 1 2 3 4 5 6 
#
# 1 117.3340 7.5157 33.9936 0.0000 0.0000 0.0000
# 2 7.5157 27.6228 -8.9340 0.0000 0.0000 0.0000
# 3 33.9936 -8.9340 36.2855 0.0000 0.0000 0.0000
# 4 0.0000 0.0000 0.0000 12.3030 0.0000 0.0000
# 5 0.0000 0.0000 0.0000 0.0000 34.9078 0.0000
# 6 0.0000 0.0000 0.0000 0.0000 0.0000 34.6218
#
#
#
# Elastic Compliance Matrix: (Units=1/GPa)
#
#
# Indices 1 2 3 4 5 6 
#
# 1 0.013234 -0.008269 -0.014434 0.000000 0.000000 0.000000
# 2 -0.008269 0.044501 0.018704 0.000000 0.000000 0.000000
# 3 -0.014434 0.018704 0.045687 0.000000 0.000000 0.000000
# 4 0.000000 0.000000 0.000000 0.081281 0.000000 0.000000
# 5 0.000000 0.000000 0.000000 0.000000 0.028647 0.000000
# 6 0.000000 0.000000 0.000000 0.000000 0.000000 0.028884
#
#
# Mechanical properties :
#
#
# Convention : Reuss Voigt Hill
#
# Bulk Modulus (GPa) = 10.47964 27.37698 18.92831
# Shear Modulus (GPa) = 17.72789 26.27764 22.00277
#
# Velocity S-wave (km/s) = 2.73263 3.32695 3.04433
# Velocity P-wave (km/s) = 3.79085 5.12735 4.50890
#
# Compressibility (1/GPa) = 0.09542317
#
# Stress axis : x y z
#
# Youngs Moduli (GPa) = 75.56153 22.47124 21.88800
#
# Poissons Ratio (x) = 0.18582 0.31594
# Poissons Ratio (y) = 0.62484 -0.40939
# Poissons Ratio (z) = 1.09068 -0.42030
#
# Static dielectric constant tensor:
#      x y z
#    x 1.854120 0.000000 0.000000 
#    y 0.000000 1.903640 0.000000 
#    z 0.000000 0.000000 1.912260 
# 
# From -- ./inp_files/6966.got.cif
#   From: 2010.05.17/outbox.cif.g08.bks.cpg/sg33_4_cif.got.tgz:6966.got - 2010.06.03 17:15:25.
