data_PCOD9345429
_publ_section_title
;
Structure prediction by ZEFSAII (Michael W. Deem and Ramdas Pophale) SiO2 
 PCOD9345429
Probable space group: P N A 21
;
_chemical_formula_sum "Si O2"
_cell_formula_units_Z 20
_cell_length_a 9.698006
_cell_length_b 17.354394
_cell_length_c 4.937557
_cell_angle_alpha 90.000000
_cell_angle_beta 90.000000
_cell_angle_gamma 90.000000
_cell_volume 831.005740
_symmetry_space_group_name_H-M "P N A 21"
_symmetry_group_IT_number 33
_symmetry_cell_setting 'orthorhombic'
loop_
_space_group_symop_operation_xyz
x,y,z
-x,-y,1/2+z
1/2-x,1/2+y,1/2+z
1/2+x,1/2-y,z
loop_
_atom_site_type_symbol
_atom_site_label
_atom_site_fract_x
_atom_site_fract_y
_atom_site_fract_z
Si Si1 0.442981 0.178704 0.924410
Si Si2 0.333511 0.728411 0.146163
Si Si3 0.688635 0.505623 0.773255
Si Si4 0.580568 0.118056 0.443362
Si Si5 0.102790 0.085231 0.277600
O O1 0.539871 0.251438 0.845920
O O2 0.294758 0.203922 0.825640
O O3 0.500120 0.111570 0.725430
O O4 0.470893 0.149833 0.224932
O O5 0.369184 0.666496 0.917146
O O6 0.313770 0.810708 0.997279
O O7 0.558671 0.563682 0.800905
O O8 0.652018 0.435293 0.976004
O O9 0.829622 0.547042 0.849088
O O10 0.684372 0.475242 0.468584
#
# Coordination Sequence:
#
# PCOD9345429 Si02
#       5
#     4   4   4   4   4
#     4  10  24  36  67  90 130 161 222 261 335 373
#     4  10  24  41  64  99 123 172 219 272 319 403
#     4  10  21  41  59  96 124 172 205 273 326 386
#     4  10  23  40  63  90 131 169 208 270 326 390
#     4  10  22  36  67  89 130 162 222 260 324 398
#
# _framework density 24.067222999999998
#
# number of rings (size 3 to 8) (size 9 to 14) (size 15 to 20)
#    1.200    0.800    0.000    2.400    5.600    0.000 
#    0.000    4.000    0.000    0.000    0.000    0.000 
#    0.000    0.000    0.000    0.000    0.000    0.000 
#
# Total GULP energy -111879.234508 kJ/mol
# GULP energy per Si atom -5593.961725 kJ/mol
# Density = 2.401244 g / cm^3
# Si number density = 24.067223 Si / 1000 Ang^3
#
#
#
# Elastic Constant Matrix: (Units=GPa)
#
#
# Indices 1 2 3 4 5 6 
#
# 1 105.0587 42.1292 18.4673 0.0000 0.0000 0.0000
# 2 42.1292 65.8046 -13.1164 0.0000 0.0000 0.0000
# 3 18.4673 -13.1164 84.1900 0.0000 0.0000 0.0000
# 4 0.0000 0.0000 0.0000 26.6232 0.0000 0.0000
# 5 0.0000 0.0000 0.0000 0.0000 30.8980 0.0000
# 6 0.0000 0.0000 0.0000 0.0000 0.0000 30.1325
#
#
#
# Elastic Compliance Matrix: (Units=1/GPa)
#
#
# Indices 1 2 3 4 5 6 
#
# 1 0.014443 -0.010194 -0.004756 0.000000 0.000000 0.000000
# 2 -0.010194 0.022879 0.005801 0.000000 0.000000 0.000000
# 3 -0.004756 0.005801 0.013825 0.000000 0.000000 0.000000
# 4 0.000000 0.000000 0.000000 0.037561 0.000000 0.000000
# 5 0.000000 0.000000 0.000000 0.000000 0.032365 0.000000
# 6 0.000000 0.000000 0.000000 0.000000 0.000000 0.033187
#
#
# Mechanical properties :
#
#
# Convention : Reuss Voigt Hill
#
# Bulk Modulus (GPa) = 30.44430 38.89037 34.66734
# Shear Modulus (GPa) = 27.24672 31.36896 29.30784
#
# Velocity S-wave (km/s) = 3.36833 3.61417 3.49341
# Velocity P-wave (km/s) = 5.27302 5.79745 5.54144
#
# Compressibility (1/GPa) = 0.03284687
#
# Stress axis : x y z
#
# Youngs Moduli (GPa) = 69.23973 43.70750 72.33312
#
# Poissons Ratio (x) = 0.44557 0.34404
# Poissons Ratio (y) = 0.70586 -0.41958
# Poissons Ratio (z) = 0.32932 -0.25353
#
# Static dielectric constant tensor:
#      x y z
#    x 1.900620 0.000000 0.000000 
#    y 0.000000 1.953070 0.000000 
#    z 0.000000 0.000000 1.869740 
# 
# From -- ./inp_files/332.got.cif
#   From: 2010.05.17/outbox.cif.g08.bks.cpg/sg33_1_cif.got.tgz:332.got - 2010.06.03 17:15:25.
