data_PCOD9345000
_publ_section_title
;
Structure prediction by ZEFSAII (Michael W. Deem and Ramdas Pophale) SiO2 
 PCOD9345000
Probable space group: P N A 21
;
_chemical_formula_sum "Si O2"
_cell_formula_units_Z 20
_cell_length_a 5.317445
_cell_length_b 27.904823
_cell_length_c 4.961259
_cell_angle_alpha 90.000000
_cell_angle_beta 90.000000
_cell_angle_gamma 90.000000
_cell_volume 736.163327
_symmetry_space_group_name_H-M "P N A 21"
_symmetry_group_IT_number 33
_symmetry_cell_setting 'orthorhombic'
loop_
_space_group_symop_operation_xyz
x,y,z
-x,-y,1/2+z
1/2-x,1/2+y,1/2+z
1/2+x,1/2-y,z
loop_
_atom_site_type_symbol
_atom_site_label
_atom_site_fract_x
_atom_site_fract_y
_atom_site_fract_z
Si Si1 0.499887 0.240636 0.120810
Si Si2 0.696763 0.327821 0.422974
Si Si3 0.055155 0.607892 0.302065
Si Si4 0.688188 0.592307 0.799542
Si Si5 0.674048 0.992757 0.204494
O O1 0.256391 0.257763 0.961293
O O2 0.441941 0.191005 0.263803
O O3 0.529401 0.280992 0.357181
O O4 0.786326 0.345221 0.715837
O O5 0.551410 0.372937 0.294498
O O6 0.239873 0.562011 0.269696
O O7 0.840898 0.601879 0.073113
O O8 0.892405 0.603132 0.568537
O O9 0.633729 0.535462 0.769309
O O10 0.562390 0.996762 0.905089
#
# Coordination Sequence:
#
# PCOD9345000 Si02
#       5
#     4   4   4   4   4
#     4   8  18  36  64  94 134 174 230 286 348 406
#     4  10  20  38  66  96 134 178 234 286 354 414
#     4  10  21  39  64  93 133 179 228 286 352 424
#     4  10  21  39  64  93 133 179 228 286 352 424
#     4   8  16  34  58  88 126 172 222 276 338 416
#
# _framework density 27.167884000000001
#
# number of rings (size 3 to 8) (size 9 to 14) (size 15 to 20)
#    1.200    1.600    0.000    1.200    0.000    1.600 
#    0.000   14.000    0.000    0.000    0.000    0.000 
#    0.000    0.000    0.000    0.000    0.000    0.000 
#
# Total GULP energy -111814.610454 kJ/mol
# GULP energy per Si atom -5590.730523 kJ/mol
# Density = 2.710605 g / cm^3
# Si number density = 27.167884 Si / 1000 Ang^3
#
#
#
# Elastic Constant Matrix: (Units=GPa)
#
#
# Indices 1 2 3 4 5 6 
#
# 1 106.4884 24.8211 19.4112 0.0000 0.0000 0.0000
# 2 24.8211 158.9420 30.1007 0.0000 0.0000 0.0000
# 3 19.4112 30.1007 96.8103 0.0000 0.0000 0.0000
# 4 0.0000 0.0000 0.0000 27.3613 0.0000 0.0000
# 5 0.0000 0.0000 0.0000 0.0000 22.5307 0.0000
# 6 0.0000 0.0000 0.0000 0.0000 0.0000 53.7698
#
#
#
# Elastic Compliance Matrix: (Units=1/GPa)
#
#
# Indices 1 2 3 4 5 6 
#
# 1 0.009976 -0.001253 -0.001611 0.000000 0.000000 0.000000
# 2 -0.001253 0.006843 -0.001876 0.000000 0.000000 0.000000
# 3 -0.001611 -0.001876 0.011236 0.000000 0.000000 0.000000
# 4 0.000000 0.000000 0.000000 0.036548 0.000000 0.000000
# 5 0.000000 0.000000 0.000000 0.000000 0.044384 0.000000
# 6 0.000000 0.000000 0.000000 0.000000 0.000000 0.018598
#
#
# Mechanical properties :
#
#
# Convention : Reuss Voigt Hill
#
# Bulk Modulus (GPa) = 53.83635 56.76741 55.30188
# Shear Modulus (GPa) = 34.90253 39.92620 37.41437
#
# Velocity S-wave (km/s) = 3.58816 3.83771 3.71503
# Velocity P-wave (km/s) = 6.08487 6.37007 6.22910
#
# Compressibility (1/GPa) = 0.01857481
#
# Stress axis : x y z
#
# Youngs Moduli (GPa) = 100.23712 146.14330 89.00084
#
# Poissons Ratio (x) = 0.18310 0.14336
# Poissons Ratio (y) = 0.12559 0.16699
# Poissons Ratio (z) = 0.16146 0.27421
#
# Static dielectric constant tensor:
#      x y z
#    x 2.156950 0.000000 0.000000 
#    y 0.000000 2.155980 0.000000 
#    z 0.000000 0.000000 2.069600 
# 
# From -- ./inp_files/219.got.cif
#   From: 2010.05.17/outbox.cif.g08.bks.cpg/sg33_1_cif.got.tgz:219.got - 2010.06.03 17:15:25.
