data_PCOD9345277
_publ_section_title
;
Structure prediction by ZEFSAII (Michael W. Deem and Ramdas Pophale) SiO2 
 PCOD9345277
Probable space group: P N A 21
;
_chemical_formula_sum "Si O2"
_cell_formula_units_Z 20
_cell_length_a 26.921271
_cell_length_b 5.558889
_cell_length_c 4.908275
_cell_angle_alpha 90.000000
_cell_angle_beta 90.000000
_cell_angle_gamma 90.000000
_cell_volume 734.534924
_symmetry_space_group_name_H-M "P N A 21"
_symmetry_group_IT_number 33
_symmetry_cell_setting 'orthorhombic'
loop_
_space_group_symop_operation_xyz
x,y,z
-x,-y,1/2+z
1/2-x,1/2+y,1/2+z
1/2+x,1/2-y,z
loop_
_atom_site_type_symbol
_atom_site_label
_atom_site_fract_x
_atom_site_fract_y
_atom_site_fract_z
Si Si1 0.527108 0.911989 0.049490
Si Si2 0.709017 0.392870 0.944294
Si Si3 0.312751 0.309858 0.947757
Si Si4 0.387112 0.791106 0.310954
Si Si5 0.412652 0.458501 0.808421
O O1 0.507942 0.095147 0.283741
O O2 0.536608 0.675512 0.231527
O O3 0.578725 0.992266 0.909886
O O4 0.692005 0.615454 0.759794
O O5 0.766913 0.360170 0.882915
O O6 0.672455 0.180436 0.836706
O O7 0.699761 0.456346 0.258497
O O8 0.370250 0.258817 0.886117
O O9 0.397309 0.585185 0.532026
O O10 0.406264 0.663734 0.036732
#
# Coordination Sequence:
#
# PCOD9345277 Si02
#       5
#     4   4   4   4   4
#     4  12  26  44  70 102 126 178 240 280 348 406
#     4  10  21  38  61  96 130 172 213 259 331 394
#     4  10  21  38  61  96 130 172 213 259 331 394
#     4  10  23  44  66  96 139 173 218 281 338 400
#     4  10  23  44  66  96 139 173 218 281 338 400
#
# _framework density 27.228116
#
# number of rings (size 3 to 8) (size 9 to 14) (size 15 to 20)
#    0.000    1.600    0.000    3.600    2.800    3.200 
#    3.600    0.000    0.000    0.000    0.000    0.000 
#    0.000    0.000    0.000    0.000    0.000    0.000 
#
# Total GULP energy -111859.421789 kJ/mol
# GULP energy per Si atom -5592.971089 kJ/mol
# Density = 2.716614 g / cm^3
# Si number density = 27.228116 Si / 1000 Ang^3
#
#
#
# Elastic Constant Matrix: (Units=GPa)
#
#
# Indices 1 2 3 4 5 6 
#
# 1 67.4820 25.1252 52.3007 0.0000 0.0000 0.0000
# 2 25.1252 54.6776 25.9589 0.0000 0.0000 0.0000
# 3 52.3007 25.9589 164.0934 0.0000 0.0000 0.0000
# 4 0.0000 0.0000 0.0000 33.3161 0.0000 0.0000
# 5 0.0000 0.0000 0.0000 0.0000 45.6105 0.0000
# 6 0.0000 0.0000 0.0000 0.0000 0.0000 44.5856
#
#
#
# Elastic Compliance Matrix: (Units=1/GPa)
#
#
# Indices 1 2 3 4 5 6 
#
# 1 0.022125 -0.007373 -0.005886 0.000000 0.000000 0.000000
# 2 -0.007373 0.022231 -0.001167 0.000000 0.000000 0.000000
# 3 -0.005886 -0.001167 0.008155 0.000000 0.000000 0.000000
# 4 0.000000 0.000000 0.000000 0.030015 0.000000 0.000000
# 5 0.000000 0.000000 0.000000 0.000000 0.021925 0.000000
# 6 0.000000 0.000000 0.000000 0.000000 0.000000 0.022429
#
#
# Mechanical properties :
#
#
# Convention : Reuss Voigt Hill
#
# Bulk Modulus (GPa) = 42.26479 54.78031 48.52255
# Shear Modulus (GPa) = 30.55915 36.89365 33.72640
#
# Velocity S-wave (km/s) = 3.35377 3.68500 3.52328
# Velocity P-wave (km/s) = 5.52749 6.18614 5.86607
#
# Compressibility (1/GPa) = 0.02366036
#
# Stress axis : x y z
#
# Youngs Moduli (GPa) = 45.19711 44.98238 122.63050
#
# Poissons Ratio (x) = 0.33164 0.72175
# Poissons Ratio (y) = 0.33322 0.14311
# Poissons Ratio (z) = 0.26601 0.05249
#
# Static dielectric constant tensor:
#      x y z
#    x 2.299330 0.000000 0.000000 
#    y 0.000000 2.156120 0.000000 
#    z 0.000000 0.000000 1.984570 
# 
# From -- ./inp_files/2485.got.cif
#   From: 2010.05.17/outbox.cif.g08.bks.cpg/sg33_2_cif.got.tgz:2485.got - 2010.06.03 17:15:25.
