data_PCOD9345779
_publ_section_title
;
Structure prediction by ZEFSAII (Michael W. Deem and Ramdas Pophale) SiO2 
 PCOD9345779
Probable space group: P N A 21
;
_chemical_formula_sum "Si O2"
_cell_formula_units_Z 28
_cell_length_a 23.738029
_cell_length_b 8.721116
_cell_length_c 5.430023
_cell_angle_alpha 90.000000
_cell_angle_beta 90.000000
_cell_angle_gamma 90.000000
_cell_volume 1124.134789
_symmetry_space_group_name_H-M "P N A 21"
_symmetry_group_IT_number 33
_symmetry_cell_setting 'orthorhombic'
loop_
_space_group_symop_operation_xyz
x,y,z
-x,-y,1/2+z
1/2-x,1/2+y,1/2+z
1/2+x,1/2-y,z
loop_
_atom_site_type_symbol
_atom_site_label
_atom_site_fract_x
_atom_site_fract_y
_atom_site_fract_z
Si Si1 0.125372 0.101562 0.024310
Si Si2 0.183223 0.624687 0.065662
Si Si3 0.873875 0.141453 0.921351
Si Si4 0.016012 0.087727 0.710931
Si Si5 0.587220 0.077731 0.162168
Si Si6 0.217963 0.931734 0.788078
Si Si7 0.463497 0.152065 0.976420
O O1 0.117688 0.260235 0.166204
O O2 0.105058 0.964085 0.199517
O O3 0.081625 0.113804 0.793224
O O4 0.190286 0.054427 0.977205
O O5 0.161033 0.724146 0.292990
O O6 0.126072 0.532560 0.990839
O O7 0.225108 0.495581 0.172140
O O8 0.211859 0.756579 0.892819
O O9 0.922185 0.219014 0.089163
O O10 0.828591 0.054750 0.077886
O O11 0.984501 0.252319 0.734398
O O12 0.005463 0.017318 0.442394
O O13 0.576141 0.990242 0.416715
O O14 0.522323 0.106553 0.089812
#
# Coordination Sequence:
#
# PCOD9345779 Si02
#       7
#     4   4   4   4   4   4   4
#     4  10  23  43  68 106 137 191 249 305 376 461
#     4  10  26  45  68 103 136 190 245 314 382 465
#     4  10  22  45  70 100 138 186 247 305 380 459
#     4  11  22  40  72 104 145 193 253 306 377 451
#     4  10  24  44  65 103 147 186 247 305 383 460
#     4  11  25  45  75  97 145 190 251 315 382 457
#     4  10  22  42  66 101 146 192 238 314 374 459
#
# _framework density 24.908045000000001
#
# number of rings (size 3 to 8) (size 9 to 14) (size 15 to 20)
#    0.000    1.714    1.429    0.857    6.000    3.429 
#    2.571    0.000    0.000    0.000    0.000    0.000 
#    0.000    0.000    0.000    0.000    0.000    0.000 
#
# Total GULP energy -156102.787508 kJ/mol
# GULP energy per Si atom -5575.099554 kJ/mol
# Density = 2.485135 g / cm^3
# Si number density = 24.908045 Si / 1000 Ang^3
#
#
#
# Elastic Constant Matrix: (Units=GPa)
#
#
# Indices 1 2 3 4 5 6 
#
# 1 80.7230 31.7930 28.4704 0.0000 0.0000 0.0000
# 2 31.7930 76.9512 1.9639 0.0000 0.0000 0.0000
# 3 28.4704 1.9639 51.9865 0.0000 0.0000 0.0000
# 4 0.0000 0.0000 0.0000 34.6616 0.0000 0.0000
# 5 0.0000 0.0000 0.0000 0.0000 32.1013 0.0000
# 6 0.0000 0.0000 0.0000 0.0000 0.0000 52.9353
#
#
#
# Elastic Compliance Matrix: (Units=1/GPa)
#
#
# Indices 1 2 3 4 5 6 
#
# 1 0.018919 -0.007559 -0.010075 0.000000 0.000000 0.000000
# 2 -0.007559 0.016028 0.003534 0.000000 0.000000 0.000000
# 3 -0.010075 0.003534 0.024620 0.000000 0.000000 0.000000
# 4 0.000000 0.000000 0.000000 0.028850 0.000000 0.000000
# 5 0.000000 0.000000 0.000000 0.000000 0.031151 0.000000
# 6 0.000000 0.000000 0.000000 0.000000 0.000000 0.018891
#
#
# Mechanical properties :
#
#
# Convention : Reuss Voigt Hill
#
# Bulk Modulus (GPa) = 31.88116 37.12390 34.50253
# Shear Modulus (GPa) = 28.23013 33.76851 30.99932
#
# Velocity S-wave (km/s) = 3.37021 3.68601 3.53165
# Velocity P-wave (km/s) = 5.28884 5.74912 5.52377
#
# Compressibility (1/GPa) = 0.03136649
#
# Stress axis : x y z
#
# Youngs Moduli (GPa) = 52.85757 62.38992 40.61745
#
# Poissons Ratio (x) = 0.47162 0.40923
# Poissons Ratio (y) = 0.39957 -0.14356
# Poissons Ratio (z) = 0.53255 -0.22051
#
# Static dielectric constant tensor:
#      x y z
#    x 2.058100 0.000000 0.000000 
#    y 0.000000 2.068630 0.000000 
#    z 0.000000 0.000000 2.037540 
# 
# From -- ./inp_files/2214.got.cif
#   From: 2010.05.17/outbox.cif.g08.bks.cpg/sg33_2_cif.got.tgz:2214.got - 2010.06.03 17:15:25.
