data_PCOD9345299
_publ_section_title
;
Structure prediction by ZEFSAII (Michael W. Deem and Ramdas Pophale) SiO2 
 PCOD9345299
Probable space group: P N A 21
;
_chemical_formula_sum "Si O2"
_cell_formula_units_Z 28
_cell_length_a 17.225979
_cell_length_b 12.330022
_cell_length_c 5.591389
_cell_angle_alpha 90.000000
_cell_angle_beta 90.000000
_cell_angle_gamma 90.000000
_cell_volume 1187.592572
_symmetry_space_group_name_H-M "P N A 21"
_symmetry_group_IT_number 33
_symmetry_cell_setting 'orthorhombic'
loop_
_space_group_symop_operation_xyz
x,y,z
-x,-y,1/2+z
1/2-x,1/2+y,1/2+z
1/2+x,1/2-y,z
loop_
_atom_site_type_symbol
_atom_site_label
_atom_site_fract_x
_atom_site_fract_y
_atom_site_fract_z
Si Si1 0.679829 0.103878 0.356180
Si Si2 0.951458 0.608886 0.247888
Si Si3 0.877916 0.807582 0.334497
Si Si4 0.324416 0.491959 0.650649
Si Si5 0.987256 0.062314 0.616247
Si Si6 0.608314 0.918600 0.036081
Si Si7 0.260966 0.679152 0.937768
O O1 0.602580 0.120944 0.514736
O O2 0.710798 0.221654 0.271092
O O3 0.750003 0.058334 0.522291
O O4 0.659364 0.008249 0.174947
O O5 0.914807 0.696321 0.430144
O O6 0.937612 0.487117 0.337273
O O7 0.041501 0.627938 0.203824
O O8 0.861604 0.908232 0.502832
O O9 0.947043 0.847372 0.155931
O O10 0.798083 0.789457 0.191764
O O11 0.396685 0.410001 0.666373
O O12 0.295652 0.560024 0.878957
O O13 0.996608 0.020544 0.341719
O O14 0.669060 0.833362 0.934562
#
# Coordination Sequence:
#
# PCOD9345299 Si02
#       7
#     4   4   4   4   4   4   4
#     4  11  24  41  66  95 130 173 218 271 339 406
#     4  11  24  41  66  91 133 172 219 271 340 414
#     4  10  22  41  63  95 128 173 216 275 341 407
#     4  11  21  41  65  93 131 169 220 282 338 404
#     4  10  21  38  65  95 134 175 220 278 345 408
#     4  12  23  44  66  95 130 175 220 280 338 410
#     4  11  23  40  65  94 128 171 217 275 333 411
#
# _framework density 23.577107000000002
#
# number of rings (size 3 to 8) (size 9 to 14) (size 15 to 20)
#    0.000    1.143    5.714    0.857    2.000    0.000 
#    0.000    0.000   15.714    0.000    0.000    0.000 
#    0.000    0.000    0.000    0.000    0.000    0.000 
#
# Total GULP energy -156252.058017 kJ/mol
# GULP energy per Si atom -5580.430643 kJ/mol
# Density = 2.352344 g / cm^3
# Si number density = 23.577107 Si / 1000 Ang^3
#
#
#
# Elastic Constant Matrix: (Units=GPa)
#
#
# Indices 1 2 3 4 5 6 
#
# 1 161.9309 32.0331 13.1103 0.0000 0.0000 0.0000
# 2 32.0331 71.7013 1.7587 0.0000 0.0000 0.0000
# 3 13.1103 1.7587 38.9145 0.0000 0.0000 0.0000
# 4 0.0000 0.0000 0.0000 27.4582 0.0000 0.0000
# 5 0.0000 0.0000 0.0000 0.0000 35.1528 0.0000
# 6 0.0000 0.0000 0.0000 0.0000 0.0000 37.5685
#
#
#
# Elastic Compliance Matrix: (Units=1/GPa)
#
#
# Indices 1 2 3 4 5 6 
#
# 1 0.006958 -0.003055 -0.002206 0.000000 0.000000 0.000000
# 2 -0.003055 0.015303 0.000337 0.000000 0.000000 0.000000
# 3 -0.002206 0.000337 0.026425 0.000000 0.000000 0.000000
# 4 0.000000 0.000000 0.000000 0.036419 0.000000 0.000000
# 5 0.000000 0.000000 0.000000 0.000000 0.028447 0.000000
# 6 0.000000 0.000000 0.000000 0.000000 0.000000 0.026618
#
#
# Mechanical properties :
#
#
# Convention : Reuss Voigt Hill
#
# Bulk Modulus (GPa) = 25.74648 40.70564 33.22606
# Shear Modulus (GPa) = 30.68151 35.07887 32.88019
#
# Velocity S-wave (km/s) = 3.61130 3.86143 3.73846
# Velocity P-wave (km/s) = 5.32283 6.09781 5.72345
#
# Compressibility (1/GPa) = 0.03884026
#
# Stress axis : x y z
#
# Youngs Moduli (GPa) = 143.71226 65.34610 37.84238
#
# Poissons Ratio (x) = 0.19960 0.08349
# Poissons Ratio (y) = 0.43898 -0.01277
# Poissons Ratio (z) = 0.31706 -0.02205
#
# Static dielectric constant tensor:
#      x y z
#    x 1.901810 0.000000 0.000000 
#    y 0.000000 1.984700 0.000000 
#    z 0.000000 0.000000 1.961240 
# 
# From -- ./inp_files/1425.got.cif
#   From: 2010.05.17/outbox.cif.g08.bks.cpg/sg33_1_cif.got.tgz:1425.got - 2010.06.03 17:15:25.
