data_PCOD9345117
_publ_section_title
;
Structure prediction by ZEFSAII (Michael W. Deem and Ramdas Pophale) SiO2 
 PCOD9345117
Probable space group: P N A 21
;
_chemical_formula_sum "Si O2"
_cell_formula_units_Z 32
_cell_length_a 20.502621
_cell_length_b 5.326401
_cell_length_c 13.579809
_cell_angle_alpha 90.000000
_cell_angle_beta 90.000000
_cell_angle_gamma 90.000000
_cell_volume 1482.985500
_symmetry_space_group_name_H-M "P N A 21"
_symmetry_group_IT_number 33
_symmetry_cell_setting 'orthorhombic'
loop_
_space_group_symop_operation_xyz
x,y,z
-x,-y,1/2+z
1/2-x,1/2+y,1/2+z
1/2+x,1/2-y,z
loop_
_atom_site_type_symbol
_atom_site_label
_atom_site_fract_x
_atom_site_fract_y
_atom_site_fract_z
Si Si1 0.977024 0.996902 0.243880
Si Si2 0.121662 0.190281 0.880185
Si Si3 0.176411 0.701619 0.961603
Si Si4 0.427250 0.860889 0.841810
Si Si5 0.675130 0.193267 0.518996
Si Si6 0.999295 0.283828 0.988942
Si Si7 0.071138 0.637076 0.135655
Si Si8 0.381082 0.322048 0.101914
O O1 0.924997 0.796227 0.285474
O O2 0.029172 0.876499 0.169956
O O3 0.925738 0.195058 0.198521
O O4 0.024544 0.127958 0.321905
O O5 0.163009 0.435827 0.906873
O O6 0.066609 0.154561 0.964281
O O7 0.159407 0.929823 0.887892
O O8 0.249997 0.759741 0.992365
O O9 0.130453 0.691226 0.060045
O O10 0.367759 0.806350 0.917117
O O11 0.473128 0.057825 0.897535
O O12 0.408678 0.983653 0.735315
O O13 0.659083 0.422722 0.592871
O O14 0.657793 0.927062 0.571025
O O15 0.937862 0.127353 0.021791
O O16 0.018973 0.474723 0.074958
#
# Coordination Sequence:
#
# PCOD9345117 Si02
#       8
#     4   4   4   4   4   4   4   4
#     4  12  22  40  68 112 134 164 234 298 362 402
#     4  11  23  41  71  95 136 176 220 292 346 405
#     4  11  26  47  66  94 139 194 230 269 344 422
#     4  11  23  40  69 100 137 178 228 290 351 418
#     4  11  26  47  66  94 139 194 230 269 344 422
#     4  10  20  42  64 100 136 166 220 288 360 400
#     4  11  23  40  69 100 137 178 228 290 351 418
#     4  11  23  41  71  95 136 176 220 292 346 405
#
# _framework density 21.578092999999999
#
# number of rings (size 3 to 8) (size 9 to 14) (size 15 to 20)
#    0.000    1.000    2.500    5.250    3.500    1.000 
#    2.250    0.000    0.000    0.000    0.000    0.000 
#    0.000    0.000    0.000    0.000    0.000    0.000 
#
# Total GULP energy -178450.920716 kJ/mol
# GULP energy per Si atom -5576.591272 kJ/mol
# Density = 2.152898 g / cm^3
# Si number density = 21.578093 Si / 1000 Ang^3
#
#
#
# Elastic Constant Matrix: (Units=GPa)
#
#
# Indices 1 2 3 4 5 6 
#
# 1 127.5693 49.7678 23.8220 0.0000 0.0000 0.0000
# 2 49.7678 102.6470 13.0193 0.0000 0.0000 0.0000
# 3 23.8220 13.0193 61.5112 0.0000 0.0000 0.0000
# 4 0.0000 0.0000 0.0000 41.3439 0.0000 0.0000
# 5 0.0000 0.0000 0.0000 0.0000 36.3888 0.0000
# 6 0.0000 0.0000 0.0000 0.0000 0.0000 4.3214
#
#
#
# Elastic Compliance Matrix: (Units=1/GPa)
#
#
# Indices 1 2 3 4 5 6 
#
# 1 0.010171 -0.004554 -0.002975 0.000000 0.000000 0.000000
# 2 -0.004554 0.012050 -0.000787 0.000000 0.000000 0.000000
# 3 -0.002975 -0.000787 0.017576 0.000000 0.000000 0.000000
# 4 0.000000 0.000000 0.000000 0.024187 0.000000 0.000000
# 5 0.000000 0.000000 0.000000 0.000000 0.027481 0.000000
# 6 0.000000 0.000000 0.000000 0.000000 0.000000 0.231406
#
#
# Mechanical properties :
#
#
# Convention : Reuss Voigt Hill
#
# Bulk Modulus (GPa) = 43.16854 51.66064 47.41459
# Shear Modulus (GPa) = 14.39990 30.08538 22.24264
#
# Velocity S-wave (km/s) = 2.58609 3.73802 3.21409
# Velocity P-wave (km/s) = 5.38204 6.52868 5.98289
#
# Compressibility (1/GPa) = 0.02316502
#
# Stress axis : x y z
#
# Youngs Moduli (GPa) = 98.31781 82.98812 56.89598
#
# Poissons Ratio (x) = 0.37793 0.16927
# Poissons Ratio (y) = 0.44774 0.04476
# Poissons Ratio (z) = 0.29251 0.06529
#
# Static dielectric constant tensor:
#      x y z
#    x 1.779880 0.000000 0.000000 
#    y 0.000000 1.825650 0.000000 
#    z 0.000000 0.000000 2.001280 
# 
# From -- ./inp_files/8307.got.cif
#   From: 2010.05.17/outbox.cif.g08.bks.cpg/sg33_5_cif.got.tgz:8307.got - 2010.06.03 17:15:25.
