data_PCOD9345090
_publ_section_title
;
Structure prediction by ZEFSAII (Michael W. Deem and Ramdas Pophale) SiO2 
 PCOD9345090
Probable space group: P N A 21
;
_chemical_formula_sum "Si O2"
_cell_formula_units_Z 16
_cell_length_a 9.036056
_cell_length_b 7.780199
_cell_length_c 8.457456
_cell_angle_alpha 90.000000
_cell_angle_beta 90.000000
_cell_angle_gamma 90.000000
_cell_volume 594.578726
_symmetry_space_group_name_H-M "P N A 21"
_symmetry_group_IT_number 33
_symmetry_cell_setting 'orthorhombic'
loop_
_space_group_symop_operation_xyz
x,y,z
-x,-y,1/2+z
1/2-x,1/2+y,1/2+z
1/2+x,1/2-y,z
loop_
_atom_site_type_symbol
_atom_site_label
_atom_site_fract_x
_atom_site_fract_y
_atom_site_fract_z
Si Si1 0.759547 0.376746 0.853060
Si Si2 0.947182 0.670569 0.752509
Si Si3 0.956090 0.108807 0.004050
Si Si4 0.676480 0.890862 0.022835
O O1 0.839337 0.263654 0.983735
O O2 0.586159 0.378786 0.878481
O O3 0.805498 0.285342 0.686494
O O4 0.817733 0.574203 0.852837
O O5 0.960186 0.854891 0.669356
O O6 0.090134 0.654399 0.864694
O O7 0.921964 0.546625 0.598726
O O8 0.846718 0.947513 0.994376
#
# Coordination Sequence:
#
# PCOD9345090 Si02
#       4
#     4   4   4   4
#     4  10  20  41  63  97 130 180 221 283 331 409
#     4  10  20  44  65  98 138 177 226 288 338 416
#     4  12  21  43  71  93 144 181 219 290 350 394
#     4  10  23  42  67 100 136 178 228 285 343 417
#
# _framework density 26.90981
#
# number of rings (size 3 to 8) (size 9 to 14) (size 15 to 20)
#    1.500    0.000    5.000    0.000    0.000    2.000 
#    4.500    2.500    0.000    0.000    0.000    0.000 
#    0.000    0.000    0.000    0.000    0.000    0.000 
#
# Total GULP energy -89141.755499 kJ/mol
# GULP energy per Si atom -5571.359719 kJ/mol
# Density = 2.684856 g / cm^3
# Si number density = 26.909810 Si / 1000 Ang^3
#
#
#
# Elastic Constant Matrix: (Units=GPa)
#
#
# Indices 1 2 3 4 5 6 
#
# 1 154.7867 35.7393 36.4879 0.0000 0.0000 0.0000
# 2 35.7393 52.8079 14.8413 0.0000 0.0000 0.0000
# 3 36.4879 14.8413 92.7559 0.0000 0.0000 0.0000
# 4 0.0000 0.0000 0.0000 32.8588 0.0000 0.0000
# 5 0.0000 0.0000 0.0000 0.0000 56.8395 0.0000
# 6 0.0000 0.0000 0.0000 0.0000 0.0000 40.1726
#
#
#
# Elastic Compliance Matrix: (Units=1/GPa)
#
#
# Indices 1 2 3 4 5 6 
#
# 1 0.008150 -0.004832 -0.002433 0.000000 0.000000 0.000000
# 2 -0.004832 0.022693 -0.001730 0.000000 0.000000 0.000000
# 3 -0.002433 -0.001730 0.012015 0.000000 0.000000 0.000000
# 4 0.000000 0.000000 0.000000 0.030433 0.000000 0.000000
# 5 0.000000 0.000000 0.000000 0.000000 0.017593 0.000000
# 6 0.000000 0.000000 0.000000 0.000000 0.000000 0.024893
#
#
# Mechanical properties :
#
#
# Convention : Reuss Voigt Hill
#
# Bulk Modulus (GPa) = 40.21270 52.72081 46.46675
# Shear Modulus (GPa) = 35.19756 40.19300 37.69528
#
# Velocity S-wave (km/s) = 3.62053 3.86893 3.74679
# Velocity P-wave (km/s) = 5.69680 6.29225 6.00191
#
# Compressibility (1/GPa) = 0.02486777
#
# Stress axis : x y z
#
# Youngs Moduli (GPa) = 122.70541 44.06667 83.23064
#
# Poissons Ratio (x) = 0.21292 0.20248
# Poissons Ratio (y) = 0.59288 0.14401
# Poissons Ratio (z) = 0.29851 0.07625
#
# Static dielectric constant tensor:
#      x y z
#    x 2.033430 0.000000 0.000000 
#    y 0.000000 2.226630 0.000000 
#    z 0.000000 0.000000 2.211010 
# 
# From -- ./inp_files/2912.got.cif
#   From: 2010.05.17/outbox.cif.g08.bks.cpg/sg33_2_cif.got.tgz:2912.got - 2010.06.03 17:15:25.
