data_PCOD9345955
_publ_section_title
;
Structure prediction by ZEFSAII (Michael W. Deem and Ramdas Pophale) SiO2 
 PCOD9345955
Probable space group: P N A 21
;
_chemical_formula_sum "Si O2"
_cell_formula_units_Z 32
_cell_length_a 9.090418
_cell_length_b 18.673486
_cell_length_c 7.768664
_cell_angle_alpha 90.000000
_cell_angle_beta 90.000000
_cell_angle_gamma 90.000000
_cell_volume 1318.729108
_symmetry_space_group_name_H-M "P N A 21"
_symmetry_group_IT_number 33
_symmetry_cell_setting 'orthorhombic'
loop_
_space_group_symop_operation_xyz
x,y,z
-x,-y,1/2+z
1/2-x,1/2+y,1/2+z
1/2+x,1/2-y,z
loop_
_atom_site_type_symbol
_atom_site_label
_atom_site_fract_x
_atom_site_fract_y
_atom_site_fract_z
Si Si1 0.055939 0.198865 0.187540
Si Si2 0.585173 0.138093 0.277585
Si Si3 0.891656 0.274438 0.770125
Si Si4 0.858880 0.152997 0.481105
Si Si5 0.694960 0.158259 0.919390
Si Si6 0.316514 0.616156 0.379163
Si Si7 0.717277 0.907365 0.733294
Si Si8 0.591163 0.544813 0.240817
O O1 0.041316 0.282281 0.214968
O O2 0.205377 0.168343 0.275513
O O3 0.924660 0.165892 0.293747
O O4 0.078102 0.167481 0.996607
O O5 0.686077 0.146040 0.443912
O O6 0.442671 0.090445 0.312669
O O7 0.664574 0.117852 0.099187
O O8 0.901847 0.218688 0.610159
O O9 0.804650 0.227968 0.918729
O O10 0.773371 0.338430 0.740065
O O11 0.044657 0.311040 0.830386
O O12 0.919482 0.078027 0.550619
O O13 0.787597 0.100409 0.813800
O O14 0.201586 0.590752 0.524274
O O15 0.428352 0.556957 0.313693
O O16 0.836651 0.968297 0.765026
#
# Coordination Sequence:
#
# PCOD9345955 Si02
#       8
#     4   4   4   4   4   4   4   4
#     4  10  23  42  70 100 127 182 229 288 348 406
#     4  12  23  44  68 101 138 179 230 293 357 411
#     4  11  22  43  66 107 134 182 226 292 352 407
#     4  11  27  37  68 104 148 166 229 304 353 402
#     4  11  22  41  71  98 138 185 233 276 346 437
#     4  10  22  46  72  94 136 186 238 278 345 435
#     4  10  25  45  73  94 136 185 240 278 345 430
#     4  11  26  44  66 102 139 187 237 283 354 422
#
# _framework density 24.265788000000001
#
# number of rings (size 3 to 8) (size 9 to 14) (size 15 to 20)
#    0.750    0.500    2.500    3.000    8.750    1.000 
#    0.000    0.000    0.000    0.000    0.000    0.000 
#    0.000    0.000    0.000    0.000    0.000    0.000 
#
# Total GULP energy -178509.729397 kJ/mol
# GULP energy per Si atom -5578.429044 kJ/mol
# Density = 2.421056 g / cm^3
# Si number density = 24.265788 Si / 1000 Ang^3
#
#
#
# Elastic Constant Matrix: (Units=GPa)
#
#
# Indices 1 2 3 4 5 6 
#
# 1 82.6332 -11.2336 27.3172 0.0000 0.0000 0.0000
# 2 -11.2336 39.9755 7.9828 0.0000 0.0000 0.0000
# 3 27.3172 7.9828 45.8069 0.0000 0.0000 0.0000
# 4 0.0000 0.0000 0.0000 19.3388 0.0000 0.0000
# 5 0.0000 0.0000 0.0000 0.0000 41.8467 0.0000
# 6 0.0000 0.0000 0.0000 0.0000 0.0000 31.4977
#
#
#
# Elastic Compliance Matrix: (Units=1/GPa)
#
#
# Indices 1 2 3 4 5 6 
#
# 1 0.016747 0.006942 -0.011197 0.000000 0.000000 0.000000
# 2 0.006942 0.028795 -0.009158 0.000000 0.000000 0.000000
# 3 -0.011197 -0.009158 0.030104 0.000000 0.000000 0.000000
# 4 0.000000 0.000000 0.000000 0.051709 0.000000 0.000000
# 5 0.000000 0.000000 0.000000 0.000000 0.023897 0.000000
# 6 0.000000 0.000000 0.000000 0.000000 0.000000 0.031748
#
#
# Mechanical properties :
#
#
# Convention : Reuss Voigt Hill
#
# Bulk Modulus (GPa) = 20.48339 24.06095 22.27217
# Shear Modulus (GPa) = 22.11414 28.15993 25.13703
#
# Velocity S-wave (km/s) = 3.02210 3.41028 3.22204
# Velocity P-wave (km/s) = 4.54280 5.04418 4.80004
#
# Compressibility (1/GPa) = 0.04882005
#
# Stress axis : x y z
#
# Youngs Moduli (GPa) = 59.71243 34.72837 33.21807
#
# Poissons Ratio (x) = -0.24109 0.37194
# Poissons Ratio (y) = -0.41453 0.30421
# Poissons Ratio (z) = 0.66860 0.31804
#
# Static dielectric constant tensor:
#      x y z
#    x 1.995820 0.000000 0.000000 
#    y 0.000000 1.960890 0.000000 
#    z 0.000000 0.000000 2.093630 
# 
# From -- ./inp_files/3459.got.cif
#   From: 2010.05.17/outbox.cif.g08.bks.cpg/sg33_2_cif.got.tgz:3459.got - 2010.06.03 17:15:25.
