data_PCOD9345124
_publ_section_title
;
Structure prediction by ZEFSAII (Michael W. Deem and Ramdas Pophale) SiO2 
 PCOD9345124
Probable space group: P N A 21
;
_chemical_formula_sum "Si O2"
_cell_formula_units_Z 24
_cell_length_a 9.965704
_cell_length_b 8.447355
_cell_length_c 14.726628
_cell_angle_alpha 90.000000
_cell_angle_beta 90.000000
_cell_angle_gamma 90.000000
_cell_volume 1239.744088
_symmetry_space_group_name_H-M "P N A 21"
_symmetry_group_IT_number 33
_symmetry_cell_setting 'orthorhombic'
loop_
_space_group_symop_operation_xyz
x,y,z
-x,-y,1/2+z
1/2-x,1/2+y,1/2+z
1/2+x,1/2-y,z
loop_
_atom_site_type_symbol
_atom_site_label
_atom_site_fract_x
_atom_site_fract_y
_atom_site_fract_z
Si Si1 0.137350 0.935854 0.086440
Si Si2 0.364763 0.057140 0.957788
Si Si3 0.858064 0.374989 0.482479
Si Si4 0.598815 0.570545 0.461678
Si Si5 0.552801 0.408798 0.266329
Si Si6 0.734988 0.655685 0.813550
O O1 0.142084 0.749557 0.064697
O O2 0.115352 0.979288 0.190178
O O3 0.268714 0.015120 0.042291
O O4 0.012636 0.008420 0.030852
O O5 0.398972 0.241105 0.954909
O O6 0.288596 0.998203 0.866817
O O7 0.498390 0.953152 0.967797
O O8 0.743641 0.506051 0.492044
O O9 0.819829 0.270654 0.393969
O O10 0.566094 0.490947 0.364595
O O11 0.394518 0.377388 0.251861
O O12 0.641458 0.248490 0.268168
#
# Coordination Sequence:
#
# PCOD9345124 Si02
#       6
#     4   4   4   4   4   4
#     4  11  23  41  63  92 129 172 218 264 317 386
#     4  11  21  41  65  92 126 170 215 269 319 380
#     4  10  20  42  67  86 124 172 209 261 328 371
#     4  11  23  42  65  94 128 168 218 268 321 384
#     4  11  23  42  66  95 127 170 217 260 328 388
#     4  10  20  42  66  89 126 168 205 262 327 381
#
# _framework density 19.358832
#
# number of rings (size 3 to 8) (size 9 to 14) (size 15 to 20)
#    0.000    1.333    5.000    3.000    2.333    0.000 
#    6.000    0.000    0.000    0.000    0.000    0.000 
#    0.000    0.000    0.000    0.000    0.000    0.000 
#
# Total GULP energy -134131.068080 kJ/mol
# GULP energy per Si atom -5588.794503 kJ/mol
# Density = 1.931477 g / cm^3
# Si number density = 19.358832 Si / 1000 Ang^3
#
#
#
# Elastic Constant Matrix: (Units=GPa)
#
#
# Indices 1 2 3 4 5 6 
#
# 1 89.3266 -7.4386 8.3927 0.0000 0.0000 0.0000
# 2 -7.4386 66.3683 4.7281 0.0000 0.0000 0.0000
# 3 8.3927 4.7281 36.5282 0.0000 0.0000 0.0000
# 4 0.0000 0.0000 0.0000 13.9044 0.0000 0.0000
# 5 0.0000 0.0000 0.0000 0.0000 0.2804 0.0000
# 6 0.0000 0.0000 0.0000 0.0000 0.0000 13.0670
#
#
#
# Elastic Compliance Matrix: (Units=1/GPa)
#
#
# Indices 1 2 3 4 5 6 
#
# 1 0.011588 0.001502 -0.002857 0.000000 0.000000 0.000000
# 2 0.001502 0.015402 -0.002339 0.000000 0.000000 0.000000
# 3 -0.002857 -0.002339 0.028335 0.000000 0.000000 0.000000
# 4 0.000000 0.000000 0.000000 0.071920 0.000000 0.000000
# 5 0.000000 0.000000 0.000000 0.000000 3.566243 0.000000
# 6 0.000000 0.000000 0.000000 0.000000 0.000000 0.076529
#
#
# Mechanical properties :
#
#
# Convention : Reuss Voigt Hill
#
# Bulk Modulus (GPa) = 20.85974 22.62081 21.74028
# Shear Modulus (GPa) = 1.31808 17.88643 9.60226
#
# Velocity S-wave (km/s) = 0.82604 3.04294 2.22955
# Velocity P-wave (km/s) = 3.42177 4.90473 4.22876
#
# Compressibility (1/GPa) = 0.04793924
#
# Stress axis : x y z
#
# Youngs Moduli (GPa) = 86.29305 64.92475 35.29168
#
# Poissons Ratio (x) = -0.09754 0.10083
# Poissons Ratio (y) = -0.12964 0.08254
# Poissons Ratio (z) = 0.24654 0.15185
#
# Static dielectric constant tensor:
#      x y z
#    x 1.683510 0.000000 0.000000 
#    y 0.000000 1.651570 0.000000 
#    z 0.000000 0.000000 1.660750 
# 
# From -- ./inp_files/7527.got.cif
#   From: 2010.05.17/outbox.cif.g08.bks.cpg/sg33_4_cif.got.tgz:7527.got - 2010.06.03 17:15:25.
