data_PCOD9345112
_publ_section_title
;
Structure prediction by ZEFSAII (Michael W. Deem and Ramdas Pophale) SiO2 
 PCOD9345112
Probable space group: P N A 21
;
_chemical_formula_sum "Si O2"
_cell_formula_units_Z 24
_cell_length_a 4.982917
_cell_length_b 22.373487
_cell_length_c 11.217826
_cell_angle_alpha 90.000000
_cell_angle_beta 90.000000
_cell_angle_gamma 90.000000
_cell_volume 1250.621897
_symmetry_space_group_name_H-M "P N A 21"
_symmetry_group_IT_number 33
_symmetry_cell_setting 'orthorhombic'
loop_
_space_group_symop_operation_xyz
x,y,z
-x,-y,1/2+z
1/2-x,1/2+y,1/2+z
1/2+x,1/2-y,z
loop_
_atom_site_type_symbol
_atom_site_label
_atom_site_fract_x
_atom_site_fract_y
_atom_site_fract_z
Si Si1 0.191158 0.905662 0.573030
Si Si2 0.245338 0.289628 0.631511
Si Si3 0.965187 0.604152 0.969386
Si Si4 0.063872 0.026371 0.444725
Si Si5 0.733111 0.208022 0.911540
Si Si6 0.802137 0.412950 0.232787
O O1 0.276541 0.851012 0.490018
O O2 0.453234 0.926798 0.645602
O O3 0.950684 0.887068 0.662151
O O4 0.076206 0.960528 0.496187
O O5 0.545686 0.266383 0.610244
O O6 0.149913 0.343718 0.549822
O O7 0.220721 0.306819 0.770687
O O8 0.071302 0.626571 0.839935
O O9 0.727909 0.556169 0.948083
O O10 0.226408 0.568741 0.017318
O O11 0.817399 0.968304 0.810179
O O12 0.500447 0.255080 0.936332
#
# Coordination Sequence:
#
# PCOD9345112 Si02
#       6
#     4   4   4   4   4   4
#     4  12  22  39  67  87 121 169 195 247 322 354
#     4  10  21  39  65  89 120 158 202 255 300 361
#     4  10  20  42  58  89 127 153 196 257 299 349
#     4  10  22  38  61  89 125 156 196 255 294 370
#     4  10  23  42  59  89 122 154 208 256 295 362
#     4  10  22  40  58  89 131 148 205 252 290 372
#
# _framework density 19.190452000000001
#
# number of rings (size 3 to 8) (size 9 to 14) (size 15 to 20)
#    1.000    0.667    1.667    3.000    0.000    2.667 
#    0.000    5.000    0.000    0.000    0.000    0.000 
#    0.000    0.000    0.000    0.000    0.000    0.000 
#
# Total GULP energy -133776.047529 kJ/mol
# GULP energy per Si atom -5574.001980 kJ/mol
# Density = 1.914677 g / cm^3
# Si number density = 19.190452 Si / 1000 Ang^3
#
#
#
# Elastic Constant Matrix: (Units=GPa)
#
#
# Indices 1 2 3 4 5 6 
#
# 1 127.0706 17.5962 32.0247 0.0000 0.0000 0.0000
# 2 17.5962 75.2447 56.5745 0.0000 0.0000 0.0000
# 3 32.0247 56.5745 81.1002 0.0000 0.0000 0.0000
# 4 0.0000 0.0000 0.0000 159.3515 0.0000 0.0000
# 5 0.0000 0.0000 0.0000 0.0000 31.0754 0.0000
# 6 0.0000 0.0000 0.0000 0.0000 0.0000 -10.5699
#
#
#
# Elastic Compliance Matrix: (Units=1/GPa)
#
#
# Indices 1 2 3 4 5 6 
#
# 1 0.008788 0.001165 -0.004283 0.000000 0.000000 0.000000
# 2 0.001165 0.028104 -0.020065 0.000000 0.000000 0.000000
# 3 -0.004283 -0.020065 0.028019 0.000000 0.000000 0.000000
# 4 0.000000 0.000000 0.000000 0.006275 0.000000 0.000000
# 5 0.000000 0.000000 0.000000 0.000000 0.032180 0.000000
# 6 0.000000 0.000000 0.000000 0.000000 0.000000 -0.094608
#
#
# Mechanical properties :
#
#
# Convention : Reuss Voigt Hill
#
# Bulk Modulus (GPa) = 53.92335 55.08959 54.50647
# Shear Modulus (GPa) = 81.55973 47.78606 64.67289
#
# Velocity S-wave (km/s) = 6.52629 4.99550 5.81152
# Velocity P-wave (km/s) = 9.21683 7.87670 8.57299
#
# Compressibility (1/GPa) = 0.01854484
#
# Stress axis : x y z
#
# Youngs Moduli (GPa) = 113.79580 35.58226 35.69039
#
# Poissons Ratio (x) = -0.04146 0.15286
# Poissons Ratio (y) = -0.13259 0.71613
# Poissons Ratio (z) = 0.48737 0.71396
#
# Static dielectric constant tensor:
#      x y z
#    x 1.670040 0.000000 0.000000 
#    y 0.000000 1.389230 0.000000 
#    z 0.000000 0.000000 1.695870 
# 
# From -- ./inp_files/5508.got.cif
#   From: 2010.05.17/outbox.cif.g08.bks.cpg/sg33_3_cif.got.tgz:5508.got - 2010.06.03 17:15:25.
