data_PCOD9345036
_publ_section_title
;
Structure prediction by ZEFSAII (Michael W. Deem and Ramdas Pophale) SiO2 
 PCOD9345036
Probable space group: P N A 21
;
_chemical_formula_sum "Si O2"
_cell_formula_units_Z 24
_cell_length_a 14.423200
_cell_length_b 12.790521
_cell_length_c 5.093754
_cell_angle_alpha 90.000000
_cell_angle_beta 90.000000
_cell_angle_gamma 90.000000
_cell_volume 939.696973
_symmetry_space_group_name_H-M "P N A 21"
_symmetry_group_IT_number 33
_symmetry_cell_setting 'orthorhombic'
loop_
_space_group_symop_operation_xyz
x,y,z
-x,-y,1/2+z
1/2-x,1/2+y,1/2+z
1/2+x,1/2-y,z
loop_
_atom_site_type_symbol
_atom_site_label
_atom_site_fract_x
_atom_site_fract_y
_atom_site_fract_z
Si Si1 0.432404 0.001618 0.456390
Si Si2 0.826993 0.700659 0.378281
Si Si3 0.512785 0.732360 0.365471
Si Si4 0.954857 0.956926 0.654312
Si Si5 0.669966 0.813471 0.665785
Si Si6 0.834300 0.120611 0.525170
O O1 0.358904 0.096979 0.378993
O O2 0.506717 0.018936 0.690697
O O3 0.372456 0.897718 0.535503
O O4 0.917507 0.740768 0.224746
O O5 0.768027 0.793655 0.517769
O O6 0.757842 0.645954 0.177981
O O7 0.472781 0.664689 0.608238
O O8 0.583142 0.819368 0.468770
O O9 0.579580 0.664392 0.190150
O O10 0.859404 0.999507 0.528258
O O11 0.030046 0.011168 0.455361
O O12 0.664119 0.693876 0.775047
#
# Coordination Sequence:
#
# PCOD9345036 Si02
#       6
#     4   4   4   4   4   4
#     4  12  28  51  80 108 157 213 259 321 395 474
#     4  11  26  44  70 109 143 196 253 309 377 457
#     4  10  21  44  65  98 137 191 233 303 369 445
#     4  10  20  39  68  93 131 178 226 289 363 429
#     4  11  24  46  72 106 150 193 254 316 380 456
#     4  10  23  42  67 100 142 183 241 306 370 451
#
# _framework density 25.540150000000001
#
# number of rings (size 3 to 8) (size 9 to 14) (size 15 to 20)
#    0.000    1.333    3.333    1.000    7.000    1.333 
#    3.000    0.000    0.000    0.000    0.000    0.000 
#    0.000    0.000    0.000    0.000    0.000    0.000 
#
# Total GULP energy -133632.388541 kJ/mol
# GULP energy per Si atom -5568.016189 kJ/mol
# Density = 2.548202 g / cm^3
# Si number density = 25.540150 Si / 1000 Ang^3
#
#
#
# Elastic Constant Matrix: (Units=GPa)
#
#
# Indices 1 2 3 4 5 6 
#
# 1 186.9620 47.8176 27.5942 0.0000 0.0000 0.0000
# 2 47.8176 109.9091 18.9481 0.0000 0.0000 0.0000
# 3 27.5942 18.9481 76.9806 0.0000 0.0000 0.0000
# 4 0.0000 0.0000 0.0000 32.8310 0.0000 0.0000
# 5 0.0000 0.0000 0.0000 0.0000 12.0833 0.0000
# 6 0.0000 0.0000 0.0000 0.0000 0.0000 52.0452
#
#
#
# Elastic Compliance Matrix: (Units=1/GPa)
#
#
# Indices 1 2 3 4 5 6 
#
# 1 0.006208 -0.002420 -0.001630 0.000000 0.000000 0.000000
# 2 -0.002420 0.010445 -0.001703 0.000000 0.000000 0.000000
# 3 -0.001630 -0.001703 0.013994 0.000000 0.000000 0.000000
# 4 0.000000 0.000000 0.000000 0.030459 0.000000 0.000000
# 5 0.000000 0.000000 0.000000 0.000000 0.082759 0.000000
# 6 0.000000 0.000000 0.000000 0.000000 0.000000 0.019214
#
#
# Mechanical properties :
#
#
# Convention : Reuss Voigt Hill
#
# Bulk Modulus (GPa) = 52.24510 62.50794 57.37652
# Shear Modulus (GPa) = 27.62965 38.02469 32.82717
#
# Velocity S-wave (km/s) = 3.29266 3.86271 3.58902
# Velocity P-wave (km/s) = 5.91236 6.66495 6.29990
#
# Compressibility (1/GPa) = 0.01914055
#
# Stress axis : x y z
#
# Youngs Moduli (GPa) = 161.07856 95.73995 71.46043
#
# Poissons Ratio (x) = 0.23169 0.11646
# Poissons Ratio (y) = 0.38981 0.12173
# Poissons Ratio (z) = 0.26251 0.16309
#
# Static dielectric constant tensor:
#      x y z
#    x 2.173930 0.000000 0.000000 
#    y 0.000000 2.420770 0.000000 
#    z 0.000000 0.000000 2.054780 
# 
# From -- ./inp_files/844.got.cif
#   From: 2010.05.17/outbox.cif.g08.bks.cpg/sg33_1_cif.got.tgz:844.got - 2010.06.03 17:15:25.
