data_PCOD9345986
_publ_section_title
;
Structure prediction by ZEFSAII (Michael W. Deem and Ramdas Pophale) SiO2 
 PCOD9345986
Probable space group: P N A 21
;
_chemical_formula_sum "Si O2"
_cell_formula_units_Z 16
_cell_length_a 6.976084
_cell_length_b 7.126270
_cell_length_c 11.313594
_cell_angle_alpha 90.000000
_cell_angle_beta 90.000000
_cell_angle_gamma 90.000000
_cell_volume 562.437882
_symmetry_space_group_name_H-M "P N A 21"
_symmetry_group_IT_number 33
_symmetry_cell_setting 'orthorhombic'
loop_
_space_group_symop_operation_xyz
x,y,z
-x,-y,1/2+z
1/2-x,1/2+y,1/2+z
1/2+x,1/2-y,z
loop_
_atom_site_type_symbol
_atom_site_label
_atom_site_fract_x
_atom_site_fract_y
_atom_site_fract_z
Si Si1 0.327991 0.399493 0.960480
Si Si2 0.357173 0.439135 0.614726
Si Si3 0.549522 0.977224 0.152427
Si Si4 0.801570 0.009069 0.369378
O O1 0.268719 0.200609 0.906818
O O2 0.465337 0.501932 0.863348
O O3 0.480833 0.417455 0.070263
O O4 0.137557 0.474327 0.024384
O O5 0.444490 0.249767 0.665125
O O6 0.264916 0.371755 0.487098
O O7 0.171127 0.526680 0.673615
O O8 0.683413 0.058645 0.254930
#
# Coordination Sequence:
#
# PCOD9345986 Si02
#       4
#     4   4   4   4
#     4  10  23  41  64 100 127 166 229 263 320 403
#     4  10  23  38  67  96 126 170 221 269 309 410
#     4  12  21  46  68  93 134 173 215 270 342 373
#     4  10  23  43  67  95 131 175 207 276 329 380
#
# _framework density 28.447586000000001
#
# number of rings (size 3 to 8) (size 9 to 14) (size 15 to 20)
#    1.500    0.000    2.500    3.000    0.000    0.000 
#    0.000   12.500    0.000    0.000    0.000    0.000 
#    0.000    0.000    0.000    0.000    0.000    0.000 
#
# Total GULP energy -89402.543192 kJ/mol
# GULP energy per Si atom -5587.658950 kJ/mol
# Density = 2.838284 g / cm^3
# Si number density = 28.447586 Si / 1000 Ang^3
#
#
#
# Elastic Constant Matrix: (Units=GPa)
#
#
# Indices 1 2 3 4 5 6 
#
# 1 221.4446 25.7455 37.8319 0.0000 0.0000 0.0000
# 2 25.7455 95.8295 21.5566 0.0000 0.0000 0.0000
# 3 37.8319 21.5566 64.6536 0.0000 0.0000 0.0000
# 4 0.0000 0.0000 0.0000 38.8993 0.0000 0.0000
# 5 0.0000 0.0000 0.0000 0.0000 64.7058 0.0000
# 6 0.0000 0.0000 0.0000 0.0000 0.0000 35.6684
#
#
#
# Elastic Compliance Matrix: (Units=1/GPa)
#
#
# Indices 1 2 3 4 5 6 
#
# 1 0.005067 -0.000751 -0.002715 0.000000 0.000000 0.000000
# 2 -0.000751 0.011393 -0.003359 0.000000 0.000000 0.000000
# 3 -0.002715 -0.003359 0.018176 0.000000 0.000000 0.000000
# 4 0.000000 0.000000 0.000000 0.025707 0.000000 0.000000
# 5 0.000000 0.000000 0.000000 0.000000 0.015455 0.000000
# 6 0.000000 0.000000 0.000000 0.000000 0.000000 0.028036
#
#
# Mechanical properties :
#
#
# Convention : Reuss Voigt Hill
#
# Bulk Modulus (GPa) = 47.65082 61.35507 54.50295
# Shear Modulus (GPa) = 40.16805 47.64093 43.90449
#
# Velocity S-wave (km/s) = 3.76174 4.09674 3.93281
# Velocity P-wave (km/s) = 5.97112 6.63267 6.31057
#
# Compressibility (1/GPa) = 0.02098600
#
# Stress axis : x y z
#
# Youngs Moduli (GPa) = 197.36199 87.77698 55.01911
#
# Poissons Ratio (x) = 0.06589 0.14935
# Poissons Ratio (y) = 0.14814 0.18482
# Poissons Ratio (z) = 0.53575 0.29486
#
# Static dielectric constant tensor:
#      x y z
#    x 2.274120 0.000000 0.000000 
#    y 0.000000 2.169100 0.000000 
#    z 0.000000 0.000000 2.445290 
# 
# From -- ./inp_files/5669.got.cif
#   From: 2010.05.17/outbox.cif.g08.bks.cpg/sg33_3_cif.got.tgz:5669.got - 2010.06.03 17:15:25.
