data_PCOD9345220
_publ_section_title
;
Structure prediction by ZEFSAII (Michael W. Deem and Ramdas Pophale) SiO2 
 PCOD9345220
Probable space group: P N A 21
;
_chemical_formula_sum "Si O2"
_cell_formula_units_Z 16
_cell_length_a 8.566318
_cell_length_b 14.907281
_cell_length_c 5.351698
_cell_angle_alpha 90.000000
_cell_angle_beta 90.000000
_cell_angle_gamma 90.000000
_cell_volume 683.414562
_symmetry_space_group_name_H-M "P N A 21"
_symmetry_group_IT_number 33
_symmetry_cell_setting 'orthorhombic'
loop_
_space_group_symop_operation_xyz
x,y,z
-x,-y,1/2+z
1/2-x,1/2+y,1/2+z
1/2+x,1/2-y,z
loop_
_atom_site_type_symbol
_atom_site_label
_atom_site_fract_x
_atom_site_fract_y
_atom_site_fract_z
Si Si1 0.403463 0.299080 0.019420
Si Si2 0.850076 0.345317 0.659642
Si Si3 0.050453 0.049543 0.704794
Si Si4 0.365280 0.789550 0.857418
O O1 0.539073 0.289829 0.221642
O O2 0.245889 0.333354 0.148279
O O3 0.383117 0.195928 0.931703
O O4 0.464710 0.359538 0.795186
O O5 0.733432 0.428427 0.668061
O O6 0.749959 0.263643 0.539857
O O7 0.011135 0.350448 0.505796
O O8 0.979580 0.012737 0.447369
#
# Coordination Sequence:
#
# PCOD9345220 Si02
#       4
#     4   4   4   4
#     4  11  21  41  70 102 131 189 237 291 342 437
#     4  11  21  41  70 102 131 189 237 291 342 437
#     4  12  27  44  70 105 146 188 232 304 379 418
#     4  10  21  36  74 101 132 168 258 280 337 408
#
# _framework density 23.411854000000002
#
# number of rings (size 3 to 8) (size 9 to 14) (size 15 to 20)
#    0.000    1.000    5.000    1.500    7.000    0.000 
#    0.000    0.000   11.000    0.000    0.000    0.000 
#    0.000    0.000    0.000    0.000    0.000    0.000 
#
# Total GULP energy -89430.601317 kJ/mol
# GULP energy per Si atom -5589.412582 kJ/mol
# Density = 2.335857 g / cm^3
# Si number density = 23.411854 Si / 1000 Ang^3
#
#
#
# Elastic Constant Matrix: (Units=GPa)
#
#
# Indices 1 2 3 4 5 6 
#
# 1 120.0148 -6.9028 29.8583 0.0000 0.0000 0.0000
# 2 -6.9028 26.3124 2.9116 0.0000 0.0000 0.0000
# 3 29.8583 2.9116 83.7084 0.0000 0.0000 0.0000
# 4 0.0000 0.0000 0.0000 44.2558 0.0000 0.0000
# 5 0.0000 0.0000 0.0000 0.0000 55.1732 0.0000
# 6 0.0000 0.0000 0.0000 0.0000 0.0000 33.4107
#
#
#
# Elastic Compliance Matrix: (Units=1/GPa)
#
#
# Indices 1 2 3 4 5 6 
#
# 1 0.009349 0.002833 -0.003433 0.000000 0.000000 0.000000
# 2 0.002833 0.039010 -0.002367 0.000000 0.000000 0.000000
# 3 -0.003433 -0.002367 0.013253 0.000000 0.000000 0.000000
# 4 0.000000 0.000000 0.000000 0.022596 0.000000 0.000000
# 5 0.000000 0.000000 0.000000 0.000000 0.018125 0.000000
# 6 0.000000 0.000000 0.000000 0.000000 0.000000 0.029931
#
#
# Mechanical properties :
#
#
# Convention : Reuss Voigt Hill
#
# Bulk Modulus (GPa) = 17.96089 31.30776 24.63433
# Shear Modulus (GPa) = 31.89615 40.17916 36.03765
#
# Velocity S-wave (km/s) = 3.69507 4.14718 3.92764
# Velocity P-wave (km/s) = 5.08852 6.02776 5.57794
#
# Compressibility (1/GPa) = 0.05567654
#
# Stress axis : x y z
#
# Youngs Moduli (GPa) = 106.95843 25.63449 75.45319
#
# Poissons Ratio (x) = -0.07261 0.25906
# Poissons Ratio (y) = -0.30298 0.17862
# Poissons Ratio (z) = 0.36723 0.06068
#
# Static dielectric constant tensor:
#      x y z
#    x 1.883120 0.000000 0.000000 
#    y 0.000000 1.940470 0.000000 
#    z 0.000000 0.000000 1.898660 
# 
# From -- ./inp_files/272.got.cif
#   From: 2010.05.17/outbox.cif.g08.bks.cpg/sg33_1_cif.got.tgz:272.got - 2010.06.03 17:15:25.
