data_PCOD9345801
_publ_section_title
;
Structure prediction by ZEFSAII (Michael W. Deem and Ramdas Pophale) SiO2 
 PCOD9345801
Probable space group: P N A 21
;
_chemical_formula_sum "Si O2"
_cell_formula_units_Z 32
_cell_length_a 14.798137
_cell_length_b 5.478247
_cell_length_c 17.373848
_cell_angle_alpha 90.000000
_cell_angle_beta 90.000000
_cell_angle_gamma 90.000000
_cell_volume 1408.460497
_symmetry_space_group_name_H-M "P N A 21"
_symmetry_group_IT_number 33
_symmetry_cell_setting 'orthorhombic'
loop_
_space_group_symop_operation_xyz
x,y,z
-x,-y,1/2+z
1/2-x,1/2+y,1/2+z
1/2+x,1/2-y,z
loop_
_atom_site_type_symbol
_atom_site_label
_atom_site_fract_x
_atom_site_fract_y
_atom_site_fract_z
Si Si1 0.643139 0.238449 0.920010
Si Si2 0.659388 0.948433 0.378783
Si Si3 0.666235 0.245524 0.513738
Si Si4 0.528748 0.650077 0.489757
Si Si5 0.520709 0.998702 0.616348
Si Si6 0.143364 0.468841 0.755438
Si Si7 0.255191 0.967948 0.724788
Si Si8 0.340946 0.095419 0.569342
O O1 0.743010 0.338325 0.902973
O O2 0.563534 0.428190 0.944682
O O3 0.618101 0.089226 0.843126
O O4 0.650083 0.053791 0.990794
O O5 0.660794 0.205267 0.422652
O O6 0.666283 0.979845 0.287766
O O7 0.577970 0.809008 0.421592
O O8 0.612905 0.495924 0.521782
O O9 0.604939 0.065575 0.562661
O O10 0.765451 0.210955 0.546341
O O11 0.490523 0.758749 0.570538
O O12 0.556480 0.988343 0.701703
O O13 0.437651 0.179570 0.600365
O O14 0.203371 0.716806 0.747382
O O15 0.193075 0.215505 0.727517
O O16 0.296169 0.947440 0.639893
#
# Coordination Sequence:
#
# PCOD9345801 Si02
#       8
#     4   4   4   4   4   4   4   4
#     4  10  23  42  70  97 138 178 235 281 355 415
#     4  10  23  40  65  99 127 181 218 292 338 425
#     4  11  21  41  68  93 137 171 230 292 346 416
#     4  10  22  42  68  97 134 178 230 282 356 416
#     4  10  24  40  64  99 135 177 237 281 355 416
#     4  11  24  48  66 102 141 183 222 299 338 412
#     4  11  25  43  71  98 141 176 235 277 357 397
#     4  11  22  42  68  99 131 188 229 288 345 429
#
# _framework density 22.719840999999999
#
# number of rings (size 3 to 8) (size 9 to 14) (size 15 to 20)
#    0.000    1.500    2.500    1.500    7.000    0.000 
#    9.000    0.000    0.000    0.000    0.000    0.000 
#    0.000    0.000    0.000    0.000    0.000    0.000 
#
# Total GULP energy -178167.874598 kJ/mol
# GULP energy per Si atom -5567.746081 kJ/mol
# Density = 2.266813 g / cm^3
# Si number density = 22.719841 Si / 1000 Ang^3
#
#
#
# Elastic Constant Matrix: (Units=GPa)
#
#
# Indices 1 2 3 4 5 6 
#
# 1 81.9171 3.6333 16.7361 0.0000 0.0000 0.0000
# 2 3.6333 59.4421 11.4345 0.0000 0.0000 0.0000
# 3 16.7361 11.4345 153.0415 0.0000 0.0000 0.0000
# 4 0.0000 0.0000 0.0000 17.1862 0.0000 0.0000
# 5 0.0000 0.0000 0.0000 0.0000 24.5661 0.0000
# 6 0.0000 0.0000 0.0000 0.0000 0.0000 13.0767
#
#
#
# Elastic Compliance Matrix: (Units=1/GPa)
#
#
# Indices 1 2 3 4 5 6 
#
# 1 0.012502 -0.000508 -0.001329 0.000000 0.000000 0.000000
# 2 -0.000508 0.017089 -0.001221 0.000000 0.000000 0.000000
# 3 -0.001329 -0.001221 0.006771 0.000000 0.000000 0.000000
# 4 0.000000 0.000000 0.000000 0.058186 0.000000 0.000000
# 5 0.000000 0.000000 0.000000 0.000000 0.040706 0.000000
# 6 0.000000 0.000000 0.000000 0.000000 0.000000 0.076472
#
#
# Mechanical properties :
#
#
# Convention : Reuss Voigt Hill
#
# Bulk Modulus (GPa) = 33.06463 39.77873 36.42168
# Shear Modulus (GPa) = 21.93705 28.47225 25.20465
#
# Velocity S-wave (km/s) = 3.11069 3.54388 3.33433
# Velocity P-wave (km/s) = 5.24277 5.85592 5.55781
#
# Compressibility (1/GPa) = 0.03024380
#
# Stress axis : x y z
#
# Youngs Moduli (GPa) = 79.98998 58.51687 147.69369
#
# Poissons Ratio (x) = 0.02975 0.19631
# Poissons Ratio (y) = 0.04067 0.18036
# Poissons Ratio (z) = 0.10632 0.07146
#
# Static dielectric constant tensor:
#      x y z
#    x 1.953920 0.000000 0.000000 
#    y 0.000000 1.948030 0.000000 
#    z 0.000000 0.000000 1.847770 
# 
# From -- ./inp_files/8767.got.cif
#   From: 2010.05.17/outbox.cif.g08.bks.cpg/sg33_5_cif.got.tgz:8767.got - 2010.06.03 17:15:25.
