data_PCOD9345380
_publ_section_title
;
Structure prediction by ZEFSAII (Michael W. Deem and Ramdas Pophale) SiO2 
 PCOD9345380
Probable space group: P N A 21
;
_chemical_formula_sum "Si O2"
_cell_formula_units_Z 32
_cell_length_a 20.680911
_cell_length_b 9.308640
_cell_length_c 8.834894
_cell_angle_alpha 90.000000
_cell_angle_beta 90.000000
_cell_angle_gamma 90.000000
_cell_volume 1700.815652
_symmetry_space_group_name_H-M "P N A 21"
_symmetry_group_IT_number 33
_symmetry_cell_setting 'orthorhombic'
loop_
_space_group_symop_operation_xyz
x,y,z
-x,-y,1/2+z
1/2-x,1/2+y,1/2+z
1/2+x,1/2-y,z
loop_
_atom_site_type_symbol
_atom_site_label
_atom_site_fract_x
_atom_site_fract_y
_atom_site_fract_z
Si Si1 0.815762 0.930572 0.273950
Si Si2 0.555902 0.612917 0.777384
Si Si3 0.311154 0.085349 0.964640
Si Si4 0.801701 0.077205 0.961957
Si Si5 0.826262 0.591165 0.268975
Si Si6 0.443715 0.072644 0.419127
Si Si7 0.940151 0.394028 0.779051
Si Si8 0.946116 0.082040 0.916104
O O1 0.758181 0.950861 0.393161
O O2 0.833208 0.762827 0.261127
O O3 0.879145 0.022881 0.311238
O O4 0.790978 0.984529 0.111282
O O5 0.562875 0.773401 0.838587
O O6 0.546493 0.609323 0.595874
O O7 0.495871 0.535602 0.857741
O O8 0.308245 0.254488 0.007962
O O9 0.368295 0.074074 0.841404
O O10 0.327151 0.985590 0.106495
O O11 0.743006 0.062109 0.846684
O O12 0.871389 0.036497 0.893186
O O13 0.883469 0.524696 0.368394
O O14 0.444590 0.089723 0.599440
O O15 0.508954 0.997937 0.360390
O O16 0.956369 0.231053 0.828007
#
# Coordination Sequence:
#
# PCOD9345380 Si02
#       8
#     4   4   4   4   4   4   4   4
#     4  10  22  39  60  88 121 157 197 243 295 357
#     4  11  23  39  62  90 124 161 201 248 300 356
#     4  10  22  39  61  88 120 155 198 249 297 357
#     4   9  21  40  58  85 121 156 197 245 294 351
#     4  11  22  38  62  90 120 155 198 245 298 358
#     4  12  24  40  62  87 119 159 200 250 305 359
#     4  11  23  41  62  86 119 156 202 251 303 360
#     4  10  21  40  61  88 122 157 201 249 298 356
#
# _framework density 18.814502999999998
#
# number of rings (size 3 to 8) (size 9 to 14) (size 15 to 20)
#    0.000    1.500    0.000    6.000    0.000    9.000 
#    0.000    1.250    0.000    0.000    0.000    0.000 
#    0.000    0.000    0.000    0.000    0.000    0.000 
#
# Total GULP energy -178902.424683 kJ/mol
# GULP energy per Si atom -5590.700771 kJ/mol
# Density = 1.877168 g / cm^3
# Si number density = 18.814503 Si / 1000 Ang^3
#
#
#
# Elastic Constant Matrix: (Units=GPa)
#
#
# Indices 1 2 3 4 5 6 
#
# 1 72.3314 46.0114 44.4245 0.0000 0.0000 0.0000
# 2 46.0114 76.1929 54.1311 0.0000 0.0000 0.0000
# 3 44.4245 54.1311 112.9765 0.0000 0.0000 0.0000
# 4 0.0000 0.0000 0.0000 33.7113 0.0000 0.0000
# 5 0.0000 0.0000 0.0000 0.0000 25.4664 0.0000
# 6 0.0000 0.0000 0.0000 0.0000 0.0000 156.5583
#
#
#
# Elastic Compliance Matrix: (Units=1/GPa)
#
#
# Indices 1 2 3 4 5 6 
#
# 1 0.023420 -0.011523 -0.003688 0.000000 0.000000 0.000000
# 2 -0.011523 0.025567 -0.007719 0.000000 0.000000 0.000000
# 3 -0.003688 -0.007719 0.014000 0.000000 0.000000 0.000000
# 4 0.000000 0.000000 0.000000 0.029664 0.000000 0.000000
# 5 0.000000 0.000000 0.000000 0.000000 0.039267 0.000000
# 6 0.000000 0.000000 0.000000 0.000000 0.000000 0.006387
#
#
# Mechanical properties :
#
#
# Convention : Reuss Voigt Hill
#
# Bulk Modulus (GPa) = 58.38670 61.18163 59.78417
# Shear Modulus (GPa) = 26.33303 50.94280 38.63792
#
# Velocity S-wave (km/s) = 3.74520 5.20914 4.53661
# Velocity P-wave (km/s) = 7.05707 8.29271 7.69972
#
# Compressibility (1/GPa) = 0.01712719
#
# Stress axis : x y z
#
# Youngs Moduli (GPa) = 42.69776 39.11301 71.42739
#
# Poissons Ratio (x) = 0.45069 0.26345
# Poissons Ratio (y) = 0.49199 0.55135
# Poissons Ratio (z) = 0.15749 0.30192
#
# Static dielectric constant tensor:
#      x y z
#    x 1.640360 0.000000 0.000000 
#    y 0.000000 1.629830 0.000000 
#    z 0.000000 0.000000 1.626300 
# 
# From -- ./inp_files/5011.got.cif
#   From: 2010.05.17/outbox.cif.g08.bks.cpg/sg33_3_cif.got.tgz:5011.got - 2010.06.03 17:15:25.
