data_PCOD9346350
_publ_section_title
;
Structure prediction by ZEFSAII (Michael W. Deem and Ramdas Pophale) SiO2 
 PCOD9346350
Probable space group: P N A 21
;
_chemical_formula_sum "Si O2"
_cell_formula_units_Z 24
_cell_length_a 18.391185
_cell_length_b 10.034958
_cell_length_c 6.110923
_cell_angle_alpha 90.000000
_cell_angle_beta 90.000000
_cell_angle_gamma 90.000000
_cell_volume 1127.799983
_symmetry_space_group_name_H-M "P N A 21"
_symmetry_group_IT_number 33
_symmetry_cell_setting 'orthorhombic'
loop_
_space_group_symop_operation_xyz
x,y,z
-x,-y,1/2+z
1/2-x,1/2+y,1/2+z
1/2+x,1/2-y,z
loop_
_atom_site_type_symbol
_atom_site_label
_atom_site_fract_x
_atom_site_fract_y
_atom_site_fract_z
Si Si1 0.096759 0.374901 0.710980
Si Si2 0.892020 0.196172 0.208711
Si Si3 0.519389 0.442688 0.315894
Si Si4 0.847995 0.912714 0.071912
Si Si5 0.432546 0.104075 0.859794
Si Si6 0.680044 0.920185 0.970958
O O1 0.119443 0.224077 0.664409
O O2 0.083903 0.474592 0.507333
O O3 0.018644 0.380614 0.829120
O O4 0.162224 0.444482 0.842564
O O5 0.835625 0.292815 0.320932
O O6 0.972030 0.192964 0.318574
O O7 0.904941 0.259819 0.972421
O O8 0.866222 0.044401 0.211797
O O9 0.495915 0.504988 0.561620
O O10 0.605702 0.431031 0.347426
O O11 0.761997 0.910616 0.049709
O O12 0.383446 0.086544 0.648888
#
# Coordination Sequence:
#
# PCOD9346350 Si02
#       6
#     4   4   4   4   4   4
#     4  11  25  47  73 104 139 199 249 310 381 466
#     4  10  26  46  71 105 141 195 248 319 369 461
#     4  10  24  46  73 111 146 191 250 312 374 446
#     4  11  27  44  74 110 142 195 250 322 383 449
#     4  11  24  48  73 102 143 193 254 305 383 458
#     4  11  26  47  70 102 153 191 249 318 386 450
#
# _framework density 21.280367999999999
#
# number of rings (size 3 to 8) (size 9 to 14) (size 15 to 20)
#    0.000    1.333    1.667    1.000   21.000    0.000 
#    9.000    0.000    0.000    0.000    0.000    0.000 
#    0.000    0.000    0.000    0.000    0.000    0.000 
#
# Total GULP energy -133736.228191 kJ/mol
# GULP energy per Si atom -5572.342841 kJ/mol
# Density = 2.123193 g / cm^3
# Si number density = 21.280368 Si / 1000 Ang^3
#
#
#
# Elastic Constant Matrix: (Units=GPa)
#
#
# Indices 1 2 3 4 5 6 
#
# 1 98.8730 29.5298 7.7161 0.0000 0.0000 0.0000
# 2 29.5298 157.1070 36.8485 0.0000 0.0000 0.0000
# 3 7.7161 36.8485 59.3123 0.0000 0.0000 0.0000
# 4 0.0000 0.0000 0.0000 0.4888 0.0000 0.0000
# 5 0.0000 0.0000 0.0000 0.0000 15.1299 0.0000
# 6 0.0000 0.0000 0.0000 0.0000 0.0000 14.5239
#
#
#
# Elastic Compliance Matrix: (Units=1/GPa)
#
#
# Indices 1 2 3 4 5 6 
#
# 1 0.010717 -0.001975 -0.000167 0.000000 0.000000 0.000000
# 2 -0.001975 0.007815 -0.004598 0.000000 0.000000 0.000000
# 3 -0.000167 -0.004598 0.019738 0.000000 0.000000 0.000000
# 4 0.000000 0.000000 0.000000 2.045920 0.000000 0.000000
# 5 0.000000 0.000000 0.000000 0.000000 0.066094 0.000000
# 6 0.000000 0.000000 0.000000 0.000000 0.000000 0.068852
#
#
# Mechanical properties :
#
#
# Convention : Reuss Voigt Hill
#
# Bulk Modulus (GPa) = 40.33996 51.49789 45.91892
# Shear Modulus (GPa) = 2.23127 22.10838 12.16982
#
# Velocity S-wave (km/s) = 1.02508 3.22671 2.39400
# Velocity P-wave (km/s) = 4.51648 6.17531 5.40986
#
# Compressibility (1/GPa) = 0.02478932
#
# Stress axis : x y z
#
# Youngs Moduli (GPa) = 93.31024 127.96248 50.66298
#
# Poissons Ratio (x) = 0.25275 0.00847
# Poissons Ratio (y) = 0.18430 0.23295
# Poissons Ratio (z) = 0.01559 0.58838
#
# Static dielectric constant tensor:
#      x y z
#    x 1.787830 0.000000 0.000000 
#    y 0.000000 1.791480 0.000000 
#    z 0.000000 0.000000 1.847080 
# 
# From -- ./inp_files/1672.got.cif
#   From: 2010.05.17/outbox.cif.g08.bks.cpg/sg33_1_cif.got.tgz:1672.got - 2010.06.03 17:15:25.
