data_PCOD9346771
_publ_section_title
;
Structure prediction by ZEFSAII (Michael W. Deem and Ramdas Pophale) SiO2 
 PCOD9346771
Probable space group: P N A 21
;
_chemical_formula_sum "Si O2"
_cell_formula_units_Z 24
_cell_length_a 8.935076
_cell_length_b 10.246987
_cell_length_c 10.434577
_cell_angle_alpha 90.000000
_cell_angle_beta 90.000000
_cell_angle_gamma 90.000000
_cell_volume 955.364907
_symmetry_space_group_name_H-M "P N A 21"
_symmetry_group_IT_number 33
_symmetry_cell_setting 'orthorhombic'
loop_
_space_group_symop_operation_xyz
x,y,z
-x,-y,1/2+z
1/2-x,1/2+y,1/2+z
1/2+x,1/2-y,z
loop_
_atom_site_type_symbol
_atom_site_label
_atom_site_fract_x
_atom_site_fract_y
_atom_site_fract_z
Si Si1 0.011716 0.782565 0.925870
Si Si2 0.323434 0.797838 0.496395
Si Si3 0.633632 0.463188 0.826399
Si Si4 0.268320 0.161440 0.596310
Si Si5 0.794104 0.070715 0.750858
Si Si6 0.407704 0.168398 0.164210
O O1 0.999950 0.720967 0.785672
O O2 0.129257 0.902070 0.904469
O O3 0.078784 0.672554 0.018682
O O4 0.864985 0.840321 0.992465
O O5 0.350836 0.658537 0.424395
O O6 0.253603 0.894222 0.394222
O O7 0.478082 0.852234 0.548931
O O8 0.207368 0.775194 0.610419
O O9 0.751427 0.441723 0.711242
O O10 0.471393 0.456286 0.755925
O O11 0.261143 0.300251 0.669440
O O12 0.694076 0.953134 0.701518
#
# Coordination Sequence:
#
# PCOD9346771 Si02
#       6
#     4   4   4   4   4   4
#     4  12  26  45  73 107 142 191 238 300 361 431
#     4  11  25  47  72 105 143 184 246 289 353 434
#     4  11  24  48  78  96 145 200 229 298 373 419
#     4  11  25  47  71 107 143 184 251 291 356 438
#     4  11  24  46  73 104 143 195 231 301 363 413
#     4  12  26  45  71 107 144 184 237 297 358 423
#
# _framework density 25.121292
#
# number of rings (size 3 to 8) (size 9 to 14) (size 15 to 20)
#    0.000    0.667    3.333    4.000    4.667    1.333 
#    6.000    0.000    0.000    0.000    0.000    0.000 
#    0.000    0.000    0.000    0.000    0.000    0.000 
#
# Total GULP energy -134605.181753 kJ/mol
# GULP energy per Si atom -5608.549240 kJ/mol
# Density = 2.506411 g / cm^3
# Si number density = 25.121292 Si / 1000 Ang^3
#
#
#
# Elastic Constant Matrix: (Units=GPa)
#
#
# Indices 1 2 3 4 5 6 
#
# 1 48.2894 -4.5419 5.2757 0.0000 0.0000 0.0000
# 2 -4.5419 96.7989 30.4143 0.0000 0.0000 0.0000
# 3 5.2757 30.4143 62.3698 0.0000 0.0000 0.0000
# 4 0.0000 0.0000 0.0000 36.5692 0.0000 0.0000
# 5 0.0000 0.0000 0.0000 0.0000 44.8583 0.0000
# 6 0.0000 0.0000 0.0000 0.0000 0.0000 29.0914
#
#
#
# Elastic Compliance Matrix: (Units=1/GPa)
#
#
# Indices 1 2 3 4 5 6 
#
# 1 0.021175 0.001838 -0.002687 0.000000 0.000000 0.000000
# 2 0.001838 0.012359 -0.006182 0.000000 0.000000 0.000000
# 3 -0.002687 -0.006182 0.019276 0.000000 0.000000 0.000000
# 4 0.000000 0.000000 0.000000 0.027345 0.000000 0.000000
# 5 0.000000 0.000000 0.000000 0.000000 0.022292 0.000000
# 6 0.000000 0.000000 0.000000 0.000000 0.000000 0.034374
#
#
# Mechanical properties :
#
#
# Convention : Reuss Voigt Hill
#
# Bulk Modulus (GPa) = 25.80907 29.97270 27.89089
# Shear Modulus (GPa) = 30.52475 33.85778 32.19127
#
# Velocity S-wave (km/s) = 3.48960 3.67518 3.58360
# Velocity P-wave (km/s) = 5.15097 5.47416 5.31502
#
# Compressibility (1/GPa) = 0.03874607
#
# Stress axis : x y z
#
# Youngs Moduli (GPa) = 47.22564 80.90959 51.87915
#
# Poissons Ratio (x) = -0.14871 0.13942
# Poissons Ratio (y) = -0.08680 0.32074
# Poissons Ratio (z) = 0.12691 0.50022
#
# Static dielectric constant tensor:
#      x y z
#    x 1.930810 0.000000 0.000000 
#    y 0.000000 1.972250 0.000000 
#    z 0.000000 0.000000 1.971880 
# 
# From -- ./inp_files/3050.got.cif
#   From: 2010.05.17/outbox.cif.g08.bks.cpg/sg33_2_cif.got.tgz:3050.got - 2010.06.03 17:15:25.
