data_PCOD9346126
_publ_section_title
;
Structure prediction by ZEFSAII (Michael W. Deem and Ramdas Pophale) SiO2 
 PCOD9346126
Probable space group: P N A 21
;
_chemical_formula_sum "Si O2"
_cell_formula_units_Z 24
_cell_length_a 13.731168
_cell_length_b 8.658242
_cell_length_c 8.683614
_cell_angle_alpha 90.000000
_cell_angle_beta 90.000000
_cell_angle_gamma 90.000000
_cell_volume 1032.375552
_symmetry_space_group_name_H-M "P N A 21"
_symmetry_group_IT_number 33
_symmetry_cell_setting 'orthorhombic'
loop_
_space_group_symop_operation_xyz
x,y,z
-x,-y,1/2+z
1/2-x,1/2+y,1/2+z
1/2+x,1/2-y,z
loop_
_atom_site_type_symbol
_atom_site_label
_atom_site_fract_x
_atom_site_fract_y
_atom_site_fract_z
Si Si1 0.325234 0.391483 0.905680
Si Si2 0.780040 0.892342 0.329788
Si Si3 0.006588 0.723204 0.571352
Si Si4 0.098121 0.960853 0.072419
Si Si5 0.892222 0.814987 0.028074
Si Si6 0.070308 0.481295 0.339847
O O1 0.236631 0.274261 0.909262
O O2 0.369953 0.386179 0.732979
O O3 0.394865 0.320412 0.038547
O O4 0.318571 0.573649 0.934256
O O5 0.819957 0.024216 0.442854
O O6 0.857909 0.852212 0.199761
O O7 0.672214 0.947868 0.276232
O O8 0.930248 0.859889 0.596297
O O9 0.992182 0.609365 0.714026
O O10 0.007204 0.614751 0.420556
O O11 0.002262 0.877285 0.008413
O O12 0.896002 0.640976 0.970451
#
# Coordination Sequence:
#
# PCOD9346126 Si02
#       6
#     4   4   4   4   4   4
#     4  10  23  44  66 101 138 183 235 286 351 421
#     4  11  26  42  67 103 142 183 233 295 350 420
#     4  10  24  43  70 101 139 183 230 293 356 420
#     4  11  23  46  69 100 139 190 236 283 361 428
#     4  11  23  43  72  98 137 189 232 287 355 421
#     4  11  25  46  68 107 139 182 238 294 355 420
#
# _framework density 23.247356
#
# number of rings (size 3 to 8) (size 9 to 14) (size 15 to 20)
#    0.000    1.333    1.667    3.000   11.667    0.000 
#    0.000    0.000    0.000    0.000    0.000    0.000 
#    0.000    0.000    0.000    0.000    0.000    0.000 
#
# Total GULP energy -133948.095574 kJ/mol
# GULP energy per Si atom -5581.170649 kJ/mol
# Density = 2.319444 g / cm^3
# Si number density = 23.247356 Si / 1000 Ang^3
#
#
#
# Elastic Constant Matrix: (Units=GPa)
#
#
# Indices 1 2 3 4 5 6 
#
# 1 74.2106 36.3469 41.0154 0.0000 0.0000 0.0000
# 2 36.3469 102.4609 15.6652 0.0000 0.0000 0.0000
# 3 41.0154 15.6652 69.5725 0.0000 0.0000 0.0000
# 4 0.0000 0.0000 0.0000 58.5054 0.0000 0.0000
# 5 0.0000 0.0000 0.0000 0.0000 19.5041 0.0000
# 6 0.0000 0.0000 0.0000 0.0000 0.0000 37.3945
#
#
#
# Elastic Compliance Matrix: (Units=1/GPa)
#
#
# Indices 1 2 3 4 5 6 
#
# 1 0.023474 -0.006433 -0.012390 0.000000 0.000000 0.000000
# 2 -0.006433 0.011871 0.001119 0.000000 0.000000 0.000000
# 3 -0.012390 0.001119 0.021426 0.000000 0.000000 0.000000
# 4 0.000000 0.000000 0.000000 0.017092 0.000000 0.000000
# 5 0.000000 0.000000 0.000000 0.000000 0.051271 0.000000
# 6 0.000000 0.000000 0.000000 0.000000 0.000000 0.026742
#
#
# Mechanical properties :
#
#
# Convention : Reuss Voigt Hill
#
# Bulk Modulus (GPa) = 46.80907 48.03323 47.42115
# Shear Modulus (GPa) = 25.71971 33.29525 29.50748
#
# Velocity S-wave (km/s) = 3.32979 3.78857 3.56657
# Velocity P-wave (km/s) = 5.91289 6.31224 6.11582
#
# Compressibility (1/GPa) = 0.02136338
#
# Stress axis : x y z
#
# Youngs Moduli (GPa) = 42.60091 84.24168 46.67263
#
# Poissons Ratio (x) = 0.54190 0.57828
# Poissons Ratio (y) = 0.27404 -0.05225
# Poissons Ratio (z) = 0.52783 -0.09431
#
# Static dielectric constant tensor:
#      x y z
#    x 1.877220 0.000000 0.000000 
#    y 0.000000 1.881860 0.000000 
#    z 0.000000 0.000000 1.920330 
# 
# From -- ./inp_files/4288.got.cif
#   From: 2010.05.17/outbox.cif.g08.bks.cpg/sg33_3_cif.got.tgz:4288.got - 2010.06.03 17:15:25.
