data_PCOD9346602
_publ_section_title
;
Structure prediction by ZEFSAII (Michael W. Deem and Ramdas Pophale) SiO2 
 PCOD9346602
Probable space group: P N A 21
;
_chemical_formula_sum "Si O2"
_cell_formula_units_Z 16
_cell_length_a 7.166461
_cell_length_b 8.773186
_cell_length_c 10.045404
_cell_angle_alpha 90.000000
_cell_angle_beta 90.000000
_cell_angle_gamma 90.000000
_cell_volume 631.581625
_symmetry_space_group_name_H-M "P N A 21"
_symmetry_group_IT_number 33
_symmetry_cell_setting 'orthorhombic'
loop_
_space_group_symop_operation_xyz
x,y,z
-x,-y,1/2+z
1/2-x,1/2+y,1/2+z
1/2+x,1/2-y,z
loop_
_atom_site_type_symbol
_atom_site_label
_atom_site_fract_x
_atom_site_fract_y
_atom_site_fract_z
Si Si1 0.187255 0.630975 0.113460
Si Si2 0.441461 0.092163 0.000797
Si Si3 0.312745 0.369025 0.855935
Si Si4 0.441461 0.407837 0.468598
O O1 0.189364 0.750000 0.234697
O O2 0.395423 0.580705 0.079330
O O3 0.049827 0.486882 0.123535
O O4 0.116131 0.732150 0.986558
O O5 0.950173 0.986882 0.845859
O O6 0.383870 0.267850 0.982836
O O7 0.250000 0.000000 0.984697
O O8 0.604577 0.080705 0.890065
#
# Coordination Sequence:
#
# PCOD9346602 Si02
#       4
#     4   4   4   4
#     4  11  24  44  73 103 145 194 235 293 365 426
#     4  11  23  41  72 104 144 187 243 292 353 437
#     4  11  24  44  73 103 145 194 235 293 365 426
#     4  11  23  41  72 104 144 187 243 292 353 437
#
# _framework density 25.333227000000001
#
# number of rings (size 3 to 8) (size 9 to 14) (size 15 to 20)
#    0.000    1.000    5.000    1.500    0.000    2.000 
#    0.000    2.500    0.000    0.000    0.000    0.000 
#    0.000    0.000    0.000    0.000    0.000    0.000 
#
# Total GULP energy -89233.020823 kJ/mol
# GULP energy per Si atom -5577.063801 kJ/mol
# Density = 2.527557 g / cm^3
# Si number density = 25.333227 Si / 1000 Ang^3
#
#
#
# Elastic Constant Matrix: (Units=GPa)
#
#
# Indices 1 2 3 4 5 6 
#
# 1 219.2138 48.1928 45.7262 0.0000 0.0000 0.0000
# 2 48.1928 141.4354 59.1740 0.0000 0.0000 0.0000
# 3 45.7262 59.1740 91.0003 0.0000 0.0000 0.0000
# 4 0.0000 0.0000 0.0000 70.8285 0.0000 0.0000
# 5 0.0000 0.0000 0.0000 0.0000 25.1965 0.0000
# 6 0.0000 0.0000 0.0000 0.0000 0.0000 55.1598
#
#
#
# Elastic Compliance Matrix: (Units=1/GPa)
#
#
# Indices 1 2 3 4 5 6 
#
# 1 0.005183 -0.000929 -0.002000 0.000000 0.000000 0.000000
# 2 -0.000929 0.009879 -0.005957 0.000000 0.000000 0.000000
# 3 -0.002000 -0.005957 0.015868 0.000000 0.000000 0.000000
# 4 0.000000 0.000000 0.000000 0.014119 0.000000 0.000000
# 5 0.000000 0.000000 0.000000 0.000000 0.039688 0.000000
# 6 0.000000 0.000000 0.000000 0.000000 0.000000 0.018129
#
#
# Mechanical properties :
#
#
# Convention : Reuss Voigt Hill
#
# Bulk Modulus (GPa) = 76.00530 84.20395 80.10463
# Shear Modulus (GPa) = 39.99181 50.14072 45.06627
#
# Velocity S-wave (km/s) = 3.97751 4.45370 4.22232
# Velocity P-wave (km/s) = 7.15272 7.73033 7.44713
#
# Compressibility (1/GPa) = 0.01315698
#
# Stress axis : x y z
#
# Youngs Moduli (GPa) = 192.92773 101.22060 63.02066
#
# Poissons Ratio (x) = 0.09406 0.12606
# Poissons Ratio (y) = 0.17929 0.37543
# Poissons Ratio (z) = 0.38590 0.60300
#
# Static dielectric constant tensor:
#      x y z
#    x 1.990080 0.000000 0.000000 
#    y 0.000000 2.032280 0.000000 
#    z 0.000000 0.000000 2.180250 
# 
# From -- ./inp_files/7366.got.cif
#   From: 2010.05.17/outbox.cif.g08.bks.cpg/sg33_4_cif.got.tgz:7366.got - 2010.06.03 17:15:25.
