data_PCOD9346386
_publ_section_title
;
Structure prediction by ZEFSAII (Michael W. Deem and Ramdas Pophale) SiO2 
 PCOD9346386
Probable space group: P N A 21
;
_chemical_formula_sum "Si O2"
_cell_formula_units_Z 20
_cell_length_a 9.282889
_cell_length_b 12.120451
_cell_length_c 8.283415
_cell_angle_alpha 90.000000
_cell_angle_beta 90.000000
_cell_angle_gamma 90.000000
_cell_volume 931.990226
_symmetry_space_group_name_H-M "P N A 21"
_symmetry_group_IT_number 33
_symmetry_cell_setting 'orthorhombic'
loop_
_space_group_symop_operation_xyz
x,y,z
-x,-y,1/2+z
1/2-x,1/2+y,1/2+z
1/2+x,1/2-y,z
loop_
_atom_site_type_symbol
_atom_site_label
_atom_site_fract_x
_atom_site_fract_y
_atom_site_fract_z
Si Si1 0.401420 0.734701 0.739990
Si Si2 0.783692 0.836513 0.211135
Si Si3 0.138493 0.679336 0.533755
Si Si4 0.306257 0.962447 0.898422
Si Si5 0.578742 0.679507 0.042793
O O1 0.252223 0.683635 0.680495
O O2 0.502903 0.750643 0.585469
O O3 0.374521 0.854160 0.822145
O O4 0.494126 0.672602 0.873672
O O5 0.723498 0.779848 0.374824
O O6 0.680594 0.786060 0.072775
O O7 0.949657 0.817208 0.170811
O O8 0.761947 0.964972 0.253767
O O9 0.096212 0.553545 0.488205
O O10 0.189285 0.921941 0.030003
#
# Coordination Sequence:
#
# PCOD9346386 Si02
#       5
#     4   4   4   4   4
#     4  12  22  46  66  96 137 169 222 274 325 391
#     4  10  25  42  68  97 130 174 220 269 331 388
#     4  10  25  42  68  97 130 174 220 269 331 388
#     4  10  26  38  68 100 128 176 224 260 346 374
#     4  12  22  46  66  96 137 169 222 274 325 391
#
# _framework density 21.459454000000001
#
# number of rings (size 3 to 8) (size 9 to 14) (size 15 to 20)
#    1.200    0.000    4.000    1.200    5.600    0.000 
#    0.000    0.000    0.000    0.000    0.000    0.000 
#    0.000    0.000    0.000    0.000    0.000    0.000 
#
# Total GULP energy -111409.756120 kJ/mol
# GULP energy per Si atom -5570.487806 kJ/mol
# Density = 2.141061 g / cm^3
# Si number density = 21.459454 Si / 1000 Ang^3
#
#
#
# Elastic Constant Matrix: (Units=GPa)
#
#
# Indices 1 2 3 4 5 6 
#
# 1 44.4226 -19.0017 -1.6613 0.0000 0.0000 0.0000
# 2 -19.0017 27.0052 -11.7397 0.0000 0.0000 0.0000
# 3 -1.6613 -11.7397 63.0868 0.0000 0.0000 0.0000
# 4 0.0000 0.0000 0.0000 37.5523 0.0000 0.0000
# 5 0.0000 0.0000 0.0000 0.0000 49.8391 0.0000
# 6 0.0000 0.0000 0.0000 0.0000 0.0000 17.8934
#
#
#
# Elastic Compliance Matrix: (Units=1/GPa)
#
#
# Indices 1 2 3 4 5 6 
#
# 1 0.034066 0.026504 0.005829 0.000000 0.000000 0.000000
# 2 0.026504 0.060910 0.012033 0.000000 0.000000 0.000000
# 3 0.005829 0.012033 0.018244 0.000000 0.000000 0.000000
# 4 0.000000 0.000000 0.000000 0.026630 0.000000 0.000000
# 5 0.000000 0.000000 0.000000 0.000000 0.020065 0.000000
# 6 0.000000 0.000000 0.000000 0.000000 0.000000 0.055887
#
#
# Mechanical properties :
#
#
# Convention : Reuss Voigt Hill
#
# Bulk Modulus (GPa) = 4.95170 7.74547 6.34858
# Shear Modulus (GPa) = 25.72204 32.18478 28.95341
#
# Velocity S-wave (km/s) = 3.46589 3.87692 3.67715
# Velocity P-wave (km/s) = 4.28123 4.86394 4.58186
#
# Compressibility (1/GPa) = 0.20195088
#
# Stress axis : x y z
#
# Youngs Moduli (GPa) = 29.35472 16.41775 54.81318
#
# Poissons Ratio (x) = -0.43514 -0.31952
# Poissons Ratio (y) = -0.77802 -0.65954
# Poissons Ratio (z) = -0.17111 -0.19755
#
# Static dielectric constant tensor:
#      x y z
#    x 1.776080 0.000000 0.000000 
#    y 0.000000 1.812900 0.000000 
#    z 0.000000 0.000000 1.841270 
# 
# From -- ./inp_files/2987.got.cif
#   From: 2010.05.17/outbox.cif.g08.bks.cpg/sg33_2_cif.got.tgz:2987.got - 2010.06.03 17:15:25.
