data_PCOD9346180
_publ_section_title
;
Structure prediction by ZEFSAII (Michael W. Deem and Ramdas Pophale) SiO2 
 PCOD9346180
Probable space group: P N A 21
;
_chemical_formula_sum "Si O2"
_cell_formula_units_Z 28
_cell_length_a 17.260546
_cell_length_b 11.954094
_cell_length_c 5.605882
_cell_angle_alpha 90.000000
_cell_angle_beta 90.000000
_cell_angle_gamma 90.000000
_cell_volume 1156.685118
_symmetry_space_group_name_H-M "P N A 21"
_symmetry_group_IT_number 33
_symmetry_cell_setting 'orthorhombic'
loop_
_space_group_symop_operation_xyz
x,y,z
-x,-y,1/2+z
1/2-x,1/2+y,1/2+z
1/2+x,1/2-y,z
loop_
_atom_site_type_symbol
_atom_site_label
_atom_site_fract_x
_atom_site_fract_y
_atom_site_fract_z
Si Si1 0.136663 0.652241 0.186210
Si Si2 0.930602 0.144122 0.912221
Si Si3 0.496218 0.069817 0.399045
Si Si4 0.717111 0.314817 0.410294
Si Si5 0.792180 0.023630 0.627374
Si Si6 0.904450 0.935812 0.225493
Si Si7 0.161992 0.394955 0.325634
O O1 0.094303 0.725282 0.392827
O O2 0.215998 0.706133 0.101692
O O3 0.155558 0.521803 0.236754
O O4 0.076125 0.645933 0.967364
O O5 0.017343 0.123992 0.814217
O O6 0.862283 0.087816 0.754171
O O7 0.927335 0.062132 0.140730
O O8 0.574081 0.138812 0.363639
O O9 0.488182 0.000968 0.148727
O O10 0.744341 0.426222 0.282509
O O11 0.637030 0.357099 0.530028
O O12 0.703604 0.214604 0.219677
O O13 0.836174 0.961283 0.412043
O O14 0.717258 0.093122 0.552557
#
# Coordination Sequence:
#
# PCOD9346180 Si02
#       7
#     4   4   4   4   4   4   4
#     4  11  23  45  70 105 138 188 241 298 366 444
#     4  11  23  43  71 101 140 183 238 293 362 434
#     4  10  23  46  70 102 146 191 241 301 366 446
#     4  11  24  43  69  96 140 182 233 294 359 434
#     4  11  23  43  69 102 134 180 236 290 352 434
#     4  11  23  44  68 103 136 184 233 294 356 427
#     4  11  23  46  67 105 138 184 240 296 371 435
#
# _framework density 24.207106
#
# number of rings (size 3 to 8) (size 9 to 14) (size 15 to 20)
#    0.000    1.143    4.286    1.714    0.000    1.143 
#   23.143    0.000    0.000    0.000    0.000    0.000 
#    0.000    0.000    0.000    0.000    0.000    0.000 
#
# Total GULP energy -155973.521457 kJ/mol
# GULP energy per Si atom -5570.482909 kJ/mol
# Density = 2.415201 g / cm^3
# Si number density = 24.207106 Si / 1000 Ang^3
#
#
#
# Elastic Constant Matrix: (Units=GPa)
#
#
# Indices 1 2 3 4 5 6 
#
# 1 93.4685 4.4467 -13.6241 0.0000 0.0000 0.0000
# 2 4.4467 77.1544 -0.1450 0.0000 0.0000 0.0000
# 3 -13.6241 -0.1450 37.6185 0.0000 0.0000 0.0000
# 4 0.0000 0.0000 0.0000 3.3361 0.0000 0.0000
# 5 0.0000 0.0000 0.0000 0.0000 -4.8914 0.0000
# 6 0.0000 0.0000 0.0000 0.0000 0.0000 -33.9618
#
#
#
# Elastic Compliance Matrix: (Units=1/GPa)
#
#
# Indices 1 2 3 4 5 6 
#
# 1 0.011327 -0.000645 0.004100 0.000000 0.000000 0.000000
# 2 -0.000645 0.012998 -0.000184 0.000000 0.000000 0.000000
# 3 0.004100 -0.000184 0.028067 0.000000 0.000000 0.000000
# 4 0.000000 0.000000 0.000000 0.299750 0.000000 0.000000
# 5 0.000000 0.000000 0.000000 0.000000 -0.204439 0.000000
# 6 0.000000 0.000000 0.000000 0.000000 0.000000 -0.029445
#
#
# Mechanical properties :
#
#
# Convention : Reuss Voigt Hill
#
# Bulk Modulus (GPa) = 16.96818 21.06631 19.01724
# Shear Modulus (GPa) = 38.06329 7.40081 22.73205
#
# Velocity S-wave (km/s) = 3.96965 1.75041 3.06774
# Velocity P-wave (km/s) = 5.29487 3.57864 4.51898
#
# Compressibility (1/GPa) = 0.05893385
#
# Stress axis : x y z
#
# Youngs Moduli (GPa) = 88.28408 76.93571 35.62938
#
# Poissons Ratio (x) = 0.04963 -0.14607
# Poissons Ratio (y) = 0.05695 0.00654
# Poissons Ratio (z) = -0.36194 0.01412
#
# Static dielectric constant tensor:
#      x y z
#    x 1.912480 0.000000 0.000000 
#    y 0.000000 2.036080 0.000000 
#    z 0.000000 0.000000 2.003350 
# 
# From -- ./inp_files/1720.got.cif
#   From: 2010.05.17/outbox.cif.g08.bks.cpg/sg33_1_cif.got.tgz:1720.got - 2010.06.03 17:15:25.
