data_PCOD9346042
_publ_section_title
;
Structure prediction by ZEFSAII (Michael W. Deem and Ramdas Pophale) SiO2 
 PCOD9346042
Probable space group: P N A 21
;
_chemical_formula_sum "Si O2"
_cell_formula_units_Z 20
_cell_length_a 19.017658
_cell_length_b 5.156357
_cell_length_c 7.595295
_cell_angle_alpha 90.000000
_cell_angle_beta 90.000000
_cell_angle_gamma 90.000000
_cell_volume 744.808557
_symmetry_space_group_name_H-M "P N A 21"
_symmetry_group_IT_number 33
_symmetry_cell_setting 'orthorhombic'
loop_
_space_group_symop_operation_xyz
x,y,z
-x,-y,1/2+z
1/2-x,1/2+y,1/2+z
1/2+x,1/2-y,z
loop_
_atom_site_type_symbol
_atom_site_label
_atom_site_fract_x
_atom_site_fract_y
_atom_site_fract_z
Si Si1 0.679447 0.181061 0.762430
Si Si2 0.716653 0.689131 0.573090
Si Si3 0.484375 0.423132 0.546724
Si Si4 0.992792 0.429882 0.840160
Si Si5 0.627945 0.215318 0.142558
O O1 0.677870 0.437710 0.645262
O O2 0.675810 0.942052 0.631771
O O3 0.754053 0.184917 0.874104
O O4 0.628439 0.155065 0.931433
O O5 0.790436 0.707219 0.683088
O O6 0.514803 0.701709 0.486916
O O7 0.526387 0.242320 0.682657
O O8 0.411266 0.508260 0.639327
O O9 0.475739 0.211236 0.392797
O O10 0.918201 0.525403 0.759191
#
# Coordination Sequence:
#
# PCOD9346042 Si02
#       5
#     4   4   4   4   4
#     4  10  23  41  72  99 134 177 223 277 336 408
#     4  10  23  41  72  99 134 177 223 277 336 408
#     4  12  24  44  73 100 137 182 233 285 343 412
#     4  12  24  44  73 100 137 182 233 285 343 412
#     4  10  26  42  80  88 154 176 222 284 368 372
#
# _framework density 26.852539
#
# number of rings (size 3 to 8) (size 9 to 14) (size 15 to 20)
#    1.200    0.000    4.000    1.200    5.600    0.000 
#    0.000    8.000    4.400    0.000    0.000    0.000 
#    0.000    0.000    0.000    0.000    0.000    0.000 
#
# Total GULP energy -111632.135990 kJ/mol
# GULP energy per Si atom -5581.606800 kJ/mol
# Density = 2.679142 g / cm^3
# Si number density = 26.852539 Si / 1000 Ang^3
#
#
#
# Elastic Constant Matrix: (Units=GPa)
#
#
# Indices 1 2 3 4 5 6 
#
# 1 80.4624 45.7565 -9.3133 0.0000 0.0000 0.0000
# 2 45.7565 256.9757 46.2552 0.0000 0.0000 0.0000
# 3 -9.3133 46.2552 69.1276 0.0000 0.0000 0.0000
# 4 0.0000 0.0000 0.0000 66.0499 0.0000 0.0000
# 5 0.0000 0.0000 0.0000 0.0000 48.3533 0.0000
# 6 0.0000 0.0000 0.0000 0.0000 0.0000 22.9349
#
#
#
# Elastic Compliance Matrix: (Units=1/GPa)
#
#
# Indices 1 2 3 4 5 6 
#
# 1 0.014870 -0.003420 0.004292 0.000000 0.000000 0.000000
# 2 -0.003420 0.005211 -0.003948 0.000000 0.000000 0.000000
# 3 0.004292 -0.003948 0.017686 0.000000 0.000000 0.000000
# 4 0.000000 0.000000 0.000000 0.015140 0.000000 0.000000
# 5 0.000000 0.000000 0.000000 0.000000 0.020681 0.000000
# 6 0.000000 0.000000 0.000000 0.000000 0.000000 0.043602
#
#
# Mechanical properties :
#
#
# Convention : Reuss Voigt Hill
#
# Bulk Modulus (GPa) = 31.63078 63.55141 47.59109
# Shear Modulus (GPa) = 37.34700 49.05877 43.20288
#
# Velocity S-wave (km/s) = 3.73341 4.27894 4.01545
# Velocity P-wave (km/s) = 5.51267 6.93763 6.26579
#
# Compressibility (1/GPa) = 0.03161478
#
# Stress axis : x y z
#
# Youngs Moduli (GPa) = 67.24981 191.90240 56.54291
#
# Poissons Ratio (x) = 0.65635 -0.24268
# Poissons Ratio (y) = 0.23001 0.22321
# Poissons Ratio (z) = -0.28863 0.75756
#
# Static dielectric constant tensor:
#      x y z
#    x 2.236710 0.000000 0.000000 
#    y 0.000000 1.983200 0.000000 
#    z 0.000000 0.000000 2.233550 
# 
# From -- ./inp_files/5224.got.cif
#   From: 2010.05.17/outbox.cif.g08.bks.cpg/sg33_3_cif.got.tgz:5224.got - 2010.06.03 17:15:25.
