data_PCOD9346583
_publ_section_title
;
Structure prediction by ZEFSAII (Michael W. Deem and Ramdas Pophale) SiO2 
 PCOD9346583
Probable space group: P N A 21
;
_chemical_formula_sum "Si O2"
_cell_formula_units_Z 28
_cell_length_a 15.642687
_cell_length_b 6.636473
_cell_length_c 12.171705
_cell_angle_alpha 90.000000
_cell_angle_beta 90.000000
_cell_angle_gamma 90.000000
_cell_volume 1263.572325
_symmetry_space_group_name_H-M "P N A 21"
_symmetry_group_IT_number 33
_symmetry_cell_setting 'orthorhombic'
loop_
_space_group_symop_operation_xyz
x,y,z
-x,-y,1/2+z
1/2-x,1/2+y,1/2+z
1/2+x,1/2-y,z
loop_
_atom_site_type_symbol
_atom_site_label
_atom_site_fract_x
_atom_site_fract_y
_atom_site_fract_z
Si Si1 0.716372 0.949498 0.987340
Si Si2 0.490768 0.322590 0.925931
Si Si3 0.830673 0.049616 0.785823
Si Si4 0.803655 0.824371 0.187905
Si Si5 0.628738 0.639439 0.850684
Si Si6 0.413184 0.791736 0.629241
Si Si7 0.048624 0.475482 0.751925
O O1 0.752240 0.998991 0.867082
O O2 0.666610 0.743109 0.959249
O O3 0.795970 0.917815 0.067969
O O4 0.658161 0.117962 0.046413
O O5 0.400032 0.357560 0.868981
O O6 0.548617 0.504841 0.883283
O O7 0.525717 0.118136 0.869955
O O8 0.511808 0.307697 0.054574
O O9 0.871460 0.865041 0.715981
O O10 0.785111 0.205429 0.704350
O O11 0.886426 0.681269 0.196052
O O12 0.809249 0.992488 0.282881
O O13 0.596153 0.814876 0.771009
O O14 0.461092 0.975837 0.689364
#
# Coordination Sequence:
#
# PCOD9346583 Si02
#       7
#     4   4   4   4   4   4   4
#     4  12  25  44  73 104 145 191 238 309 379 420
#     4  11  25  44  73 101 140 194 241 298 366 440
#     4  12  26  45  70 112 143 187 249 303 363 444
#     4  11  26  43  72 105 144 190 237 307 373 426
#     4  11  22  49  68  97 144 185 244 298 353 450
#     4  12  26  46  76 104 148 199 246 302 374 447
#     4  11  24  47  70 103 142 190 247 293 360 451
#
# _framework density 22.159396000000001
#
# number of rings (size 3 to 8) (size 9 to 14) (size 15 to 20)
#    0.000    0.571    4.286    3.429    2.000    3.429 
#    0.000    0.000    0.000    0.000    0.000    0.000 
#    0.000    0.000    0.000    0.000    0.000    0.000 
#
# Total GULP energy -156426.942581 kJ/mol
# GULP energy per Si atom -5586.676521 kJ/mol
# Density = 2.210896 g / cm^3
# Si number density = 22.159396 Si / 1000 Ang^3
#
#
#
# Elastic Constant Matrix: (Units=GPa)
#
#
# Indices 1 2 3 4 5 6 
#
# 1 73.3865 31.6703 31.8327 0.0000 0.0000 0.0000
# 2 31.6703 85.0884 26.7149 0.0000 0.0000 0.0000
# 3 31.8327 26.7149 101.4562 0.0000 0.0000 0.0000
# 4 0.0000 0.0000 0.0000 36.9587 0.0000 0.0000
# 5 0.0000 0.0000 0.0000 0.0000 41.3018 0.0000
# 6 0.0000 0.0000 0.0000 0.0000 0.0000 30.2817
#
#
#
# Elastic Compliance Matrix: (Units=1/GPa)
#
#
# Indices 1 2 3 4 5 6 
#
# 1 0.017715 -0.005285 -0.004166 0.000000 0.000000 0.000000
# 2 -0.005285 0.014389 -0.002130 0.000000 0.000000 0.000000
# 3 -0.004166 -0.002130 0.011725 0.000000 0.000000 0.000000
# 4 0.000000 0.000000 0.000000 0.027057 0.000000 0.000000
# 5 0.000000 0.000000 0.000000 0.000000 0.024212 0.000000
# 6 0.000000 0.000000 0.000000 0.000000 0.000000 0.033023
#
#
# Mechanical properties :
#
#
# Convention : Reuss Voigt Hill
#
# Bulk Modulus (GPa) = 48.39430 48.92966 48.66198
# Shear Modulus (GPa) = 31.61102 33.02264 32.31683
#
# Velocity S-wave (km/s) = 3.78104 3.86454 3.82302
# Velocity P-wave (km/s) = 6.39908 6.48395 6.44166
#
# Compressibility (1/GPa) = 0.02066359
#
# Stress axis : x y z
#
# Youngs Moduli (GPa) = 56.45040 69.49945 85.29010
#
# Poissons Ratio (x) = 0.36733 0.35535
# Poissons Ratio (y) = 0.29836 0.18170
# Poissons Ratio (z) = 0.23520 0.14806
#
# Static dielectric constant tensor:
#      x y z
#    x 1.858520 0.000000 0.000000 
#    y 0.000000 1.847600 0.000000 
#    z 0.000000 0.000000 1.840170 
# 
# From -- ./inp_files/6973.got.cif
#   From: 2010.05.17/outbox.cif.g08.bks.cpg/sg33_4_cif.got.tgz:6973.got - 2010.06.03 17:15:25.
