data_PCOD9346773
_publ_section_title
;
Structure prediction by ZEFSAII (Michael W. Deem and Ramdas Pophale) SiO2 
 PCOD9346773
Probable space group: P N A 21
;
_chemical_formula_sum "Si O2"
_cell_formula_units_Z 24
_cell_length_a 10.809537
_cell_length_b 4.928429
_cell_length_c 16.860191
_cell_angle_alpha 90.000000
_cell_angle_beta 90.000000
_cell_angle_gamma 90.000000
_cell_volume 898.210416
_symmetry_space_group_name_H-M "P N A 21"
_symmetry_group_IT_number 33
_symmetry_cell_setting 'orthorhombic'
loop_
_space_group_symop_operation_xyz
x,y,z
-x,-y,1/2+z
1/2-x,1/2+y,1/2+z
1/2+x,1/2-y,z
loop_
_atom_site_type_symbol
_atom_site_label
_atom_site_fract_x
_atom_site_fract_y
_atom_site_fract_z
Si Si1 0.379357 0.302890 0.287910
Si Si2 0.867711 0.819828 0.000236
Si Si3 0.722584 0.670029 0.621710
Si Si4 0.531052 0.018178 0.086193
Si Si5 0.965319 0.292204 0.759907
Si Si6 0.274422 0.165151 0.896100
O O1 0.279376 0.286638 0.216409
O O2 0.435303 0.003638 0.300033
O O3 0.343489 0.489230 0.363358
O O4 0.485306 0.489657 0.250674
O O5 0.835499 0.564207 0.948369
O O6 0.808660 0.062814 0.946477
O O7 0.008327 0.728993 0.024824
O O8 0.805877 0.867832 0.087047
O O9 0.853023 0.722542 0.577851
O O10 0.598418 0.821456 0.592115
O O11 0.557048 0.898219 0.172454
O O12 0.846927 0.284478 0.814668
#
# Coordination Sequence:
#
# PCOD9346773 Si02
#       6
#     4   4   4   4   4   4
#     4  11  24  46  75 108 143 208 255 321 378 473
#     4  12  26  48  72 115 156 200 254 325 391 459
#     4  11  25  50  80 113 159 204 268 318 389 474
#     4  11  25  50  81 117 151 213 260 322 388 476
#     4  11  24  46  75 106 148 199 264 313 385 465
#     4  12  26  48  71 115 151 198 253 327 393 457
#
# _framework density 26.719798000000001
#
# number of rings (size 3 to 8) (size 9 to 14) (size 15 to 20)
#    0.000    0.667    5.000    2.000    0.000    5.333 
#    6.000    0.000    0.000    0.000    0.000    0.000 
#    0.000    0.000    0.000    0.000    0.000    0.000 
#
# Total GULP energy -133765.221073 kJ/mol
# GULP energy per Si atom -5573.550878 kJ/mol
# Density = 2.665898 g / cm^3
# Si number density = 26.719798 Si / 1000 Ang^3
#
#
#
# Elastic Constant Matrix: (Units=GPa)
#
#
# Indices 1 2 3 4 5 6 
#
# 1 89.6847 18.6200 11.2495 0.0000 0.0000 0.0000
# 2 18.6200 116.6736 9.9722 0.0000 0.0000 0.0000
# 3 11.2495 9.9722 72.9476 0.0000 0.0000 0.0000
# 4 0.0000 0.0000 0.0000 9.1452 0.0000 0.0000
# 5 0.0000 0.0000 0.0000 0.0000 44.7064 0.0000
# 6 0.0000 0.0000 0.0000 0.0000 0.0000 31.3187
#
#
#
# Elastic Compliance Matrix: (Units=1/GPa)
#
#
# Indices 1 2 3 4 5 6 
#
# 1 0.011707 -0.001734 -0.001568 0.000000 0.000000 0.000000
# 2 -0.001734 0.008929 -0.000953 0.000000 0.000000 0.000000
# 3 -0.001568 -0.000953 0.014081 0.000000 0.000000 0.000000
# 4 0.000000 0.000000 0.000000 0.109346 0.000000 0.000000
# 5 0.000000 0.000000 0.000000 0.000000 0.022368 0.000000
# 6 0.000000 0.000000 0.000000 0.000000 0.000000 0.031930
#
#
# Mechanical properties :
#
#
# Convention : Reuss Voigt Hill
#
# Bulk Modulus (GPa) = 38.16033 39.88769 39.02401
# Shear Modulus (GPa) = 23.19027 32.99837 28.09432
#
# Velocity S-wave (km/s) = 2.94922 3.51804 3.24611
# Velocity P-wave (km/s) = 5.09017 5.60916 5.35596
#
# Compressibility (1/GPa) = 0.02620522
#
# Stress axis : x y z
#
# Youngs Moduli (GPa) = 85.41931 111.99260 71.01958
#
# Poissons Ratio (x) = 0.19423 0.11138
# Poissons Ratio (y) = 0.14814 0.06770
# Poissons Ratio (z) = 0.13396 0.10675
#
# Static dielectric constant tensor:
#      x y z
#    x 2.317360 0.000000 0.000000 
#    y 0.000000 2.118640 0.000000 
#    z 0.000000 0.000000 2.144280 
# 
# From -- ./inp_files/8602.got.cif
#   From: 2010.05.17/outbox.cif.g08.bks.cpg/sg33_5_cif.got.tgz:8602.got - 2010.06.03 17:15:25.
