data_PCOD9346603
_publ_section_title
;
Structure prediction by ZEFSAII (Michael W. Deem and Ramdas Pophale) SiO2 
 PCOD9346603
Probable space group: P N A 21
;
_chemical_formula_sum "Si O2"
_cell_formula_units_Z 28
_cell_length_a 18.879176
_cell_length_b 4.951143
_cell_length_c 12.053907
_cell_angle_alpha 90.000000
_cell_angle_beta 90.000000
_cell_angle_gamma 90.000000
_cell_volume 1126.720877
_symmetry_space_group_name_H-M "P N A 21"
_symmetry_group_IT_number 33
_symmetry_cell_setting 'orthorhombic'
loop_
_space_group_symop_operation_xyz
x,y,z
-x,-y,1/2+z
1/2-x,1/2+y,1/2+z
1/2+x,1/2-y,z
loop_
_atom_site_type_symbol
_atom_site_label
_atom_site_fract_x
_atom_site_fract_y
_atom_site_fract_z
Si Si1 0.879998 0.057792 0.260130
Si Si2 0.536967 0.174029 0.923135
Si Si3 0.988059 0.690149 0.665154
Si Si4 0.323218 0.505168 0.022897
Si Si5 0.828109 0.302310 0.469266
Si Si6 0.619916 0.989631 0.395639
Si Si7 0.896344 0.174115 0.685299
O O1 0.822396 0.148461 0.351891
O O2 0.934095 0.287699 0.215609
O O3 0.933650 0.873200 0.330644
O O4 0.845102 0.935409 0.149996
O O5 0.465527 0.022497 0.888888
O O6 0.603393 0.986316 0.949523
O O7 0.513523 0.308804 0.039370
O O8 0.959537 0.385995 0.656160
O O9 0.931113 0.892143 0.721979
O O10 0.239737 0.527200 0.002415
O O11 0.351471 0.212367 0.990115
O O12 0.355826 0.720877 0.937288
O O13 0.848013 0.126253 0.577363
O O14 0.643848 0.841672 0.281545
#
# Coordination Sequence:
#
# PCOD9346603 Si02
#       7
#     4   4   4   4   4   4   4
#     4  12  26  48  77 115 153 209 253 334 388 472
#     4  11  25  45  82 111 153 194 267 313 393 456
#     4  11  23  41  72 116 143 187 249 321 375 454
#     4  12  32  48  75 111 163 202 259 317 401 462
#     4  11  29  49  74 111 155 212 256 315 396 477
#     4  12  27  49  75 114 150 200 257 328 378 465
#     4  11  24  44  75 106 149 194 253 316 381 452
#
# _framework density 24.850873
#
# number of rings (size 3 to 8) (size 9 to 14) (size 15 to 20)
#    0.000    0.571    4.286    1.714   12.000    0.000 
#    0.000    0.000    0.000    0.000    0.000    0.000 
#    0.000    0.000    0.000    0.000    0.000    0.000 
#
# Total GULP energy -156666.908556 kJ/mol
# GULP energy per Si atom -5595.246734 kJ/mol
# Density = 2.479431 g / cm^3
# Si number density = 24.850873 Si / 1000 Ang^3
#
#
#
# Elastic Constant Matrix: (Units=GPa)
#
#
# Indices 1 2 3 4 5 6 
#
# 1 103.6889 7.5317 28.2890 0.0000 0.0000 0.0000
# 2 7.5317 73.0961 2.7355 0.0000 0.0000 0.0000
# 3 28.2890 2.7355 175.2239 0.0000 0.0000 0.0000
# 4 0.0000 0.0000 0.0000 37.7016 0.0000 0.0000
# 5 0.0000 0.0000 0.0000 0.0000 19.6518 0.0000
# 6 0.0000 0.0000 0.0000 0.0000 0.0000 20.6247
#
#
#
# Elastic Compliance Matrix: (Units=1/GPa)
#
#
# Indices 1 2 3 4 5 6 
#
# 1 0.010159 -0.000986 -0.001625 0.000000 0.000000 0.000000
# 2 -0.000986 0.013784 -0.000056 0.000000 0.000000 0.000000
# 3 -0.001625 -0.000056 0.005970 0.000000 0.000000 0.000000
# 4 0.000000 0.000000 0.000000 0.026524 0.000000 0.000000
# 5 0.000000 0.000000 0.000000 0.000000 0.050886 0.000000
# 6 0.000000 0.000000 0.000000 0.000000 0.000000 0.048485
#
#
# Mechanical properties :
#
#
# Convention : Reuss Voigt Hill
#
# Bulk Modulus (GPa) = 40.68326 47.68015 44.18171
# Shear Modulus (GPa) = 29.52711 36.49247 33.00979
#
# Velocity S-wave (km/s) = 3.45073 3.83620 3.64856
# Velocity P-wave (km/s) = 5.68183 6.23299 5.96378
#
# Compressibility (1/GPa) = 0.02458013
#
# Stress axis : x y z
#
# Youngs Moduli (GPa) = 98.43372 72.54624 167.49952
#
# Poissons Ratio (x) = 0.07153 0.27214
# Poissons Ratio (y) = 0.09705 0.00938
# Poissons Ratio (z) = 0.15993 0.00406
#
# Static dielectric constant tensor:
#      x y z
#    x 1.924520 0.000000 0.000000 
#    y 0.000000 1.978590 0.000000 
#    z 0.000000 0.000000 2.144030 
# 
# From -- ./inp_files/6963.got.cif
#   From: 2010.05.17/outbox.cif.g08.bks.cpg/sg33_4_cif.got.tgz:6963.got - 2010.06.03 17:15:25.
