data_PCOD9346550
_publ_section_title
;
Structure prediction by ZEFSAII (Michael W. Deem and Ramdas Pophale) SiO2 
 PCOD9346550
Probable space group: P N A 21
;
_chemical_formula_sum "Si O2"
_cell_formula_units_Z 28
_cell_length_a 9.242271
_cell_length_b 23.051436
_cell_length_c 6.354532
_cell_angle_alpha 90.000000
_cell_angle_beta 90.000000
_cell_angle_gamma 90.000000
_cell_volume 1353.817909
_symmetry_space_group_name_H-M "P N A 21"
_symmetry_group_IT_number 33
_symmetry_cell_setting 'orthorhombic'
loop_
_space_group_symop_operation_xyz
x,y,z
-x,-y,1/2+z
1/2-x,1/2+y,1/2+z
1/2+x,1/2-y,z
loop_
_atom_site_type_symbol
_atom_site_label
_atom_site_fract_x
_atom_site_fract_y
_atom_site_fract_z
Si Si1 0.860966 0.368072 0.815100
Si Si2 0.362703 0.064026 0.223779
Si Si3 0.360788 0.631310 0.969267
Si Si4 0.173496 0.838844 0.058855
Si Si5 0.972352 0.247281 0.902732
Si Si6 0.907172 0.563725 0.072436
Si Si7 0.772294 0.753013 0.720856
O O1 0.705992 0.364639 0.703629
O O2 0.944364 0.307724 0.783011
O O3 0.958370 0.418807 0.718986
O O4 0.851906 0.384716 0.055907
O O5 0.225367 0.077057 0.371893
O O6 0.516289 0.068448 0.344471
O O7 0.355744 0.000999 0.120233
O O8 0.311896 0.690028 0.851683
O O9 0.532659 0.630900 0.955561
O O10 0.098356 0.801319 0.248818
O O11 0.282472 0.889964 0.119706
O O12 0.263564 0.798682 0.893890
O O13 0.885885 0.250933 0.121731
O O14 0.132535 0.246265 0.003657
#
# Coordination Sequence:
#
# PCOD9346550 Si02
#       7
#     4   4   4   4   4   4   4
#     4  11  22  42  71  97 134 179 227 280 344 403
#     4  11  23  47  72  98 132 180 243 280 343 402
#     4  11  25  43  63  99 141 178 219 288 344 409
#     4  12  27  44  65 104 144 176 229 284 356 416
#     4  12  24  40  69 100 136 183 222 279 350 414
#     4  11  25  45  72 100 131 182 235 291 330 419
#     4  12  24  41  64 100 138 176 227 278 345 421
#
# _framework density 20.682248000000001
#
# number of rings (size 3 to 8) (size 9 to 14) (size 15 to 20)
#    0.000    0.571    5.714    2.571    4.000    0.000 
#    2.571    0.000    0.000    0.000    0.000    0.000 
#    0.000    0.000    0.000    0.000    0.000    0.000 
#
# Total GULP energy -156131.885109 kJ/mol
# GULP energy per Si atom -5576.138754 kJ/mol
# Density = 2.063517 g / cm^3
# Si number density = 20.682248 Si / 1000 Ang^3
#
#
#
# Elastic Constant Matrix: (Units=GPa)
#
#
# Indices 1 2 3 4 5 6 
#
# 1 82.0698 32.6974 21.9262 0.0000 0.0000 0.0000
# 2 32.6974 92.6083 23.7261 0.0000 0.0000 0.0000
# 3 21.9262 23.7261 69.8904 0.0000 0.0000 0.0000
# 4 0.0000 0.0000 0.0000 36.2958 0.0000 0.0000
# 5 0.0000 0.0000 0.0000 0.0000 32.1302 0.0000
# 6 0.0000 0.0000 0.0000 0.0000 0.0000 24.4159
#
#
#
# Elastic Compliance Matrix: (Units=1/GPa)
#
#
# Indices 1 2 3 4 5 6 
#
# 1 0.014782 -0.004415 -0.003139 0.000000 0.000000 0.000000
# 2 -0.004415 0.013145 -0.003077 0.000000 0.000000 0.000000
# 3 -0.003139 -0.003077 0.016338 0.000000 0.000000 0.000000
# 4 0.000000 0.000000 0.000000 0.027551 0.000000 0.000000
# 5 0.000000 0.000000 0.000000 0.000000 0.031123 0.000000
# 6 0.000000 0.000000 0.000000 0.000000 0.000000 0.040957
#
#
# Mechanical properties :
#
#
# Convention : Reuss Voigt Hill
#
# Bulk Modulus (GPa) = 43.47306 44.58534 44.02920
# Shear Modulus (GPa) = 28.93064 29.64963 29.29014
#
# Velocity S-wave (km/s) = 3.74413 3.79037 3.76732
# Velocity P-wave (km/s) = 6.30528 6.38435 6.34494
#
# Compressibility (1/GPa) = 0.02300275
#
# Stress axis : x y z
#
# Youngs Moduli (GPa) = 67.64841 76.07194 61.20881
#
# Poissons Ratio (x) = 0.33586 0.19212
# Poissons Ratio (y) = 0.29867 0.18837
# Poissons Ratio (z) = 0.21233 0.23411
#
# Static dielectric constant tensor:
#      x y z
#    x 1.713940 0.000000 0.000000 
#    y 0.000000 1.729390 0.000000 
#    z 0.000000 0.000000 1.822030 
# 
# From -- ./inp_files/470.got.cif
#   From: 2010.05.17/outbox.cif.g08.bks.cpg/sg33_1_cif.got.tgz:470.got - 2010.06.03 17:15:25.
