data_PCOD9346563
_publ_section_title
;
Structure prediction by ZEFSAII (Michael W. Deem and Ramdas Pophale) SiO2 
 PCOD9346563
Probable space group: P N A 21
;
_chemical_formula_sum "Si O2"
_cell_formula_units_Z 28
_cell_length_a 7.700364
_cell_length_b 15.216947
_cell_length_c 8.625205
_cell_angle_alpha 90.000000
_cell_angle_beta 90.000000
_cell_angle_gamma 90.000000
_cell_volume 1010.667287
_symmetry_space_group_name_H-M "P N A 21"
_symmetry_group_IT_number 33
_symmetry_cell_setting 'orthorhombic'
loop_
_space_group_symop_operation_xyz
x,y,z
-x,-y,1/2+z
1/2-x,1/2+y,1/2+z
1/2+x,1/2-y,z
loop_
_atom_site_type_symbol
_atom_site_label
_atom_site_fract_x
_atom_site_fract_y
_atom_site_fract_z
Si Si1 0.165699 0.094502 0.257060
Si Si2 0.832431 0.925382 0.106173
Si Si3 0.888176 0.687117 0.388008
Si Si4 0.006124 0.120512 0.931629
Si Si5 0.299943 0.800480 0.850682
Si Si6 0.041325 0.436224 0.140270
Si Si7 0.087748 0.720846 0.072929
O O1 0.110198 0.056801 0.426850
O O2 0.190505 0.201281 0.281567
O O3 0.355710 0.053897 0.221183
O O4 0.046526 0.078604 0.102862
O O5 0.927238 0.925130 0.272540
O O6 0.774533 0.823362 0.094367
O O7 0.649946 0.976341 0.121166
O O8 0.893677 0.785835 0.453168
O O9 0.692767 0.649144 0.391962
O O10 0.999096 0.616127 0.482932
O O11 0.985763 0.702674 0.227571
O O12 0.313812 0.871050 0.716870
O O13 0.474652 0.823095 0.940782
O O14 0.148584 0.808518 0.979817
#
# Coordination Sequence:
#
# PCOD9346563 Si02
#       7
#     4   4   4   4   4   4   4
#     4  11  25  45  77 109 149 200 258 316 378 478
#     4  11  27  50  72 115 153 201 255 319 395 475
#     4  12  26  47  76 111 145 203 256 325 382 473
#     4  12  26  48  76 108 154 196 260 316 389 461
#     4  11  22  44  71 114 142 200 255 321 379 467
#     4  12  26  48  77 111 157 202 253 323 402 464
#     4  11  24  42  75 108 150 194 263 320 387 468
#
# _framework density 27.704467999999999
#
# number of rings (size 3 to 8) (size 9 to 14) (size 15 to 20)
#    0.000    0.571    4.286    5.143    6.000    0.000 
#    2.571    0.000    0.000    0.000    0.000    0.000 
#    0.000    0.000    0.000    0.000    0.000    0.000 
#
# Total GULP energy -156436.487754 kJ/mol
# GULP energy per Si atom -5587.017420 kJ/mol
# Density = 2.764141 g / cm^3
# Si number density = 27.704468 Si / 1000 Ang^3
#
#
#
# Elastic Constant Matrix: (Units=GPa)
#
#
# Indices 1 2 3 4 5 6 
#
# 1 134.2732 8.2913 101.9405 0.0000 0.0000 0.0000
# 2 8.2913 62.1826 48.3357 0.0000 0.0000 0.0000
# 3 101.9405 48.3357 254.9786 0.0000 0.0000 0.0000
# 4 0.0000 0.0000 0.0000 22.7103 0.0000 0.0000
# 5 0.0000 0.0000 0.0000 0.0000 67.9092 0.0000
# 6 0.0000 0.0000 0.0000 0.0000 0.0000 39.3527
#
#
#
# Elastic Compliance Matrix: (Units=1/GPa)
#
#
# Indices 1 2 3 4 5 6 
#
# 1 0.010962 0.002281 -0.004815 0.000000 0.000000 0.000000
# 2 0.002281 0.019336 -0.004577 0.000000 0.000000 0.000000
# 3 -0.004815 -0.004577 0.006715 0.000000 0.000000 0.000000
# 4 0.000000 0.000000 0.000000 0.044033 0.000000 0.000000
# 5 0.000000 0.000000 0.000000 0.000000 0.014726 0.000000
# 6 0.000000 0.000000 0.000000 0.000000 0.000000 0.025411
#
#
# Mechanical properties :
#
#
# Convention : Reuss Voigt Hill
#
# Bulk Modulus (GPa) = 43.87903 85.39660 64.63782
# Shear Modulus (GPa) = 34.96458 45.51890 40.24174
#
# Velocity S-wave (km/s) = 3.55640 4.05781 3.81535
# Velocity P-wave (km/s) = 5.72159 7.26949 6.54149
#
# Compressibility (1/GPa) = 0.02278993
#
# Stress axis : x y z
#
# Youngs Moduli (GPa) = 91.22130 51.71798 148.92566
#
# Poissons Ratio (x) = -0.11798 0.71711
# Poissons Ratio (y) = -0.20810 0.68170
# Poissons Ratio (z) = 0.43925 0.23674
#
# Static dielectric constant tensor:
#      x y z
#    x 2.177070 0.000000 0.000000 
#    y 0.000000 2.303580 0.000000 
#    z 0.000000 0.000000 2.214350 
# 
# From -- ./inp_files/3413.got.cif
#   From: 2010.05.17/outbox.cif.g08.bks.cpg/sg33_2_cif.got.tgz:3413.got - 2010.06.03 17:15:25.
