data_PCOD9346015
_publ_section_title
;
Structure prediction by ZEFSAII (Michael W. Deem and Ramdas Pophale) SiO2 
 PCOD9346015
Probable space group: P N A 21
;
_chemical_formula_sum "Si O2"
_cell_formula_units_Z 32
_cell_length_a 14.655346
_cell_length_b 10.867305
_cell_length_c 9.571160
_cell_angle_alpha 90.000000
_cell_angle_beta 90.000000
_cell_angle_gamma 90.000000
_cell_volume 1524.342326
_symmetry_space_group_name_H-M "P N A 21"
_symmetry_group_IT_number 33
_symmetry_cell_setting 'orthorhombic'
loop_
_space_group_symop_operation_xyz
x,y,z
-x,-y,1/2+z
1/2-x,1/2+y,1/2+z
1/2+x,1/2-y,z
loop_
_atom_site_type_symbol
_atom_site_label
_atom_site_fract_x
_atom_site_fract_y
_atom_site_fract_z
Si Si1 0.337885 0.765011 0.959440
Si Si2 0.884386 0.847329 0.246228
Si Si3 0.568974 0.535119 0.148183
Si Si4 0.791507 0.717950 0.501527
Si Si5 0.367694 0.171772 0.159947
Si Si6 0.053764 0.252044 0.206495
Si Si7 0.166601 0.903608 0.861829
Si Si8 0.741452 0.487900 0.330895
O O1 0.431513 0.778362 0.870938
O O2 0.264473 0.871148 0.928851
O O3 0.297258 0.636214 0.900206
O O4 0.351798 0.740180 0.121878
O O5 0.858055 0.783212 0.391015
O O6 0.988896 0.881687 0.211506
O O7 0.833666 0.979093 0.259810
O O8 0.539482 0.392073 0.168818
O O9 0.661106 0.545328 0.237685
O O10 0.595758 0.566084 0.988141
O O11 0.698435 0.792079 0.532413
O O12 0.847314 0.715980 0.644313
O O13 0.769217 0.584433 0.446369
O O14 0.475108 0.168073 0.134715
O O15 0.361314 0.284710 0.271675
O O16 0.324828 0.053420 0.233282
#
# Coordination Sequence:
#
# PCOD9346015 Si02
#       8
#     4   4   4   4   4   4   4   4
#     4  10  23  41  61  99 131 176 226 268 345 413
#     4  12  24  36  68 102 127 170 231 291 329 399
#     4  11  22  39  66 101 129 164 236 289 328 393
#     4  12  24  42  64 101 133 175 228 275 342 413
#     4  11  22  43  68  91 136 180 215 279 353 398
#     4  11  22  42  69  97 131 179 225 274 344 411
#     4  11  20  39  64  95 133 171 214 291 346 391
#     4  10  23  42  62  90 134 179 207 277 333 406
#
# _framework density 20.992659
#
# number of rings (size 3 to 8) (size 9 to 14) (size 15 to 20)
#    0.000    1.000    6.250    2.250    3.500    0.000 
#    0.000    6.250    0.000    0.000    0.000    0.000 
#    0.000    0.000    0.000    0.000    0.000    0.000 
#
# Total GULP energy -178772.528053 kJ/mol
# GULP energy per Si atom -5586.641502 kJ/mol
# Density = 2.094488 g / cm^3
# Si number density = 20.992659 Si / 1000 Ang^3
#
#
#
# Elastic Constant Matrix: (Units=GPa)
#
#
# Indices 1 2 3 4 5 6 
#
# 1 95.6549 22.3873 19.9601 0.0000 0.0000 0.0000
# 2 22.3873 37.5522 21.0272 0.0000 0.0000 0.0000
# 3 19.9601 21.0272 92.7504 0.0000 0.0000 0.0000
# 4 0.0000 0.0000 0.0000 26.6714 0.0000 0.0000
# 5 0.0000 0.0000 0.0000 0.0000 29.5462 0.0000
# 6 0.0000 0.0000 0.0000 0.0000 0.0000 24.7783
#
#
#
# Elastic Compliance Matrix: (Units=1/GPa)
#
#
# Indices 1 2 3 4 5 6 
#
# 1 0.012251 -0.006675 -0.001123 0.000000 0.000000 0.000000
# 2 -0.006675 0.034138 -0.006303 0.000000 0.000000 0.000000
# 3 -0.001123 -0.006303 0.012452 0.000000 0.000000 0.000000
# 4 0.000000 0.000000 0.000000 0.037493 0.000000 0.000000
# 5 0.000000 0.000000 0.000000 0.000000 0.033845 0.000000
# 6 0.000000 0.000000 0.000000 0.000000 0.000000 0.040358
#
#
# Mechanical properties :
#
#
# Convention : Reuss Voigt Hill
#
# Bulk Modulus (GPa) = 32.63750 39.18965 35.91358
# Shear Modulus (GPa) = 23.92890 27.03802 25.48346
#
# Velocity S-wave (km/s) = 3.37986 3.59273 3.48792
# Velocity P-wave (km/s) = 5.55087 5.99325 5.77630
#
# Compressibility (1/GPa) = 0.03063960
#
# Stress axis : x y z
#
# Youngs Moduli (GPa) = 81.62767 29.29284 80.30659
#
# Poissons Ratio (x) = 0.19552 0.09020
# Poissons Ratio (y) = 0.54483 0.50617
# Poissons Ratio (z) = 0.09169 0.18463
#
# Static dielectric constant tensor:
#      x y z
#    x 1.795500 0.000000 0.000000 
#    y 0.000000 1.737820 0.000000 
#    z 0.000000 0.000000 1.797200 
# 
# From -- ./inp_files/4404.got.cif
#   From: 2010.05.17/outbox.cif.g08.bks.cpg/sg33_3_cif.got.tgz:4404.got - 2010.06.03 17:15:25.
