data_PCOD9346756
_publ_section_title
;
Structure prediction by ZEFSAII (Michael W. Deem and Ramdas Pophale) SiO2 
 PCOD9346756
Probable space group: P N A 21
;
_chemical_formula_sum "Si O2"
_cell_formula_units_Z 32
_cell_length_a 8.007639
_cell_length_b 15.084680
_cell_length_c 11.261380
_cell_angle_alpha 90.000000
_cell_angle_beta 90.000000
_cell_angle_gamma 90.000000
_cell_volume 1360.292179
_symmetry_space_group_name_H-M "P N A 21"
_symmetry_group_IT_number 33
_symmetry_cell_setting 'orthorhombic'
loop_
_space_group_symop_operation_xyz
x,y,z
-x,-y,1/2+z
1/2-x,1/2+y,1/2+z
1/2+x,1/2-y,z
loop_
_atom_site_type_symbol
_atom_site_label
_atom_site_fract_x
_atom_site_fract_y
_atom_site_fract_z
Si Si1 0.788859 0.119550 0.220550
Si Si2 0.095889 0.012400 0.896850
Si Si3 0.902406 0.450942 0.636783
Si Si4 0.941860 0.660589 0.338695
Si Si5 0.615151 0.371170 0.504212
Si Si6 0.433813 0.345768 0.740688
Si Si7 0.132085 0.590769 0.554224
Si Si8 0.850314 0.810234 0.737102
O O1 0.678325 0.207003 0.214928
O O2 0.975971 0.150134 0.188014
O O3 0.805068 0.074146 0.350496
O O4 0.706187 0.039836 0.149846
O O5 0.025939 0.065157 0.783876
O O6 0.205460 0.078807 0.972588
O O7 0.945383 0.969885 0.969596
O O8 0.795469 0.379881 0.565153
O O9 0.947489 0.407797 0.761952
O O10 0.068319 0.491065 0.579014
O O11 0.754438 0.647277 0.289739
O O12 0.990338 0.760263 0.305297
O O13 0.994169 0.641583 0.474389
O O14 0.481148 0.336387 0.601319
O O15 0.636849 0.322129 0.379274
O O16 0.197939 0.637239 0.674165
#
# Coordination Sequence:
#
# PCOD9346756 Si02
#       8
#     4   4   4   4   4   4   4   4
#     4  11  24  48  69 106 148 191 249 301 378 460
#     4  11  24  45  76 100 148 193 251 310 383 452
#     4  12  25  44  74 105 148 191 253 310 381 458
#     4  12  28  47  76 109 147 200 257 319 382 461
#     4  11  25  46  74 112 149 202 246 321 383 464
#     4  12  26  51  74 108 150 195 263 313 388 453
#     4  12  26  45  74 114 149 198 251 319 385 464
#     4  11  28  44  75 108 153 198 246 315 390 460
#
# _framework density 23.524360000000001
#
# number of rings (size 3 to 8) (size 9 to 14) (size 15 to 20)
#    0.000    0.500    2.500    4.500    7.000   11.000 
#    0.000    0.000    0.000    0.000    0.000    0.000 
#    0.000    0.000    0.000    0.000    0.000    0.000 
#
# Total GULP energy -178929.082132 kJ/mol
# GULP energy per Si atom -5591.533817 kJ/mol
# Density = 2.347082 g / cm^3
# Si number density = 23.524360 Si / 1000 Ang^3
#
#
#
# Elastic Constant Matrix: (Units=GPa)
#
#
# Indices 1 2 3 4 5 6 
#
# 1 92.1627 27.1541 36.3342 0.0000 0.0000 0.0000
# 2 27.1541 83.7033 12.2141 0.0000 0.0000 0.0000
# 3 36.3342 12.2141 105.3602 0.0000 0.0000 0.0000
# 4 0.0000 0.0000 0.0000 27.4164 0.0000 0.0000
# 5 0.0000 0.0000 0.0000 0.0000 33.1359 0.0000
# 6 0.0000 0.0000 0.0000 0.0000 0.0000 35.8456
#
#
#
# Elastic Compliance Matrix: (Units=1/GPa)
#
#
# Indices 1 2 3 4 5 6 
#
# 1 0.013654 -0.003807 -0.004268 0.000000 0.000000 0.000000
# 2 -0.003807 0.013214 -0.000219 0.000000 0.000000 0.000000
# 3 -0.004268 -0.000219 0.010988 0.000000 0.000000 0.000000
# 4 0.000000 0.000000 0.000000 0.036474 0.000000 0.000000
# 5 0.000000 0.000000 0.000000 0.000000 0.030179 0.000000
# 6 0.000000 0.000000 0.000000 0.000000 0.000000 0.027897
#
#
# Mechanical properties :
#
#
# Convention : Reuss Voigt Hill
#
# Bulk Modulus (GPa) = 47.01497 48.07012 47.54255
# Shear Modulus (GPa) = 32.03403 32.98119 32.50761
#
# Velocity S-wave (km/s) = 3.69418 3.74839 3.72138
# Velocity P-wave (km/s) = 6.18263 6.26199 6.22244
#
# Compressibility (1/GPa) = 0.02126982
#
# Stress axis : x y z
#
# Youngs Moduli (GPa) = 73.23627 75.67787 91.00569
#
# Poissons Ratio (x) = 0.28810 0.38837
# Poissons Ratio (y) = 0.27880 0.01993
# Poissons Ratio (z) = 0.31254 0.01657
#
# Static dielectric constant tensor:
#      x y z
#    x 1.970820 0.000000 0.000000 
#    y 0.000000 1.826350 0.000000 
#    z 0.000000 0.000000 1.919380 
# 
# From -- ./inp_files/5955.got.cif
#   From: 2010.05.17/outbox.cif.g08.bks.cpg/sg33_3_cif.got.tgz:5955.got - 2010.06.03 17:15:25.
