data_PCOD9346491
_publ_section_title
;
Structure prediction by ZEFSAII (Michael W. Deem and Ramdas Pophale) SiO2 
 PCOD9346491
Probable space group: P N A 21
;
_chemical_formula_sum "Si O2"
_cell_formula_units_Z 32
_cell_length_a 13.305381
_cell_length_b 7.847914
_cell_length_c 11.498243
_cell_angle_alpha 90.000000
_cell_angle_beta 90.000000
_cell_angle_gamma 90.000000
_cell_volume 1200.640622
_symmetry_space_group_name_H-M "P N A 21"
_symmetry_group_IT_number 33
_symmetry_cell_setting 'orthorhombic'
loop_
_space_group_symop_operation_xyz
x,y,z
-x,-y,1/2+z
1/2-x,1/2+y,1/2+z
1/2+x,1/2-y,z
loop_
_atom_site_type_symbol
_atom_site_label
_atom_site_fract_x
_atom_site_fract_y
_atom_site_fract_z
Si Si1 0.293288 0.512198 0.339850
Si Si2 0.725960 0.972334 0.686883
Si Si3 0.882382 0.672135 0.755501
Si Si4 0.892208 0.134233 0.556058
Si Si5 0.645340 0.113284 0.918478
Si Si6 0.915356 0.672568 0.023306
Si Si7 0.311092 0.481687 0.089777
Si Si8 0.986448 0.226927 0.047481
O O1 0.182324 0.495959 0.284703
O O2 0.324266 0.377431 0.438834
O O3 0.313444 0.698426 0.387938
O O4 0.352295 0.469865 0.222366
O O5 0.815330 0.107647 0.661653
O O6 0.668373 0.003263 0.806345
O O7 0.644434 0.013453 0.583271
O O8 0.792998 0.800623 0.706798
O O9 0.973160 0.690455 0.666770
O O10 0.921604 0.704923 0.885096
O O11 0.972204 0.285014 0.567926
O O12 0.956136 0.957662 0.545265
O O13 0.701807 0.042181 0.032253
O O14 0.529733 0.148386 0.948802
O O15 0.845963 0.830477 0.060320
O O16 0.374206 0.332799 0.028791
#
# Coordination Sequence:
#
# PCOD9346491 Si02
#       8
#     4   4   4   4   4   4   4   4
#     4  11  21  38  66  86 123 164 208 257 321 376
#     4  11  22  38  63  92 122 161 214 255 311 385
#     4  11  21  38  66  86 123 164 208 257 321 376
#     4   9  21  37  61  93 118 157 216 258 304 390
#     4  11  22  38  63  92 122 161 214 255 311 385
#     4  11  21  38  65  90 123 164 207 264 318 367
#     4  11  21  38  65  90 123 164 207 264 318 367
#     4   9  21  37  61  93 118 157 216 258 304 390
#
# _framework density 26.652436999999999
#
# number of rings (size 3 to 8) (size 9 to 14) (size 15 to 20)
#    0.000    1.500    5.000    0.750    0.000    1.000 
#    0.000    0.000   22.000    0.000    0.000    0.000 
#    0.000    0.000    0.000    0.000    0.000    0.000 
#
# Total GULP energy -178729.132742 kJ/mol
# GULP energy per Si atom -5585.285398 kJ/mol
# Density = 2.659178 g / cm^3
# Si number density = 26.652437 Si / 1000 Ang^3
#
#
#
# Elastic Constant Matrix: (Units=GPa)
#
#
# Indices 1 2 3 4 5 6 
#
# 1 100.6358 34.1916 25.7251 0.0000 0.0000 0.0000
# 2 34.1916 102.8469 13.3226 0.0000 0.0000 0.0000
# 3 25.7251 13.3226 101.3705 0.0000 0.0000 0.0000
# 4 0.0000 0.0000 0.0000 29.7601 0.0000 0.0000
# 5 0.0000 0.0000 0.0000 0.0000 34.7390 0.0000
# 6 0.0000 0.0000 0.0000 0.0000 0.0000 39.8200
#
#
#
# Elastic Compliance Matrix: (Units=1/GPa)
#
#
# Indices 1 2 3 4 5 6 
#
# 1 0.011804 -0.003597 -0.002523 0.000000 0.000000 0.000000
# 2 -0.003597 0.010988 -0.000531 0.000000 0.000000 0.000000
# 3 -0.002523 -0.000531 0.010575 0.000000 0.000000 0.000000
# 4 0.000000 0.000000 0.000000 0.033602 0.000000 0.000000
# 5 0.000000 0.000000 0.000000 0.000000 0.028786 0.000000
# 6 0.000000 0.000000 0.000000 0.000000 0.000000 0.025113
#
#
# Mechanical properties :
#
#
# Convention : Reuss Voigt Hill
#
# Bulk Modulus (GPa) = 49.84036 50.14798 49.99417
# Shear Modulus (GPa) = 35.49660 36.30475 35.90068
#
# Velocity S-wave (km/s) = 3.65339 3.69474 3.67412
# Velocity P-wave (km/s) = 6.04459 6.08752 6.06609
#
# Compressibility (1/GPa) = 0.02006406
#
# Stress axis : x y z
#
# Youngs Moduli (GPa) = 84.71731 91.00851 94.56435
#
# Poissons Ratio (x) = 0.32740 0.23856
# Poissons Ratio (y) = 0.30477 0.05023
# Poissons Ratio (z) = 0.21372 0.04834
#
# Static dielectric constant tensor:
#      x y z
#    x 2.292310 0.000000 0.000000 
#    y 0.000000 2.174100 0.000000 
#    z 0.000000 0.000000 2.250540 
# 
# From -- ./inp_files/6484.got.cif
#   From: 2010.05.17/outbox.cif.g08.bks.cpg/sg33_4_cif.got.tgz:6484.got - 2010.06.03 17:15:25.
