data_PCOD9346874
_publ_section_title
;
Structure prediction by ZEFSAII (Michael W. Deem and Ramdas Pophale) SiO2 
 PCOD9346874
Probable space group: P N A 21
;
_chemical_formula_sum "Si O2"
_cell_formula_units_Z 28
_cell_length_a 11.483463
_cell_length_b 8.780373
_cell_length_c 11.397336
_cell_angle_alpha 90.000000
_cell_angle_beta 90.000000
_cell_angle_gamma 90.000000
_cell_volume 1149.183000
_symmetry_space_group_name_H-M "P N A 21"
_symmetry_group_IT_number 33
_symmetry_cell_setting 'orthorhombic'
loop_
_space_group_symop_operation_xyz
x,y,z
-x,-y,1/2+z
1/2-x,1/2+y,1/2+z
1/2+x,1/2-y,z
loop_
_atom_site_type_symbol
_atom_site_label
_atom_site_fract_x
_atom_site_fract_y
_atom_site_fract_z
Si Si1 0.146034 0.008196 0.604240
Si Si2 0.258565 0.258428 0.946927
Si Si3 0.771904 0.530305 0.832509
Si Si4 0.749551 0.549583 0.213269
Si Si5 0.576191 0.342591 0.096648
Si Si6 0.516475 0.011418 0.148972
Si Si7 0.680451 0.774727 0.010239
O O1 0.207839 0.853369 0.560933
O O2 0.181325 0.039212 0.737611
O O3 0.011615 0.981702 0.589925
O O4 0.199717 0.131545 0.519091
O O5 0.271197 0.371646 0.838484
O O6 0.314828 0.093784 0.928014
O O7 0.129136 0.198697 0.970895
O O8 0.887571 0.533678 0.752352
O O9 0.701805 0.669974 0.894334
O O10 0.677759 0.393510 0.187800
O O11 0.692445 0.660926 0.118371
O O12 0.888606 0.541678 0.189880
O O13 0.505405 0.189696 0.120257
O O14 0.578012 0.897947 0.049622
#
# Coordination Sequence:
#
# PCOD9346874 Si02
#       7
#     4   4   4   4   4   4   4
#     4  11  27  49  73 111 150 197 260 315 381 465
#     4  12  25  48  77 110 152 196 253 317 390 463
#     4  11  25  51  74 113 149 197 258 313 387 466
#     4  12  28  48  79 114 154 205 253 322 399 451
#     4  12  27  49  74 112 154 203 258 311 387 466
#     4  11  27  49  74 111 159 194 261 319 377 467
#     4  11  25  48  77 111 152 198 261 317 385 458
#
# _framework density 24.365137000000001
#
# number of rings (size 3 to 8) (size 9 to 14) (size 15 to 20)
#    0.000    0.571    7.143    0.857    6.000    1.143 
#    2.571    0.000    0.000    0.000    0.000    0.000 
#    0.000    0.000    0.000    0.000    0.000    0.000 
#
# Total GULP energy -155976.898842 kJ/mol
# GULP energy per Si atom -5570.603530 kJ/mol
# Density = 2.430968 g / cm^3
# Si number density = 24.365137 Si / 1000 Ang^3
#
#
#
# Elastic Constant Matrix: (Units=GPa)
#
#
# Indices 1 2 3 4 5 6 
#
# 1 87.2194 29.3666 -13.7043 0.0000 0.0000 0.0000
# 2 29.3666 100.8777 11.9948 0.0000 0.0000 0.0000
# 3 -13.7043 11.9948 44.1250 0.0000 0.0000 0.0000
# 4 0.0000 0.0000 0.0000 30.7869 0.0000 0.0000
# 5 0.0000 0.0000 0.0000 0.0000 9.8372 0.0000
# 6 0.0000 0.0000 0.0000 0.0000 0.0000 27.3958
#
#
#
# Elastic Compliance Matrix: (Units=1/GPa)
#
#
# Indices 1 2 3 4 5 6 
#
# 1 0.013938 -0.004725 0.005613 0.000000 0.000000 0.000000
# 2 -0.004725 0.011846 -0.004688 0.000000 0.000000 0.000000
# 3 0.005613 -0.004688 0.025681 0.000000 0.000000 0.000000
# 4 0.000000 0.000000 0.000000 0.032481 0.000000 0.000000
# 5 0.000000 0.000000 0.000000 0.000000 0.101655 0.000000
# 6 0.000000 0.000000 0.000000 0.000000 0.000000 0.036502
#
#
# Mechanical properties :
#
#
# Convention : Reuss Voigt Hill
#
# Bulk Modulus (GPa) = 22.79668 31.94848 27.37258
# Shear Modulus (GPa) = 20.46467 27.24163 23.85315
#
# Velocity S-wave (km/s) = 2.90127 3.34736 3.13227
# Velocity P-wave (km/s) = 4.53870 5.29912 4.93358
#
# Compressibility (1/GPa) = 0.04386604
#
# Stress axis : x y z
#
# Youngs Moduli (GPa) = 71.74501 84.41752 38.94000
#
# Poissons Ratio (x) = 0.39888 -0.21858
# Poissons Ratio (y) = 0.33900 0.18254
# Poissons Ratio (z) = -0.40273 0.39572
#
# Static dielectric constant tensor:
#      x y z
#    x 2.015000 0.000000 0.000000 
#    y 0.000000 2.219520 0.000000 
#    z 0.000000 0.000000 2.024240 
# 
# From -- ./inp_files/6340.got.cif
#   From: 2010.05.17/outbox.cif.g08.bks.cpg/sg33_4_cif.got.tgz:6340.got - 2010.06.03 17:15:25.
