data_PCOD9346988
_publ_section_title
;
Structure prediction by ZEFSAII (Michael W. Deem and Ramdas Pophale) SiO2 
 PCOD9346988
Probable space group: P N A 21
;
_chemical_formula_sum "Si O2"
_cell_formula_units_Z 28
_cell_length_a 15.697731
_cell_length_b 6.408305
_cell_length_c 11.554718
_cell_angle_alpha 90.000000
_cell_angle_beta 90.000000
_cell_angle_gamma 90.000000
_cell_volume 1162.356656
_symmetry_space_group_name_H-M "P N A 21"
_symmetry_group_IT_number 33
_symmetry_cell_setting 'orthorhombic'
loop_
_space_group_symop_operation_xyz
x,y,z
-x,-y,1/2+z
1/2-x,1/2+y,1/2+z
1/2+x,1/2-y,z
loop_
_atom_site_type_symbol
_atom_site_label
_atom_site_fract_x
_atom_site_fract_y
_atom_site_fract_z
Si Si1 0.610268 0.432042 0.226070
Si Si2 0.542759 0.686843 0.437498
Si Si3 0.166873 0.984264 0.616337
Si Si4 0.994144 0.549113 0.623150
Si Si5 0.164625 0.737290 0.046621
Si Si6 0.782204 0.319176 0.303506
Si Si7 0.606852 0.199120 0.804867
O O1 0.573842 0.610449 0.311646
O O2 0.543460 0.269329 0.171875
O O3 0.658755 0.559040 0.125952
O O4 0.680783 0.303031 0.297471
O O5 0.593969 0.530471 0.520088
O O6 0.554285 0.901016 0.511574
O O7 0.441730 0.708815 0.415179
O O8 0.253078 0.094478 0.574047
O O9 0.131308 0.121609 0.719011
O O10 0.186768 0.766279 0.680040
O O11 0.919022 0.398973 0.577244
O O12 0.042511 0.448738 0.731913
O O13 0.174802 0.795019 0.912040
O O14 0.811028 0.556960 0.326907
#
# Coordination Sequence:
#
# PCOD9346988 Si02
#       7
#     4   4   4   4   4   4   4
#     4  12  27  49  73 108 147 199 247 302 373 446
#     4  12  26  46  76 108 150 188 242 308 374 438
#     4  12  27  49  73 108 147 199 247 302 373 446
#     4  12  27  46  73 109 149 191 245 305 374 438
#     4  12  26  47  75 107 148 195 247 307 371 441
#     4  12  26  47  75 107 148 195 247 307 371 441
#     4  12  27  46  73 109 149 191 245 305 374 438
#
# _framework density 24.088989000000002
#
# number of rings (size 3 to 8) (size 9 to 14) (size 15 to 20)
#    0.000    0.000    8.571    0.857    2.000    1.143 
#    7.714    0.000    0.000    0.000    0.000    0.000 
#    0.000    0.000    0.000    0.000    0.000    0.000 
#
# Total GULP energy -156416.242728 kJ/mol
# GULP energy per Si atom -5586.294383 kJ/mol
# Density = 2.403416 g / cm^3
# Si number density = 24.088989 Si / 1000 Ang^3
#
#
#
# Elastic Constant Matrix: (Units=GPa)
#
#
# Indices 1 2 3 4 5 6 
#
# 1 58.5128 23.4411 12.0254 0.0000 0.0000 0.0000
# 2 23.4411 60.7816 20.2274 0.0000 0.0000 0.0000
# 3 12.0254 20.2274 100.0368 0.0000 0.0000 0.0000
# 4 0.0000 0.0000 0.0000 32.8655 0.0000 0.0000
# 5 0.0000 0.0000 0.0000 0.0000 46.3506 0.0000
# 6 0.0000 0.0000 0.0000 0.0000 0.0000 40.8291
#
#
#
# Elastic Compliance Matrix: (Units=1/GPa)
#
#
# Indices 1 2 3 4 5 6 
#
# 1 0.020292 -0.007520 -0.000919 0.000000 0.000000 0.000000
# 2 -0.007520 0.020426 -0.003226 0.000000 0.000000 0.000000
# 3 -0.000919 -0.003226 0.010759 0.000000 0.000000 0.000000
# 4 0.000000 0.000000 0.000000 0.030427 0.000000 0.000000
# 5 0.000000 0.000000 0.000000 0.000000 0.021575 0.000000
# 6 0.000000 0.000000 0.000000 0.000000 0.000000 0.024492
#
#
# Mechanical properties :
#
#
# Convention : Reuss Voigt Hill
#
# Bulk Modulus (GPa) = 35.52757 36.74657 36.13707
# Shear Modulus (GPa) = 31.11713 34.91820 33.01766
#
# Velocity S-wave (km/s) = 3.59800 3.81143 3.70625
# Velocity P-wave (km/s) = 5.66050 5.88701 5.77487
#
# Compressibility (1/GPa) = 0.02814716
#
# Stress axis : x y z
#
# Youngs Moduli (GPa) = 49.28119 48.95686 92.94459
#
# Poissons Ratio (x) = 0.36816 0.08539
# Poissons Ratio (y) = 0.37059 0.29986
# Poissons Ratio (z) = 0.04528 0.15794
#
# Static dielectric constant tensor:
#      x y z
#    x 1.967440 0.000000 0.000000 
#    y 0.000000 1.946420 0.000000 
#    z 0.000000 0.000000 1.934610 
# 
# From -- ./inp_files/6931.got.cif
#   From: 2010.05.17/outbox.cif.g08.bks.cpg/sg33_4_cif.got.tgz:6931.got - 2010.06.03 17:15:25.
