data_PCOD9346778
_publ_section_title
;
Structure prediction by ZEFSAII (Michael W. Deem and Ramdas Pophale) SiO2 
 PCOD9346778
Probable space group: P N A 21
;
_chemical_formula_sum "Si O2"
_cell_formula_units_Z 32
_cell_length_a 10.433794
_cell_length_b 5.373804
_cell_length_c 22.249416
_cell_angle_alpha 90.000000
_cell_angle_beta 90.000000
_cell_angle_gamma 90.000000
_cell_volume 1247.506153
_symmetry_space_group_name_H-M "P N A 21"
_symmetry_group_IT_number 33
_symmetry_cell_setting 'orthorhombic'
loop_
_space_group_symop_operation_xyz
x,y,z
-x,-y,1/2+z
1/2-x,1/2+y,1/2+z
1/2+x,1/2-y,z
loop_
_atom_site_type_symbol
_atom_site_label
_atom_site_fract_x
_atom_site_fract_y
_atom_site_fract_z
Si Si1 0.646820 0.779202 0.329220
Si Si2 0.054718 0.778899 0.120355
Si Si3 0.251172 0.866727 0.451049
Si Si4 0.271604 0.616750 0.560799
Si Si5 0.730528 0.769296 0.779362
Si Si6 0.550850 0.909448 0.878395
Si Si7 0.579012 0.256869 0.497233
Si Si8 0.303561 0.471584 0.155551
O O1 0.722514 0.786986 0.392079
O O2 0.693059 0.527919 0.294976
O O3 0.682712 0.030921 0.295091
O O4 0.500443 0.827435 0.350862
O O5 0.163240 0.601789 0.148969
O O6 0.129179 0.037785 0.111686
O O7 0.920449 0.827304 0.154397
O O8 0.025846 0.723352 0.049665
O O9 0.334116 0.744322 0.502855
O O10 0.325665 0.091689 0.421354
O O11 0.124141 0.962879 0.483185
O O12 0.194622 0.392247 0.529625
O O13 0.180001 0.804431 0.596383
O O14 0.602901 0.765004 0.820695
O O15 0.690270 0.713649 0.711578
O O16 0.450439 0.828102 0.929122
#
# Coordination Sequence:
#
# PCOD9346778 Si02
#       8
#     4   4   4   4   4   4   4   4
#     4  11  26  50  79 117 163 219 282 353 433 512
#     4  12  28  50  84 120 175 223 292 365 446 521
#     4  11  25  43  71 119 166 208 272 344 439 523
#     4  12  25  46  78 121 162 218 278 355 441 525
#     4  11  30  55  79 121 166 228 301 358 427 522
#     4  11  24  46  82 115 168 221 279 355 441 518
#     4  12  24  46  75 123 168 219 275 360 444 532
#     4  12  30  56  84 120 168 236 299 364 439 527
#
# _framework density 25.651177000000001
#
# number of rings (size 3 to 8) (size 9 to 14) (size 15 to 20)
#    0.000    0.500    3.750    3.000    8.750    4.000 
#    6.750    0.000    0.000    0.000    0.000    0.000 
#    0.000    0.000    0.000    0.000    0.000    0.000 
#
# Total GULP energy -178519.916625 kJ/mol
# GULP energy per Si atom -5578.747395 kJ/mol
# Density = 2.559279 g / cm^3
# Si number density = 25.651177 Si / 1000 Ang^3
#
#
#
# Elastic Constant Matrix: (Units=GPa)
#
#
# Indices 1 2 3 4 5 6 
#
# 1 121.5225 31.8974 38.1359 0.0000 0.0000 0.0000
# 2 31.8974 86.0070 40.1354 0.0000 0.0000 0.0000
# 3 38.1359 40.1354 170.7900 0.0000 0.0000 0.0000
# 4 0.0000 0.0000 0.0000 40.1710 0.0000 0.0000
# 5 0.0000 0.0000 0.0000 0.0000 22.4849 0.0000
# 6 0.0000 0.0000 0.0000 0.0000 0.0000 24.8042
#
#
#
# Elastic Compliance Matrix: (Units=1/GPa)
#
#
# Indices 1 2 3 4 5 6 
#
# 1 0.009422 -0.002822 -0.001441 0.000000 0.000000 0.000000
# 2 -0.002822 0.013904 -0.002637 0.000000 0.000000 0.000000
# 3 -0.001441 -0.002637 0.006797 0.000000 0.000000 0.000000
# 4 0.000000 0.000000 0.000000 0.024894 0.000000 0.000000
# 5 0.000000 0.000000 0.000000 0.000000 0.044474 0.000000
# 6 0.000000 0.000000 0.000000 0.000000 0.000000 0.040316
#
#
# Mechanical properties :
#
#
# Convention : Reuss Voigt Hill
#
# Bulk Modulus (GPa) = 61.26440 66.51744 63.89092
# Shear Modulus (GPa) = 31.43727 35.36876 33.40301
#
# Velocity S-wave (km/s) = 3.50461 3.71730 3.61252
# Velocity P-wave (km/s) = 6.34916 6.66425 6.50861
#
# Compressibility (1/GPa) = 0.01632269
#
# Stress axis : x y z
#
# Youngs Moduli (GPa) = 106.13749 71.92030 147.13231
#
# Poissons Ratio (x) = 0.20296 0.21196
# Poissons Ratio (y) = 0.29952 0.38804
# Poissons Ratio (z) = 0.15291 0.18968
#
# Static dielectric constant tensor:
#      x y z
#    x 2.184240 0.000000 0.000000 
#    y 0.000000 2.142890 0.000000 
#    z 0.000000 0.000000 2.026440 
# 
# From -- ./inp_files/9296.got.cif
#   From: 2010.05.17/outbox.cif.g08.bks.cpg/sg33_5_cif.got.tgz:9296.got - 2010.06.03 17:15:25.
