data_PCOD9346672
_publ_section_title
;
Structure prediction by ZEFSAII (Michael W. Deem and Ramdas Pophale) SiO2 
 PCOD9346672
Probable space group: P N A 21
;
_chemical_formula_sum "Si O2"
_cell_formula_units_Z 28
_cell_length_a 16.436097
_cell_length_b 12.679551
_cell_length_c 6.012471
_cell_angle_alpha 90.000000
_cell_angle_beta 90.000000
_cell_angle_gamma 90.000000
_cell_volume 1253.012966
_symmetry_space_group_name_H-M "P N A 21"
_symmetry_group_IT_number 33
_symmetry_cell_setting 'orthorhombic'
loop_
_space_group_symop_operation_xyz
x,y,z
-x,-y,1/2+z
1/2-x,1/2+y,1/2+z
1/2+x,1/2-y,z
loop_
_atom_site_type_symbol
_atom_site_label
_atom_site_fract_x
_atom_site_fract_y
_atom_site_fract_z
Si Si1 0.000014 0.945695 0.558820
Si Si2 0.417974 0.895006 0.934906
Si Si3 0.285440 0.126648 0.321853
Si Si4 0.126416 0.777187 0.466499
Si Si5 0.373674 0.722767 0.651724
Si Si6 0.082185 0.604854 0.183416
Si Si7 0.714451 0.126731 0.796418
O O1 0.079643 0.871851 0.583556
O O2 0.920406 0.871803 0.534212
O O3 0.008497 0.999983 0.308806
O O4 0.437713 0.794597 0.783909
O O5 0.390232 0.999914 0.809216
O O6 0.500106 0.926268 0.058956
O O7 0.343986 0.857280 0.087290
O O8 0.194328 0.170751 0.311129
O O9 0.343735 0.142521 0.531308
O O10 0.282550 0.999961 0.308927
O O11 0.329583 0.191626 0.124504
O O12 0.062419 0.705264 0.334380
O O13 0.194455 0.829097 0.307043
O O14 0.329630 0.808439 0.494083
#
# Coordination Sequence:
#
# PCOD9346672 Si02
#       7
#     4   4   4   4   4   4   4
#     4  12  30  54  76 112 152 202 258 312 382 464
#     4  12  25  42  73 107 148 191 246 314 381 456
#     4  11  23  47  70 107 144 194 252 305 378 449
#     4  11  26  47  74 103 147 197 245 312 378 453
#     4  11  26  47  74 103 147 197 245 312 378 453
#     4  12  25  42  73 107 148 191 246 314 381 456
#     4  11  23  47  70 107 144 194 252 305 378 449
#
# _framework density 22.346138
#
# number of rings (size 3 to 8) (size 9 to 14) (size 15 to 20)
#    0.000    0.571    2.857    4.286    8.000    0.000 
#   10.286    0.000    0.000    0.000    0.000    0.000 
#    0.000    0.000    0.000    0.000    0.000    0.000 
#
# Total GULP energy -156188.189320 kJ/mol
# GULP energy per Si atom -5578.149619 kJ/mol
# Density = 2.229528 g / cm^3
# Si number density = 22.346138 Si / 1000 Ang^3
#
#
#
# Elastic Constant Matrix: (Units=GPa)
#
#
# Indices 1 2 3 4 5 6 
#
# 1 86.1160 37.3140 28.2745 0.0000 0.0000 0.0000
# 2 37.3140 151.1181 65.4853 0.0000 0.0000 0.0000
# 3 28.2745 65.4853 82.1189 0.0000 0.0000 0.0000
# 4 0.0000 0.0000 0.0000 46.2231 0.0000 0.0000
# 5 0.0000 0.0000 0.0000 0.0000 37.2918 0.0000
# 6 0.0000 0.0000 0.0000 0.0000 0.0000 44.9986
#
#
#
# Elastic Compliance Matrix: (Units=1/GPa)
#
#
# Indices 1 2 3 4 5 6 
#
# 1 0.013481 -0.002013 -0.003037 0.000000 0.000000 0.000000
# 2 -0.002013 0.010412 -0.007610 0.000000 0.000000 0.000000
# 3 -0.003037 -0.007610 0.019292 0.000000 0.000000 0.000000
# 4 0.000000 0.000000 0.000000 0.021634 0.000000 0.000000
# 5 0.000000 0.000000 0.000000 0.000000 0.026816 0.000000
# 6 0.000000 0.000000 0.000000 0.000000 0.000000 0.022223
#
#
# Mechanical properties :
#
#
# Convention : Reuss Voigt Hill
#
# Bulk Modulus (GPa) = 55.97220 64.61118 60.29169
# Shear Modulus (GPa) = 34.45137 38.25465 36.35301
#
# Velocity S-wave (km/s) = 3.93073 4.14202 4.03775
# Velocity P-wave (km/s) = 6.76040 7.20081 6.98408
#
# Compressibility (1/GPa) = 0.01786601
#
# Stress axis : x y z
#
# Youngs Moduli (GPa) = 74.17595 96.04238 51.83622
#
# Poissons Ratio (x) = 0.19333 0.15741
# Poissons Ratio (y) = 0.14931 0.39447
# Poissons Ratio (z) = 0.22524 0.73088
#
# Static dielectric constant tensor:
#      x y z
#    x 1.776170 0.000000 0.000000 
#    y 0.000000 1.819160 0.000000 
#    z 0.000000 0.000000 1.992030 
# 
# From -- ./inp_files/1739.got.cif
#   From: 2010.05.17/outbox.cif.g08.bks.cpg/sg33_1_cif.got.tgz:1739.got - 2010.06.03 17:15:25.
