data_PCOD9346625
_publ_section_title
;
Structure prediction by ZEFSAII (Michael W. Deem and Ramdas Pophale) SiO2 
 PCOD9346625
Probable space group: P N A 21
;
_chemical_formula_sum "Si O2"
_cell_formula_units_Z 28
_cell_length_a 23.439370
_cell_length_b 9.435500
_cell_length_c 5.060423
_cell_angle_alpha 90.000000
_cell_angle_beta 90.000000
_cell_angle_gamma 90.000000
_cell_volume 1119.174160
_symmetry_space_group_name_H-M "P N A 21"
_symmetry_group_IT_number 33
_symmetry_cell_setting 'orthorhombic'
loop_
_space_group_symop_operation_xyz
x,y,z
-x,-y,1/2+z
1/2-x,1/2+y,1/2+z
1/2+x,1/2-y,z
loop_
_atom_site_type_symbol
_atom_site_label
_atom_site_fract_x
_atom_site_fract_y
_atom_site_fract_z
Si Si1 0.349554 0.518913 0.548590
Si Si2 0.033763 0.963173 0.747055
Si Si3 0.181533 0.337002 0.013895
Si Si4 0.634930 0.909016 0.346243
Si Si5 0.066524 0.402911 0.719250
Si Si6 0.189960 0.856296 0.542619
Si Si7 0.458203 0.181579 0.494305
O O1 0.410930 0.525295 0.399481
O O2 0.325718 0.676006 0.611073
O O3 0.312970 0.431712 0.327977
O O4 0.347600 0.443586 0.832751
O O5 0.042145 0.792884 0.758187
O O6 0.981929 0.995653 0.950414
O O7 0.172950 0.471165 0.208167
O O8 0.246351 0.352337 0.922103
O O9 0.127561 0.348587 0.817847
O O10 0.667881 0.806263 0.545875
O O11 0.601802 0.807707 0.142120
O O12 0.584889 0.000667 0.474801
O O13 0.016840 0.293674 0.653229
O O14 0.041103 0.516945 0.919877
#
# Coordination Sequence:
#
# PCOD9346625 Si02
#       7
#     4   4   4   4   4   4   4
#     4  12  28  51  74 111 149 194 249 305 373 442
#     4  12  27  44  74 105 149 191 237 298 371 439
#     4  11  29  45  74 109 141 197 252 311 366 440
#     4  11  25  47  75 107 146 198 248 304 378 444
#     4  11  24  42  73 106 146 186 247 306 373 442
#     4  12  28  50  76 104 152 198 248 308 372 446
#     4  11  23  43  70 106 143 190 241 304 371 449
#
# _framework density 25.018446999999998
#
# number of rings (size 3 to 8) (size 9 to 14) (size 15 to 20)
#    0.000    0.571    2.857    3.429   12.000    0.000 
#    0.000    0.000    0.000    0.000    0.000    0.000 
#    0.000    0.000    0.000    0.000    0.000    0.000 
#
# Total GULP energy -156546.891650 kJ/mol
# GULP energy per Si atom -5590.960416 kJ/mol
# Density = 2.496150 g / cm^3
# Si number density = 25.018447 Si / 1000 Ang^3
#
#
#
# Elastic Constant Matrix: (Units=GPa)
#
#
# Indices 1 2 3 4 5 6 
#
# 1 118.2434 14.8089 -2.1456 0.0000 0.0000 0.0000
# 2 14.8089 101.5498 16.4462 0.0000 0.0000 0.0000
# 3 -2.1456 16.4462 79.5494 0.0000 0.0000 0.0000
# 4 0.0000 0.0000 0.0000 25.5969 0.0000 0.0000
# 5 0.0000 0.0000 0.0000 0.0000 22.0394 0.0000
# 6 0.0000 0.0000 0.0000 0.0000 0.0000 21.3114
#
#
#
# Elastic Compliance Matrix: (Units=1/GPa)
#
#
# Indices 1 2 3 4 5 6 
#
# 1 0.008634 -0.001342 0.000510 0.000000 0.000000 0.000000
# 2 -0.001342 0.010397 -0.002186 0.000000 0.000000 0.000000
# 3 0.000510 -0.002186 0.013036 0.000000 0.000000 0.000000
# 4 0.000000 0.000000 0.000000 0.039067 0.000000 0.000000
# 5 0.000000 0.000000 0.000000 0.000000 0.045373 0.000000
# 6 0.000000 0.000000 0.000000 0.000000 0.000000 0.046923
#
#
# Mechanical properties :
#
#
# Convention : Reuss Voigt Hill
#
# Bulk Modulus (GPa) = 38.41199 39.72905 39.07052
# Shear Modulus (GPa) = 28.06723 31.80510 29.93616
#
# Velocity S-wave (km/s) = 3.35305 3.56935 3.46289
# Velocity P-wave (km/s) = 5.51157 5.73597 5.62489
#
# Compressibility (1/GPa) = 0.02603354
#
# Stress axis : x y z
#
# Youngs Moduli (GPa) = 115.81525 96.18123 76.70804
#
# Poissons Ratio (x) = 0.12906 -0.03914
# Poissons Ratio (y) = 0.15540 0.16766
# Poissons Ratio (z) = -0.05910 0.21022
#
# Static dielectric constant tensor:
#      x y z
#    x 2.039760 0.000000 0.000000 
#    y 0.000000 1.982670 0.000000 
#    z 0.000000 0.000000 2.051930 
# 
# From -- ./inp_files/2244.got.cif
#   From: 2010.05.17/outbox.cif.g08.bks.cpg/sg33_2_cif.got.tgz:2244.got - 2010.06.03 17:15:25.
