data_PCOD9346320
_publ_section_title
;
Structure prediction by ZEFSAII (Michael W. Deem and Ramdas Pophale) SiO2 
 PCOD9346320
Probable space group: P N A 21
;
_chemical_formula_sum "Si O2"
_cell_formula_units_Z 28
_cell_length_a 22.569742
_cell_length_b 8.735802
_cell_length_c 5.750794
_cell_angle_alpha 90.000000
_cell_angle_beta 90.000000
_cell_angle_gamma 90.000000
_cell_volume 1133.854133
_symmetry_space_group_name_H-M "P N A 21"
_symmetry_group_IT_number 33
_symmetry_cell_setting 'orthorhombic'
loop_
_space_group_symop_operation_xyz
x,y,z
-x,-y,1/2+z
1/2-x,1/2+y,1/2+z
1/2+x,1/2-y,z
loop_
_atom_site_type_symbol
_atom_site_label
_atom_site_fract_x
_atom_site_fract_y
_atom_site_fract_z
Si Si1 0.871382 0.144213 0.876960
Si Si2 0.760562 0.979170 0.800586
Si Si3 0.817092 0.669253 0.950001
Si Si4 0.024394 0.684900 0.567054
Si Si5 0.067309 0.376531 0.718066
Si Si6 0.975415 0.941077 0.806309
Si Si7 0.359064 0.068302 0.574541
O O1 0.871892 0.262642 0.663813
O O2 0.805356 0.093034 0.936826
O O3 0.907837 0.994147 0.807970
O O4 0.911633 0.230926 0.065399
O O5 0.737215 0.082641 0.584136
O O6 0.794620 0.814983 0.800798
O O7 0.700323 0.936251 0.926247
O O8 0.873194 0.706123 0.122590
O O9 0.844718 0.537738 0.792741
O O10 0.038604 0.507143 0.559180
O O11 0.984926 0.720017 0.337573
O O12 0.987612 0.760906 0.775676
O O13 0.090991 0.484102 0.929227
O O14 0.000190 0.005777 0.558156
#
# Coordination Sequence:
#
# PCOD9346320 Si02
#       7
#     4   4   4   4   4   4   4
#     4  11  23  46  72 107 142 197 246 323 380 460
#     4  11  26  45  73 106 144 195 255 317 389 463
#     4  11  26  46  73 106 150 193 255 313 390 463
#     4  11  24  44  73 108 149 198 249 315 387 472
#     4  11  25  42  72 105 148 198 245 312 383 469
#     4  10  24  45  71 106 151 196 256 314 387 460
#     4  11  24  46  70 102 144 191 254 308 386 449
#
# _framework density 24.694533
#
# number of rings (size 3 to 8) (size 9 to 14) (size 15 to 20)
#    0.000    1.143    2.857    1.714    4.000    5.714 
#    5.143    0.000    0.000    0.000    0.000    0.000 
#    0.000    0.000    0.000    0.000    0.000    0.000 
#
# Total GULP energy -156332.851397 kJ/mol
# GULP energy per Si atom -5583.316121 kJ/mol
# Density = 2.463833 g / cm^3
# Si number density = 24.694533 Si / 1000 Ang^3
#
#
#
# Elastic Constant Matrix: (Units=GPa)
#
#
# Indices 1 2 3 4 5 6 
#
# 1 106.8570 45.3858 14.2749 0.0000 0.0000 0.0000
# 2 45.3858 130.4037 42.8158 0.0000 0.0000 0.0000
# 3 14.2749 42.8158 51.5902 0.0000 0.0000 0.0000
# 4 0.0000 0.0000 0.0000 40.3866 0.0000 0.0000
# 5 0.0000 0.0000 0.0000 0.0000 15.9471 0.0000
# 6 0.0000 0.0000 0.0000 0.0000 0.0000 33.6328
#
#
#
# Elastic Compliance Matrix: (Units=1/GPa)
#
#
# Indices 1 2 3 4 5 6 
#
# 1 0.010983 -0.003883 0.000183 0.000000 0.000000 0.000000
# 2 -0.003883 0.011913 -0.008813 0.000000 0.000000 0.000000
# 3 0.000183 -0.008813 0.026647 0.000000 0.000000 0.000000
# 4 0.000000 0.000000 0.000000 0.024761 0.000000 0.000000
# 5 0.000000 0.000000 0.000000 0.000000 0.062707 0.000000
# 6 0.000000 0.000000 0.000000 0.000000 0.000000 0.029733
#
#
# Mechanical properties :
#
#
# Convention : Reuss Voigt Hill
#
# Bulk Modulus (GPa) = 40.78511 54.86711 47.82611
# Shear Modulus (GPa) = 25.00734 30.41826 27.71280
#
# Velocity S-wave (km/s) = 3.18570 3.51348 3.35360
# Velocity P-wave (km/s) = 5.48482 6.22302 5.86554
#
# Compressibility (1/GPa) = 0.02451875
#
# Stress axis : x y z
#
# Youngs Moduli (GPa) = 91.05037 83.93922 37.52804
#
# Poissons Ratio (x) = 0.32591 -0.00688
# Poissons Ratio (y) = 0.35352 0.33073
# Poissons Ratio (z) = -0.01670 0.73974
#
# Static dielectric constant tensor:
#      x y z
#    x 1.958760 0.000000 0.000000 
#    y 0.000000 2.054030 0.000000 
#    z 0.000000 0.000000 2.043580 
# 
# From -- ./inp_files/2256.got.cif
#   From: 2010.05.17/outbox.cif.g08.bks.cpg/sg33_2_cif.got.tgz:2256.got - 2010.06.03 17:15:25.
