data_PCOD9346497
_publ_section_title
;
Structure prediction by ZEFSAII (Michael W. Deem and Ramdas Pophale) SiO2 
 PCOD9346497
Probable space group: P N A 21
;
_chemical_formula_sum "Si O2"
_cell_formula_units_Z 32
_cell_length_a 8.823763
_cell_length_b 11.735557
_cell_length_c 15.168800
_cell_angle_alpha 90.000000
_cell_angle_beta 90.000000
_cell_angle_gamma 90.000000
_cell_volume 1570.756144
_symmetry_space_group_name_H-M "P N A 21"
_symmetry_group_IT_number 33
_symmetry_cell_setting 'orthorhombic'
loop_
_space_group_symop_operation_xyz
x,y,z
-x,-y,1/2+z
1/2-x,1/2+y,1/2+z
1/2+x,1/2-y,z
loop_
_atom_site_type_symbol
_atom_site_label
_atom_site_fract_x
_atom_site_fract_y
_atom_site_fract_z
Si Si1 0.124460 0.940343 0.905980
Si Si2 0.238152 0.797370 0.283498
Si Si3 0.836882 0.689668 0.485591
Si Si4 0.374450 0.887501 0.122957
Si Si5 0.165019 0.595053 0.511135
Si Si6 0.360500 0.518369 0.038725
Si Si7 0.150039 0.731815 0.020238
Si Si8 0.919439 0.917174 0.238536
O O1 0.122648 0.806748 0.932391
O O2 0.278026 0.003455 0.938481
O O3 0.093384 0.978112 0.806544
O O4 0.995584 0.993622 0.969306
O O5 0.274820 0.806550 0.386021
O O6 0.359583 0.869897 0.226512
O O7 0.276782 0.668126 0.253759
O O8 0.071037 0.845916 0.263430
O O9 0.794366 0.811509 0.525986
O O10 0.748033 0.590195 0.536035
O O11 0.013700 0.661154 0.484091
O O12 0.225949 0.824182 0.084809
O O13 0.508291 0.822557 0.071480
O O14 0.371416 0.018006 0.095407
O O15 0.417783 0.544159 0.137296
O O16 0.264626 0.628123 0.007101
#
# Coordination Sequence:
#
# PCOD9346497 Si02
#       8
#     4   4   4   4   4   4   4   4
#     4  11  23  43  66 101 138 175 225 284 347 406
#     4  12  23  40  65 103 129 169 232 291 326 404
#     4  12  24  42  66  97 140 178 220 278 354 402
#     4  11  22  39  67  99 129 170 227 277 336 390
#     4  11  24  41  66  98 136 180 218 276 346 410
#     4  12  24  43  69  98 138 180 229 282 348 405
#     4  11  21  40  68  95 134 173 220 283 335 399
#     4  12  25  40  69 103 134 183 231 289 342 408
#
# _framework density 20.372353
#
# number of rings (size 3 to 8) (size 9 to 14) (size 15 to 20)
#    0.000    0.500    6.250    3.750    0.000    0.000 
#    0.000    1.250    2.750    0.000    0.000    0.000 
#    0.000    0.000    0.000    0.000    0.000    0.000 
#
# Total GULP energy -178845.383353 kJ/mol
# GULP energy per Si atom -5588.918230 kJ/mol
# Density = 2.032598 g / cm^3
# Si number density = 20.372353 Si / 1000 Ang^3
#
#
#
# Elastic Constant Matrix: (Units=GPa)
#
#
# Indices 1 2 3 4 5 6 
#
# 1 90.1748 33.9901 22.2337 0.0000 0.0000 0.0000
# 2 33.9901 108.1081 27.3260 0.0000 0.0000 0.0000
# 3 22.2337 27.3260 70.3399 0.0000 0.0000 0.0000
# 4 0.0000 0.0000 0.0000 29.8643 0.0000 0.0000
# 5 0.0000 0.0000 0.0000 0.0000 21.2326 0.0000
# 6 0.0000 0.0000 0.0000 0.0000 0.0000 38.3555
#
#
#
# Elastic Compliance Matrix: (Units=1/GPa)
#
#
# Indices 1 2 3 4 5 6 
#
# 1 0.013063 -0.003397 -0.002809 0.000000 0.000000 0.000000
# 2 -0.003397 0.011141 -0.003254 0.000000 0.000000 0.000000
# 3 -0.002809 -0.003254 0.016369 0.000000 0.000000 0.000000
# 4 0.000000 0.000000 0.000000 0.033485 0.000000 0.000000
# 5 0.000000 0.000000 0.000000 0.000000 0.047097 0.000000
# 6 0.000000 0.000000 0.000000 0.000000 0.000000 0.026072
#
#
# Mechanical properties :
#
#
# Convention : Reuss Voigt Hill
#
# Bulk Modulus (GPa) = 46.18678 48.41362 47.30020
# Shear Modulus (GPa) = 28.84103 30.22869 29.53486
#
# Velocity S-wave (km/s) = 3.76665 3.85620 3.81169
# Velocity P-wave (km/s) = 6.45271 6.60629 6.52995
#
# Compressibility (1/GPa) = 0.02165122
#
# Stress axis : x y z
#
# Youngs Moduli (GPa) = 76.55410 89.76202 61.09148
#
# Poissons Ratio (x) = 0.30491 0.17163
# Poissons Ratio (y) = 0.26005 0.19881
# Poissons Ratio (z) = 0.21507 0.29211
#
# Static dielectric constant tensor:
#      x y z
#    x 1.785820 0.000000 0.000000 
#    y 0.000000 1.738920 0.000000 
#    z 0.000000 0.000000 1.738630 
# 
# From -- ./inp_files/7668.got.cif
#   From: 2010.05.17/outbox.cif.g08.bks.cpg/sg33_4_cif.got.tgz:7668.got - 2010.06.03 17:15:25.
