data_PCOD9346805
_publ_section_title
;
Structure prediction by ZEFSAII (Michael W. Deem and Ramdas Pophale) SiO2 
 PCOD9346805
Probable space group: P N A 21
;
_chemical_formula_sum "Si O2"
_cell_formula_units_Z 24
_cell_length_a 14.005377
_cell_length_b 12.163284
_cell_length_c 5.440415
_cell_angle_alpha 90.000000
_cell_angle_beta 90.000000
_cell_angle_gamma 90.000000
_cell_volume 926.782192
_symmetry_space_group_name_H-M "P N A 21"
_symmetry_group_IT_number 33
_symmetry_cell_setting 'orthorhombic'
loop_
_space_group_symop_operation_xyz
x,y,z
-x,-y,1/2+z
1/2-x,1/2+y,1/2+z
1/2+x,1/2-y,z
loop_
_atom_site_type_symbol
_atom_site_label
_atom_site_fract_x
_atom_site_fract_y
_atom_site_fract_z
Si Si1 0.039266 0.547068 0.250000
Si Si2 0.811101 0.844773 0.676133
Si Si3 0.366661 0.423712 0.441802
Si Si4 0.461751 0.732038 0.012427
Si Si5 0.722043 0.207737 0.764304
Si Si6 0.731486 0.999748 0.054110
O O1 0.151777 0.519639 0.257019
O O2 0.004092 0.531234 0.530895
O O3 0.020311 0.664815 0.118270
O O4 0.741940 0.780672 0.490823
O O5 0.854558 0.959261 0.576373
O O6 0.896737 0.764027 0.764757
O O7 0.751801 0.889023 0.908627
O O8 0.470295 0.371949 0.476964
O O9 0.295411 0.332760 0.559341
O O10 0.327890 0.450355 0.169854
O O11 0.374251 0.726472 0.202061
O O12 0.690932 0.089427 0.868345
#
# Coordination Sequence:
#
# PCOD9346805 Si02
#       6
#     4   4   4   4   4   4
#     4  12  27  50  80 116 157 206 273 345 410 492
#     4  11  27  46  76 105 161 199 262 328 408 494
#     4  11  28  47  78 112 157 207 265 325 420 487
#     4  12  28  46  75 113 153 211 266 332 408 495
#     4  11  24  50  73 108 152 203 260 332 399 495
#     4  11  26  49  74 114 152 206 264 338 409 483
#
# _framework density 25.896052999999998
#
# number of rings (size 3 to 8) (size 9 to 14) (size 15 to 20)
#    0.000    0.667    1.667    4.000   14.000    1.333 
#    0.000    0.000    0.000    0.000    0.000    0.000 
#    0.000    0.000    0.000    0.000    0.000    0.000 
#
# Total GULP energy -134116.511737 kJ/mol
# GULP energy per Si atom -5588.187989 kJ/mol
# Density = 2.583711 g / cm^3
# Si number density = 25.896053 Si / 1000 Ang^3
#
#
#
# Elastic Constant Matrix: (Units=GPa)
#
#
# Indices 1 2 3 4 5 6 
#
# 1 65.5547 18.0091 8.3018 0.0000 0.0000 0.0000
# 2 18.0091 123.2911 22.3353 0.0000 0.0000 0.0000
# 3 8.3018 22.3353 85.6827 0.0000 0.0000 0.0000
# 4 0.0000 0.0000 0.0000 61.2984 0.0000 0.0000
# 5 0.0000 0.0000 0.0000 0.0000 31.4018 0.0000
# 6 0.0000 0.0000 0.0000 0.0000 0.0000 41.4684
#
#
#
# Elastic Compliance Matrix: (Units=1/GPa)
#
#
# Indices 1 2 3 4 5 6 
#
# 1 0.015971 -0.002154 -0.000986 0.000000 0.000000 0.000000
# 2 -0.002154 0.008803 -0.002086 0.000000 0.000000 0.000000
# 3 -0.000986 -0.002086 0.012310 0.000000 0.000000 0.000000
# 4 0.000000 0.000000 0.000000 0.016314 0.000000 0.000000
# 5 0.000000 0.000000 0.000000 0.000000 0.031845 0.000000
# 6 0.000000 0.000000 0.000000 0.000000 0.000000 0.024115
#
#
# Mechanical properties :
#
#
# Convention : Reuss Voigt Hill
#
# Bulk Modulus (GPa) = 37.54837 41.31343 39.43090
# Shear Modulus (GPa) = 38.85349 41.89254 40.37301
#
# Velocity S-wave (km/s) = 3.87765 4.02645 3.95275
# Velocity P-wave (km/s) = 5.88043 6.13226 6.00766
#
# Compressibility (1/GPa) = 0.02663231
#
# Stress axis : x y z
#
# Youngs Moduli (GPa) = 62.61302 113.59146 81.23290
#
# Poissons Ratio (x) = 0.24471 0.08009
# Poissons Ratio (y) = 0.13489 0.16946
# Poissons Ratio (z) = 0.06173 0.23696
#
# Static dielectric constant tensor:
#      x y z
#    x 2.002120 0.000000 0.000000 
#    y 0.000000 2.053100 0.000000 
#    z 0.000000 0.000000 2.203000 
# 
# From -- ./inp_files/1322.got.cif
#   From: 2010.05.17/outbox.cif.g08.bks.cpg/sg33_1_cif.got.tgz:1322.got - 2010.06.03 17:15:25.
