data_PCOD9346923
_publ_section_title
;
Structure prediction by ZEFSAII (Michael W. Deem and Ramdas Pophale) SiO2 
 PCOD9346923
Probable space group: P N A 21
;
_chemical_formula_sum "Si O2"
_cell_formula_units_Z 32
_cell_length_a 15.609795
_cell_length_b 16.242629
_cell_length_c 5.026025
_cell_angle_alpha 90.000000
_cell_angle_beta 90.000000
_cell_angle_gamma 90.000000
_cell_volume 1274.319030
_symmetry_space_group_name_H-M "P N A 21"
_symmetry_group_IT_number 33
_symmetry_cell_setting 'orthorhombic'
loop_
_space_group_symop_operation_xyz
x,y,z
-x,-y,1/2+z
1/2-x,1/2+y,1/2+z
1/2+x,1/2-y,z
loop_
_atom_site_type_symbol
_atom_site_label
_atom_site_fract_x
_atom_site_fract_y
_atom_site_fract_z
Si Si1 0.227172 0.991612 0.709530
Si Si2 0.932993 0.405333 0.045678
Si Si3 0.479593 0.659120 0.043160
Si Si4 0.784289 0.817744 0.209875
Si Si5 0.677716 0.063553 0.695708
Si Si6 0.805415 0.257239 0.192830
Si Si7 0.976835 0.650798 0.031222
Si Si8 0.425404 0.397533 0.057726
O O1 0.288087 0.949821 0.490137
O O2 0.129809 0.978688 0.612655
O O3 0.249510 0.087829 0.730081
O O4 0.244030 0.948298 0.991634
O O5 0.886966 0.489567 0.118911
O O6 0.856541 0.174465 0.127046
O O7 0.012905 0.389785 0.242872
O O8 0.963781 0.395838 0.744722
O O9 0.381348 0.667941 0.122939
O O10 0.507105 0.755025 0.021310
O O11 0.536827 0.615540 0.267089
O O12 0.497718 0.614764 0.765383
O O13 0.630863 0.831732 0.621135
O O14 0.729020 0.769681 0.989358
O O15 0.620411 0.142868 0.634674
O O16 0.726952 0.271883 0.989665
#
# Coordination Sequence:
#
# PCOD9346923 Si02
#       8
#     4   4   4   4   4   4   4   4
#     4  12  26  45  67  99 132 177 221 278 324 387
#     4  12  21  43  68  94 137 175 211 267 337 403
#     4  12  26  45  67  98 130 177 224 275 321 390
#     4  12  26  45  72  97 132 175 226 269 330 386
#     4  12  25  41  66 101 136 170 219 270 332 399
#     4  12  23  44  72  96 133 174 218 273 327 395
#     4  12  24  40  63 101 134 172 217 270 329 403
#     4  12  27  45  69  98 136 174 222 272 336 381
#
# _framework density 25.111450999999999
#
# number of rings (size 3 to 8) (size 9 to 14) (size 15 to 20)
#    0.000    0.000    5.000    5.250    3.500    1.000 
#    0.000    0.000    0.000    0.000    0.000    0.000 
#    0.000    0.000    0.000    0.000    0.000    0.000 
#
# Total GULP energy -179565.182814 kJ/mol
# GULP energy per Si atom -5611.411963 kJ/mol
# Density = 2.505430 g / cm^3
# Si number density = 25.111451 Si / 1000 Ang^3
#
#
#
# Elastic Constant Matrix: (Units=GPa)
#
#
# Indices 1 2 3 4 5 6 
#
# 1 71.0403 1.1286 -18.5515 0.0000 0.0000 0.0000
# 2 1.1286 64.9484 5.7283 0.0000 0.0000 0.0000
# 3 -18.5515 5.7283 69.2217 0.0000 0.0000 0.0000
# 4 0.0000 0.0000 0.0000 23.4720 0.0000 0.0000
# 5 0.0000 0.0000 0.0000 0.0000 50.3763 0.0000
# 6 0.0000 0.0000 0.0000 0.0000 0.0000 49.2928
#
#
#
# Elastic Compliance Matrix: (Units=1/GPa)
#
#
# Indices 1 2 3 4 5 6 
#
# 1 0.015161 -0.000626 0.004115 0.000000 0.000000 0.000000
# 2 -0.000626 0.015536 -0.001454 0.000000 0.000000 0.000000
# 3 0.004115 -0.001454 0.015669 0.000000 0.000000 0.000000
# 4 0.000000 0.000000 0.000000 0.042604 0.000000 0.000000
# 5 0.000000 0.000000 0.000000 0.000000 0.019851 0.000000
# 6 0.000000 0.000000 0.000000 0.000000 0.000000 0.020287
#
#
# Mechanical properties :
#
#
# Convention : Reuss Voigt Hill
#
# Bulk Modulus (GPa) = 19.82686 20.20238 20.01462
# Shear Modulus (GPa) = 35.24850 39.08855 37.16852
#
# Velocity S-wave (km/s) = 3.75064 3.94966 3.85144
# Velocity P-wave (km/s) = 5.16421 5.37237 5.26932
#
# Compressibility (1/GPa) = 0.05043662
#
# Stress axis : x y z
#
# Youngs Moduli (GPa) = 65.95841 64.36694 63.81846
#
# Poissons Ratio (x) = 0.04032 -0.26261
# Poissons Ratio (y) = 0.04132 0.09276
# Poissons Ratio (z) = -0.27142 0.09356
#
# Static dielectric constant tensor:
#      x y z
#    x 1.997700 0.000000 0.000000 
#    y 0.000000 2.033880 0.000000 
#    z 0.000000 0.000000 1.901200 
# 
# From -- ./inp_files/1509.got.cif
#   From: 2010.05.17/outbox.cif.g08.bks.cpg/sg33_1_cif.got.tgz:1509.got - 2010.06.03 17:15:25.
