data_PCOD9346715
_publ_section_title
;
Structure prediction by ZEFSAII (Michael W. Deem and Ramdas Pophale) SiO2 
 PCOD9346715
Probable space group: P N A 21
;
_chemical_formula_sum "Si O2"
_cell_formula_units_Z 20
_cell_length_a 11.478311
_cell_length_b 11.760880
_cell_length_c 7.487771
_cell_angle_alpha 90.000000
_cell_angle_beta 90.000000
_cell_angle_gamma 90.000000
_cell_volume 1010.811933
_symmetry_space_group_name_H-M "P N A 21"
_symmetry_group_IT_number 33
_symmetry_cell_setting 'orthorhombic'
loop_
_space_group_symop_operation_xyz
x,y,z
-x,-y,1/2+z
1/2-x,1/2+y,1/2+z
1/2+x,1/2-y,z
loop_
_atom_site_type_symbol
_atom_site_label
_atom_site_fract_x
_atom_site_fract_y
_atom_site_fract_z
Si Si1 0.835676 0.544798 0.493560
Si Si2 0.576976 0.892492 0.309420
Si Si3 0.477430 0.659067 0.180490
Si Si4 0.613545 0.436901 0.315334
Si Si5 0.293405 0.695853 0.485436
O O1 0.865840 0.482775 0.677322
O O2 0.740366 0.473533 0.386232
O O3 0.783970 0.670540 0.522485
O O4 0.955846 0.561439 0.386327
O O5 0.551004 0.774266 0.205960
O O6 0.667912 0.861907 0.465200
O O7 0.543741 0.550702 0.263293
O O8 0.360917 0.678412 0.297833
O O9 0.448510 0.630075 0.976243
O O10 0.630583 0.361183 0.140054
#
# Coordination Sequence:
#
# PCOD9346715 Si02
#       5
#     4   4   4   4   4
#     4  11  25  44  69 101 135 179 222 279 338 397
#     4  11  24  46  66 102 140 172 224 286 329 406
#     4  11  24  43  69  99 134 176 227 277 334 400
#     4  12  23  45  71  98 132 182 224 277 338 400
#     4  11  24  44  69  98 137 173 227 277 335 405
#
# _framework density 19.786073999999999
#
# number of rings (size 3 to 8) (size 9 to 14) (size 15 to 20)
#    0.000    0.800    6.000    1.200    2.800    0.000 
#    7.200    0.000    0.000    0.000    0.000    0.000 
#    0.000    0.000    0.000    0.000    0.000    0.000 
#
# Total GULP energy -111851.162046 kJ/mol
# GULP energy per Si atom -5592.558102 kJ/mol
# Density = 1.974104 g / cm^3
# Si number density = 19.786074 Si / 1000 Ang^3
#
#
#
# Elastic Constant Matrix: (Units=GPa)
#
#
# Indices 1 2 3 4 5 6 
#
# 1 45.9423 -12.6052 15.2157 0.0000 0.0000 0.0000
# 2 -12.6052 55.6319 40.9989 0.0000 0.0000 0.0000
# 3 15.2157 40.9989 86.6718 0.0000 0.0000 0.0000
# 4 0.0000 0.0000 0.0000 30.9472 0.0000 0.0000
# 5 0.0000 0.0000 0.0000 0.0000 32.6309 0.0000
# 6 0.0000 0.0000 0.0000 0.0000 0.0000 24.3489
#
#
#
# Elastic Compliance Matrix: (Units=1/GPa)
#
#
# Indices 1 2 3 4 5 6 
#
# 1 0.030817 0.016840 -0.013376 0.000000 0.000000 0.000000
# 2 0.016840 0.036798 -0.020363 0.000000 0.000000 0.000000
# 3 -0.013376 -0.020363 0.023519 0.000000 0.000000 0.000000
# 4 0.000000 0.000000 0.000000 0.032313 0.000000 0.000000
# 5 0.000000 0.000000 0.000000 0.000000 0.030646 0.000000
# 6 0.000000 0.000000 0.000000 0.000000 0.000000 0.041070
#
#
# Mechanical properties :
#
#
# Convention : Reuss Voigt Hill
#
# Bulk Modulus (GPa) = 17.44116 30.60720 24.02418
# Shear Modulus (GPa) = 20.15541 27.22784 23.69163
#
# Velocity S-wave (km/s) = 3.19512 3.71362 3.46408
# Velocity P-wave (km/s) = 4.73769 5.82157 5.30737
#
# Compressibility (1/GPa) = 0.05733564
#
# Stress axis : x y z
#
# Youngs Moduli (GPa) = 32.44955 27.17531 42.51948
#
# Poissons Ratio (x) = -0.45764 0.56875
# Poissons Ratio (y) = -0.54647 0.86584
# Poissons Ratio (z) = 0.43405 0.55338
#
# Static dielectric constant tensor:
#      x y z
#    x 1.693540 0.000000 0.000000 
#    y 0.000000 1.668300 0.000000 
#    z 0.000000 0.000000 1.666450 
# 
# From -- ./inp_files/676.got.cif
#   From: 2010.05.17/outbox.cif.g08.bks.cpg/sg33_1_cif.got.tgz:676.got - 2010.06.03 17:15:25.
