data_PCOD9346775
_publ_section_title
;
Structure prediction by ZEFSAII (Michael W. Deem and Ramdas Pophale) SiO2 
 PCOD9346775
Probable space group: P N A 21
;
_chemical_formula_sum "Si O2"
_cell_formula_units_Z 24
_cell_length_a 17.551729
_cell_length_b 4.719708
_cell_length_c 10.354808
_cell_angle_alpha 90.000000
_cell_angle_beta 90.000000
_cell_angle_gamma 90.000000
_cell_volume 857.782310
_symmetry_space_group_name_H-M "P N A 21"
_symmetry_group_IT_number 33
_symmetry_cell_setting 'orthorhombic'
loop_
_space_group_symop_operation_xyz
x,y,z
-x,-y,1/2+z
1/2-x,1/2+y,1/2+z
1/2+x,1/2-y,z
loop_
_atom_site_type_symbol
_atom_site_label
_atom_site_fract_x
_atom_site_fract_y
_atom_site_fract_z
Si Si1 0.661701 0.557812 0.112120
Si Si2 0.585007 0.513772 0.679613
Si Si3 0.378686 0.085443 0.869655
Si Si4 0.975372 0.822938 0.457482
Si Si5 0.688631 0.021999 0.712918
Si Si6 0.222769 0.054389 0.453137
O O1 0.626870 0.747411 0.231207
O O2 0.602867 0.354774 0.039104
O O3 0.735863 0.378336 0.155417
O O4 0.708847 0.778354 0.024502
O O5 0.526940 0.508887 0.561864
O O6 0.656578 0.306181 0.648112
O O7 0.617952 0.817407 0.718700
O O8 0.545729 0.421182 0.813722
O O9 0.337524 0.297423 0.970308
O O10 0.331346 0.796990 0.883339
O O11 0.466150 0.065398 0.920239
O O12 0.722503 0.111049 0.848946
#
# Coordination Sequence:
#
# PCOD9346775 Si02
#       6
#     4   4   4   4   4   4
#     4  11  24  46  75 110 142 201 252 315 374 458
#     4  12  27  51  76 110 158 193 258 305 396 447
#     4  11  26  48  72 111 150 196 251 317 380 455
#     4  12  26  51  73 118 149 207 237 328 381 469
#     4  11  25  49  75 108 146 206 249 317 361 468
#     4  11  24  47  75 105 149 197 259 308 374 445
#
# _framework density 27.979123999999999
#
# number of rings (size 3 to 8) (size 9 to 14) (size 15 to 20)
#    0.000    0.667    3.333    4.000    0.000    5.333 
#    0.000    0.000    0.000    0.000    0.000    0.000 
#    0.000    0.000    0.000    0.000    0.000    0.000 
#
# Total GULP energy -133900.445282 kJ/mol
# GULP energy per Si atom -5579.185220 kJ/mol
# Density = 2.791544 g / cm^3
# Si number density = 27.979124 Si / 1000 Ang^3
#
#
#
# Elastic Constant Matrix: (Units=GPa)
#
#
# Indices 1 2 3 4 5 6 
#
# 1 154.6964 26.3499 32.0859 0.0000 0.0000 0.0000
# 2 26.3499 79.7897 -38.3424 0.0000 0.0000 0.0000
# 3 32.0859 -38.3424 59.5984 0.0000 0.0000 0.0000
# 4 0.0000 0.0000 0.0000 38.5602 0.0000 0.0000
# 5 0.0000 0.0000 0.0000 0.0000 34.8155 0.0000
# 6 0.0000 0.0000 0.0000 0.0000 0.0000 31.1028
#
#
#
# Elastic Compliance Matrix: (Units=1/GPa)
#
#
# Indices 1 2 3 4 5 6 
#
# 1 0.010271 -0.008756 -0.011163 0.000000 0.000000 0.000000
# 2 -0.008756 0.025606 0.021188 0.000000 0.000000 0.000000
# 3 -0.011163 0.021188 0.036420 0.000000 0.000000 0.000000
# 4 0.000000 0.000000 0.000000 0.025934 0.000000 0.000000
# 5 0.000000 0.000000 0.000000 0.000000 0.028723 0.000000
# 6 0.000000 0.000000 0.000000 0.000000 0.000000 0.032151
#
#
# Mechanical properties :
#
#
# Convention : Reuss Voigt Hill
#
# Bulk Modulus (GPa) = 13.36286 37.14126 25.25206
# Shear Modulus (GPa) = 27.54636 39.16175 33.35405
#
# Velocity S-wave (km/s) = 3.14113 3.74529 3.45643
# Velocity P-wave (km/s) = 4.23580 5.65741 4.99741
#
# Compressibility (1/GPa) = 0.07483427
#
# Stress axis : x y z
#
# Youngs Moduli (GPa) = 97.36107 39.05305 27.45768
#
# Poissons Ratio (x) = 0.34195 0.30651
# Poissons Ratio (y) = 0.85251 -0.58176
# Poissons Ratio (z) = 1.08683 -0.82744
#
# Static dielectric constant tensor:
#      x y z
#    x 2.163060 0.000000 0.000000 
#    y 0.000000 2.093430 0.000000 
#    z 0.000000 0.000000 2.479710 
# 
# From -- ./inp_files/7103.got.cif
#   From: 2010.05.17/outbox.cif.g08.bks.cpg/sg33_4_cif.got.tgz:7103.got - 2010.06.03 17:15:25.
