data_PCOD9346834
_publ_section_title
;
Structure prediction by ZEFSAII (Michael W. Deem and Ramdas Pophale) SiO2 
 PCOD9346834
Probable space group: P N A 21
;
_chemical_formula_sum "Si O2"
_cell_formula_units_Z 28
_cell_length_a 7.474935
_cell_length_b 12.507908
_cell_length_c 13.191948
_cell_angle_alpha 90.000000
_cell_angle_beta 90.000000
_cell_angle_gamma 90.000000
_cell_volume 1233.391722
_symmetry_space_group_name_H-M "P N A 21"
_symmetry_group_IT_number 33
_symmetry_cell_setting 'orthorhombic'
loop_
_space_group_symop_operation_xyz
x,y,z
-x,-y,1/2+z
1/2-x,1/2+y,1/2+z
1/2+x,1/2-y,z
loop_
_atom_site_type_symbol
_atom_site_label
_atom_site_fract_x
_atom_site_fract_y
_atom_site_fract_z
Si Si1 0.868960 0.608912 0.296510
Si Si2 0.201540 0.709468 0.401062
Si Si3 0.889631 0.387156 0.375214
Si Si4 0.031045 0.467852 0.579298
Si Si5 0.791882 0.123708 0.082301
Si Si6 0.788034 0.157466 0.312214
Si Si7 0.597880 0.486685 0.967069
O O1 0.731131 0.704619 0.311973
O O2 0.945557 0.592293 0.185204
O O3 0.026009 0.642415 0.374419
O O4 0.797479 0.495030 0.335281
O O5 0.201523 0.775102 0.506500
O O6 0.359335 0.622653 0.406579
O O7 0.935584 0.396645 0.493522
O O8 0.084829 0.384569 0.321574
O O9 0.790374 0.279391 0.347924
O O10 0.228066 0.497106 0.538570
O O11 0.904690 0.571585 0.589148
O O12 0.849854 0.151547 0.196180
O O13 0.925478 0.035898 0.034713
O O14 0.902367 0.084845 0.389186
#
# Coordination Sequence:
#
# PCOD9346834 Si02
#       7
#     4   4   4   4   4   4   4
#     4  12  25  46  74 105 150 185 239 306 365 423
#     4  12  23  45  72 108 143 184 241 309 351 436
#     4  11  25  45  69 102 148 183 242 298 348 436
#     4  11  25  50  71 103 149 190 229 308 361 418
#     4  12  25  43  81 102 140 193 243 290 369 429
#     4  11  27  46  68 105 144 190 234 300 357 424
#     4  11  26  47  69 107 144 183 254 289 351 446
#
# _framework density 22.701626999999998
#
# number of rings (size 3 to 8) (size 9 to 14) (size 15 to 20)
#    0.000    0.571    7.143    0.000    6.000    3.429 
#    5.143    0.000    0.000    0.000    0.000    0.000 
#    0.000    0.000    0.000    0.000    0.000    0.000 
#
# Total GULP energy -156779.155446 kJ/mol
# GULP energy per Si atom -5599.255552 kJ/mol
# Density = 2.264996 g / cm^3
# Si number density = 22.701627 Si / 1000 Ang^3
#
#
#
# Elastic Constant Matrix: (Units=GPa)
#
#
# Indices 1 2 3 4 5 6 
#
# 1 59.4552 16.8874 11.0056 0.0000 0.0000 0.0000
# 2 16.8874 144.0111 58.4459 0.0000 0.0000 0.0000
# 3 11.0056 58.4459 155.7953 0.0000 0.0000 0.0000
# 4 0.0000 0.0000 0.0000 30.4653 0.0000 0.0000
# 5 0.0000 0.0000 0.0000 0.0000 20.9871 0.0000
# 6 0.0000 0.0000 0.0000 0.0000 0.0000 24.9525
#
#
#
# Elastic Compliance Matrix: (Units=1/GPa)
#
#
# Indices 1 2 3 4 5 6 
#
# 1 0.017439 -0.001822 -0.000548 0.000000 0.000000 0.000000
# 2 -0.001822 0.008381 -0.003016 0.000000 0.000000 0.000000
# 3 -0.000548 -0.003016 0.007589 0.000000 0.000000 0.000000
# 4 0.000000 0.000000 0.000000 0.032824 0.000000 0.000000
# 5 0.000000 0.000000 0.000000 0.000000 0.047648 0.000000
# 6 0.000000 0.000000 0.000000 0.000000 0.000000 0.040076
#
#
# Mechanical properties :
#
#
# Convention : Reuss Voigt Hill
#
# Bulk Modulus (GPa) = 44.17683 59.10439 51.64061
# Shear Modulus (GPa) = 29.02337 33.47584 31.24961
#
# Velocity S-wave (km/s) = 3.57945 3.84422 3.71419
# Velocity P-wave (km/s) = 6.04858 6.76726 6.41799
#
# Compressibility (1/GPa) = 0.02263630
#
# Stress axis : x y z
#
# Youngs Moduli (GPa) = 57.34434 119.31115 131.77550
#
# Poissons Ratio (x) = 0.21744 0.07224
# Poissons Ratio (y) = 0.10451 0.39737
# Poissons Ratio (z) = 0.03144 0.35979
#
# Static dielectric constant tensor:
#      x y z
#    x 1.890970 0.000000 0.000000 
#    y 0.000000 1.825950 0.000000 
#    z 0.000000 0.000000 1.818780 
# 
# From -- ./inp_files/5874.got.cif
#   From: 2010.05.17/outbox.cif.g08.bks.cpg/sg33_3_cif.got.tgz:5874.got - 2010.06.03 17:15:25.
