data_PCOD9346536
_publ_section_title
;
Structure prediction by ZEFSAII (Michael W. Deem and Ramdas Pophale) SiO2 
 PCOD9346536
Probable space group: P N A 21
;
_chemical_formula_sum "Si O2"
_cell_formula_units_Z 32
_cell_length_a 8.272086
_cell_length_b 13.284469
_cell_length_c 11.374897
_cell_angle_alpha 90.000000
_cell_angle_beta 90.000000
_cell_angle_gamma 90.000000
_cell_volume 1249.990503
_symmetry_space_group_name_H-M "P N A 21"
_symmetry_group_IT_number 33
_symmetry_cell_setting 'orthorhombic'
loop_
_space_group_symop_operation_xyz
x,y,z
-x,-y,1/2+z
1/2-x,1/2+y,1/2+z
1/2+x,1/2-y,z
loop_
_atom_site_type_symbol
_atom_site_label
_atom_site_fract_x
_atom_site_fract_y
_atom_site_fract_z
Si Si1 0.660825 0.346846 0.713190
Si Si2 0.460989 0.538521 0.014303
Si Si3 0.802528 0.526227 0.323082
Si Si4 0.508192 0.229657 0.098127
Si Si5 0.010014 0.355183 0.355481
Si Si6 0.197483 0.778832 0.003110
Si Si7 0.646418 0.720577 0.358827
Si Si8 0.248066 0.589380 0.582136
O O1 0.636778 0.450084 0.638958
O O2 0.720822 0.259130 0.622629
O O3 0.490776 0.321243 0.773018
O O4 0.791198 0.329652 0.817167
O O5 0.617593 0.466841 0.004999
O O6 0.336431 0.511475 0.912805
O O7 0.543697 0.648231 0.009820
O O8 0.973673 0.471750 0.337134
O O9 0.798675 0.645208 0.343432
O O10 0.750861 0.484782 0.195192
O O11 0.484968 0.210833 0.237845
O O12 0.670163 0.299705 0.104121
O O13 0.440863 0.117032 0.059287
O O14 0.416192 0.287090 0.991822
O O15 0.870097 0.320404 0.443025
O O16 0.176525 0.332350 0.417843
#
# Coordination Sequence:
#
# PCOD9346536 Si02
#       8
#     4   4   4   4   4   4   4   4
#     4  12  23  42  70  98 137 186 228 286 347 416
#     4  12  23  43  71 102 139 181 240 285 350 415
#     4  11  23  43  69 100 137 180 230 290 342 417
#     4  11  24  42  67  98 135 179 226 278 356 417
#     4  11  22  40  71 100 135 174 229 297 346 405
#     4  12  21  42  70 105 131 177 234 292 350 408
#     4  12  25  44  68  99 145 188 230 280 354 429
#     4  11  23  44  68  98 135 179 231 284 347 417
#
# _framework density 25.600194999999999
#
# number of rings (size 3 to 8) (size 9 to 14) (size 15 to 20)
#    0.000    0.500    6.250    3.000    0.000    0.000 
#    4.500    0.000    8.250    0.000    0.000    0.000 
#    0.000    0.000    0.000    0.000    0.000    0.000 
#
# Total GULP energy -178329.117151 kJ/mol
# GULP energy per Si atom -5572.784911 kJ/mol
# Density = 2.554193 g / cm^3
# Si number density = 25.600195 Si / 1000 Ang^3
#
#
#
# Elastic Constant Matrix: (Units=GPa)
#
#
# Indices 1 2 3 4 5 6 
#
# 1 46.6441 8.1546 13.3583 0.0000 0.0000 0.0000
# 2 8.1546 68.6219 23.2831 0.0000 0.0000 0.0000
# 3 13.3583 23.2831 57.2116 0.0000 0.0000 0.0000
# 4 0.0000 0.0000 0.0000 27.8351 0.0000 0.0000
# 5 0.0000 0.0000 0.0000 0.0000 42.9330 0.0000
# 6 0.0000 0.0000 0.0000 0.0000 0.0000 54.3019
#
#
#
# Elastic Compliance Matrix: (Units=1/GPa)
#
#
# Indices 1 2 3 4 5 6 
#
# 1 0.023041 -0.001059 -0.004949 0.000000 0.000000 0.000000
# 2 -0.001059 0.016956 -0.006653 0.000000 0.000000 0.000000
# 3 -0.004949 -0.006653 0.021342 0.000000 0.000000 0.000000
# 4 0.000000 0.000000 0.000000 0.035926 0.000000 0.000000
# 5 0.000000 0.000000 0.000000 0.000000 0.023292 0.000000
# 6 0.000000 0.000000 0.000000 0.000000 0.000000 0.018416
#
#
# Mechanical properties :
#
#
# Convention : Reuss Voigt Hill
#
# Bulk Modulus (GPa) = 27.76452 29.11884 28.44168
# Shear Modulus (GPa) = 28.36063 33.52612 30.94338
#
# Velocity S-wave (km/s) = 3.33202 3.62277 3.48043
# Velocity P-wave (km/s) = 5.06676 5.37573 5.22353
#
# Compressibility (1/GPa) = 0.03601719
#
# Stress axis : x y z
#
# Youngs Moduli (GPa) = 43.40013 58.97680 46.85569
#
# Poissons Ratio (x) = 0.06245 0.23189
# Poissons Ratio (y) = 0.04596 0.31174
# Poissons Ratio (z) = 0.21479 0.39238
#
# Static dielectric constant tensor:
#      x y z
#    x 2.039360 0.000000 0.000000 
#    y 0.000000 2.085600 0.000000 
#    z 0.000000 0.000000 2.054960 
# 
# From -- ./inp_files/5945.got.cif
#   From: 2010.05.17/outbox.cif.g08.bks.cpg/sg33_3_cif.got.tgz:5945.got - 2010.06.03 17:15:25.
