data_PCOD9346925
_publ_section_title
;
Structure prediction by ZEFSAII (Michael W. Deem and Ramdas Pophale) SiO2 
 PCOD9346925
Probable space group: P N A 21
;
_chemical_formula_sum "Si O2"
_cell_formula_units_Z 28
_cell_length_a 9.745699
_cell_length_b 9.786625
_cell_length_c 11.877648
_cell_angle_alpha 90.000000
_cell_angle_beta 90.000000
_cell_angle_gamma 90.000000
_cell_volume 1132.860390
_symmetry_space_group_name_H-M "P N A 21"
_symmetry_group_IT_number 33
_symmetry_cell_setting 'orthorhombic'
loop_
_space_group_symop_operation_xyz
x,y,z
-x,-y,1/2+z
1/2-x,1/2+y,1/2+z
1/2+x,1/2-y,z
loop_
_atom_site_type_symbol
_atom_site_label
_atom_site_fract_x
_atom_site_fract_y
_atom_site_fract_z
Si Si1 0.072243 0.085936 0.812000
Si Si2 0.250000 0.555069 0.111134
Si Si3 0.715235 0.967813 0.486283
Si Si4 0.590361 0.195488 0.213778
Si Si5 0.215235 0.032187 0.235985
Si Si6 0.590361 0.695488 0.508490
Si Si7 0.572243 0.914064 0.910268
O O1 0.172922 0.996367 0.892070
O O2 0.000886 0.190734 0.896832
O O3 0.163631 0.133799 0.706105
O O4 0.939272 0.008536 0.764977
O O5 0.147700 0.452567 0.178340
O O6 0.352300 0.452567 0.043927
O O7 0.163631 0.633799 0.016163
O O8 0.750000 0.017424 0.611134
O O9 0.711683 0.802501 0.488811
O O10 0.560728 0.008536 0.457291
O O11 0.711683 0.302501 0.233457
O O12 0.499114 0.190734 0.325436
O O13 0.500000 0.250000 0.111134
O O14 0.327078 0.996367 0.330198
#
# Coordination Sequence:
#
# PCOD9346925 Si02
#       7
#     4   4   4   4   4   4   4
#     4  12  25  42  73 106 148 181 239 300 356 420
#     4  12  22  42  68 108 140 184 236 296 354 410
#     4  12  25  44  74 108 139 191 242 292 350 428
#     4  12  22  44  75 102 138 191 243 282 353 437
#     4  12  25  44  74 108 139 191 242 292 350 428
#     4  12  22  44  75 102 138 191 243 282 353 437
#     4  12  25  42  73 106 148 181 239 300 356 420
#
# _framework density 24.716194999999999
#
# number of rings (size 3 to 8) (size 9 to 14) (size 15 to 20)
#    0.000    0.000   10.000    0.000    0.000    0.000 
#    0.000    1.429    6.286    0.000    0.000    0.000 
#    0.000    0.000    0.000    0.000    0.000    0.000 
#
# Total GULP energy -156691.949003 kJ/mol
# GULP energy per Si atom -5596.141036 kJ/mol
# Density = 2.465994 g / cm^3
# Si number density = 24.716195 Si / 1000 Ang^3
#
#
#
# Elastic Constant Matrix: (Units=GPa)
#
#
# Indices 1 2 3 4 5 6 
#
# 1 157.7682 8.9024 92.6967 0.0000 0.0000 0.0000
# 2 8.9024 26.3969 29.5220 0.0000 0.0000 0.0000
# 3 92.6967 29.5220 207.8365 0.0000 0.0000 0.0000
# 4 0.0000 0.0000 0.0000 32.8152 0.0000 0.0000
# 5 0.0000 0.0000 0.0000 0.0000 85.7076 0.0000
# 6 0.0000 0.0000 0.0000 0.0000 0.0000 21.9643
#
#
#
# Elastic Compliance Matrix: (Units=1/GPa)
#
#
# Indices 1 2 3 4 5 6 
#
# 1 0.008650 0.001661 -0.004094 0.000000 0.000000 0.000000
# 2 0.001661 0.045357 -0.007184 0.000000 0.000000 0.000000
# 3 -0.004094 -0.007184 0.007658 0.000000 0.000000 0.000000
# 4 0.000000 0.000000 0.000000 0.030474 0.000000 0.000000
# 5 0.000000 0.000000 0.000000 0.000000 0.011668 0.000000
# 6 0.000000 0.000000 0.000000 0.000000 0.000000 0.045528
#
#
# Mechanical properties :
#
#
# Convention : Reuss Voigt Hill
#
# Bulk Modulus (GPa) = 23.56687 72.69376 48.13031
# Shear Modulus (GPa) = 27.36554 45.48946 36.42750
#
# Velocity S-wave (km/s) = 3.33106 4.29473 3.84322
# Velocity P-wave (km/s) = 4.93460 7.35310 6.26173
#
# Compressibility (1/GPa) = 0.04243246
#
# Stress axis : x y z
#
# Youngs Moduli (GPa) = 115.60566 22.04724 130.58507
#
# Poissons Ratio (x) = -0.03663 0.53462
# Poissons Ratio (y) = -0.19207 0.93809
# Poissons Ratio (z) = 0.47329 0.15838
#
# Static dielectric constant tensor:
#      x y z
#    x 1.968950 0.000000 0.000000 
#    y 0.000000 1.987220 0.000000 
#    z 0.000000 0.000000 2.008850 
# 
# From -- ./inp_files/5830.got.cif
#   From: 2010.05.17/outbox.cif.g08.bks.cpg/sg33_3_cif.got.tgz:5830.got - 2010.06.03 17:15:25.
