data_PCOD9346626
_publ_section_title
;
Structure prediction by ZEFSAII (Michael W. Deem and Ramdas Pophale) SiO2 
 PCOD9346626
Probable space group: P N A 21
;
_chemical_formula_sum "Si O2"
_cell_formula_units_Z 32
_cell_length_a 9.407973
_cell_length_b 10.810876
_cell_length_c 14.971038
_cell_angle_alpha 90.000000
_cell_angle_beta 90.000000
_cell_angle_gamma 90.000000
_cell_volume 1522.680763
_symmetry_space_group_name_H-M "P N A 21"
_symmetry_group_IT_number 33
_symmetry_cell_setting 'orthorhombic'
loop_
_space_group_symop_operation_xyz
x,y,z
-x,-y,1/2+z
1/2-x,1/2+y,1/2+z
1/2+x,1/2-y,z
loop_
_atom_site_type_symbol
_atom_site_label
_atom_site_fract_x
_atom_site_fract_y
_atom_site_fract_z
Si Si1 0.854249 0.342423 0.193040
Si Si2 0.948933 0.352294 0.997430
Si Si3 0.051067 0.352295 0.495491
Si Si4 0.157289 0.937552 0.233566
Si Si5 0.213908 0.715649 0.107194
Si Si6 0.645750 0.157576 0.299881
Si Si7 0.157289 0.062448 0.759356
Si Si8 0.786092 0.715648 0.385727
O O1 0.762201 0.467395 0.186011
O O2 0.750000 0.250000 0.246460
O O3 1.000000 0.364437 0.246460
O O4 0.904589 0.302609 0.094707
O O5 0.931487 0.500000 0.996460
O O6 0.846133 0.287288 0.927046
O O7 0.107147 0.322204 0.963978
O O8 0.153868 0.287289 0.565875
O O9 0.095410 0.302610 0.398214
O O10 0.892854 0.322204 0.528943
O O11 0.141090 0.812464 0.175609
O O12 0.230144 0.898636 0.326864
O O13 0.000000 0.991712 0.246461
O O14 0.269858 0.601364 0.166057
O O15 0.737798 0.032605 0.306910
O O16 0.141090 0.187537 0.817312
#
# Coordination Sequence:
#
# PCOD9346626 Si02
#       8
#     4   4   4   4   4   4   4   4
#     4  12  26  46  70 102 147 192 239 296 366 428
#     4  12  24  45  69 104 142 187 239 297 362 428
#     4  12  24  45  69 104 142 187 239 297 362 428
#     4  11  23  43  71 104 140 185 236 296 366 425
#     4  11  24  42  70 105 138 179 239 297 353 440
#     4  12  26  46  70 102 147 192 239 296 366 428
#     4  11  23  43  71 104 140 185 236 296 366 425
#     4  11  24  42  70 105 138 179 239 297 353 440
#
# _framework density 21.015567000000001
#
# number of rings (size 3 to 8) (size 9 to 14) (size 15 to 20)
#    0.000    0.500    5.000    3.750    0.000    0.000 
#    0.000    1.250    0.000    0.000    0.000    0.000 
#    0.000    0.000    0.000    0.000    0.000    0.000 
#
# Total GULP energy -178981.440697 kJ/mol
# GULP energy per Si atom -5593.170022 kJ/mol
# Density = 2.096773 g / cm^3
# Si number density = 21.015567 Si / 1000 Ang^3
#
#
#
# Elastic Constant Matrix: (Units=GPa)
#
#
# Indices 1 2 3 4 5 6 
#
# 1 129.0637 20.9486 25.8962 0.0000 0.0000 0.0000
# 2 20.9486 47.1583 13.7210 0.0000 0.0000 0.0000
# 3 25.8962 13.7210 75.4383 0.0000 0.0000 0.0000
# 4 0.0000 0.0000 0.0000 29.1836 0.0000 0.0000
# 5 0.0000 0.0000 0.0000 0.0000 48.8772 0.0000
# 6 0.0000 0.0000 0.0000 0.0000 0.0000 17.7531
#
#
#
# Elastic Compliance Matrix: (Units=1/GPa)
#
#
# Indices 1 2 3 4 5 6 
#
# 1 0.008751 -0.003182 -0.002425 0.000000 0.000000 0.000000
# 2 -0.003182 0.023547 -0.003191 0.000000 0.000000 0.000000
# 3 -0.002425 -0.003191 0.014669 0.000000 0.000000 0.000000
# 4 0.000000 0.000000 0.000000 0.034266 0.000000 0.000000
# 5 0.000000 0.000000 0.000000 0.000000 0.020459 0.000000
# 6 0.000000 0.000000 0.000000 0.000000 0.000000 0.056328
#
#
# Mechanical properties :
#
#
# Convention : Reuss Voigt Hill
#
# Bulk Modulus (GPa) = 34.04671 41.42132 37.73402
# Shear Modulus (GPa) = 26.96781 31.90241 29.43511
#
# Velocity S-wave (km/s) = 3.58611 3.90043 3.74656
# Velocity P-wave (km/s) = 5.77778 6.32748 6.05887
#
# Compressibility (1/GPa) = 0.02937141
#
# Stress axis : x y z
#
# Youngs Moduli (GPa) = 114.27015 42.46846 68.17209
#
# Poissons Ratio (x) = 0.13512 0.16534
# Poissons Ratio (y) = 0.36358 0.21751
# Poissons Ratio (z) = 0.27715 0.13550
#
# Static dielectric constant tensor:
#      x y z
#    x 1.728510 0.000000 0.000000 
#    y 0.000000 1.760600 0.000000 
#    z 0.000000 0.000000 1.769920 
# 
# From -- ./inp_files/7635.got.cif
#   From: 2010.05.17/outbox.cif.g08.bks.cpg/sg33_4_cif.got.tgz:7635.got - 2010.06.03 17:15:25.
