data_PCOD9346357
_publ_section_title
;
Structure prediction by ZEFSAII (Michael W. Deem and Ramdas Pophale) SiO2 
 PCOD9346357
Probable space group: P N A 21
;
_chemical_formula_sum "Si O2"
_cell_formula_units_Z 32
_cell_length_a 12.263424
_cell_length_b 6.785226
_cell_length_c 17.829261
_cell_angle_alpha 90.000000
_cell_angle_beta 90.000000
_cell_angle_gamma 90.000000
_cell_volume 1483.574651
_symmetry_space_group_name_H-M "P N A 21"
_symmetry_group_IT_number 33
_symmetry_cell_setting 'orthorhombic'
loop_
_space_group_symop_operation_xyz
x,y,z
-x,-y,1/2+z
1/2-x,1/2+y,1/2+z
1/2+x,1/2-y,z
loop_
_atom_site_type_symbol
_atom_site_label
_atom_site_fract_x
_atom_site_fract_y
_atom_site_fract_z
Si Si1 0.182063 0.984525 0.446180
Si Si2 0.676404 0.181039 0.322157
Si Si3 0.948600 0.966447 0.522533
Si Si4 0.020989 0.403746 0.782218
Si Si5 0.682307 0.353866 0.879701
Si Si6 0.217213 0.584450 0.691726
Si Si7 0.614672 0.738506 0.155542
Si Si8 0.186240 0.373233 0.086585
O O1 0.180704 0.177420 0.394538
O O2 0.217929 0.793263 0.398484
O O3 0.270773 0.983611 0.512777
O O4 0.065380 0.959149 0.484285
O O5 0.700184 0.318566 0.251470
O O6 0.565675 0.056155 0.316738
O O7 0.773806 0.021981 0.325342
O O8 0.860962 0.961418 0.454656
O O9 0.913592 0.771044 0.567655
O O10 0.940496 0.144927 0.581616
O O11 0.089307 0.283404 0.844015
O O12 0.105171 0.530144 0.731619
O O13 0.961674 0.245038 0.728351
O O14 0.275325 0.384144 0.666731
O O15 0.219270 0.735784 0.622213
O O16 0.646730 0.963381 0.143366
#
# Coordination Sequence:
#
# PCOD9346357 Si02
#       8
#     4   4   4   4   4   4   4   4
#     4  11  25  43  71 102 141 185 239 294 357 423
#     4  12  26  45  70 104 139 184 236 293 361 423
#     4  10  25  43  72  99 138 184 240 285 356 426
#     4  12  26  43  77 100 142 191 236 290 366 424
#     4  11  25  47  66 103 143 182 232 301 348 428
#     4  11  26  44  68 107 141 180 238 295 349 427
#     4  11  25  46  68 105 136 188 235 287 358 426
#     4  10  24  47  68  98 146 182 234 299 347 421
#
# _framework density 21.569524999999999
#
# number of rings (size 3 to 8) (size 9 to 14) (size 15 to 20)
#    0.000    1.000    2.500    2.250    7.000    3.000 
#    0.000    0.000    0.000    0.000    0.000    0.000 
#    0.000    0.000    0.000    0.000    0.000    0.000 
#
# Total GULP energy -178968.084487 kJ/mol
# GULP energy per Si atom -5592.752640 kJ/mol
# Density = 2.152043 g / cm^3
# Si number density = 21.569525 Si / 1000 Ang^3
#
#
#
# Elastic Constant Matrix: (Units=GPa)
#
#
# Indices 1 2 3 4 5 6 
#
# 1 46.3249 26.3855 1.5856 0.0000 0.0000 0.0000
# 2 26.3855 61.5524 25.0767 0.0000 0.0000 0.0000
# 3 1.5856 25.0767 65.2221 0.0000 0.0000 0.0000
# 4 0.0000 0.0000 0.0000 48.3525 0.0000 0.0000
# 5 0.0000 0.0000 0.0000 0.0000 45.7573 0.0000
# 6 0.0000 0.0000 0.0000 0.0000 0.0000 -0.3745
#
#
#
# Elastic Compliance Matrix: (Units=1/GPa)
#
#
# Indices 1 2 3 4 5 6 
#
# 1 0.029862 -0.014828 0.004975 0.000000 0.000000 0.000000
# 2 -0.014828 0.026626 -0.009877 0.000000 0.000000 0.000000
# 3 0.004975 -0.009877 0.019009 0.000000 0.000000 0.000000
# 4 0.000000 0.000000 0.000000 0.020681 0.000000 0.000000
# 5 0.000000 0.000000 0.000000 0.000000 0.021854 0.000000
# 6 0.000000 0.000000 0.000000 0.000000 0.000000 -2.670113
#
#
# Mechanical properties :
#
#
# Convention : Reuss Voigt Hill
#
# Bulk Modulus (GPa) = 27.74859 31.02168 29.38514
# Shear Modulus (GPa) = -1.99951 26.75051 12.37550
#
# Velocity S-wave (km/s) = -0.96386 3.52547 2.39791
# Velocity P-wave (km/s) = 3.41379 5.56644 4.61732
#
# Compressibility (1/GPa) = 0.03603787
#
# Stress axis : x y z
#
# Youngs Moduli (GPa) = 33.48765 37.55691 52.60737
#
# Poissons Ratio (x) = 0.55688 -0.26172
# Poissons Ratio (y) = 0.49654 0.51959
# Poissons Ratio (z) = -0.16660 0.37094
#
# Static dielectric constant tensor:
#      x y z
#    x 1.764330 0.000000 0.000000 
#    y 0.000000 1.754970 0.000000 
#    z 0.000000 0.000000 1.843750 
# 
# From -- ./inp_files/9156.got.cif
#   From: 2010.05.17/outbox.cif.g08.bks.cpg/sg33_5_cif.got.tgz:9156.got - 2010.06.03 17:15:25.
