data_PCOD9346230
_publ_section_title
;
Structure prediction by ZEFSAII (Michael W. Deem and Ramdas Pophale) SiO2 
 PCOD9346230
Probable space group: P N A 21
;
_chemical_formula_sum "Si O2"
_cell_formula_units_Z 28
_cell_length_a 9.279274
_cell_length_b 9.495132
_cell_length_c 13.016391
_cell_angle_alpha 90.000000
_cell_angle_beta 90.000000
_cell_angle_gamma 90.000000
_cell_volume 1146.847287
_symmetry_space_group_name_H-M "P N A 21"
_symmetry_group_IT_number 33
_symmetry_cell_setting 'orthorhombic'
loop_
_space_group_symop_operation_xyz
x,y,z
-x,-y,1/2+z
1/2-x,1/2+y,1/2+z
1/2+x,1/2-y,z
loop_
_atom_site_type_symbol
_atom_site_label
_atom_site_fract_x
_atom_site_fract_y
_atom_site_fract_z
Si Si1 0.810193 0.658255 0.257410
Si Si2 0.452794 0.484009 0.640523
Si Si3 0.281304 0.015575 0.999345
Si Si4 0.662959 0.900449 0.867430
Si Si5 0.911124 0.763765 0.983368
Si Si6 0.720374 0.492489 0.758039
Si Si7 0.989010 0.438790 0.163989
O O1 0.664079 0.590507 0.213316
O O2 0.832127 0.571872 0.364879
O O3 0.796705 0.823397 0.250907
O O4 0.949751 0.601624 0.195499
O O5 0.356400 0.574282 0.560696
O O6 0.536391 0.377925 0.564444
O O7 0.569700 0.551020 0.715858
O O8 0.297968 0.849643 0.027148
O O9 0.261785 0.000101 0.878099
O O10 0.420645 0.086613 0.052541
O O11 0.819071 0.842143 0.895583
O O12 0.544090 0.828789 0.940503
O O13 0.607714 0.865623 0.752319
O O14 0.844018 0.565347 0.689564
#
# Coordination Sequence:
#
# PCOD9346230 Si02
#       7
#     4   4   4   4   4   4   4
#     4   9  21  43  61  94 136 171 221 284 332 409
#     4  11  24  36  67 101 132 173 239 282 327 413
#     4  11  23  40  66  98 133 179 227 281 349 413
#     4  10  24  41  69  97 137 171 233 293 343 413
#     4  12  22  42  71 100 128 184 235 294 348 403
#     4  12  22  39  74  97 136 186 221 288 349 399
#     4   9  22  43  64  97 136 170 228 282 334 416
#
# _framework density 24.414757999999999
#
# number of rings (size 3 to 8) (size 9 to 14) (size 15 to 20)
#    0.857    0.571    2.857    3.429    4.000    0.000 
#    0.000    0.000   15.714    0.000    0.000    0.000 
#    0.000    0.000    0.000    0.000    0.000    0.000 
#
# Total GULP energy -156039.383941 kJ/mol
# GULP energy per Si atom -5572.835141 kJ/mol
# Density = 2.435919 g / cm^3
# Si number density = 24.414758 Si / 1000 Ang^3
#
#
#
# Elastic Constant Matrix: (Units=GPa)
#
#
# Indices 1 2 3 4 5 6 
#
# 1 148.4932 7.6402 62.9038 0.0000 0.0000 0.0000
# 2 7.6402 45.1537 12.5421 0.0000 0.0000 0.0000
# 3 62.9038 12.5421 119.1945 0.0000 0.0000 0.0000
# 4 0.0000 0.0000 0.0000 18.1940 0.0000 0.0000
# 5 0.0000 0.0000 0.0000 0.0000 45.3650 0.0000
# 6 0.0000 0.0000 0.0000 0.0000 0.0000 20.5036
#
#
#
# Elastic Compliance Matrix: (Units=1/GPa)
#
#
# Indices 1 2 3 4 5 6 
#
# 1 0.008675 -0.000202 -0.004557 0.000000 0.000000 0.000000
# 2 -0.000202 0.022818 -0.002294 0.000000 0.000000 0.000000
# 3 -0.004557 -0.002294 0.011036 0.000000 0.000000 0.000000
# 4 0.000000 0.000000 0.000000 0.054963 0.000000 0.000000
# 5 0.000000 0.000000 0.000000 0.000000 0.022043 0.000000
# 6 0.000000 0.000000 0.000000 0.000000 0.000000 0.048772
#
#
# Mechanical properties :
#
#
# Convention : Reuss Voigt Hill
#
# Bulk Modulus (GPa) = 35.18358 53.22373 44.20365
# Shear Modulus (GPa) = 26.05677 32.12952 29.09315
#
# Velocity S-wave (km/s) = 3.27043 3.63159 3.45573
# Velocity P-wave (km/s) = 5.35752 6.27947 5.83673
#
# Compressibility (1/GPa) = 0.02842235
#
# Stress axis : x y z
#
# Youngs Moduli (GPa) = 115.27245 43.82491 90.61296
#
# Poissons Ratio (x) = 0.00886 0.41292
# Poissons Ratio (y) = 0.02330 0.20790
# Poissons Ratio (z) = 0.52529 0.10055
#
# Static dielectric constant tensor:
#      x y z
#    x 2.015030 0.000000 0.000000 
#    y 0.000000 2.017710 0.000000 
#    z 0.000000 0.000000 2.063200 
# 
# From -- ./inp_files/5837.got.cif
#   From: 2010.05.17/outbox.cif.g08.bks.cpg/sg33_3_cif.got.tgz:5837.got - 2010.06.03 17:15:25.
