data_PCOD9346394
_publ_section_title
;
Structure prediction by ZEFSAII (Michael W. Deem and Ramdas Pophale) SiO2 
 PCOD9346394
Probable space group: P N A 21
;
_chemical_formula_sum "Si O2"
_cell_formula_units_Z 28
_cell_length_a 8.188935
_cell_length_b 8.577329
_cell_length_c 15.795189
_cell_angle_alpha 90.000000
_cell_angle_beta 90.000000
_cell_angle_gamma 90.000000
_cell_volume 1109.441276
_symmetry_space_group_name_H-M "P N A 21"
_symmetry_group_IT_number 33
_symmetry_cell_setting 'orthorhombic'
loop_
_space_group_symop_operation_xyz
x,y,z
-x,-y,1/2+z
1/2-x,1/2+y,1/2+z
1/2+x,1/2-y,z
loop_
_atom_site_type_symbol
_atom_site_label
_atom_site_fract_x
_atom_site_fract_y
_atom_site_fract_z
Si Si1 0.345641 0.946227 0.868420
Si Si2 0.032356 0.828442 0.641697
Si Si3 0.131848 0.484046 0.109461
Si Si4 0.336234 0.172568 0.449865
Si Si5 0.450256 0.503881 0.469290
Si Si6 0.030367 0.353922 0.741105
Si Si7 0.608679 0.530658 0.289313
O O1 0.522707 0.927927 0.907974
O O2 0.264701 0.772955 0.878175
O O3 0.221894 0.049001 0.923853
O O4 0.390852 0.036196 0.783882
O O5 0.217157 0.888155 0.649021
O O6 0.009495 0.647454 0.619202
O O7 0.946643 0.888514 0.728353
O O8 0.964697 0.905743 0.555883
O O9 0.030381 0.629580 0.145932
O O10 0.216755 0.559649 0.025979
O O11 0.426140 0.322636 0.490370
O O12 0.579265 0.512710 0.390679
O O13 0.208500 0.418031 0.763975
O O14 0.007754 0.176887 0.767777
#
# Coordination Sequence:
#
# PCOD9346394 Si02
#       7
#     4   4   4   4   4   4   4
#     4  10  25  43  76 109 147 207 256 323 384 482
#     4  12  28  48  77 114 161 202 277 331 403 474
#     4  12  28  48  78 115 156 216 256 347 392 481
#     4  10  25  45  76 107 154 197 268 306 408 464
#     4  10  26  47  79 108 160 202 265 330 399 482
#     4  12  28  48  82 107 166 202 273 323 420 467
#     4  12  28  51  78 120 154 216 265 344 396 494
#
# _framework density 25.237929000000001
#
# number of rings (size 3 to 8) (size 9 to 14) (size 15 to 20)
#    0.857    0.000    0.000    5.143   12.000    0.000 
#    0.000    0.000    0.000    0.000    0.000    0.000 
#    0.000    0.000    0.000    0.000    0.000    0.000 
#
# Total GULP energy -156100.662303 kJ/mol
# GULP energy per Si atom -5575.023654 kJ/mol
# Density = 2.518049 g / cm^3
# Si number density = 25.237929 Si / 1000 Ang^3
#
#
#
# Elastic Constant Matrix: (Units=GPa)
#
#
# Indices 1 2 3 4 5 6 
#
# 1 85.5413 -13.6286 15.3288 0.0000 0.0000 0.0000
# 2 -13.6286 80.4552 42.5192 0.0000 0.0000 0.0000
# 3 15.3288 42.5192 100.8471 0.0000 0.0000 0.0000
# 4 0.0000 0.0000 0.0000 44.6874 0.0000 0.0000
# 5 0.0000 0.0000 0.0000 0.0000 33.7885 0.0000
# 6 0.0000 0.0000 0.0000 0.0000 0.0000 32.2299
#
#
#
# Elastic Compliance Matrix: (Units=1/GPa)
#
#
# Indices 1 2 3 4 5 6 
#
# 1 0.013028 0.004186 -0.003745 0.000000 0.000000 0.000000
# 2 0.004186 0.017338 -0.007946 0.000000 0.000000 0.000000
# 3 -0.003745 -0.007946 0.013836 0.000000 0.000000 0.000000
# 4 0.000000 0.000000 0.000000 0.022378 0.000000 0.000000
# 5 0.000000 0.000000 0.000000 0.000000 0.029596 0.000000
# 6 0.000000 0.000000 0.000000 0.000000 0.000000 0.031027
#
#
# Mechanical properties :
#
#
# Convention : Reuss Voigt Hill
#
# Bulk Modulus (GPa) = 34.25698 39.47581 36.86639
# Shear Modulus (GPa) = 32.90692 36.98277 34.94485
#
# Velocity S-wave (km/s) = 3.61483 3.83216 3.72508
# Velocity P-wave (km/s) = 5.57007 5.93768 5.75681
#
# Compressibility (1/GPa) = 0.02919114
#
# Stress axis : x y z
#
# Youngs Moduli (GPa) = 76.75549 57.67711 72.27718
#
# Poissons Ratio (x) = -0.24145 0.27070
# Poissons Ratio (y) = -0.32132 0.57434
# Poissons Ratio (z) = 0.28748 0.45832
#
# Static dielectric constant tensor:
#      x y z
#    x 2.109370 0.000000 0.000000 
#    y 0.000000 2.209390 0.000000 
#    z 0.000000 0.000000 2.108720 
# 
# From -- ./inp_files/8452.got.cif
#   From: 2010.05.17/outbox.cif.g08.bks.cpg/sg33_5_cif.got.tgz:8452.got - 2010.06.03 17:15:25.
