data_PCOD9346030
_publ_section_title
;
Structure prediction by ZEFSAII (Michael W. Deem and Ramdas Pophale) SiO2 
 PCOD9346030
Probable space group: P N A 21
;
_chemical_formula_sum "Si O2"
_cell_formula_units_Z 32
_cell_length_a 17.854300
_cell_length_b 5.460523
_cell_length_c 14.565089
_cell_angle_alpha 90.000000
_cell_angle_beta 90.000000
_cell_angle_gamma 90.000000
_cell_volume 1420.006104
_symmetry_space_group_name_H-M "P N A 21"
_symmetry_group_IT_number 33
_symmetry_cell_setting 'orthorhombic'
loop_
_space_group_symop_operation_xyz
x,y,z
-x,-y,1/2+z
1/2-x,1/2+y,1/2+z
1/2+x,1/2-y,z
loop_
_atom_site_type_symbol
_atom_site_label
_atom_site_fract_x
_atom_site_fract_y
_atom_site_fract_z
Si Si1 0.063714 0.942731 0.334990
Si Si2 0.809075 0.999228 0.140683
Si Si3 0.003329 0.389097 0.974009
Si Si4 0.857298 0.681761 0.915645
Si Si5 0.332488 0.038429 0.739318
Si Si6 0.248069 0.497513 0.545236
Si Si7 0.398933 0.222903 0.563897
Si Si8 0.515521 0.568781 0.653848
O O1 0.997537 0.801391 0.390408
O O2 0.122079 0.763926 0.283210
O O3 0.112994 0.042844 0.422607
O O4 0.019825 0.094701 0.255506
O O5 0.778082 0.248930 0.091113
O O6 0.895944 0.031881 0.160347
O O7 0.756376 0.953683 0.228726
O O8 0.795481 0.745408 0.084904
O O9 0.926304 0.532358 0.956048
O O10 0.999361 0.271934 0.075475
O O11 0.072871 0.576290 0.975635
O O12 0.853803 0.682867 0.804513
O O13 0.783220 0.536907 0.943138
O O14 0.361319 0.034611 0.635284
O O15 0.335668 0.431951 0.551785
O O16 0.472330 0.336200 0.610548
#
# Coordination Sequence:
#
# PCOD9346030 Si02
#       8
#     4   4   4   4   4   4   4   4
#     4  10  23  42  68 103 138 188 236 300 359 423
#     4  11  24  46  67 104 128 188 234 289 343 429
#     4  11  21  41  66 101 139 178 240 286 360 425
#     4  11  22  43  66  96 137 188 226 296 347 425
#     4   9  23  41  67  93 138 178 237 278 358 421
#     4  11  25  43  72  97 139 179 241 278 354 422
#     4  10  23  41  68 102 130 191 222 299 349 428
#     4  11  23  43  72  96 143 182 238 296 362 417
#
# _framework density 22.535115999999999
#
# number of rings (size 3 to 8) (size 9 to 14) (size 15 to 20)
#    0.000    1.500    1.250    3.000   10.500    0.000 
#    6.750    0.000    0.000    0.000    0.000    0.000 
#    0.000    0.000    0.000    0.000    0.000    0.000 
#
# Total GULP energy -178174.226253 kJ/mol
# GULP energy per Si atom -5567.944570 kJ/mol
# Density = 2.248382 g / cm^3
# Si number density = 22.535116 Si / 1000 Ang^3
#
#
#
# Elastic Constant Matrix: (Units=GPa)
#
#
# Indices 1 2 3 4 5 6 
#
# 1 150.3568 24.4396 31.6149 0.0000 0.0000 0.0000
# 2 24.4396 60.5078 10.9118 0.0000 0.0000 0.0000
# 3 31.6149 10.9118 39.9952 0.0000 0.0000 0.0000
# 4 0.0000 0.0000 0.0000 -2.0558 0.0000 0.0000
# 5 0.0000 0.0000 0.0000 0.0000 21.6177 0.0000
# 6 0.0000 0.0000 0.0000 0.0000 0.0000 28.4414
#
#
#
# Elastic Compliance Matrix: (Units=1/GPa)
#
#
# Indices 1 2 3 4 5 6 
#
# 1 0.008263 -0.002271 -0.005912 0.000000 0.000000 0.000000
# 2 -0.002271 0.018006 -0.003117 0.000000 0.000000 0.000000
# 3 -0.005912 -0.003117 0.030527 0.000000 0.000000 0.000000
# 4 0.000000 0.000000 0.000000 -0.486432 0.000000 0.000000
# 5 0.000000 0.000000 0.000000 0.000000 0.046258 0.000000
# 6 0.000000 0.000000 0.000000 0.000000 0.000000 0.035160
#
#
# Mechanical properties :
#
#
# Convention : Reuss Voigt Hill
#
# Bulk Modulus (GPa) = 29.24402 42.75472 35.99937
# Shear Modulus (GPa) = -15.91254 21.86025 2.97385
#
# Velocity S-wave (km/s) = -2.66018 3.11795 1.15001
# Velocity P-wave (km/s) = 1.88941 5.65471 4.21578
#
# Compressibility (1/GPa) = 0.03419502
#
# Stress axis : x y z
#
# Youngs Moduli (GPa) = 121.01914 55.53593 32.75818
#
# Poissons Ratio (x) = 0.12614 0.19367
# Poissons Ratio (y) = 0.27488 0.10211
# Poissons Ratio (z) = 0.71547 0.17311
#
# Static dielectric constant tensor:
#      x y z
#    x 2.203800 0.000000 0.000000 
#    y 0.000000 2.025170 0.000000 
#    z 0.000000 0.000000 2.083470 
# 
# From -- ./inp_files/8225.got.cif
#   From: 2010.05.17/outbox.cif.g08.bks.cpg/sg33_5_cif.got.tgz:8225.got - 2010.06.03 17:15:25.
