data_PCOD9346163
_publ_section_title
;
Structure prediction by ZEFSAII (Michael W. Deem and Ramdas Pophale) SiO2 
 PCOD9346163
Probable space group: P N A 21
;
_chemical_formula_sum "Si O2"
_cell_formula_units_Z 32
_cell_length_a 32.210672
_cell_length_b 5.340268
_cell_length_c 8.418488
_cell_angle_alpha 90.000000
_cell_angle_beta 90.000000
_cell_angle_gamma 90.000000
_cell_volume 1448.094604
_symmetry_space_group_name_H-M "P N A 21"
_symmetry_group_IT_number 33
_symmetry_cell_setting 'orthorhombic'
loop_
_space_group_symop_operation_xyz
x,y,z
-x,-y,1/2+z
1/2-x,1/2+y,1/2+z
1/2+x,1/2-y,z
loop_
_atom_site_type_symbol
_atom_site_label
_atom_site_fract_x
_atom_site_fract_y
_atom_site_fract_z
Si Si1 0.191020 0.326097 0.696370
Si Si2 0.288947 0.296118 0.689991
Si Si3 0.151596 0.688218 0.448332
Si Si4 0.824076 0.715438 0.549322
Si Si5 0.968754 0.777363 0.247701
Si Si6 0.100666 0.313578 0.264147
Si Si7 0.887091 0.945385 0.106473
Si Si8 0.510283 0.213982 0.116393
O O1 0.239773 0.288702 0.712754
O O2 0.181109 0.510544 0.551258
O O3 0.160724 0.098141 0.652344
O O4 0.174698 0.390630 0.871531
O O5 0.315974 0.358291 0.848331
O O6 0.299401 0.521690 0.567593
O O7 0.302320 0.013453 0.643554
O O8 0.122205 0.573220 0.312352
O O9 0.115627 0.761649 0.575961
O O10 0.869077 0.777424 0.623697
O O11 0.920044 0.833420 0.224344
O O12 0.981268 0.739270 0.429607
O O13 0.982385 0.528843 0.153391
O O14 0.990558 0.026788 0.178279
O O15 0.104302 0.159290 0.428779
O O16 0.053962 0.326395 0.206053
#
# Coordination Sequence:
#
# PCOD9346163 Si02
#       8
#     4   4   4   4   4   4   4   4
#     4  11  26  40  69  99 138 184 236 298 351 424
#     4  11  25  44  67  99 139 182 239 290 356 421
#     4  10  24  45  70 100 143 189 235 296 357 426
#     4  11  25  44  67 101 134 182 232 296 349 423
#     4  12  28  48  75 109 150 183 244 291 362 424
#     4  10  23  45  72  99 143 184 240 281 365 417
#     4  11  24  45  70 102 144 192 232 296 357 426
#     4  12  27  49  76 111 141 194 232 302 349 437
#
# _framework density 22.098005000000001
#
# number of rings (size 3 to 8) (size 9 to 14) (size 15 to 20)
#    0.000    1.000    1.250    3.750   12.250    0.000 
#    2.250    0.000    0.000    0.000    0.000    0.000 
#    0.000    0.000    0.000    0.000    0.000    0.000 
#
# Total GULP energy -178446.561090 kJ/mol
# GULP energy per Si atom -5576.455034 kJ/mol
# Density = 2.204771 g / cm^3
# Si number density = 22.098005 Si / 1000 Ang^3
#
#
#
# Elastic Constant Matrix: (Units=GPa)
#
#
# Indices 1 2 3 4 5 6 
#
# 1 83.0277 40.7885 3.7537 0.0000 0.0000 0.0000
# 2 40.7885 79.7803 17.3023 0.0000 0.0000 0.0000
# 3 3.7537 17.3023 71.7663 0.0000 0.0000 0.0000
# 4 0.0000 0.0000 0.0000 1.2429 0.0000 0.0000
# 5 0.0000 0.0000 0.0000 0.0000 28.1140 0.0000
# 6 0.0000 0.0000 0.0000 0.0000 0.0000 4.3462
#
#
#
# Elastic Compliance Matrix: (Units=1/GPa)
#
#
# Indices 1 2 3 4 5 6 
#
# 1 0.016183 -0.008537 0.001212 0.000000 0.000000 0.000000
# 2 -0.008537 0.017729 -0.003828 0.000000 0.000000 0.000000
# 3 0.001212 -0.003828 0.014794 0.000000 0.000000 0.000000
# 4 0.000000 0.000000 0.000000 0.804538 0.000000 0.000000
# 5 0.000000 0.000000 0.000000 0.000000 0.035569 0.000000
# 6 0.000000 0.000000 0.000000 0.000000 0.000000 0.230087
#
#
# Mechanical properties :
#
#
# Convention : Reuss Voigt Hill
#
# Bulk Modulus (GPa) = 37.87848 39.80705 38.84277
# Shear Modulus (GPa) = 4.34780 18.25595 11.30188
#
# Velocity S-wave (km/s) = 1.40420 2.87738 2.26396
# Velocity P-wave (km/s) = 4.45055 5.39370 4.94466
#
# Compressibility (1/GPa) = 0.02640021
#
# Stress axis : x y z
#
# Youngs Moduli (GPa) = 61.79289 56.40479 67.59682
#
# Poissons Ratio (x) = 0.48150 -0.08190
# Poissons Ratio (y) = 0.52750 0.25875
# Poissons Ratio (z) = -0.07487 0.21591
#
# Static dielectric constant tensor:
#      x y z
#    x 1.816160 0.000000 0.000000 
#    y 0.000000 1.966380 0.000000 
#    z 0.000000 0.000000 1.958540 
# 
# From -- ./inp_files/5321.got.cif
#   From: 2010.05.17/outbox.cif.g08.bks.cpg/sg33_3_cif.got.tgz:5321.got - 2010.06.03 17:15:25.
