data_PCOD9346482
_publ_section_title
;
Structure prediction by ZEFSAII (Michael W. Deem and Ramdas Pophale) SiO2 
 PCOD9346482
Probable space group: P N A 21
;
_chemical_formula_sum "Si O2"
_cell_formula_units_Z 28
_cell_length_a 21.906611
_cell_length_b 10.773245
_cell_length_c 4.877302
_cell_angle_alpha 90.000000
_cell_angle_beta 90.000000
_cell_angle_gamma 90.000000
_cell_volume 1151.069060
_symmetry_space_group_name_H-M "P N A 21"
_symmetry_group_IT_number 33
_symmetry_cell_setting 'orthorhombic'
loop_
_space_group_symop_operation_xyz
x,y,z
-x,-y,1/2+z
1/2-x,1/2+y,1/2+z
1/2+x,1/2-y,z
loop_
_atom_site_type_symbol
_atom_site_label
_atom_site_fract_x
_atom_site_fract_y
_atom_site_fract_z
Si Si1 0.846526 0.957257 0.639180
Si Si2 0.064154 0.871657 0.796094
Si Si3 0.011227 0.191994 0.827579
Si Si4 0.622247 0.217821 0.468065
Si Si5 0.174036 0.818062 0.494408
Si Si6 0.254580 0.356471 0.505632
Si Si7 0.521815 0.068056 0.189371
O O1 0.861320 0.820732 0.738464
O O2 0.896055 0.017584 0.435233
O O3 0.779842 0.001477 0.529724
O O4 0.846962 0.041959 0.912567
O O5 0.015680 0.907111 0.554220
O O6 0.114290 0.778972 0.658365
O O7 0.969221 0.183982 0.560277
O O8 0.002374 0.311302 0.020402
O O9 0.077383 0.217341 0.688128
O O10 0.685655 0.167725 0.585820
O O11 0.585790 0.105175 0.327105
O O12 0.199882 0.776881 0.202117
O O13 0.230698 0.817884 0.698067
O O14 0.520484 0.967229 0.947250
#
# Coordination Sequence:
#
# PCOD9346482 Si02
#       7
#     4   4   4   4   4   4   4
#     4   9  23  46  74 110 157 193 260 325 379 461
#     4  11  20  46  69 111 158 198 254 317 397 459
#     4  12  24  43  75 108 152 210 254 313 396 482
#     4  12  26  47  83 113 152 220 257 316 406 475
#     4   9  19  43  69  96 157 189 231 336 361 451
#     4   9  22  43  71 105 152 193 266 316 381 452
#     4  12  26  50  69 105 154 199 258 321 374 476
#
# _framework density 24.325213999999999
#
# number of rings (size 3 to 8) (size 9 to 14) (size 15 to 20)
#    0.857    0.571    4.286    0.000    2.000    2.286 
#    5.143    2.857    9.429    0.000    0.000    0.000 
#    0.000    0.000    0.000    0.000    0.000    0.000 
#
# Total GULP energy -155981.438439 kJ/mol
# GULP energy per Si atom -5570.765659 kJ/mol
# Density = 2.426985 g / cm^3
# Si number density = 24.325214 Si / 1000 Ang^3
#
#
#
# Elastic Constant Matrix: (Units=GPa)
#
#
# Indices 1 2 3 4 5 6 
#
# 1 182.0613 47.6549 66.0344 0.0000 0.0000 0.0000
# 2 47.6549 47.5638 18.1000 0.0000 0.0000 0.0000
# 3 66.0344 18.1000 180.1112 0.0000 0.0000 0.0000
# 4 0.0000 0.0000 0.0000 42.6434 0.0000 0.0000
# 5 0.0000 0.0000 0.0000 0.0000 32.2346 0.0000
# 6 0.0000 0.0000 0.0000 0.0000 0.0000 27.4386
#
#
#
# Elastic Compliance Matrix: (Units=1/GPa)
#
#
# Indices 1 2 3 4 5 6 
#
# 1 0.008260 -0.007406 -0.002284 0.000000 0.000000 0.000000
# 2 -0.007406 0.028502 -0.000149 0.000000 0.000000 0.000000
# 3 -0.002284 -0.000149 0.006404 0.000000 0.000000 0.000000
# 4 0.000000 0.000000 0.000000 0.023450 0.000000 0.000000
# 5 0.000000 0.000000 0.000000 0.000000 0.031023 0.000000
# 6 0.000000 0.000000 0.000000 0.000000 0.000000 0.036445
#
#
# Mechanical properties :
#
#
# Convention : Reuss Voigt Hill
#
# Bulk Modulus (GPa) = 42.57600 74.81277 58.69438
# Shear Modulus (GPa) = 30.94231 38.99312 34.96772
#
# Velocity S-wave (km/s) = 3.57042 4.00808 3.79556
# Velocity P-wave (km/s) = 5.87690 7.22784 6.58709
#
# Compressibility (1/GPa) = 0.02348741
#
# Stress axis : x y z
#
# Youngs Moduli (GPa) = 121.07000 35.08579 156.14132
#
# Poissons Ratio (x) = 0.25986 0.35662
# Poissons Ratio (y) = 0.89669 0.02324
# Poissons Ratio (z) = 0.27652 0.00522
#
# Static dielectric constant tensor:
#      x y z
#    x 2.064540 0.000000 0.000000 
#    y 0.000000 2.109560 0.000000 
#    z 0.000000 0.000000 1.953030 
# 
# From -- ./inp_files/2008.got.cif
#   From: 2010.05.17/outbox.cif.g08.bks.cpg/sg33_2_cif.got.tgz:2008.got - 2010.06.03 17:15:25.
