data_PCOD9346900
_publ_section_title
;
Structure prediction by ZEFSAII (Michael W. Deem and Ramdas Pophale) SiO2 
 PCOD9346900
Probable space group: P N A 21
;
_chemical_formula_sum "Si O2"
_cell_formula_units_Z 32
_cell_length_a 10.951500
_cell_length_b 11.223460
_cell_length_c 11.553039
_cell_angle_alpha 90.000000
_cell_angle_beta 90.000000
_cell_angle_gamma 90.000000
_cell_volume 1420.027026
_symmetry_space_group_name_H-M "P N A 21"
_symmetry_group_IT_number 33
_symmetry_cell_setting 'orthorhombic'
loop_
_space_group_symop_operation_xyz
x,y,z
-x,-y,1/2+z
1/2-x,1/2+y,1/2+z
1/2+x,1/2-y,z
loop_
_atom_site_type_symbol
_atom_site_label
_atom_site_fract_x
_atom_site_fract_y
_atom_site_fract_z
Si Si1 0.456016 0.372497 0.869040
Si Si2 0.525046 0.962531 0.713789
Si Si3 0.213940 0.386263 0.148310
Si Si4 0.306191 0.499745 0.371144
Si Si5 0.033300 0.724179 0.146282
Si Si6 0.277559 0.021565 0.409061
Si Si7 0.845716 0.323770 0.018082
Si Si8 0.217715 0.268273 0.506138
O O1 0.555288 0.469712 0.905125
O O2 0.493350 0.317959 0.747123
O O3 0.323658 0.432511 0.858541
O O4 0.444882 0.264126 0.960216
O O5 0.413291 0.870611 0.715353
O O6 0.607244 0.964950 0.826659
O O7 0.601670 0.925689 0.600865
O O8 0.468064 0.092662 0.700356
O O9 0.297634 0.461567 0.236665
O O10 0.268656 0.263375 0.101927
O O11 0.190352 0.464557 0.033231
O O12 0.230538 0.615404 0.414415
O O13 0.251383 0.387827 0.438724
O O14 0.916600 0.726100 0.061474
O O15 0.166581 0.749734 0.093004
O O16 0.222186 0.151743 0.426277
#
# Coordination Sequence:
#
# PCOD9346900 Si02
#       8
#     4   4   4   4   4   4   4   4
#     4  11  27  46  78 106 154 199 258 320 388 473
#     4  12  25  46  75 104 149 197 250 315 382 464
#     4  11  26  47  75 108 152 192 253 314 378 462
#     4  12  26  48  77 110 153 203 251 317 399 457
#     4  12  26  45  78 111 152 198 260 316 388 469
#     4  11  26  49  73 110 145 198 254 315 387 462
#     4  11  26  49  73 115 147 203 256 316 394 467
#     4  12  26  48  75 114 154 198 258 327 384 472
#
# _framework density 22.534780999999999
#
# number of rings (size 3 to 8) (size 9 to 14) (size 15 to 20)
#    0.000    0.500    2.500    4.500   10.500    1.000 
#    6.750    0.000    0.000    0.000    0.000    0.000 
#    0.000    0.000    0.000    0.000    0.000    0.000 
#
# Total GULP energy -179098.579260 kJ/mol
# GULP energy per Si atom -5596.830602 kJ/mol
# Density = 2.248349 g / cm^3
# Si number density = 22.534781 Si / 1000 Ang^3
#
#
#
# Elastic Constant Matrix: (Units=GPa)
#
#
# Indices 1 2 3 4 5 6 
#
# 1 60.3615 6.2751 26.1000 0.0000 0.0000 0.0000
# 2 6.2751 88.7632 36.6984 0.0000 0.0000 0.0000
# 3 26.1000 36.6984 80.8949 0.0000 0.0000 0.0000
# 4 0.0000 0.0000 0.0000 29.2261 0.0000 0.0000
# 5 0.0000 0.0000 0.0000 0.0000 31.7591 0.0000
# 6 0.0000 0.0000 0.0000 0.0000 0.0000 39.2603
#
#
#
# Elastic Compliance Matrix: (Units=1/GPa)
#
#
# Indices 1 2 3 4 5 6 
#
# 1 0.019413 0.001498 -0.006943 0.000000 0.000000 0.000000
# 2 0.001498 0.013982 -0.006827 0.000000 0.000000 0.000000
# 3 -0.006943 -0.006827 0.017699 0.000000 0.000000 0.000000
# 4 0.000000 0.000000 0.000000 0.034216 0.000000 0.000000
# 5 0.000000 0.000000 0.000000 0.000000 0.031487 0.000000
# 6 0.000000 0.000000 0.000000 0.000000 0.000000 0.025471
#
#
# Mechanical properties :
#
#
# Convention : Reuss Voigt Hill
#
# Bulk Modulus (GPa) = 37.66286 40.90739 39.28513
# Shear Modulus (GPa) = 28.46373 30.77884 29.62128
#
# Velocity S-wave (km/s) = 3.55787 3.69973 3.62949
# Velocity P-wave (km/s) = 5.79892 6.03681 5.91906
#
# Compressibility (1/GPa) = 0.02655135
#
# Stress axis : x y z
#
# Youngs Moduli (GPa) = 51.51112 71.51839 56.50104
#
# Poissons Ratio (x) = -0.10715 0.39230
# Poissons Ratio (y) = -0.07717 0.38571
# Poissons Ratio (z) = 0.35765 0.48823
#
# Static dielectric constant tensor:
#      x y z
#    x 1.870530 0.000000 0.000000 
#    y 0.000000 1.805890 0.000000 
#    z 0.000000 0.000000 1.852240 
# 
# From -- ./inp_files/6499.got.cif
#   From: 2010.05.17/outbox.cif.g08.bks.cpg/sg33_4_cif.got.tgz:6499.got - 2010.06.03 17:15:25.
