data_PCOD9346821
_publ_section_title
;
Structure prediction by ZEFSAII (Michael W. Deem and Ramdas Pophale) SiO2 
 PCOD9346821
Probable space group: P N A 21
;
_chemical_formula_sum "Si O2"
_cell_formula_units_Z 20
_cell_length_a 18.407005
_cell_length_b 6.649338
_cell_length_c 7.425889
_cell_angle_alpha 90.000000
_cell_angle_beta 90.000000
_cell_angle_gamma 90.000000
_cell_volume 908.887212
_symmetry_space_group_name_H-M "P N A 21"
_symmetry_group_IT_number 33
_symmetry_cell_setting 'orthorhombic'
loop_
_space_group_symop_operation_xyz
x,y,z
-x,-y,1/2+z
1/2-x,1/2+y,1/2+z
1/2+x,1/2-y,z
loop_
_atom_site_type_symbol
_atom_site_label
_atom_site_fract_x
_atom_site_fract_y
_atom_site_fract_z
Si Si1 0.330872 0.985062 0.759050
Si Si2 0.837783 0.104047 0.651463
Si Si3 0.069478 0.146638 0.422496
Si Si4 0.407449 0.429344 0.292140
Si Si5 0.786869 0.335518 0.128195
O O1 0.393690 0.850683 0.848931
O O2 0.270378 0.838953 0.678036
O O3 0.350612 0.159747 0.619828
O O4 0.299327 0.118936 0.920481
O O5 0.862655 0.996084 0.466207
O O6 0.888744 0.025064 0.809546
O O7 0.755184 0.036896 0.691803
O O8 0.985748 0.134802 0.367344
O O9 0.082404 0.092598 0.632085
O O10 0.362089 0.242491 0.210447
#
# Coordination Sequence:
#
# PCOD9346821 Si02
#       5
#     4   4   4   4   4
#     4  11  26  45  72 108 146 189 248 297 376 431
#     4  11  25  47  70 109 143 193 241 302 368 437
#     4  11  26  48  70 108 149 194 242 303 365 444
#     4  12  24  47  76 102 150 192 244 304 370 435
#     4  11  25  43  74 107 144 188 241 308 361 441
#
# _framework density 22.004930000000002
#
# number of rings (size 3 to 8) (size 9 to 14) (size 15 to 20)
#    0.000    0.800    6.000    0.000    5.600    1.600 
#    3.600    0.000    0.000    0.000    0.000    0.000 
#    0.000    0.000    0.000    0.000    0.000    0.000 
#
# Total GULP energy -111678.903081 kJ/mol
# GULP energy per Si atom -5583.945154 kJ/mol
# Density = 2.195485 g / cm^3
# Si number density = 22.004930 Si / 1000 Ang^3
#
#
#
# Elastic Constant Matrix: (Units=GPa)
#
#
# Indices 1 2 3 4 5 6 
#
# 1 114.5884 35.1425 18.7570 0.0000 0.0000 0.0000
# 2 35.1425 106.3164 27.2840 0.0000 0.0000 0.0000
# 3 18.7570 27.2840 96.1433 0.0000 0.0000 0.0000
# 4 0.0000 0.0000 0.0000 29.2931 0.0000 0.0000
# 5 0.0000 0.0000 0.0000 0.0000 32.7258 0.0000
# 6 0.0000 0.0000 0.0000 0.0000 0.0000 5.6970
#
#
#
# Elastic Compliance Matrix: (Units=1/GPa)
#
#
# Indices 1 2 3 4 5 6 
#
# 1 0.009813 -0.002968 -0.001072 0.000000 0.000000 0.000000
# 2 -0.002968 0.011043 -0.002555 0.000000 0.000000 0.000000
# 3 -0.001072 -0.002555 0.011335 0.000000 0.000000 0.000000
# 4 0.000000 0.000000 0.000000 0.034138 0.000000 0.000000
# 5 0.000000 0.000000 0.000000 0.000000 0.030557 0.000000
# 6 0.000000 0.000000 0.000000 0.000000 0.000000 0.175530
#
#
# Mechanical properties :
#
#
# Convention : Reuss Voigt Hill
#
# Bulk Modulus (GPa) = 52.63015 53.26835 52.94925
# Shear Modulus (GPa) = 17.12689 29.26751 23.19720
#
# Velocity S-wave (km/s) = 2.79287 3.65093 3.25034
# Velocity P-wave (km/s) = 5.86255 6.48324 6.18069
#
# Compressibility (1/GPa) = 0.01900051
#
# Stress axis : x y z
#
# Youngs Moduli (GPa) = 101.90831 90.55759 88.22045
#
# Poissons Ratio (x) = 0.26882 0.09457
# Poissons Ratio (y) = 0.30251 0.22537
# Poissons Ratio (z) = 0.10925 0.23134
#
# Static dielectric constant tensor:
#      x y z
#    x 1.808430 0.000000 0.000000 
#    y 0.000000 1.897160 0.000000 
#    z 0.000000 0.000000 1.916870 
# 
# From -- ./inp_files/4565.got.cif
#   From: 2010.05.17/outbox.cif.g08.bks.cpg/sg33_3_cif.got.tgz:4565.got - 2010.06.03 17:15:25.
