data_PCOD9346752
_publ_section_title
;
Structure prediction by ZEFSAII (Michael W. Deem and Ramdas Pophale) SiO2 
 PCOD9346752
Probable space group: P N A 21
;
_chemical_formula_sum "Si O2"
_cell_formula_units_Z 28
_cell_length_a 10.679679
_cell_length_b 8.954950
_cell_length_c 11.189002
_cell_angle_alpha 90.000000
_cell_angle_beta 90.000000
_cell_angle_gamma 90.000000
_cell_volume 1070.071300
_symmetry_space_group_name_H-M "P N A 21"
_symmetry_group_IT_number 33
_symmetry_cell_setting 'orthorhombic'
loop_
_space_group_symop_operation_xyz
x,y,z
-x,-y,1/2+z
1/2-x,1/2+y,1/2+z
1/2+x,1/2-y,z
loop_
_atom_site_type_symbol
_atom_site_label
_atom_site_fract_x
_atom_site_fract_y
_atom_site_fract_z
Si Si1 0.827039 0.992223 0.079280
Si Si2 0.562322 0.358523 0.356851
Si Si3 0.196924 0.943566 0.195402
Si Si4 0.202884 0.416597 0.442238
Si Si5 0.441209 0.917600 0.501654
Si Si6 0.824404 0.805932 0.312057
Si Si7 0.896037 0.295155 0.203427
O O1 0.834179 0.160355 0.129926
O O2 0.858671 0.867526 0.179911
O O3 0.684956 0.988308 0.027382
O O4 0.922810 0.961799 0.971513
O O5 0.581905 0.458556 0.239021
O O6 0.668970 0.233399 0.372812
O O7 0.437500 0.269064 0.330509
O O8 0.313058 0.057730 0.213909
O O9 0.210460 0.806179 0.284406
O O10 0.217046 0.890156 0.061725
O O11 0.275727 0.547088 0.375801
O O12 0.064531 0.485986 0.470817
O O13 0.413092 0.793607 0.398145
O O14 0.481219 0.840134 0.626544
#
# Coordination Sequence:
#
# PCOD9346752 Si02
#       7
#     4   4   4   4   4   4   4
#     4  12  27  47  71 107 144 188 244 296 364 430
#     4  12  25  47  67 107 145 192 238 299 360 430
#     4  11  24  45  72 104 144 186 242 297 360 422
#     4  11  25  47  75 104 143 196 239 295 369 433
#     4  11  24  48  73 103 143 189 234 301 362 424
#     4  12  24  45  73 104 141 186 241 298 355 429
#     4  11  25  45  73 103 146 191 238 298 362 428
#
# _framework density 26.166481000000001
#
# number of rings (size 3 to 8) (size 9 to 14) (size 15 to 20)
#    0.000    0.571    2.857    6.000    2.000    1.143 
#    5.143    0.000    0.000    0.000    0.000    0.000 
#    0.000    0.000    0.000    0.000    0.000    0.000 
#
# Total GULP energy -156854.300105 kJ/mol
# GULP energy per Si atom -5601.939289 kJ/mol
# Density = 2.610692 g / cm^3
# Si number density = 26.166481 Si / 1000 Ang^3
#
#
#
# Elastic Constant Matrix: (Units=GPa)
#
#
# Indices 1 2 3 4 5 6 
#
# 1 79.6437 -2.5247 29.1112 0.0000 0.0000 0.0000
# 2 -2.5247 104.3045 30.8792 0.0000 0.0000 0.0000
# 3 29.1112 30.8792 105.8922 0.0000 0.0000 0.0000
# 4 0.0000 0.0000 0.0000 55.8343 0.0000 0.0000
# 5 0.0000 0.0000 0.0000 0.0000 21.0243 0.0000
# 6 0.0000 0.0000 0.0000 0.0000 0.0000 36.6881
#
#
#
# Elastic Compliance Matrix: (Units=1/GPa)
#
#
# Indices 1 2 3 4 5 6 
#
# 1 0.014211 0.001642 -0.004386 0.000000 0.000000 0.000000
# 2 0.001642 0.010683 -0.003567 0.000000 0.000000 0.000000
# 3 -0.004386 -0.003567 0.011689 0.000000 0.000000 0.000000
# 4 0.000000 0.000000 0.000000 0.017910 0.000000 0.000000
# 5 0.000000 0.000000 0.000000 0.000000 0.047564 0.000000
# 6 0.000000 0.000000 0.000000 0.000000 0.000000 0.027257
#
#
# Mechanical properties :
#
#
# Convention : Reuss Voigt Hill
#
# Bulk Modulus (GPa) = 41.73077 44.97465 43.35271
# Shear Modulus (GPa) = 33.35061 38.20100 35.77580
#
# Velocity S-wave (km/s) = 3.57396 3.82504 3.70163
# Velocity P-wave (km/s) = 5.74576 6.06078 5.90537
#
# Compressibility (1/GPa) = 0.02396313
#
# Stress axis : x y z
#
# Youngs Moduli (GPa) = 70.36778 93.60661 85.54777
#
# Poissons Ratio (x) = -0.15374 0.37519
# Poissons Ratio (y) = -0.11557 0.30513
# Poissons Ratio (z) = 0.30861 0.33387
#
# Static dielectric constant tensor:
#      x y z
#    x 2.087550 0.000000 0.000000 
#    y 0.000000 1.991660 0.000000 
#    z 0.000000 0.000000 2.086260 
# 
# From -- ./inp_files/6353.got.cif
#   From: 2010.05.17/outbox.cif.g08.bks.cpg/sg33_4_cif.got.tgz:6353.got - 2010.06.03 17:15:25.
