data_PCOD9346825
_publ_section_title
;
Structure prediction by ZEFSAII (Michael W. Deem and Ramdas Pophale) SiO2 
 PCOD9346825
Probable space group: P N A 21
;
_chemical_formula_sum "Si O2"
_cell_formula_units_Z 24
_cell_length_a 13.358974
_cell_length_b 8.803652
_cell_length_c 8.537081
_cell_angle_alpha 90.000000
_cell_angle_beta 90.000000
_cell_angle_gamma 90.000000
_cell_volume 1004.026958
_symmetry_space_group_name_H-M "P N A 21"
_symmetry_group_IT_number 33
_symmetry_cell_setting 'orthorhombic'
loop_
_space_group_symop_operation_xyz
x,y,z
-x,-y,1/2+z
1/2-x,1/2+y,1/2+z
1/2+x,1/2-y,z
loop_
_atom_site_type_symbol
_atom_site_label
_atom_site_fract_x
_atom_site_fract_y
_atom_site_fract_z
Si Si1 0.236155 0.156880 0.072560
Si Si2 0.457266 0.651798 0.392808
Si Si3 0.734401 0.888893 0.891896
Si Si4 0.964756 0.524300 0.254066
Si Si5 0.368684 0.439655 0.123282
Si Si6 0.356577 0.922493 0.920112
O O1 0.215815 0.054937 0.226696
O O2 0.317925 0.274410 0.140427
O O3 0.286710 0.069147 0.929411
O O4 0.132291 0.209088 0.004307
O O5 0.492162 0.806083 0.310458
O O6 0.414224 0.527561 0.270970
O O7 0.542843 0.578328 0.497804
O O8 0.619835 0.940882 0.861836
O O9 0.782607 0.720940 0.917847
O O10 0.778136 0.971930 0.042165
O O11 0.919880 0.553495 0.081249
O O12 0.064707 0.425748 0.279034
#
# Coordination Sequence:
#
# PCOD9346825 Si02
#       6
#     4   4   4   4   4   4
#     4  11  25  44  71 103 143 188 236 298 358 423
#     4  12  25  47  72 108 144 193 235 301 359 432
#     4  11  25  45  71 107 139 187 246 295 354 434
#     4  11  25  46  73 101 148 187 238 296 368 419
#     4  12  25  46  74 106 144 187 246 293 357 432
#     4  11  25  46  71 107 138 188 243 295 360 430
#
# _framework density 23.903741
#
# number of rings (size 3 to 8) (size 9 to 14) (size 15 to 20)
#    0.000    0.667    5.000    2.000    2.333    5.333 
#    6.000    0.000    0.000    0.000    0.000    0.000 
#    0.000    0.000    0.000    0.000    0.000    0.000 
#
# Total GULP energy -133977.083561 kJ/mol
# GULP energy per Si atom -5582.378482 kJ/mol
# Density = 2.384934 g / cm^3
# Si number density = 23.903741 Si / 1000 Ang^3
#
#
#
# Elastic Constant Matrix: (Units=GPa)
#
#
# Indices 1 2 3 4 5 6 
#
# 1 80.9034 41.8940 58.6630 0.0000 0.0000 0.0000
# 2 41.8940 82.7488 20.7925 0.0000 0.0000 0.0000
# 3 58.6630 20.7925 103.5308 0.0000 0.0000 0.0000
# 4 0.0000 0.0000 0.0000 33.3049 0.0000 0.0000
# 5 0.0000 0.0000 0.0000 0.0000 49.3358 0.0000
# 6 0.0000 0.0000 0.0000 0.0000 0.0000 20.6090
#
#
#
# Elastic Compliance Matrix: (Units=1/GPa)
#
#
# Indices 1 2 3 4 5 6 
#
# 1 0.027683 -0.010609 -0.013555 0.000000 0.000000 0.000000
# 2 -0.010609 0.016793 0.002639 0.000000 0.000000 0.000000
# 3 -0.013555 0.002639 0.016810 0.000000 0.000000 0.000000
# 4 0.000000 0.000000 0.000000 0.030026 0.000000 0.000000
# 5 0.000000 0.000000 0.000000 0.000000 0.020269 0.000000
# 6 0.000000 0.000000 0.000000 0.000000 0.000000 0.048523
#
#
# Mechanical properties :
#
#
# Convention : Reuss Voigt Hill
#
# Bulk Modulus (GPa) = 54.84108 56.65356 55.74732
# Shear Modulus (GPa) = 23.89686 30.37217 27.13451
#
# Velocity S-wave (km/s) = 3.16525 3.56842 3.37287
# Velocity P-wave (km/s) = 6.02915 6.38203 6.20810
#
# Compressibility (1/GPa) = 0.01823451
#
# Stress axis : x y z
#
# Youngs Moduli (GPa) = 36.12315 59.54871 59.48954
#
# Poissons Ratio (x) = 0.63177 0.80639
# Poissons Ratio (y) = 0.38324 -0.15699
# Poissons Ratio (z) = 0.48966 -0.15714
#
# Static dielectric constant tensor:
#      x y z
#    x 1.929480 0.000000 0.000000 
#    y 0.000000 1.991630 0.000000 
#    z 0.000000 0.000000 1.973340 
# 
# From -- ./inp_files/3716.got.cif
#   From: 2010.05.17/outbox.cif.g08.bks.cpg/sg33_2_cif.got.tgz:3716.got - 2010.06.03 17:15:25.
