data_PCOD9346753
_publ_section_title
;
Structure prediction by ZEFSAII (Michael W. Deem and Ramdas Pophale) SiO2 
 PCOD9346753
Probable space group: P N A 21
;
_chemical_formula_sum "Si O2"
_cell_formula_units_Z 32
_cell_length_a 11.973653
_cell_length_b 19.701993
_cell_length_c 5.811064
_cell_angle_alpha 90.000000
_cell_angle_beta 90.000000
_cell_angle_gamma 90.000000
_cell_volume 1370.858051
_symmetry_space_group_name_H-M "P N A 21"
_symmetry_group_IT_number 33
_symmetry_cell_setting 'orthorhombic'
loop_
_space_group_symop_operation_xyz
x,y,z
-x,-y,1/2+z
1/2-x,1/2+y,1/2+z
1/2+x,1/2-y,z
loop_
_atom_site_type_symbol
_atom_site_label
_atom_site_fract_x
_atom_site_fract_y
_atom_site_fract_z
Si Si1 0.018072 0.036251 0.944190
Si Si2 0.486677 0.187171 0.655349
Si Si3 0.171449 0.881504 0.289788
Si Si4 0.310660 0.622985 0.639667
Si Si5 0.327855 0.247725 0.026428
Si Si6 0.979048 0.176284 0.406489
Si Si7 0.569041 0.915943 0.788902
Si Si8 0.397879 0.931620 0.403416
O O1 0.928570 0.096361 0.953774
O O2 0.134752 0.076014 0.943377
O O3 0.995038 0.002285 0.692029
O O4 0.523276 0.261587 0.569658
O O5 0.419406 0.147657 0.459041
O O6 0.569932 0.126396 0.719541
O O7 0.409043 0.201834 0.872616
O O8 0.215286 0.808517 0.367260
O O9 0.266389 0.934995 0.355393
O O10 0.111305 0.870220 0.044383
O O11 0.274677 0.700438 0.594213
O O12 0.412853 0.633678 0.822537
O O13 0.192602 0.585980 0.681083
O O14 0.403954 0.282584 0.221355
O O15 0.457876 0.905113 0.635063
O O16 0.555426 0.992156 0.884339
#
# Coordination Sequence:
#
# PCOD9346753 Si02
#       8
#     4   4   4   4   4   4   4   4
#     4  12  28  53  79 114 162 213 271 323 398 485
#     4  11  24  45  72 105 153 194 255 316 392 470
#     4  11  28  46  74 109 153 205 259 326 404 459
#     4  12  26  47  81 110 155 200 263 331 400 484
#     4  11  25  45  72 112 144 198 254 324 400 464
#     4  11  25  49  72 113 154 194 265 325 396 480
#     4  12  26  47  71 113 147 205 260 316 395 467
#     4  12  26  46  71 106 154 201 257 321 381 481
#
# _framework density 23.343042000000001
#
# number of rings (size 3 to 8) (size 9 to 14) (size 15 to 20)
#    0.000    0.500    5.000    1.500    5.250    4.000 
#    0.000    0.000    0.000    0.000    0.000    0.000 
#    0.000    0.000    0.000    0.000    0.000    0.000 
#
# Total GULP energy -178242.743119 kJ/mol
# GULP energy per Si atom -5570.085722 kJ/mol
# Density = 2.328991 g / cm^3
# Si number density = 23.343042 Si / 1000 Ang^3
#
#
#
# Elastic Constant Matrix: (Units=GPa)
#
#
# Indices 1 2 3 4 5 6 
#
# 1 64.0657 5.9572 34.3261 0.0000 0.0000 0.0000
# 2 5.9572 83.0083 41.6441 0.0000 0.0000 0.0000
# 3 34.3261 41.6441 90.1300 0.0000 0.0000 0.0000
# 4 0.0000 0.0000 0.0000 20.8542 0.0000 0.0000
# 5 0.0000 0.0000 0.0000 0.0000 -172.9372 0.0000
# 6 0.0000 0.0000 0.0000 0.0000 0.0000 32.8506
#
#
#
# Elastic Compliance Matrix: (Units=1/GPa)
#
#
# Indices 1 2 3 4 5 6 
#
# 1 0.020221 0.003140 -0.009152 0.000000 0.000000 0.000000
# 2 0.003140 0.016170 -0.008667 0.000000 0.000000 0.000000
# 3 -0.009152 -0.008667 0.018585 0.000000 0.000000 0.000000
# 4 0.000000 0.000000 0.000000 0.047952 0.000000 0.000000
# 5 0.000000 0.000000 0.000000 0.000000 -0.005782 0.000000
# 6 0.000000 0.000000 0.000000 0.000000 0.000000 0.030441
#
#
# Mechanical properties :
#
#
# Convention : Reuss Voigt Hill
#
# Bulk Modulus (GPa) = 39.03519 44.56207 41.79863
# Shear Modulus (GPa) = 30.21462 -13.49469 8.35996
#
# Velocity S-wave (km/s) = 3.60164 -2.40699 1.89450
# Velocity P-wave (km/s) = 5.83562 3.37739 4.76766
#
# Compressibility (1/GPa) = 0.02561791
#
# Stress axis : x y z
#
# Youngs Moduli (GPa) = 49.45463 61.84364 53.80620
#
# Poissons Ratio (x) = -0.19421 0.49243
# Poissons Ratio (y) = -0.15530 0.46635
# Poissons Ratio (z) = 0.45261 0.53601
#
# Static dielectric constant tensor:
#      x y z
#    x 2.796370 0.000000 0.000000 
#    y 0.000000 1.991020 0.000000 
#    z 0.000000 0.000000 1.998580 
# 
# From -- ./inp_files/1081.got.cif
#   From: 2010.05.17/outbox.cif.g08.bks.cpg/sg33_1_cif.got.tgz:1081.got - 2010.06.03 17:15:25.
