data_PCOD9346147
_publ_section_title
;
Structure prediction by ZEFSAII (Michael W. Deem and Ramdas Pophale) SiO2 
 PCOD9346147
Probable space group: P N A 21
;
_chemical_formula_sum "Si O2"
_cell_formula_units_Z 28
_cell_length_a 13.838422
_cell_length_b 8.375795
_cell_length_c 10.728023
_cell_angle_alpha 90.000000
_cell_angle_beta 90.000000
_cell_angle_gamma 90.000000
_cell_volume 1243.461392
_symmetry_space_group_name_H-M "P N A 21"
_symmetry_group_IT_number 33
_symmetry_cell_setting 'orthorhombic'
loop_
_space_group_symop_operation_xyz
x,y,z
-x,-y,1/2+z
1/2-x,1/2+y,1/2+z
1/2+x,1/2-y,z
loop_
_atom_site_type_symbol
_atom_site_label
_atom_site_fract_x
_atom_site_fract_y
_atom_site_fract_z
Si Si1 0.639726 0.608612 0.243240
Si Si2 0.889820 0.352350 0.354347
Si Si3 0.007317 0.168310 0.928867
Si Si4 0.200689 0.343802 0.956573
Si Si5 0.152974 0.657086 0.578373
Si Si6 0.247753 0.851495 0.987680
Si Si7 0.423674 0.664075 0.895675
O O1 0.854065 0.486950 0.450474
O O2 0.541422 0.692338 0.291812
O O3 0.720922 0.651299 0.345511
O O4 0.616892 0.420610 0.269193
O O5 0.824913 0.195192 0.377662
O O6 0.000599 0.303237 0.369375
O O7 0.866302 0.409525 0.215316
O O8 0.946061 0.275579 0.023469
O O9 0.117831 0.213537 0.934966
O O10 0.980707 0.984422 0.957851
O O11 0.266571 0.297372 0.074107
O O12 0.301811 0.020162 0.991632
O O13 0.318324 0.349103 0.610865
O O14 0.334315 0.723235 0.977146
#
# Coordination Sequence:
#
# PCOD9346147 Si02
#       7
#     4   4   4   4   4   4   4
#     4   9  22  44  66 100 137 170 234 279 340 415
#     4  12  25  43  70 103 136 188 232 288 351 418
#     4   9  22  46  64 101 135 180 225 288 346 406
#     4  11  21  49  67  95 145 177 230 289 347 414
#     4  11  24  43  67 101 140 178 232 291 338 415
#     4  12  21  44  70  99 140 181 227 287 347 410
#     4  10  23  45  66 103 139 176 238 282 343 422
#
# _framework density 22.517789
#
# number of rings (size 3 to 8) (size 9 to 14) (size 15 to 20)
#    0.857    0.571    2.857    1.714    0.000    4.571 
#   18.000    0.000    0.000    0.000    0.000    0.000 
#    0.000    0.000    0.000    0.000    0.000    0.000 
#
# Total GULP energy -156292.029268 kJ/mol
# GULP energy per Si atom -5581.858188 kJ/mol
# Density = 2.246654 g / cm^3
# Si number density = 22.517789 Si / 1000 Ang^3
#
#
#
# Elastic Constant Matrix: (Units=GPa)
#
#
# Indices 1 2 3 4 5 6 
#
# 1 129.7503 19.3602 6.4837 0.0000 0.0000 0.0000
# 2 19.3602 63.6592 9.8516 0.0000 0.0000 0.0000
# 3 6.4837 9.8516 21.3211 0.0000 0.0000 0.0000
# 4 0.0000 0.0000 0.0000 20.8472 0.0000 0.0000
# 5 0.0000 0.0000 0.0000 0.0000 16.2969 0.0000
# 6 0.0000 0.0000 0.0000 0.0000 0.0000 16.7070
#
#
#
# Elastic Compliance Matrix: (Units=1/GPa)
#
#
# Indices 1 2 3 4 5 6 
#
# 1 0.008114 -0.002246 -0.001429 0.000000 0.000000 0.000000
# 2 -0.002246 0.017540 -0.007422 0.000000 0.000000 0.000000
# 3 -0.001429 -0.007422 0.050766 0.000000 0.000000 0.000000
# 4 0.000000 0.000000 0.000000 0.047968 0.000000 0.000000
# 5 0.000000 0.000000 0.000000 0.000000 0.061361 0.000000
# 6 0.000000 0.000000 0.000000 0.000000 0.000000 0.059855
#
#
# Mechanical properties :
#
#
# Convention : Reuss Voigt Hill
#
# Bulk Modulus (GPa) = 18.44163 31.79129 25.11646
# Shear Modulus (GPa) = 17.49023 22.70590 20.09806
#
# Velocity S-wave (km/s) = 2.79001 3.17890 2.99078
# Velocity P-wave (km/s) = 4.31120 5.25574 4.80673
#
# Compressibility (1/GPa) = 0.05422516
#
# Stress axis : x y z
#
# Youngs Moduli (GPa) = 123.24801 57.01142 19.69836
#
# Poissons Ratio (x) = 0.12807 0.02816
# Poissons Ratio (y) = 0.27686 0.14619
# Poissons Ratio (z) = 0.17617 0.42311
#
# Static dielectric constant tensor:
#      x y z
#    x 1.821280 0.000000 0.000000 
#    y 0.000000 1.904330 0.000000 
#    z 0.000000 0.000000 1.820410 
# 
# From -- ./inp_files/8129.got.cif
#   From: 2010.05.17/outbox.cif.g08.bks.cpg/sg33_5_cif.got.tgz:8129.got - 2010.06.03 17:15:25.
