data_PCOD9346238
_publ_section_title
;
Structure prediction by ZEFSAII (Michael W. Deem and Ramdas Pophale) SiO2 
 PCOD9346238
Probable space group: P N A 21
;
_chemical_formula_sum "Si O2"
_cell_formula_units_Z 16
_cell_length_a 17.460723
_cell_length_b 4.779615
_cell_length_c 4.780404
_cell_angle_alpha 90.000000
_cell_angle_beta 90.000000
_cell_angle_gamma 90.000000
_cell_volume 398.951166
_symmetry_space_group_name_H-M "P N A 21"
_symmetry_group_IT_number 33
_symmetry_cell_setting 'orthorhombic'
loop_
_space_group_symop_operation_xyz
x,y,z
-x,-y,1/2+z
1/2-x,1/2+y,1/2+z
1/2+x,1/2-y,z
loop_
_atom_site_type_symbol
_atom_site_label
_atom_site_fract_x
_atom_site_fract_y
_atom_site_fract_z
Si Si1 0.615517 0.000000 0.363420
Si Si2 0.500000 0.741336 0.613420
Si Si3 0.628863 0.500000 0.863420
Si Si4 0.250000 0.250000 0.613420
O O1 0.518628 0.000000 0.363420
O O2 0.602261 0.255981 0.112109
O O3 0.646299 0.230982 0.597384
O O4 0.646299 0.769018 0.129456
O O5 0.479713 0.500000 0.363420
O O6 0.602261 0.744019 0.614731
O O7 0.750440 0.000000 0.863420
O O8 0.729286 0.500000 0.863420
#
# Coordination Sequence:
#
# PCOD9346238 Si02
#       4
#     4   4   4   4
#     4  11  24  40  64  91 124 162 204 251 304 360
#     4  12  24  42  64  92 124 162 204 252 304 362
#     4  11  24  40  64  91 124 162 204 251 304 360
#     4  10  24  42  64  92 124 162 204 252 304 362
#
# _framework density 40.105153999999999
#
# number of rings (size 3 to 8) (size 9 to 14) (size 15 to 20)
#    0.000    1.000    0.000    6.000    0.000   12.000 
#    0.000    0.000    0.000    0.000    0.000    0.000 
#    0.000    0.000    0.000    0.000    0.000    0.000 
#
# Total GULP energy -89874.874295 kJ/mol
# GULP energy per Si atom -5617.179643 kJ/mol
# Density = 4.001387 g / cm^3
# Si number density = 40.105154 Si / 1000 Ang^3
#
#
#
# Elastic Constant Matrix: (Units=GPa)
#
#
# Indices 1 2 3 4 5 6 
#
# 1 317.8414 230.1371 229.9574 0.0000 0.0000 0.0000
# 2 230.1371 694.1917 251.8563 0.0000 0.0000 0.0000
# 3 229.9574 251.8563 694.8355 0.0000 0.0000 0.0000
# 4 0.0000 0.0000 0.0000 223.1130 0.0000 0.0000
# 5 0.0000 0.0000 0.0000 0.0000 182.3326 0.0000
# 6 0.0000 0.0000 0.0000 0.0000 0.0000 181.7908
#
#
#
# Elastic Compliance Matrix: (Units=1/GPa)
#
#
# Indices 1 2 3 4 5 6 
#
# 1 0.004854 -0.001182 -0.001178 0.000000 0.000000 0.000000
# 2 -0.001182 0.001946 -0.000314 0.000000 0.000000 0.000000
# 3 -0.001178 -0.000314 0.001943 0.000000 0.000000 0.000000
# 4 0.000000 0.000000 0.000000 0.004482 0.000000 0.000000
# 5 0.000000 0.000000 0.000000 0.000000 0.005484 0.000000
# 6 0.000000 0.000000 0.000000 0.000000 0.000000 0.005501
#
#
# Mechanical properties :
#
#
# Convention : Reuss Voigt Hill
#
# Bulk Modulus (GPa) = 294.55014 347.86334 321.20674
# Shear Modulus (GPa) = 162.91078 183.77514 173.34296
#
# Velocity S-wave (km/s) = 6.38037 6.77664 6.58149
# Velocity P-wave (km/s) = 11.30852 12.17196 11.74817
#
# Compressibility (1/GPa) = 0.00339501
#
# Stress axis : x y z
#
# Youngs Moduli (GPa) = 205.99970 513.77247 514.65293
#
# Poissons Ratio (x) = 0.60721 0.60635
# Poissons Ratio (y) = 0.24346 0.16179
# Poissons Ratio (z) = 0.24270 0.16151
#
# Static dielectric constant tensor:
#      x y z
#    x 4.039130 0.000000 0.000000 
#    y 0.000000 2.802400 0.000000 
#    z 0.000000 0.000000 2.813960 
# 
# From -- ./inp_files/1929.got.cif
#   From: 2010.05.17/outbox.cif.g08.bks.cpg/sg33_1_cif.got.tgz:1929.got - 2010.06.03 17:15:25.
