data_PCOD9346732
_publ_section_title
;
Structure prediction by ZEFSAII (Michael W. Deem and Ramdas Pophale) SiO2 
 PCOD9346732
Probable space group: P N A 21
;
_chemical_formula_sum "Si O2"
_cell_formula_units_Z 32
_cell_length_a 13.808928
_cell_length_b 17.420538
_cell_length_c 6.032210
_cell_angle_alpha 90.000000
_cell_angle_beta 90.000000
_cell_angle_gamma 90.000000
_cell_volume 1451.102134
_symmetry_space_group_name_H-M "P N A 21"
_symmetry_group_IT_number 33
_symmetry_cell_setting 'orthorhombic'
loop_
_space_group_symop_operation_xyz
x,y,z
-x,-y,1/2+z
1/2-x,1/2+y,1/2+z
1/2+x,1/2-y,z
loop_
_atom_site_type_symbol
_atom_site_label
_atom_site_fract_x
_atom_site_fract_y
_atom_site_fract_z
Si Si1 0.831098 0.721467 0.083110
Si Si2 0.256172 0.002910 0.840777
Si Si3 0.913739 0.568904 0.134892
Si Si4 0.969900 0.809949 0.782579
Si Si5 0.329732 0.239820 0.281114
Si Si6 0.696026 0.334489 0.954704
Si Si7 0.127535 0.569543 0.960804
Si Si8 0.533247 0.532253 0.937593
O O1 0.867817 0.648693 0.221127
O O2 0.823345 0.800641 0.215812
O O3 0.912279 0.740917 0.900277
O O4 0.727929 0.711547 0.964848
O O5 0.251899 0.085633 0.961983
O O6 0.284033 0.030222 0.594043
O O7 0.149244 0.970464 0.889899
O O8 0.344732 0.950085 0.923330
O O9 0.900805 0.493695 0.280959
O O10 0.027928 0.579598 0.099074
O O11 0.903704 0.840765 0.585331
O O12 0.071492 0.776981 0.706505
O O13 0.992988 0.881282 0.940482
O O14 0.345955 0.154084 0.376415
O O15 0.259839 0.229336 0.074620
O O16 0.491020 0.499112 0.692719
#
# Coordination Sequence:
#
# PCOD9346732 Si02
#       8
#     4   4   4   4   4   4   4   4
#     4  11  25  44  70 103 141 183 238 300 369 444
#     4  12  25  46  72 102 146 189 245 309 368 454
#     4  12  26  44  72 109 141 187 247 303 372 457
#     4  11  25  45  70 101 144 190 241 302 368 446
#     4  11  24  45  69 100 139 184 239 299 367 444
#     4  11  24  44  71 100 136 190 235 297 375 440
#     4  12  25  44  74 102 144 189 238 306 382 448
#     4  12  28  48  76 111 149 200 255 312 379 453
#
# _framework density 22.052202999999999
#
# number of rings (size 3 to 8) (size 9 to 14) (size 15 to 20)
#    0.000    0.500    6.250    1.500    3.500    6.000 
#    0.000    0.000    0.000    0.000    0.000    0.000 
#    0.000    0.000    0.000    0.000    0.000    0.000 
#
# Total GULP energy -178467.892644 kJ/mol
# GULP energy per Si atom -5577.121645 kJ/mol
# Density = 2.200201 g / cm^3
# Si number density = 22.052203 Si / 1000 Ang^3
#
#
#
# Elastic Constant Matrix: (Units=GPa)
#
#
# Indices 1 2 3 4 5 6 
#
# 1 82.5622 3.8036 12.4755 0.0000 0.0000 0.0000
# 2 3.8036 70.5102 -5.6648 0.0000 0.0000 0.0000
# 3 12.4755 -5.6648 29.8257 0.0000 0.0000 0.0000
# 4 0.0000 0.0000 0.0000 18.6325 0.0000 0.0000
# 5 0.0000 0.0000 0.0000 0.0000 26.7831 0.0000
# 6 0.0000 0.0000 0.0000 0.0000 0.0000 36.8309
#
#
#
# Elastic Compliance Matrix: (Units=1/GPa)
#
#
# Indices 1 2 3 4 5 6 
#
# 1 0.013022 -0.001158 -0.005667 0.000000 0.000000 0.000000
# 2 -0.001158 0.014505 0.003239 0.000000 0.000000 0.000000
# 3 -0.005667 0.003239 0.036514 0.000000 0.000000 0.000000
# 4 0.000000 0.000000 0.000000 0.053670 0.000000 0.000000
# 5 0.000000 0.000000 0.000000 0.000000 0.037337 0.000000
# 6 0.000000 0.000000 0.000000 0.000000 0.000000 0.027151
#
#
# Mechanical properties :
#
#
# Convention : Reuss Voigt Hill
#
# Bulk Modulus (GPa) = 17.58395 22.68074 20.13235
# Shear Modulus (GPa) = 24.00097 27.93488 25.96792
#
# Velocity S-wave (km/s) = 3.30263 3.56302 3.43529
# Velocity P-wave (km/s) = 4.74702 5.21864 4.98841
#
# Compressibility (1/GPa) = 0.05687003
#
# Stress axis : x y z
#
# Youngs Moduli (GPa) = 76.79512 68.94158 27.38711
#
# Poissons Ratio (x) = 0.07981 0.15519
# Poissons Ratio (y) = 0.08890 -0.08871
# Poissons Ratio (z) = 0.43517 -0.22331
#
# Static dielectric constant tensor:
#      x y z
#    x 1.786770 0.000000 0.000000 
#    y 0.000000 1.812200 0.000000 
#    z 0.000000 0.000000 1.857390 
# 
# From -- ./inp_files/1513.got.cif
#   From: 2010.05.17/outbox.cif.g08.bks.cpg/sg33_1_cif.got.tgz:1513.got - 2010.06.03 17:15:25.
