data_PCOD9346906
_publ_section_title
;
Structure prediction by ZEFSAII (Michael W. Deem and Ramdas Pophale) SiO2 
 PCOD9346906
Probable space group: P N A 21
;
_chemical_formula_sum "Si O2"
_cell_formula_units_Z 20
_cell_length_a 16.736890
_cell_length_b 4.829464
_cell_length_c 9.005126
_cell_angle_alpha 90.000000
_cell_angle_beta 90.000000
_cell_angle_gamma 90.000000
_cell_volume 727.886205
_symmetry_space_group_name_H-M "P N A 21"
_symmetry_group_IT_number 33
_symmetry_cell_setting 'orthorhombic'
loop_
_space_group_symop_operation_xyz
x,y,z
-x,-y,1/2+z
1/2-x,1/2+y,1/2+z
1/2+x,1/2-y,z
loop_
_atom_site_type_symbol
_atom_site_label
_atom_site_fract_x
_atom_site_fract_y
_atom_site_fract_z
Si Si1 0.760463 0.432190 0.394060
Si Si2 0.346575 0.952706 0.685896
Si Si3 0.500586 0.329168 0.282093
Si Si4 0.898850 0.654220 0.216279
Si Si5 0.101945 0.795396 0.460092
O O1 0.722804 0.204821 0.282139
O O2 0.820289 0.399799 0.533911
O O3 0.810967 0.634612 0.286612
O O4 0.684637 0.545345 0.484827
O O5 0.422977 0.743717 0.677956
O O6 0.380742 0.179626 0.795722
O O7 0.456755 0.040930 0.316304
O O8 0.532424 0.486993 0.426019
O O9 0.433921 0.538094 0.216237
O O10 0.903485 0.470187 0.066378
#
# Coordination Sequence:
#
# PCOD9346906 Si02
#       5
#     4   4   4   4   4
#     4  11  27  47  76 115 154 215 261 331 395 483
#     4  11  26  49  76 114 159 209 265 329 402 478
#     4  11  28  48  75 116 157 204 260 331 396 475
#     4  12  28  49  81 113 158 209 265 328 401 469
#     4  11  27  49  76 116 156 207 265 325 390 485
#
# _framework density 27.476821000000001
#
# number of rings (size 3 to 8) (size 9 to 14) (size 15 to 20)
#    0.000    0.800    4.000    0.000   14.000    1.600 
#    0.000    0.000    0.000    0.000    0.000    0.000 
#    0.000    0.000    0.000    0.000    0.000    0.000 
#
# Total GULP energy -111841.366627 kJ/mol
# GULP energy per Si atom -5592.068331 kJ/mol
# Density = 2.741428 g / cm^3
# Si number density = 27.476821 Si / 1000 Ang^3
#
#
#
# Elastic Constant Matrix: (Units=GPa)
#
#
# Indices 1 2 3 4 5 6 
#
# 1 112.5445 12.0390 12.8517 0.0000 0.0000 0.0000
# 2 12.0390 90.3713 -24.2970 0.0000 0.0000 0.0000
# 3 12.8517 -24.2970 87.7139 0.0000 0.0000 0.0000
# 4 0.0000 0.0000 0.0000 25.8193 0.0000 0.0000
# 5 0.0000 0.0000 0.0000 0.0000 48.5101 0.0000
# 6 0.0000 0.0000 0.0000 0.0000 0.0000 36.2621
#
#
#
# Elastic Compliance Matrix: (Units=1/GPa)
#
#
# Indices 1 2 3 4 5 6 
#
# 1 0.009281 -0.001731 -0.001839 0.000000 0.000000 0.000000
# 2 -0.001731 0.012279 0.003655 0.000000 0.000000 0.000000
# 3 -0.001839 0.003655 0.012683 0.000000 0.000000 0.000000
# 4 0.000000 0.000000 0.000000 0.038731 0.000000 0.000000
# 5 0.000000 0.000000 0.000000 0.000000 0.020614 0.000000
# 6 0.000000 0.000000 0.000000 0.000000 0.000000 0.027577
#
#
# Mechanical properties :
#
#
# Convention : Reuss Voigt Hill
#
# Bulk Modulus (GPa) = 29.06017 32.42414 30.74215
# Shear Modulus (GPa) = 37.74591 41.45403 39.59997
#
# Velocity S-wave (km/s) = 3.71042 3.88840 3.80045
# Velocity P-wave (km/s) = 5.38103 5.65559 5.52002
#
# Compressibility (1/GPa) = 0.03441136
#
# Stress axis : x y z
#
# Youngs Moduli (GPa) = 107.75229 81.44213 78.84831
#
# Poissons Ratio (x) = 0.14096 0.14502
# Poissons Ratio (y) = 0.18650 -0.28818
# Poissons Ratio (z) = 0.19818 -0.29766
#
# Static dielectric constant tensor:
#      x y z
#    x 2.261660 0.000000 0.000000 
#    y 0.000000 2.158020 0.000000 
#    z 0.000000 0.000000 2.263020 
# 
# From -- ./inp_files/4561.got.cif
#   From: 2010.05.17/outbox.cif.g08.bks.cpg/sg33_3_cif.got.tgz:4561.got - 2010.06.03 17:15:25.
