data_PCOD9346108
_publ_section_title
;
Structure prediction by ZEFSAII (Michael W. Deem and Ramdas Pophale) SiO2 
 PCOD9346108
Probable space group: P N A 21
;
_chemical_formula_sum "Si O2"
_cell_formula_units_Z 28
_cell_length_a 16.363066
_cell_length_b 9.322090
_cell_length_c 8.183371
_cell_angle_alpha 90.000000
_cell_angle_beta 90.000000
_cell_angle_gamma 90.000000
_cell_volume 1248.274832
_symmetry_space_group_name_H-M "P N A 21"
_symmetry_group_IT_number 33
_symmetry_cell_setting 'orthorhombic'
loop_
_space_group_symop_operation_xyz
x,y,z
-x,-y,1/2+z
1/2-x,1/2+y,1/2+z
1/2+x,1/2-y,z
loop_
_atom_site_type_symbol
_atom_site_label
_atom_site_fract_x
_atom_site_fract_y
_atom_site_fract_z
Si Si1 0.503892 0.862973 0.118540
Si Si2 0.064409 0.820825 0.676159
Si Si3 0.391859 0.042486 0.337554
Si Si4 0.297122 0.775577 0.443528
Si Si5 0.375925 0.634427 0.124089
Si Si6 0.384287 0.288109 0.837475
Si Si7 0.378176 0.617838 0.755761
O O1 0.465831 0.704892 0.113522
O O2 0.587138 0.837916 0.219095
O O3 0.429792 0.954114 0.188998
O O4 0.531644 0.939302 0.956889
O O5 0.118895 0.702913 0.770204
O O6 0.049836 0.789388 0.483823
O O7 0.973861 0.837126 0.750313
O O8 0.111739 0.969975 0.670203
O O9 0.325160 0.942703 0.425454
O O10 0.329088 0.704417 0.274934
O O11 0.200343 0.761999 0.430144
O O12 0.333632 0.697271 0.604434
O O13 0.343637 0.653370 0.938079
O O14 0.376108 0.443379 0.749886
#
# Coordination Sequence:
#
# PCOD9346108 Si02
#       7
#     4   4   4   4   4   4   4
#     4  11  21  41  67 101 129 175 234 288 347 417
#     4  11  22  44  73 103 130 182 241 299 342 423
#     4  11  24  40  71 103 138 174 230 304 352 414
#     4  11  27  46  65 103 150 184 226 298 358 439
#     4  10  23  43  73 101 132 183 244 282 355 423
#     4  11  26  43  71 100 142 188 235 283 370 427
#     4  11  23  45  74 101 135 184 240 296 342 429
#
# _framework density 22.430955999999998
#
# number of rings (size 3 to 8) (size 9 to 14) (size 15 to 20)
#    0.000    1.143    2.857    3.429    6.000    2.286 
#    0.000    0.000    0.000    0.000    0.000    0.000 
#    0.000    0.000    0.000    0.000    0.000    0.000 
#
# Total GULP energy -156221.214147 kJ/mol
# GULP energy per Si atom -5579.329077 kJ/mol
# Density = 2.237990 g / cm^3
# Si number density = 22.430956 Si / 1000 Ang^3
#
#
#
# Elastic Constant Matrix: (Units=GPa)
#
#
# Indices 1 2 3 4 5 6 
#
# 1 55.8738 6.5166 22.4949 0.0000 0.0000 0.0000
# 2 6.5166 64.2242 16.6767 0.0000 0.0000 0.0000
# 3 22.4949 16.6767 85.1921 0.0000 0.0000 0.0000
# 4 0.0000 0.0000 0.0000 21.4008 0.0000 0.0000
# 5 0.0000 0.0000 0.0000 0.0000 22.4976 0.0000
# 6 0.0000 0.0000 0.0000 0.0000 0.0000 16.5849
#
#
#
# Elastic Compliance Matrix: (Units=1/GPa)
#
#
# Indices 1 2 3 4 5 6 
#
# 1 0.020056 -0.000695 -0.005160 0.000000 0.000000 0.000000
# 2 -0.000695 0.016428 -0.003032 0.000000 0.000000 0.000000
# 3 -0.005160 -0.003032 0.013694 0.000000 0.000000 0.000000
# 4 0.000000 0.000000 0.000000 0.046727 0.000000 0.000000
# 5 0.000000 0.000000 0.000000 0.000000 0.044449 0.000000
# 6 0.000000 0.000000 0.000000 0.000000 0.000000 0.060296
#
#
# Mechanical properties :
#
#
# Convention : Reuss Voigt Hill
#
# Bulk Modulus (GPa) = 30.86041 32.96295 31.91168
# Shear Modulus (GPa) = 21.71776 22.73678 22.22727
#
# Velocity S-wave (km/s) = 3.11497 3.18722 3.15130
# Velocity P-wave (km/s) = 5.16965 5.31711 5.24390
#
# Compressibility (1/GPa) = 0.03240397
#
# Stress axis : x y z
#
# Youngs Moduli (GPa) = 49.86079 60.87023 73.02379
#
# Poissons Ratio (x) = 0.04232 0.37678
# Poissons Ratio (y) = 0.03467 0.22143
# Poissons Ratio (z) = 0.25726 0.18458
#
# Static dielectric constant tensor:
#      x y z
#    x 1.838890 0.000000 0.000000 
#    y 0.000000 1.882820 0.000000 
#    z 0.000000 0.000000 1.904420 
# 
# From -- ./inp_files/4686.got.cif
#   From: 2010.05.17/outbox.cif.g08.bks.cpg/sg33_3_cif.got.tgz:4686.got - 2010.06.03 17:15:25.
