data_PCOD9346129
_publ_section_title
;
Structure prediction by ZEFSAII (Michael W. Deem and Ramdas Pophale) SiO2 
 PCOD9346129
Probable space group: P N A 21
;
_chemical_formula_sum "Si O2"
_cell_formula_units_Z 32
_cell_length_a 7.972678
_cell_length_b 19.663257
_cell_length_c 8.413445
_cell_angle_alpha 90.000000
_cell_angle_beta 90.000000
_cell_angle_gamma 90.000000
_cell_volume 1318.965815
_symmetry_space_group_name_H-M "P N A 21"
_symmetry_group_IT_number 33
_symmetry_cell_setting 'orthorhombic'
loop_
_space_group_symop_operation_xyz
x,y,z
-x,-y,1/2+z
1/2-x,1/2+y,1/2+z
1/2+x,1/2-y,z
loop_
_atom_site_type_symbol
_atom_site_label
_atom_site_fract_x
_atom_site_fract_y
_atom_site_fract_z
Si Si1 0.033289 0.083954 0.384100
Si Si2 0.000801 0.331567 0.905552
Si Si3 0.496926 0.446282 0.037994
Si Si4 0.078901 0.416737 0.480063
Si Si5 0.398310 0.954415 0.617832
Si Si6 0.798461 0.335221 0.573248
Si Si7 0.840769 0.185363 0.536052
Si Si8 0.402523 0.312256 0.876926
O O1 0.925577 0.154249 0.378329
O O2 0.167803 0.107960 0.514932
O O3 0.086705 0.064189 0.207115
O O4 0.948551 0.014670 0.449151
O O5 0.001450 0.394633 0.025942
O O6 0.201058 0.321772 0.873626
O O7 0.879649 0.342524 0.750422
O O8 0.942245 0.257671 0.966333
O O9 0.295437 0.454922 0.062510
O O10 0.503554 0.376394 0.941738
O O11 0.229950 0.381384 0.572690
O O12 0.991521 0.475788 0.578660
O O13 0.955495 0.352795 0.460646
O O14 0.110783 0.442987 0.304810
O O15 0.751928 0.257775 0.528291
O O16 0.955574 0.195480 0.692158
#
# Coordination Sequence:
#
# PCOD9346129 Si02
#       8
#     4   4   4   4   4   4   4   4
#     4  12  25  45  70  99 143 185 233 298 355 422
#     4  10  23  44  68 100 136 180 230 286 350 421
#     4  11  25  47  67 102 140 181 233 295 355 419
#     4  12  23  45  69 102 137 185 234 290 354 423
#     4  11  25  44  72 101 139 180 237 294 349 430
#     4  11  24  43  70 102 137 185 236 283 360 425
#     4  11  24  42  69 101 137 184 230 291 350 426
#     4  10  23  44  69  97 137 178 229 287 347 424
#
# _framework density 24.261431999999999
#
# number of rings (size 3 to 8) (size 9 to 14) (size 15 to 20)
#    0.000    1.000    3.750    2.250    7.000    3.000 
#    4.500    0.000    0.000    0.000    0.000    0.000 
#    0.000    0.000    0.000    0.000    0.000    0.000 
#
# Total GULP energy -178548.047379 kJ/mol
# GULP energy per Si atom -5579.626481 kJ/mol
# Density = 2.420621 g / cm^3
# Si number density = 24.261432 Si / 1000 Ang^3
#
#
#
# Elastic Constant Matrix: (Units=GPa)
#
#
# Indices 1 2 3 4 5 6 
#
# 1 38.8009 31.2594 13.8447 0.0000 0.0000 0.0000
# 2 31.2594 192.4670 65.4085 0.0000 0.0000 0.0000
# 3 13.8447 65.4085 82.8677 0.0000 0.0000 0.0000
# 4 0.0000 0.0000 0.0000 44.3445 0.0000 0.0000
# 5 0.0000 0.0000 0.0000 0.0000 26.4167 0.0000
# 6 0.0000 0.0000 0.0000 0.0000 0.0000 45.2844
#
#
#
# Elastic Compliance Matrix: (Units=1/GPa)
#
#
# Indices 1 2 3 4 5 6 
#
# 1 0.029804 -0.004302 -0.001583 0.000000 0.000000 0.000000
# 2 -0.004302 0.007721 -0.005376 0.000000 0.000000 0.000000
# 3 -0.001583 -0.005376 0.016575 0.000000 0.000000 0.000000
# 4 0.000000 0.000000 0.000000 0.022551 0.000000 0.000000
# 5 0.000000 0.000000 0.000000 0.000000 0.037855 0.000000
# 6 0.000000 0.000000 0.000000 0.000000 0.000000 0.022083
#
#
# Mechanical properties :
#
#
# Convention : Reuss Voigt Hill
#
# Bulk Modulus (GPa) = 31.66845 59.46231 45.56538
# Shear Modulus (GPa) = 29.47464 36.78399 33.12932
#
# Velocity S-wave (km/s) = 3.48929 3.89800 3.69929
# Velocity P-wave (km/s) = 5.41432 6.69488 6.08836
#
# Compressibility (1/GPa) = 0.03157717
#
# Stress axis : x y z
#
# Youngs Moduli (GPa) = 33.55278 129.51008 60.33133
#
# Poissons Ratio (x) = 0.55722 0.09552
# Poissons Ratio (y) = 0.14436 0.32433
# Poissons Ratio (z) = 0.05312 0.69622
#
# Static dielectric constant tensor:
#      x y z
#    x 2.194450 0.000000 0.000000 
#    y 0.000000 1.906190 0.000000 
#    z 0.000000 0.000000 1.886490 
# 
# From -- ./inp_files/3485.got.cif
#   From: 2010.05.17/outbox.cif.g08.bks.cpg/sg33_2_cif.got.tgz:3485.got - 2010.06.03 17:15:25.
