data_PCOD9346899
_publ_section_title
;
Structure prediction by ZEFSAII (Michael W. Deem and Ramdas Pophale) SiO2 
 PCOD9346899
Probable space group: P N A 21
;
_chemical_formula_sum "Si O2"
_cell_formula_units_Z 32
_cell_length_a 28.868332
_cell_length_b 4.986684
_cell_length_c 9.234737
_cell_angle_alpha 90.000000
_cell_angle_beta 90.000000
_cell_angle_gamma 90.000000
_cell_volume 1329.407336
_symmetry_space_group_name_H-M "P N A 21"
_symmetry_group_IT_number 33
_symmetry_cell_setting 'orthorhombic'
loop_
_space_group_symop_operation_xyz
x,y,z
-x,-y,1/2+z
1/2-x,1/2+y,1/2+z
1/2+x,1/2-y,z
loop_
_atom_site_type_symbol
_atom_site_label
_atom_site_fract_x
_atom_site_fract_y
_atom_site_fract_z
Si Si1 0.965076 0.163161 0.201770
Si Si2 0.042021 0.913856 0.377267
Si Si3 0.761395 0.770142 0.896711
Si Si4 0.092592 0.570547 0.168201
Si Si5 0.770228 0.764676 0.567189
Si Si6 0.865753 0.734462 0.920512
Si Si7 0.401892 0.845485 0.226375
Si Si8 0.874010 0.909085 0.513103
O O1 0.942387 0.868723 0.199027
O O2 0.927530 0.376458 0.257827
O O3 0.973846 0.212419 0.030253
O O4 0.006700 0.132182 0.314482
O O5 0.092432 0.054062 0.396254
O O6 0.048979 0.694236 0.251141
O O7 0.749043 0.763003 0.727644
O O8 0.814982 0.855451 0.910321
O O9 0.755334 0.478024 0.965533
O O10 0.731890 0.977106 0.990761
O O11 0.127603 0.493228 0.298775
O O12 0.088270 0.291579 0.084167
O O13 0.111905 0.792949 0.058089
O O14 0.823595 0.853867 0.577744
O O15 0.873245 0.617189 0.079919
O O16 0.372286 0.696768 0.349347
#
# Coordination Sequence:
#
# PCOD9346899 Si02
#       8
#     4   4   4   4   4   4   4   4
#     4  11  27  44  71 103 148 177 251 294 364 426
#     4  11  26  47  73 107 141 197 240 304 362 441
#     4  12  28  48  77 109 150 196 245 309 368 445
#     4  12  23  46  74 102 136 198 236 289 355 445
#     4  12  28  48  73 114 146 191 250 306 370 437
#     4  11  26  50  77  99 150 196 246 287 380 444
#     4  11  27  47  69 109 138 192 235 308 360 432
#     4  12  27  46  76 103 147 185 249 295 369 436
#
# _framework density 24.070875999999998
#
# number of rings (size 3 to 8) (size 9 to 14) (size 15 to 20)
#    0.000    0.500    3.750    2.250   12.250    0.000 
#    0.000    0.000    0.000    0.000    0.000    0.000 
#    0.000    0.000    0.000    0.000    0.000    0.000 
#
# Total GULP energy -179130.261029 kJ/mol
# GULP energy per Si atom -5597.820657 kJ/mol
# Density = 2.401609 g / cm^3
# Si number density = 24.070876 Si / 1000 Ang^3
#
#
#
# Elastic Constant Matrix: (Units=GPa)
#
#
# Indices 1 2 3 4 5 6 
#
# 1 42.5502 1.2925 10.5415 0.0000 0.0000 0.0000
# 2 1.2925 90.1985 24.2819 0.0000 0.0000 0.0000
# 3 10.5415 24.2819 129.5578 0.0000 0.0000 0.0000
# 4 0.0000 0.0000 0.0000 33.8383 0.0000 0.0000
# 5 0.0000 0.0000 0.0000 0.0000 21.5204 0.0000
# 6 0.0000 0.0000 0.0000 0.0000 0.0000 29.5521
#
#
#
# Elastic Compliance Matrix: (Units=1/GPa)
#
#
# Indices 1 2 3 4 5 6 
#
# 1 0.023988 0.000191 -0.001988 0.000000 0.000000 0.000000
# 2 0.000191 0.011677 -0.002204 0.000000 0.000000 0.000000
# 3 -0.001988 -0.002204 0.008293 0.000000 0.000000 0.000000
# 4 0.000000 0.000000 0.000000 0.029552 0.000000 0.000000
# 5 0.000000 0.000000 0.000000 0.000000 0.046468 0.000000
# 6 0.000000 0.000000 0.000000 0.000000 0.000000 0.033839
#
#
# Mechanical properties :
#
#
# Convention : Reuss Voigt Hill
#
# Bulk Modulus (GPa) = 27.81021 37.17092 32.49057
# Shear Modulus (GPa) = 28.76797 32.06152 30.41475
#
# Velocity S-wave (km/s) = 3.46082 3.65357 3.55850
# Velocity P-wave (km/s) = 5.24865 5.76835 5.51462
#
# Compressibility (1/GPa) = 0.03595801
#
# Stress axis : x y z
#
# Youngs Moduli (GPa) = 41.68700 85.63633 120.57787
#
# Poissons Ratio (x) = -0.01639 0.23967
# Poissons Ratio (y) = -0.00798 0.26577
# Poissons Ratio (z) = 0.08286 0.18875
#
# Static dielectric constant tensor:
#      x y z
#    x 1.905880 0.000000 0.000000 
#    y 0.000000 1.910390 0.000000 
#    z 0.000000 0.000000 1.990150 
# 
# From -- ./inp_files/5350.got.cif
#   From: 2010.05.17/outbox.cif.g08.bks.cpg/sg33_3_cif.got.tgz:5350.got - 2010.06.03 17:15:25.
