data_PCOD9346428
_publ_section_title
;
Structure prediction by ZEFSAII (Michael W. Deem and Ramdas Pophale) SiO2 
 PCOD9346428
Probable space group: P N A 21
;
_chemical_formula_sum "Si O2"
_cell_formula_units_Z 20
_cell_length_a 9.124990
_cell_length_b 4.846417
_cell_length_c 16.180147
_cell_angle_alpha 90.000000
_cell_angle_beta 90.000000
_cell_angle_gamma 90.000000
_cell_volume 715.542839
_symmetry_space_group_name_H-M "P N A 21"
_symmetry_group_IT_number 33
_symmetry_cell_setting 'orthorhombic'
loop_
_space_group_symop_operation_xyz
x,y,z
-x,-y,1/2+z
1/2-x,1/2+y,1/2+z
1/2+x,1/2-y,z
loop_
_atom_site_type_symbol
_atom_site_label
_atom_site_fract_x
_atom_site_fract_y
_atom_site_fract_z
Si Si1 0.172119 0.733066 0.363700
Si Si2 0.577282 0.628258 0.853304
Si Si3 0.487127 0.990638 0.216528
Si Si4 0.227519 0.317678 0.499758
Si Si5 0.502296 0.493437 0.102938
O O1 0.344267 0.671842 0.355024
O O2 0.114501 0.573069 0.282325
O O3 0.143474 0.559229 0.448406
O O4 0.090280 0.025491 0.360811
O O5 0.611780 0.812936 0.773980
O O6 0.650071 0.774148 0.932510
O O7 0.509973 0.182512 0.135975
O O8 0.457479 0.692545 0.178866
O O9 0.333740 0.435241 0.571533
O O10 0.119614 0.088335 0.536434
#
# Coordination Sequence:
#
# PCOD9346428 Si02
#       5
#     4   4   4   4   4
#     4  10  25  51  82 114 160 215 270 319 390 489
#     4  10  25  51  82 114 160 215 270 319 390 489
#     4  12  27  50  79 114 160 202 266 320 397 466
#     4  10  28  52  76 120 160 212 264 330 400 472
#     4  12  29  50  77 120 158 206 256 340 397 454
#
# _framework density 27.950807999999999
#
# number of rings (size 3 to 8) (size 9 to 14) (size 15 to 20)
#    1.200    0.000    2.000    1.200    8.400    1.600 
#   10.800    0.000    0.000    0.000    0.000    0.000 
#    0.000    0.000    0.000    0.000    0.000    0.000 
#
# Total GULP energy -111704.222552 kJ/mol
# GULP energy per Si atom -5585.211128 kJ/mol
# Density = 2.788719 g / cm^3
# Si number density = 27.950808 Si / 1000 Ang^3
#
#
#
# Elastic Constant Matrix: (Units=GPa)
#
#
# Indices 1 2 3 4 5 6 
#
# 1 113.7358 3.7846 11.0614 0.0000 0.0000 0.0000
# 2 3.7846 120.8164 23.6592 0.0000 0.0000 0.0000
# 3 11.0614 23.6592 124.0601 0.0000 0.0000 0.0000
# 4 0.0000 0.0000 0.0000 57.5194 0.0000 0.0000
# 5 0.0000 0.0000 0.0000 0.0000 57.4949 0.0000
# 6 0.0000 0.0000 0.0000 0.0000 0.0000 14.7091
#
#
#
# Elastic Compliance Matrix: (Units=1/GPa)
#
#
# Indices 1 2 3 4 5 6 
#
# 1 0.008871 -0.000128 -0.000767 0.000000 0.000000 0.000000
# 2 -0.000128 0.008600 -0.001629 0.000000 0.000000 0.000000
# 3 -0.000767 -0.001629 0.008440 0.000000 0.000000 0.000000
# 4 0.000000 0.000000 0.000000 0.017385 0.000000 0.000000
# 5 0.000000 0.000000 0.000000 0.000000 0.017393 0.000000
# 6 0.000000 0.000000 0.000000 0.000000 0.000000 0.067985
#
#
# Mechanical properties :
#
#
# Convention : Reuss Voigt Hill
#
# Bulk Modulus (GPa) = 47.92821 48.40252 48.16536
# Shear Modulus (GPa) = 35.54293 47.28515 41.41404
#
# Velocity S-wave (km/s) = 3.56985 4.11752 3.85343
# Velocity P-wave (km/s) = 5.84606 6.32139 6.08836
#
# Compressibility (1/GPa) = 0.02086454
#
# Stress axis : x y z
#
# Youngs Moduli (GPa) = 112.72545 116.27946 118.48953
#
# Poissons Ratio (x) = 0.01486 0.09083
# Poissons Ratio (y) = 0.01440 0.19298
# Poissons Ratio (z) = 0.08641 0.18938
#
# Static dielectric constant tensor:
#      x y z
#    x 2.193450 0.000000 0.000000 
#    y 0.000000 2.108430 0.000000 
#    z 0.000000 0.000000 2.275790 
# 
# From -- ./inp_files/8410.got.cif
#   From: 2010.05.17/outbox.cif.g08.bks.cpg/sg33_5_cif.got.tgz:8410.got - 2010.06.03 17:15:25.
