data_PCOD9346632
_publ_section_title
;
Structure prediction by ZEFSAII (Michael W. Deem and Ramdas Pophale) SiO2 
 PCOD9346632
Probable space group: P N A 21
;
_chemical_formula_sum "Si O2"
_cell_formula_units_Z 24
_cell_length_a 9.414132
_cell_length_b 7.073616
_cell_length_c 16.250897
_cell_angle_alpha 90.000000
_cell_angle_beta 90.000000
_cell_angle_gamma 90.000000
_cell_volume 1082.178998
_symmetry_space_group_name_H-M "P N A 21"
_symmetry_group_IT_number 33
_symmetry_cell_setting 'orthorhombic'
loop_
_space_group_symop_operation_xyz
x,y,z
-x,-y,1/2+z
1/2-x,1/2+y,1/2+z
1/2+x,1/2-y,z
loop_
_atom_site_type_symbol
_atom_site_label
_atom_site_fract_x
_atom_site_fract_y
_atom_site_fract_z
Si Si1 0.834178 0.817284 0.176690
Si Si2 0.070066 0.367822 0.932490
Si Si3 0.728972 0.827238 0.826111
Si Si4 0.272281 0.097773 0.862099
Si Si5 0.019437 0.159297 0.213710
Si Si6 0.553246 0.979353 0.112006
O O1 0.786193 0.836220 0.272572
O O2 0.943686 0.991924 0.164766
O O3 0.920341 0.630356 0.152284
O O4 0.693396 0.851188 0.122985
O O5 0.168838 0.524786 0.890018
O O6 0.165292 0.179738 0.930296
O O7 0.930375 0.331064 0.878668
O O8 0.025734 0.453086 0.019673
O O9 0.601097 0.760856 0.767747
O O10 0.780753 0.629146 0.864335
O O11 0.357196 0.586423 0.773376
O O12 0.085207 0.326844 0.160347
#
# Coordination Sequence:
#
# PCOD9346632 Si02
#       6
#     4   4   4   4   4   4
#     4  11  26  46  75  99 141 193 246 284 359 442
#     4  12  29  43  72 106 151 179 239 300 370 416
#     4  11  23  44  71 100 136 188 238 286 346 432
#     4  11  25  47  71 102 138 197 237 291 353 444
#     4  11  23  44  72  99 137 183 244 285 347 428
#     4  12  28  46  69 110 143 186 234 306 365 416
#
# _framework density 22.177478000000001
#
# number of rings (size 3 to 8) (size 9 to 14) (size 15 to 20)
#    0.000    0.667    5.000    2.000   14.000    1.333 
#    0.000    0.000    0.000    0.000    0.000    0.000 
#    0.000    0.000    0.000    0.000    0.000    0.000 
#
# Total GULP energy -134327.006815 kJ/mol
# GULP energy per Si atom -5596.958617 kJ/mol
# Density = 2.212700 g / cm^3
# Si number density = 22.177478 Si / 1000 Ang^3
#
#
#
# Elastic Constant Matrix: (Units=GPa)
#
#
# Indices 1 2 3 4 5 6 
#
# 1 121.7814 18.5386 21.3654 0.0000 0.0000 0.0000
# 2 18.5386 71.7646 21.5740 0.0000 0.0000 0.0000
# 3 21.3654 21.5740 56.1609 0.0000 0.0000 0.0000
# 4 0.0000 0.0000 0.0000 30.2537 0.0000 0.0000
# 5 0.0000 0.0000 0.0000 0.0000 23.8048 0.0000
# 6 0.0000 0.0000 0.0000 0.0000 0.0000 34.6604
#
#
#
# Elastic Compliance Matrix: (Units=1/GPa)
#
#
# Indices 1 2 3 4 5 6 
#
# 1 0.008931 -0.001454 -0.002839 0.000000 0.000000 0.000000
# 2 -0.001454 0.015990 -0.005590 0.000000 0.000000 0.000000
# 3 -0.002839 -0.005590 0.021033 0.000000 0.000000 0.000000
# 4 0.000000 0.000000 0.000000 0.033054 0.000000 0.000000
# 5 0.000000 0.000000 0.000000 0.000000 0.042008 0.000000
# 6 0.000000 0.000000 0.000000 0.000000 0.000000 0.028851
#
#
# Mechanical properties :
#
#
# Convention : Reuss Voigt Hill
#
# Bulk Modulus (GPa) = 38.18294 41.40699 39.79496
# Shear Modulus (GPa) = 28.03278 30.29237 29.16258
#
# Velocity S-wave (km/s) = 3.55916 3.69983 3.63018
# Velocity P-wave (km/s) = 5.84333 6.07971 5.96269
#
# Compressibility (1/GPa) = 0.02618971
#
# Stress axis : x y z
#
# Youngs Moduli (GPa) = 111.97185 62.53792 47.54349
#
# Poissons Ratio (x) = 0.09090 0.13499
# Poissons Ratio (y) = 0.16275 0.26575
# Poissons Ratio (z) = 0.31791 0.34957
#
# Static dielectric constant tensor:
#      x y z
#    x 1.786290 0.000000 0.000000 
#    y 0.000000 1.836190 0.000000 
#    z 0.000000 0.000000 1.828530 
# 
# From -- ./inp_files/7569.got.cif
#   From: 2010.05.17/outbox.cif.g08.bks.cpg/sg33_4_cif.got.tgz:7569.got - 2010.06.03 17:15:25.
