data_PCOD9346082
_publ_section_title
;
Structure prediction by ZEFSAII (Michael W. Deem and Ramdas Pophale) SiO2 
 PCOD9346082
Probable space group: P N A 21
;
_chemical_formula_sum "Si O2"
_cell_formula_units_Z 28
_cell_length_a 19.756103
_cell_length_b 11.586056
_cell_length_c 5.313821
_cell_angle_alpha 90.000000
_cell_angle_beta 90.000000
_cell_angle_gamma 90.000000
_cell_volume 1216.308735
_symmetry_space_group_name_H-M "P N A 21"
_symmetry_group_IT_number 33
_symmetry_cell_setting 'orthorhombic'
loop_
_space_group_symop_operation_xyz
x,y,z
-x,-y,1/2+z
1/2-x,1/2+y,1/2+z
1/2+x,1/2-y,z
loop_
_atom_site_type_symbol
_atom_site_label
_atom_site_fract_x
_atom_site_fract_y
_atom_site_fract_z
Si Si1 0.528162 0.689999 0.269110
Si Si2 0.826068 0.564011 0.213605
Si Si3 0.793035 0.934676 0.808131
Si Si4 0.979005 0.563707 0.403000
Si Si5 0.857567 0.131078 0.470134
Si Si6 0.419291 0.524810 0.103968
Si Si7 0.278198 0.817795 0.705788
O O1 0.505734 0.803993 0.418142
O O2 0.595867 0.722760 0.113144
O O3 0.463151 0.640449 0.117604
O O4 0.551824 0.574620 0.419967
O O5 0.787740 0.445297 0.286448
O O6 0.903466 0.564113 0.291291
O O7 0.789475 0.644237 0.421394
O O8 0.813462 0.604827 0.926014
O O9 0.809881 0.808386 0.715813
O O10 0.816994 0.042964 0.645302
O O11 0.839906 0.947345 0.052690
O O12 0.981665 0.504817 0.678519
O O13 0.914653 0.046115 0.359362
O O14 0.801610 0.179344 0.279229
#
# Coordination Sequence:
#
# PCOD9346082 Si02
#       7
#     4   4   4   4   4   4   4
#     4  11  25  40  74 101 146 188 239 306 360 428
#     4  11  25  47  66 103 134 180 238 281 347 422
#     4  10  24  40  69  97 135 178 225 290 354 418
#     4  12  30  50  71 104 148 201 244 287 357 444
#     4  10  23  43  64 106 135 176 235 289 364 417
#     4  11  21  42  68 108 134 176 237 302 363 418
#     4  11  24  42  72  99 138 181 226 293 351 427
#
# _framework density 23.020472000000002
#
# number of rings (size 3 to 8) (size 9 to 14) (size 15 to 20)
#    0.000    1.143    2.857    1.714    8.000    0.000 
#    0.000    0.000    0.000    0.000    0.000    0.000 
#    0.000    0.000    0.000    0.000    0.000    0.000 
#
# Total GULP energy -156012.639016 kJ/mol
# GULP energy per Si atom -5571.879965 kJ/mol
# Density = 2.296808 g / cm^3
# Si number density = 23.020472 Si / 1000 Ang^3
#
#
#
# Elastic Constant Matrix: (Units=GPa)
#
#
# Indices 1 2 3 4 5 6 
#
# 1 81.0216 -5.8858 -2.5380 0.0000 0.0000 0.0000
# 2 -5.8858 77.6059 12.3611 0.0000 0.0000 0.0000
# 3 -2.5380 12.3611 51.0025 0.0000 0.0000 0.0000
# 4 0.0000 0.0000 0.0000 7.8358 0.0000 0.0000
# 5 0.0000 0.0000 0.0000 0.0000 30.6689 0.0000
# 6 0.0000 0.0000 0.0000 0.0000 0.0000 17.0913
#
#
#
# Elastic Compliance Matrix: (Units=1/GPa)
#
#
# Indices 1 2 3 4 5 6 
#
# 1 0.012419 0.000877 0.000405 0.000000 0.000000 0.000000
# 2 0.000877 0.013465 -0.003220 0.000000 0.000000 0.000000
# 3 0.000405 -0.003220 0.020407 0.000000 0.000000 0.000000
# 4 0.000000 0.000000 0.000000 0.127619 0.000000 0.000000
# 5 0.000000 0.000000 0.000000 0.000000 0.032606 0.000000
# 6 0.000000 0.000000 0.000000 0.000000 0.000000 0.058509
#
#
# Mechanical properties :
#
#
# Convention : Reuss Voigt Hill
#
# Bulk Modulus (GPa) = 23.57546 24.16720 23.87133
# Shear Modulus (GPa) = 17.66543 24.83205 21.24874
#
# Velocity S-wave (km/s) = 2.77317 3.28791 3.04145
# Velocity P-wave (km/s) = 4.52960 4.99347 4.76718
#
# Compressibility (1/GPa) = 0.04241699
#
# Stress axis : x y z
#
# Youngs Moduli (GPa) = 80.52301 74.26663 49.00184
#
# Poissons Ratio (x) = -0.06515 -0.01986
# Poissons Ratio (y) = -0.07064 0.15777
# Poissons Ratio (z) = -0.03264 0.23912
#
# Static dielectric constant tensor:
#      x y z
#    x 2.177350 0.000000 0.000000 
#    y 0.000000 1.885660 0.000000 
#    z 0.000000 0.000000 1.966110 
# 
# From -- ./inp_files/1971.got.cif
#   From: 2010.05.17/outbox.cif.g08.bks.cpg/sg33_1_cif.got.tgz:1971.got - 2010.06.03 17:15:25.
