data_PCOD9346297
_publ_section_title
;
Structure prediction by ZEFSAII (Michael W. Deem and Ramdas Pophale) SiO2 
 PCOD9346297
Probable space group: P N A 21
;
_chemical_formula_sum "Si O2"
_cell_formula_units_Z 28
_cell_length_a 7.937619
_cell_length_b 9.488202
_cell_length_c 14.440598
_cell_angle_alpha 90.000000
_cell_angle_beta 90.000000
_cell_angle_gamma 90.000000
_cell_volume 1087.575334
_symmetry_space_group_name_H-M "P N A 21"
_symmetry_group_IT_number 33
_symmetry_cell_setting 'orthorhombic'
loop_
_space_group_symop_operation_xyz
x,y,z
-x,-y,1/2+z
1/2-x,1/2+y,1/2+z
1/2+x,1/2-y,z
loop_
_atom_site_type_symbol
_atom_site_label
_atom_site_fract_x
_atom_site_fract_y
_atom_site_fract_z
Si Si1 0.622916 0.429724 0.039200
Si Si2 0.988878 0.609219 0.532875
Si Si3 0.202423 0.718533 0.230686
Si Si4 0.193442 0.113906 0.556989
Si Si5 0.799025 0.805606 0.841440
Si Si6 0.596803 0.065727 0.818805
Si Si7 0.876026 0.027957 0.325759
O O1 0.821718 0.430822 0.064071
O O2 0.555465 0.270932 0.056184
O O3 0.484876 0.539197 0.078147
O O4 0.614618 0.465133 0.929137
O O5 0.976362 0.596112 0.420540
O O6 0.840022 0.504642 0.564748
O O7 0.247976 0.738811 0.124218
O O8 0.230151 0.847935 0.299860
O O9 0.028920 0.637808 0.247356
O O10 0.337505 0.600632 0.260728
O O11 0.189895 0.172634 0.452602
O O12 0.772165 0.643239 0.821434
O O13 0.962448 0.879911 0.801409
O O14 0.644007 0.903457 0.809845
#
# Coordination Sequence:
#
# PCOD9346297 Si02
#       7
#     4   4   4   4   4   4   4
#     4  11  21  40  74  98 134 183 237 282 336 432
#     4  11  19  42  72  98 127 190 234 272 332 432
#     4  12  24  44  68 105 137 171 228 301 353 397
#     4  10  26  43  64 101 140 177 228 285 353 408
#     4  10  24  44  68  95 132 187 227 274 339 431
#     4  11  22  42  72  96 134 181 234 277 339 428
#     4  11  22  41  68  97 134 175 230 283 342 410
#
# _framework density 25.745343999999999
#
# number of rings (size 3 to 8) (size 9 to 14) (size 15 to 20)
#    0.000    1.143    4.286    1.714    4.000    2.286 
#   10.286    0.000    0.000    0.000    0.000    0.000 
#    0.000    0.000    0.000    0.000    0.000    0.000 
#
# Total GULP energy -156867.668572 kJ/mol
# GULP energy per Si atom -5602.416735 kJ/mol
# Density = 2.568675 g / cm^3
# Si number density = 25.745344 Si / 1000 Ang^3
#
#
#
# Elastic Constant Matrix: (Units=GPa)
#
#
# Indices 1 2 3 4 5 6 
#
# 1 163.7277 26.6093 19.9176 0.0000 0.0000 0.0000
# 2 26.6093 115.2169 28.8957 0.0000 0.0000 0.0000
# 3 19.9176 28.8957 29.6222 0.0000 0.0000 0.0000
# 4 0.0000 0.0000 0.0000 10.3989 0.0000 0.0000
# 5 0.0000 0.0000 0.0000 0.0000 18.0710 0.0000
# 6 0.0000 0.0000 0.0000 0.0000 0.0000 39.2774
#
#
#
# Elastic Compliance Matrix: (Units=1/GPa)
#
#
# Indices 1 2 3 4 5 6 
#
# 1 0.006678 -0.000551 -0.003953 0.000000 0.000000 0.000000
# 2 -0.000551 0.011536 -0.010882 0.000000 0.000000 0.000000
# 3 -0.003953 -0.010882 0.047032 0.000000 0.000000 0.000000
# 4 0.000000 0.000000 0.000000 0.096164 0.000000 0.000000
# 5 0.000000 0.000000 0.000000 0.000000 0.055337 0.000000
# 6 0.000000 0.000000 0.000000 0.000000 0.000000 0.025460
#
#
# Mechanical properties :
#
#
# Convention : Reuss Voigt Hill
#
# Bulk Modulus (GPa) = 29.00795 51.04578 40.02687
# Shear Modulus (GPa) = 17.57651 29.09241 23.33446
#
# Velocity S-wave (km/s) = 2.61570 3.36520 3.01384
# Velocity P-wave (km/s) = 4.51821 5.91352 5.26232
#
# Compressibility (1/GPa) = 0.03447330
#
# Stress axis : x y z
#
# Youngs Moduli (GPa) = 149.74300 86.68692 21.26222
#
# Poissons Ratio (x) = 0.04776 0.08405
# Poissons Ratio (y) = 0.08250 0.23138
# Poissons Ratio (z) = 0.59191 0.94336
#
# Static dielectric constant tensor:
#      x y z
#    x 2.127880 0.000000 0.000000 
#    y 0.000000 1.929230 0.000000 
#    z 0.000000 0.000000 2.004410 
# 
# From -- ./inp_files/8476.got.cif
#   From: 2010.05.17/outbox.cif.g08.bks.cpg/sg33_5_cif.got.tgz:8476.got - 2010.06.03 17:15:25.
