data_PCOD9346813
_publ_section_title
;
Structure prediction by ZEFSAII (Michael W. Deem and Ramdas Pophale) SiO2 
 PCOD9346813
Probable space group: P N A 21
;
_chemical_formula_sum "Si O2"
_cell_formula_units_Z 20
_cell_length_a 8.091573
_cell_length_b 17.887441
_cell_length_c 4.976824
_cell_angle_alpha 90.000000
_cell_angle_beta 90.000000
_cell_angle_gamma 90.000000
_cell_volume 720.333236
_symmetry_space_group_name_H-M "P N A 21"
_symmetry_group_IT_number 33
_symmetry_cell_setting 'orthorhombic'
loop_
_space_group_symop_operation_xyz
x,y,z
-x,-y,1/2+z
1/2-x,1/2+y,1/2+z
1/2+x,1/2-y,z
loop_
_atom_site_type_symbol
_atom_site_label
_atom_site_fract_x
_atom_site_fract_y
_atom_site_fract_z
Si Si1 0.407963 0.094078 0.166580
Si Si2 0.461081 0.376775 0.310178
Si Si3 0.855706 0.671948 0.047256
Si Si4 0.660835 0.332158 0.813739
Si Si5 0.734450 0.036703 0.952445
O O1 0.479255 0.154131 0.377359
O O2 0.434064 0.959677 0.624649
O O3 0.268158 0.039662 0.286278
O O4 0.652987 0.248906 0.703622
O O5 0.575107 0.334026 0.101895
O O6 0.551765 0.378318 0.597936
O O7 0.386799 0.448926 0.153047
O O8 0.705246 0.672051 0.837868
O O9 0.799531 0.604201 0.243673
O O10 0.162645 0.632045 0.397242
#
# Coordination Sequence:
#
# PCOD9346813 Si02
#       5
#     4   4   4   4   4
#     4  11  27  50  87 124 163 230 290 347 433 519
#     4  11  28  53  79 120 168 217 273 359 434 493
#     4  11  27  51  83 119 172 216 289 343 426 512
#     4  12  30  50  83 128 166 224 280 358 429 509
#     4  11  24  52  82 119 167 223 280 351 424 517
#
# _framework density 27.764928000000001
#
# number of rings (size 3 to 8) (size 9 to 14) (size 15 to 20)
#    0.000    0.800    4.000    0.000   14.000    0.000 
#    3.600    0.000    0.000    2.400    0.000    0.000 
#    0.000    0.000    0.000    0.000    0.000    0.000 
#
# Total GULP energy -112191.418991 kJ/mol
# GULP energy per Si atom -5609.570950 kJ/mol
# Density = 2.770173 g / cm^3
# Si number density = 27.764928 Si / 1000 Ang^3
#
#
#
# Elastic Constant Matrix: (Units=GPa)
#
#
# Indices 1 2 3 4 5 6 
#
# 1 100.0845 46.5026 61.0783 0.0000 0.0000 0.0000
# 2 46.5026 175.8064 52.8173 0.0000 0.0000 0.0000
# 3 61.0783 52.8173 156.6699 0.0000 0.0000 0.0000
# 4 0.0000 0.0000 0.0000 53.5553 0.0000 0.0000
# 5 0.0000 0.0000 0.0000 0.0000 82.4464 0.0000
# 6 0.0000 0.0000 0.0000 0.0000 0.0000 24.8013
#
#
#
# Elastic Compliance Matrix: (Units=1/GPa)
#
#
# Indices 1 2 3 4 5 6 
#
# 1 0.013884 -0.002277 -0.004645 0.000000 0.000000 0.000000
# 2 -0.002277 0.006703 -0.001372 0.000000 0.000000 0.000000
# 3 -0.004645 -0.001372 0.008656 0.000000 0.000000 0.000000
# 4 0.000000 0.000000 0.000000 0.018672 0.000000 0.000000
# 5 0.000000 0.000000 0.000000 0.000000 0.012129 0.000000
# 6 0.000000 0.000000 0.000000 0.000000 0.000000 0.040320
#
#
# Mechanical properties :
#
#
# Convention : Reuss Voigt Hill
#
# Bulk Modulus (GPa) = 79.02048 83.70633 81.36341
# Shear Modulus (GPa) = 41.26381 50.30477 45.78429
#
# Velocity S-wave (km/s) = 3.85929 4.26115 4.06519
# Velocity P-wave (km/s) = 6.95566 7.37723 7.16954
#
# Compressibility (1/GPa) = 0.01265495
#
# Stress axis : x y z
#
# Youngs Moduli (GPa) = 72.02355 149.19770 115.52274
#
# Poissons Ratio (x) = 0.33972 0.53663
# Poissons Ratio (y) = 0.16400 0.15848
# Poissons Ratio (z) = 0.33457 0.20468
#
# Static dielectric constant tensor:
#      x y z
#    x 2.334130 0.000000 0.000000 
#    y 0.000000 2.130200 0.000000 
#    z 0.000000 0.000000 2.157420 
# 
# From -- ./inp_files/758.got.cif
#   From: 2010.05.17/outbox.cif.g08.bks.cpg/sg33_1_cif.got.tgz:758.got - 2010.06.03 17:15:25.
