data_PCOD9346092
_publ_section_title
;
Structure prediction by ZEFSAII (Michael W. Deem and Ramdas Pophale) SiO2 
 PCOD9346092
Probable space group: P N A 21
;
_chemical_formula_sum "Si O2"
_cell_formula_units_Z 28
_cell_length_a 8.968916
_cell_length_b 23.393078
_cell_length_c 5.414424
_cell_angle_alpha 90.000000
_cell_angle_beta 90.000000
_cell_angle_gamma 90.000000
_cell_volume 1136.003286
_symmetry_space_group_name_H-M "P N A 21"
_symmetry_group_IT_number 33
_symmetry_cell_setting 'orthorhombic'
loop_
_space_group_symop_operation_xyz
x,y,z
-x,-y,1/2+z
1/2-x,1/2+y,1/2+z
1/2+x,1/2-y,z
loop_
_atom_site_type_symbol
_atom_site_label
_atom_site_fract_x
_atom_site_fract_y
_atom_site_fract_z
Si Si1 0.040235 0.580580 0.438010
Si Si2 0.800268 0.315330 0.771518
Si Si3 0.426563 0.476901 0.968542
Si Si4 0.775105 0.113977 0.698464
Si Si5 0.692841 0.722634 0.905714
Si Si6 0.660384 0.039312 0.290570
Si Si7 0.552676 0.253900 0.064277
O O1 0.172088 0.619127 0.333697
O O2 0.089277 0.514931 0.420622
O O3 0.891456 0.600013 0.292641
O O4 0.973403 0.581875 0.713818
O O5 0.646248 0.292908 0.881482
O O6 0.935164 0.284618 0.919429
O O7 0.810767 0.288371 0.499174
O O8 0.474388 0.509527 0.713613
O O9 0.402520 0.411287 0.876371
O O10 0.257263 0.487636 0.065049
O O11 0.790036 0.180106 0.634143
O O12 0.775732 0.076715 0.447918
O O13 0.541728 0.710547 0.762223
O O14 0.829543 0.716518 0.719019
#
# Coordination Sequence:
#
# PCOD9346092 Si02
#       7
#     4   4   4   4   4   4   4
#     4  11  23  42  70 101 138 185 251 307 375 441
#     4  11  23  45  68 104 146 187 243 310 362 451
#     4  11  24  48  68 101 144 191 245 299 369 443
#     4  11  23  43  72  99 142 194 237 313 368 451
#     4  11  23  45  70 103 142 190 244 291 383 439
#     4  11  23  44  70 103 139 192 246 308 375 444
#     4  10  23  43  68 105 141 187 240 298 366 445
#
# _framework density 24.647815000000001
#
# number of rings (size 3 to 8) (size 9 to 14) (size 15 to 20)
#    0.000    1.143    2.857    3.429    0.000    4.571 
#   10.286    0.000    0.000    0.000    0.000    0.000 
#    0.000    0.000    0.000    0.000    0.000    0.000 
#
# Total GULP energy -156414.709038 kJ/mol
# GULP energy per Si atom -5586.239608 kJ/mol
# Density = 2.459172 g / cm^3
# Si number density = 24.647815 Si / 1000 Ang^3
#
#
#
# Elastic Constant Matrix: (Units=GPa)
#
#
# Indices 1 2 3 4 5 6 
#
# 1 74.5163 2.9424 17.0926 0.0000 0.0000 0.0000
# 2 2.9424 72.9483 7.2657 0.0000 0.0000 0.0000
# 3 17.0926 7.2657 81.4571 0.0000 0.0000 0.0000
# 4 0.0000 0.0000 0.0000 29.6147 0.0000 0.0000
# 5 0.0000 0.0000 0.0000 0.0000 48.1314 0.0000
# 6 0.0000 0.0000 0.0000 0.0000 0.0000 34.1612
#
#
#
# Elastic Compliance Matrix: (Units=1/GPa)
#
#
# Indices 1 2 3 4 5 6 
#
# 1 0.014104 -0.000277 -0.002935 0.000000 0.000000 0.000000
# 2 -0.000277 0.013837 -0.001176 0.000000 0.000000 0.000000
# 3 -0.002935 -0.001176 0.012997 0.000000 0.000000 0.000000
# 4 0.000000 0.000000 0.000000 0.033767 0.000000 0.000000
# 5 0.000000 0.000000 0.000000 0.000000 0.020776 0.000000
# 6 0.000000 0.000000 0.000000 0.000000 0.000000 0.029273
#
#
# Mechanical properties :
#
#
# Convention : Reuss Voigt Hill
#
# Bulk Modulus (GPa) = 31.09201 31.50260 31.29731
# Shear Modulus (GPa) = 34.66199 35.82287 35.24243
#
# Velocity S-wave (km/s) = 3.75412 3.81647 3.78542
# Velocity P-wave (km/s) = 5.60653 5.67710 5.64192
#
# Compressibility (1/GPa) = 0.03216260
#
# Stress axis : x y z
#
# Youngs Moduli (GPa) = 70.90187 72.27189 76.93999
#
# Poissons Ratio (x) = 0.01999 0.22581
# Poissons Ratio (y) = 0.01961 0.09049
# Poissons Ratio (z) = 0.20809 0.08500
#
# Static dielectric constant tensor:
#      x y z
#    x 1.971160 0.000000 0.000000 
#    y 0.000000 1.988770 0.000000 
#    z 0.000000 0.000000 2.079900 
# 
# From -- ./inp_files/489.got.cif
#   From: 2010.05.17/outbox.cif.g08.bks.cpg/sg33_1_cif.got.tgz:489.got - 2010.06.03 17:15:25.
