data_PCOD9346200
_publ_section_title
;
Structure prediction by ZEFSAII (Michael W. Deem and Ramdas Pophale) SiO2 
 PCOD9346200
Probable space group: P N A 21
;
_chemical_formula_sum "Si O2"
_cell_formula_units_Z 32
_cell_length_a 28.063894
_cell_length_b 5.260380
_cell_length_c 8.535089
_cell_angle_alpha 90.000000
_cell_angle_beta 90.000000
_cell_angle_gamma 90.000000
_cell_volume 1260.007422
_symmetry_space_group_name_H-M "P N A 21"
_symmetry_group_IT_number 33
_symmetry_cell_setting 'orthorhombic'
loop_
_space_group_symop_operation_xyz
x,y,z
-x,-y,1/2+z
1/2-x,1/2+y,1/2+z
1/2+x,1/2-y,z
loop_
_atom_site_type_symbol
_atom_site_label
_atom_site_fract_x
_atom_site_fract_y
_atom_site_fract_z
Si Si1 0.439043 0.877712 0.535640
Si Si2 0.307767 0.371422 0.886596
Si Si3 0.094828 0.878696 0.217610
Si Si4 0.805437 0.859308 0.199780
Si Si5 0.026289 0.801049 0.699598
Si Si6 0.751359 0.647668 0.936332
Si Si7 0.456661 0.681305 0.975106
Si Si8 0.395012 0.965694 0.203540
O O1 0.416063 0.628775 0.615963
O O2 0.419794 0.125871 0.625492
O O3 0.495302 0.857136 0.574100
O O4 0.422993 0.862538 0.356697
O O5 0.350164 0.361242 0.764716
O O6 0.286290 0.093778 0.917975
O O7 0.271139 0.602918 0.847014
O O8 0.325511 0.467674 0.058544
O O9 0.243119 0.247394 0.614318
O O10 0.066987 0.946382 0.378720
O O11 0.794929 0.030414 0.351997
O O12 0.841428 0.627136 0.226193
O O13 0.020243 0.081679 0.634942
O O14 0.082294 0.746484 0.708598
O O15 0.999067 0.746471 0.859038
O O16 0.414403 0.860871 0.036253
#
# Coordination Sequence:
#
# PCOD9346200 Si02
#       8
#     4   4   4   4   4   4   4   4
#     4  11  28  45  70 112 155 200 260 312 387 445
#     4  10  23  47  78 107 146 195 249 310 396 457
#     4  11  25  49  74 111 151 202 253 322 380 462
#     4  10  26  47  76 115 147 196 259 317 399 466
#     4  11  27  42  73 105 156 210 262 319 387 454
#     4  10  24  44  77 108 152 187 247 315 393 466
#     4  11  25  43  74 104 156 207 267 316 388 457
#     4  12  26  47  74 112 149 209 257 335 370 479
#
# _framework density 25.396674999999998
#
# number of rings (size 3 to 8) (size 9 to 14) (size 15 to 20)
#    0.750    0.500    1.250    2.250   17.500    1.000 
#    2.250    0.000    0.000    0.000    0.000    0.000 
#    0.000    0.000    0.000    0.000    0.000    0.000 
#
# Total GULP energy -178646.591561 kJ/mol
# GULP energy per Si atom -5582.705986 kJ/mol
# Density = 2.533887 g / cm^3
# Si number density = 25.396675 Si / 1000 Ang^3
#
#
#
# Elastic Constant Matrix: (Units=GPa)
#
#
# Indices 1 2 3 4 5 6 
#
# 1 71.2295 4.1587 20.8436 0.0000 0.0000 0.0000
# 2 4.1587 110.7152 16.6404 0.0000 0.0000 0.0000
# 3 20.8436 16.6404 80.7165 0.0000 0.0000 0.0000
# 4 0.0000 0.0000 0.0000 53.0942 0.0000 0.0000
# 5 0.0000 0.0000 0.0000 0.0000 35.2934 0.0000
# 6 0.0000 0.0000 0.0000 0.0000 0.0000 32.4776
#
#
#
# Elastic Compliance Matrix: (Units=1/GPa)
#
#
# Indices 1 2 3 4 5 6 
#
# 1 0.015187 0.000020 -0.003926 0.000000 0.000000 0.000000
# 2 0.000020 0.009321 -0.001927 0.000000 0.000000 0.000000
# 3 -0.003926 -0.001927 0.013800 0.000000 0.000000 0.000000
# 4 0.000000 0.000000 0.000000 0.018834 0.000000 0.000000
# 5 0.000000 0.000000 0.000000 0.000000 0.028334 0.000000
# 6 0.000000 0.000000 0.000000 0.000000 0.000000 0.030790
#
#
# Mechanical properties :
#
#
# Convention : Reuss Voigt Hill
#
# Bulk Modulus (GPa) = 37.53454 38.43850 37.98652
# Shear Modulus (GPa) = 36.54625 38.90761 37.72693
#
# Velocity S-wave (km/s) = 3.79755 3.91832 3.85841
# Velocity P-wave (km/s) = 5.83438 5.96985 5.90250
#
# Compressibility (1/GPa) = 0.02664213
#
# Stress axis : x y z
#
# Youngs Moduli (GPa) = 65.84689 107.28437 72.46382
#
# Poissons Ratio (x) = -0.00210 0.28447
# Poissons Ratio (y) = -0.00129 0.13961
# Poissons Ratio (z) = 0.25850 0.20670
#
# Static dielectric constant tensor:
#      x y z
#    x 2.046580 0.000000 0.000000 
#    y 0.000000 2.086610 0.000000 
#    z 0.000000 0.000000 2.057970 
# 
# From -- ./inp_files/5312.got.cif
#   From: 2010.05.17/outbox.cif.g08.bks.cpg/sg33_3_cif.got.tgz:5312.got - 2010.06.03 17:15:25.
