data_PCOD9346461
_publ_section_title
;
Structure prediction by ZEFSAII (Michael W. Deem and Ramdas Pophale) SiO2 
 PCOD9346461
Probable space group: P N A 21
;
_chemical_formula_sum "Si O2"
_cell_formula_units_Z 28
_cell_length_a 13.810769
_cell_length_b 5.266235
_cell_length_c 15.738168
_cell_angle_alpha 90.000000
_cell_angle_beta 90.000000
_cell_angle_gamma 90.000000
_cell_volume 1144.648842
_symmetry_space_group_name_H-M "P N A 21"
_symmetry_group_IT_number 33
_symmetry_cell_setting 'orthorhombic'
loop_
_space_group_symop_operation_xyz
x,y,z
-x,-y,1/2+z
1/2-x,1/2+y,1/2+z
1/2+x,1/2-y,z
loop_
_atom_site_type_symbol
_atom_site_label
_atom_site_fract_x
_atom_site_fract_y
_atom_site_fract_z
Si Si1 0.550987 0.636331 0.946990
Si Si2 0.937019 0.464352 0.613162
Si Si3 0.325935 0.331060 0.754247
Si Si4 0.600688 0.165519 0.345385
Si Si5 0.707379 0.337587 0.032759
Si Si6 0.854471 0.626930 0.156763
Si Si7 0.361603 0.543219 0.002493
O O1 0.513451 0.769825 0.861457
O O2 0.464745 0.434577 0.970808
O O3 0.542715 0.842691 0.021744
O O4 0.652394 0.506327 0.963345
O O5 0.873175 0.260859 0.665099
O O6 0.873266 0.709637 0.593846
O O7 0.038933 0.493141 0.661655
O O8 0.358747 0.606676 0.786626
O O9 0.210092 0.328151 0.739728
O O10 0.367347 0.107288 0.813731
O O11 0.642817 0.215420 0.439696
O O12 0.786006 0.463024 0.094731
O O13 0.767166 0.117623 0.986812
O O14 0.866866 0.884328 0.101305
#
# Coordination Sequence:
#
# PCOD9346461 Si02
#       7
#     4   4   4   4   4   4   4
#     4   9  22  41  69 101 138 193 238 291 358 443
#     4  11  24  43  72 104 141 191 253 300 357 449
#     4  12  24  50  70 110 149 191 229 316 379 422
#     4  10  27  46  72 104 158 183 235 312 377 432
#     4  12  19  40  74 107 133 188 261 302 350 425
#     4  11  24  43  72 107 138 194 252 302 357 455
#     4   9  22  41  69 101 137 194 238 299 352 452
#
# _framework density 24.461652000000001
#
# number of rings (size 3 to 8) (size 9 to 14) (size 15 to 20)
#    0.857    0.571    2.857    1.714    4.000    0.000 
#    2.571    0.000    0.000    0.000    0.000    0.000 
#    0.000    0.000    0.000    0.000    0.000    0.000 
#
# Total GULP energy -156338.985006 kJ/mol
# GULP energy per Si atom -5583.535179 kJ/mol
# Density = 2.440598 g / cm^3
# Si number density = 24.461652 Si / 1000 Ang^3
#
#
#
# Elastic Constant Matrix: (Units=GPa)
#
#
# Indices 1 2 3 4 5 6 
#
# 1 130.7638 20.4401 -19.8991 0.0000 0.0000 0.0000
# 2 20.4401 61.6479 5.3847 0.0000 0.0000 0.0000
# 3 -19.8991 5.3847 35.5757 0.0000 0.0000 0.0000
# 4 0.0000 0.0000 0.0000 40.1841 0.0000 0.0000
# 5 0.0000 0.0000 0.0000 0.0000 32.1510 0.0000
# 6 0.0000 0.0000 0.0000 0.0000 0.0000 36.6368
#
#
#
# Elastic Compliance Matrix: (Units=1/GPa)
#
#
# Indices 1 2 3 4 5 6 
#
# 1 0.009042 -0.003486 0.005585 0.000000 0.000000 0.000000
# 2 -0.003486 0.017782 -0.004641 0.000000 0.000000 0.000000
# 3 0.005585 -0.004641 0.031936 0.000000 0.000000 0.000000
# 4 0.000000 0.000000 0.000000 0.024885 0.000000 0.000000
# 5 0.000000 0.000000 0.000000 0.000000 0.031103 0.000000
# 6 0.000000 0.000000 0.000000 0.000000 0.000000 0.027295
#
#
# Mechanical properties :
#
#
# Convention : Reuss Voigt Hill
#
# Bulk Modulus (GPa) = 18.63012 26.64874 22.63943
# Shear Modulus (GPa) = 30.29937 36.59849 33.44893
#
# Velocity S-wave (km/s) = 3.52326 3.87222 3.70185
# Velocity P-wave (km/s) = 4.91770 5.55966 5.24850
#
# Compressibility (1/GPa) = 0.05367653
#
# Stress axis : x y z
#
# Youngs Moduli (GPa) = 110.59225 56.23552 31.31287
#
# Poissons Ratio (x) = 0.19603 -0.17489
# Poissons Ratio (y) = 0.38551 0.14533
# Poissons Ratio (z) = -0.61770 0.26101
#
# Static dielectric constant tensor:
#      x y z
#    x 2.019180 0.000000 0.000000 
#    y 0.000000 1.992820 0.000000 
#    z 0.000000 0.000000 2.009960 
# 
# From -- ./inp_files/8104.got.cif
#   From: 2010.05.17/outbox.cif.g08.bks.cpg/sg33_5_cif.got.tgz:8104.got - 2010.06.03 17:15:25.
