data_PCOD9346264
_publ_section_title
;
Structure prediction by ZEFSAII (Michael W. Deem and Ramdas Pophale) SiO2 
 PCOD9346264
Probable space group: P N A 21
;
_chemical_formula_sum "Si O2"
_cell_formula_units_Z 28
_cell_length_a 9.192902
_cell_length_b 14.283785
_cell_length_c 9.112569
_cell_angle_alpha 90.000000
_cell_angle_beta 90.000000
_cell_angle_gamma 90.000000
_cell_volume 1196.566293
_symmetry_space_group_name_H-M "P N A 21"
_symmetry_group_IT_number 33
_symmetry_cell_setting 'orthorhombic'
loop_
_space_group_symop_operation_xyz
x,y,z
-x,-y,1/2+z
1/2-x,1/2+y,1/2+z
1/2+x,1/2-y,z
loop_
_atom_site_type_symbol
_atom_site_label
_atom_site_fract_x
_atom_site_fract_y
_atom_site_fract_z
Si Si1 0.481507 0.854871 0.492600
Si Si2 0.518493 0.354872 0.101563
Si Si3 0.758872 0.534872 0.632571
Si Si4 0.241128 0.034872 0.961593
Si Si5 0.898730 0.250000 0.547080
Si Si6 0.343577 0.630264 0.915676
Si Si7 0.156423 0.369736 0.678486
O O1 0.459291 0.750000 0.547082
O O2 0.420464 0.928289 0.609321
O O3 0.649720 0.877614 0.472166
O O4 0.388825 0.880509 0.347115
O O5 0.350280 0.377615 0.121998
O O6 0.611176 0.380511 0.247047
O O7 0.579536 0.428288 0.984839
O O8 0.750001 0.500000 0.797082
O O9 0.711236 0.456776 0.513688
O O10 0.288763 0.956776 0.080476
O O11 0.788342 0.294649 0.429032
O O12 0.788342 0.205351 0.665129
O O13 0.008724 0.171880 0.486862
O O14 0.008725 0.328120 0.607298
#
# Coordination Sequence:
#
# PCOD9346264 Si02
#       7
#     4   4   4   4   4   4   4
#     4  12  28  45  75 107 148 190 248 303 369 439
#     4  12  28  45  75 107 148 190 248 303 369 439
#     4  12  27  49  73 109 148 195 244 304 371 444
#     4  12  27  49  73 109 148 195 244 304 371 444
#     4  10  24  42  76 104 138 182 244 296 360 426
#     4  11  25  46  73 103 145 189 241 298 366 435
#     4  11  25  46  73 103 145 189 241 298 366 435
#
# _framework density 23.400293999999999
#
# number of rings (size 3 to 8) (size 9 to 14) (size 15 to 20)
#    0.000    0.571    0.000    6.857   16.000    0.000 
#    0.000    0.000    0.000    0.000    0.000    0.000 
#    0.000    0.000    0.000    0.000    0.000    0.000 
#
# Total GULP energy -156753.440268 kJ/mol
# GULP energy per Si atom -5598.337152 kJ/mol
# Density = 2.334703 g / cm^3
# Si number density = 23.400294 Si / 1000 Ang^3
#
#
#
# Elastic Constant Matrix: (Units=GPa)
#
#
# Indices 1 2 3 4 5 6 
#
# 1 106.1596 15.3355 -14.6056 0.0000 0.0000 0.0000
# 2 15.3355 95.6749 26.9006 0.0000 0.0000 0.0000
# 3 -14.6056 26.9006 75.4364 0.0000 0.0000 0.0000
# 4 0.0000 0.0000 0.0000 35.8572 0.0000 0.0000
# 5 0.0000 0.0000 0.0000 0.0000 25.2993 0.0000
# 6 0.0000 0.0000 0.0000 0.0000 0.0000 37.1968
#
#
#
# Elastic Compliance Matrix: (Units=1/GPa)
#
#
# Indices 1 2 3 4 5 6 
#
# 1 0.010160 -0.002425 0.002832 0.000000 0.000000 0.000000
# 2 -0.002425 0.012195 -0.004818 0.000000 0.000000 0.000000
# 3 0.002832 -0.004818 0.015523 0.000000 0.000000 0.000000
# 4 0.000000 0.000000 0.000000 0.027888 0.000000 0.000000
# 5 0.000000 0.000000 0.000000 0.000000 0.039527 0.000000
# 6 0.000000 0.000000 0.000000 0.000000 0.000000 0.026884
#
#
# Mechanical properties :
#
#
# Convention : Reuss Voigt Hill
#
# Bulk Modulus (GPa) = 34.41731 36.94801 35.68266
# Shear Modulus (GPa) = 33.18187 36.31334 34.74760
#
# Velocity S-wave (km/s) = 3.76973 3.94360 3.85765
# Velocity P-wave (km/s) = 5.80412 6.04647 5.92654
#
# Compressibility (1/GPa) = 0.02905515
#
# Stress axis : x y z
#
# Youngs Moduli (GPa) = 98.42882 81.99773 64.42188
#
# Poissons Ratio (x) = 0.19882 -0.18242
# Poissons Ratio (y) = 0.23865 0.31041
# Poissons Ratio (z) = -0.27872 0.39509
#
# Static dielectric constant tensor:
#      x y z
#    x 1.837550 0.000000 0.000000 
#    y 0.000000 1.909960 0.000000 
#    z 0.000000 0.000000 1.959130 
# 
# From -- ./inp_files/3202.got.cif
#   From: 2010.05.17/outbox.cif.g08.bks.cpg/sg33_2_cif.got.tgz:3202.got - 2010.06.03 17:15:25.
