data_PCOD9346791
_publ_section_title
;
Structure prediction by ZEFSAII (Michael W. Deem and Ramdas Pophale) SiO2 
 PCOD9346791
Probable space group: P N A 21
;
_chemical_formula_sum "Si O2"
_cell_formula_units_Z 24
_cell_length_a 10.586846
_cell_length_b 8.658752
_cell_length_c 11.421869
_cell_angle_alpha 90.000000
_cell_angle_beta 90.000000
_cell_angle_gamma 90.000000
_cell_volume 1047.029870
_symmetry_space_group_name_H-M "P N A 21"
_symmetry_group_IT_number 33
_symmetry_cell_setting 'orthorhombic'
loop_
_space_group_symop_operation_xyz
x,y,z
-x,-y,1/2+z
1/2-x,1/2+y,1/2+z
1/2+x,1/2-y,z
loop_
_atom_site_type_symbol
_atom_site_label
_atom_site_fract_x
_atom_site_fract_y
_atom_site_fract_z
Si Si1 0.554573 0.873430 0.555880
Si Si2 0.308660 0.765650 0.438061
Si Si3 0.495447 0.767022 0.019359
Si Si4 0.638783 0.735264 0.775752
Si Si5 0.050953 0.089833 0.743077
Si Si6 0.326470 0.569309 0.878803
O O1 0.437904 0.769162 0.512111
O O2 0.687762 0.817127 0.498047
O O3 0.562162 0.852863 0.695244
O O4 0.529831 0.052016 0.527554
O O5 0.348238 0.689910 0.314912
O O6 0.274608 0.943528 0.415453
O O7 0.588362 0.732270 0.909724
O O8 0.368527 0.674919 0.985529
O O9 0.521462 0.686755 0.143571
O O10 0.623578 0.570221 0.713102
O O11 0.776688 0.809244 0.783323
O O12 0.942350 0.027898 0.829158
#
# Coordination Sequence:
#
# PCOD9346791 Si02
#       6
#     4   4   4   4   4   4
#     4  12  27  48  78 108 156 200 257 318 385 462
#     4  12  25  49  76 111 149 202 254 315 387 455
#     4  11  26  48  73 111 153 203 258 316 386 469
#     4  11  26  46  75 109 152 200 259 311 390 458
#     4  11  26  47  77 109 154 201 259 320 385 455
#     4  11  24  48  73 112 146 198 257 316 381 457
#
# _framework density 22.921982
#
# number of rings (size 3 to 8) (size 9 to 14) (size 15 to 20)
#    0.000    0.667    3.333    3.000    7.000    2.667 
#    6.000    0.000    0.000    0.000    0.000    0.000 
#    0.000    0.000    0.000    0.000    0.000    0.000 
#
# Total GULP energy -134069.529486 kJ/mol
# GULP energy per Si atom -5586.230395 kJ/mol
# Density = 2.286981 g / cm^3
# Si number density = 22.921982 Si / 1000 Ang^3
#
#
#
# Elastic Constant Matrix: (Units=GPa)
#
#
# Indices 1 2 3 4 5 6 
#
# 1 88.5549 33.3707 22.3992 0.0000 0.0000 0.0000
# 2 33.3707 117.3502 38.8136 0.0000 0.0000 0.0000
# 3 22.3992 38.8136 57.0576 0.0000 0.0000 0.0000
# 4 0.0000 0.0000 0.0000 42.6021 0.0000 0.0000
# 5 0.0000 0.0000 0.0000 0.0000 33.6495 0.0000
# 6 0.0000 0.0000 0.0000 0.0000 0.0000 44.7187
#
#
#
# Elastic Compliance Matrix: (Units=1/GPa)
#
#
# Indices 1 2 3 4 5 6 
#
# 1 0.013133 -0.002618 -0.003374 0.000000 0.000000 0.000000
# 2 -0.002618 0.011517 -0.006807 0.000000 0.000000 0.000000
# 3 -0.003374 -0.006807 0.023481 0.000000 0.000000 0.000000
# 4 0.000000 0.000000 0.000000 0.023473 0.000000 0.000000
# 5 0.000000 0.000000 0.000000 0.000000 0.029718 0.000000
# 6 0.000000 0.000000 0.000000 0.000000 0.000000 0.022362
#
#
# Mechanical properties :
#
#
# Convention : Reuss Voigt Hill
#
# Bulk Modulus (GPa) = 44.38118 50.23665 47.30891
# Shear Modulus (GPa) = 31.88889 35.41935 33.65412
#
# Velocity S-wave (km/s) = 3.73392 3.93518 3.83587
# Velocity P-wave (km/s) = 6.16388 6.52775 6.34842
#
# Compressibility (1/GPa) = 0.02253207
#
# Stress axis : x y z
#
# Youngs Moduli (GPa) = 76.14598 86.82453 42.58728
#
# Poissons Ratio (x) = 0.22735 0.14370
# Poissons Ratio (y) = 0.19939 0.28989
# Poissons Ratio (z) = 0.25694 0.59100
#
# Static dielectric constant tensor:
#      x y z
#    x 1.917200 0.000000 0.000000 
#    y 0.000000 1.853880 0.000000 
#    z 0.000000 0.000000 1.986830 
# 
# From -- ./inp_files/6302.got.cif
#   From: 2010.05.17/outbox.cif.g08.bks.cpg/sg33_4_cif.got.tgz:6302.got - 2010.06.03 17:15:25.
