data_PCOD9346377
_publ_section_title
;
Structure prediction by ZEFSAII (Michael W. Deem and Ramdas Pophale) SiO2 
 PCOD9346377
Probable space group: P N A 21
;
_chemical_formula_sum "Si O2"
_cell_formula_units_Z 20
_cell_length_a 12.379675
_cell_length_b 12.187293
_cell_length_c 4.680526
_cell_angle_alpha 90.000000
_cell_angle_beta 90.000000
_cell_angle_gamma 90.000000
_cell_volume 706.173080
_symmetry_space_group_name_H-M "P N A 21"
_symmetry_group_IT_number 33
_symmetry_cell_setting 'orthorhombic'
loop_
_space_group_symop_operation_xyz
x,y,z
-x,-y,1/2+z
1/2-x,1/2+y,1/2+z
1/2+x,1/2-y,z
loop_
_atom_site_type_symbol
_atom_site_label
_atom_site_fract_x
_atom_site_fract_y
_atom_site_fract_z
Si Si1 0.527830 0.819987 0.934290
Si Si2 0.868285 0.534327 0.294123
Si Si3 0.651977 0.325311 0.159407
Si Si4 0.690331 0.483195 0.676365
Si Si5 0.178091 0.826411 0.326189
O O1 0.137377 0.071885 0.949285
O O2 0.447222 0.753153 0.731743
O O3 0.590771 0.911070 0.746893
O O4 0.602505 0.737425 0.112111
O O5 0.961290 0.611076 0.171673
O O6 0.817008 0.520331 0.617146
O O7 0.626379 0.587261 0.548478
O O8 0.745953 0.254701 0.008268
O O9 0.684557 0.380828 0.455563
O O10 0.762238 0.593446 0.159310
#
# Coordination Sequence:
#
# PCOD9346377 Si02
#       5
#     4   4   4   4   4
#     4  12  25  46  90 133 187 255 316 374 490 583
#     4  10  25  46  81 135 171 244 305 374 454 581
#     4  12  25  51  80 130 173 240 299 382 463 563
#     4  10  27  50  81 118 185 220 302 378 461 539
#     4  10  24  51  82 124 184 241 292 406 454 554
#
# _framework density 28.321672
#
# number of rings (size 3 to 8) (size 9 to 14) (size 15 to 20)
#    1.200    0.000    2.000    2.400    5.600    0.000 
#    0.000    4.000    0.000    0.000    0.000    0.000 
#    0.000    0.000    0.000    0.000    0.000    0.000 
#
# Total GULP energy -111910.925178 kJ/mol
# GULP energy per Si atom -5595.546259 kJ/mol
# Density = 2.825721 g / cm^3
# Si number density = 28.321672 Si / 1000 Ang^3
#
#
#
# Elastic Constant Matrix: (Units=GPa)
#
#
# Indices 1 2 3 4 5 6 
#
# 1 150.2646 116.5315 73.8561 0.0000 0.0000 0.0000
# 2 116.5315 228.2318 82.6705 0.0000 0.0000 0.0000
# 3 73.8561 82.6705 139.0036 0.0000 0.0000 0.0000
# 4 0.0000 0.0000 0.0000 46.0711 0.0000 0.0000
# 5 0.0000 0.0000 0.0000 0.0000 51.8363 0.0000
# 6 0.0000 0.0000 0.0000 0.0000 0.0000 85.7835
#
#
#
# Elastic Compliance Matrix: (Units=1/GPa)
#
#
# Indices 1 2 3 4 5 6 
#
# 1 0.012257 -0.004970 -0.003557 0.000000 0.000000 0.000000
# 2 -0.004970 0.007600 -0.001879 0.000000 0.000000 0.000000
# 3 -0.003557 -0.001879 0.010201 0.000000 0.000000 0.000000
# 4 0.000000 0.000000 0.000000 0.021706 0.000000 0.000000
# 5 0.000000 0.000000 0.000000 0.000000 0.019291 0.000000
# 6 0.000000 0.000000 0.000000 0.000000 0.000000 0.011657
#
#
# Mechanical properties :
#
#
# Convention : Reuss Voigt Hill
#
# Bulk Modulus (GPa) = 108.14719 118.17959 113.16339
# Shear Modulus (GPa) = 46.90101 53.03432 49.96766
#
# Velocity S-wave (km/s) = 4.07383 4.33201 4.20490
# Velocity P-wave (km/s) = 7.77151 8.17557 7.97610
#
# Compressibility (1/GPa) = 0.00924666
#
# Stress axis : x y z
#
# Youngs Moduli (GPa) = 81.58272 131.58159 98.02507
#
# Poissons Ratio (x) = 0.65398 0.34866
# Poissons Ratio (y) = 0.40548 0.18420
# Poissons Ratio (z) = 0.29017 0.24726
#
# Static dielectric constant tensor:
#      x y z
#    x 2.296300 0.000000 0.000000 
#    y 0.000000 2.176640 0.000000 
#    z 0.000000 0.000000 2.287030 
# 
# From -- ./inp_files/1276.got.cif
#   From: 2010.05.17/outbox.cif.g08.bks.cpg/sg33_1_cif.got.tgz:1276.got - 2010.06.03 17:15:25.
