data_PCOD9346443
_publ_section_title
;
Structure prediction by ZEFSAII (Michael W. Deem and Ramdas Pophale) SiO2 
 PCOD9346443
Probable space group: P N A 21
;
_chemical_formula_sum "Si O2"
_cell_formula_units_Z 16
_cell_length_a 13.448768
_cell_length_b 9.739392
_cell_length_c 4.869355
_cell_angle_alpha 90.000000
_cell_angle_beta 90.000000
_cell_angle_gamma 90.000000
_cell_volume 637.801866
_symmetry_space_group_name_H-M "P N A 21"
_symmetry_group_IT_number 33
_symmetry_cell_setting 'orthorhombic'
loop_
_space_group_symop_operation_xyz
x,y,z
-x,-y,1/2+z
1/2-x,1/2+y,1/2+z
1/2+x,1/2-y,z
loop_
_atom_site_type_symbol
_atom_site_label
_atom_site_fract_x
_atom_site_fract_y
_atom_site_fract_z
Si Si1 0.738466 0.969187 0.570410
Si Si2 0.054226 0.052033 0.371152
Si Si3 0.566387 0.013419 0.940399
Si Si4 0.332913 0.752064 0.193239
O O1 0.646988 0.923828 0.768234
O O2 0.717338 0.129695 0.509215
O O3 0.838018 0.978642 0.750387
O O4 0.764454 0.867275 0.321356
O O5 0.072746 0.192085 0.532574
O O6 0.018665 0.950389 0.612366
O O7 0.621786 0.159609 0.942620
O O8 0.471369 0.025909 0.738137
#
# Coordination Sequence:
#
# PCOD9346443 Si02
#       4
#     4   4   4   4
#     4  10  26  48  77 114 159 203 269 337 403 500
#     4  12  26  49  75 110 156 207 263 329 401 488
#     4  10  26  47  74 112 152 205 261 326 399 483
#     4  10  26  48  78 114 157 211 269 324 431 461
#
# _framework density 25.086158999999999
#
# number of rings (size 3 to 8) (size 9 to 14) (size 15 to 20)
#    1.500    0.000    2.500    0.000    7.000    6.000 
#    0.000    0.000    0.000    0.000    0.000    0.000 
#    0.000    0.000    0.000    0.000    0.000    0.000 
#
# Total GULP energy -89307.262170 kJ/mol
# GULP energy per Si atom -5581.703886 kJ/mol
# Density = 2.502906 g / cm^3
# Si number density = 25.086159 Si / 1000 Ang^3
#
#
#
# Elastic Constant Matrix: (Units=GPa)
#
#
# Indices 1 2 3 4 5 6 
#
# 1 74.2548 23.2692 31.5338 0.0000 0.0000 0.0000
# 2 23.2692 108.5895 41.8788 0.0000 0.0000 0.0000
# 3 31.5338 41.8788 153.8470 0.0000 0.0000 0.0000
# 4 0.0000 0.0000 0.0000 -316.8718 0.0000 0.0000
# 5 0.0000 0.0000 0.0000 0.0000 53.3990 0.0000
# 6 0.0000 0.0000 0.0000 0.0000 0.0000 24.6788
#
#
#
# Elastic Compliance Matrix: (Units=1/GPa)
#
#
# Indices 1 2 3 4 5 6 
#
# 1 0.015250 -0.002304 -0.002499 0.000000 0.000000 0.000000
# 2 -0.002304 0.010637 -0.002423 0.000000 0.000000 0.000000
# 3 -0.002499 -0.002423 0.007672 0.000000 0.000000 0.000000
# 4 0.000000 0.000000 0.000000 -0.003156 0.000000 0.000000
# 5 0.000000 0.000000 0.000000 0.000000 0.018727 0.000000
# 6 0.000000 0.000000 0.000000 0.000000 0.000000 0.040521
#
#
# Mechanical properties :
#
#
# Convention : Reuss Voigt Hill
#
# Bulk Modulus (GPa) = 52.33673 58.89497 55.61585
# Shear Modulus (GPa) = 45.26011 -31.75819 6.75096
#
# Velocity S-wave (km/s) = 4.25218 -3.56190 1.64224
# Velocity P-wave (km/s) = 6.70941 2.57136 5.08075
#
# Compressibility (1/GPa) = 0.01910704
#
# Stress axis : x y z
#
# Youngs Moduli (GPa) = 65.57240 94.00838 130.34853
#
# Poissons Ratio (x) = 0.21663 0.32569
# Poissons Ratio (y) = 0.15110 0.31587
# Poissons Ratio (z) = 0.16384 0.22781
#
# Static dielectric constant tensor:
#      x y z
#    x 2.018940 0.000000 0.000000 
#    y 0.000000 2.092230 0.000000 
#    z 0.000000 0.000000 1.971750 
# 
# From -- ./inp_files/1206.got.cif
#   From: 2010.05.17/outbox.cif.g08.bks.cpg/sg33_1_cif.got.tgz:1206.got - 2010.06.03 17:15:25.
