data_PCOD9346447
_publ_section_title
;
Structure prediction by ZEFSAII (Michael W. Deem and Ramdas Pophale) SiO2 
 PCOD9346447
Probable space group: P N A 21
;
_chemical_formula_sum "Si O2"
_cell_formula_units_Z 32
_cell_length_a 26.880445
_cell_length_b 5.271460
_cell_length_c 8.911447
_cell_angle_alpha 90.000000
_cell_angle_beta 90.000000
_cell_angle_gamma 90.000000
_cell_volume 1262.744827
_symmetry_space_group_name_H-M "P N A 21"
_symmetry_group_IT_number 33
_symmetry_cell_setting 'orthorhombic'
loop_
_space_group_symop_operation_xyz
x,y,z
-x,-y,1/2+z
1/2-x,1/2+y,1/2+z
1/2+x,1/2-y,z
loop_
_atom_site_type_symbol
_atom_site_label
_atom_site_fract_x
_atom_site_fract_y
_atom_site_fract_z
Si Si1 0.642840 0.997065 0.329810
Si Si2 0.140093 0.101829 0.768631
Si Si3 0.288121 0.712212 0.033882
Si Si4 0.882685 0.894911 0.610644
Si Si5 0.215440 0.890355 0.252256
Si Si6 0.946070 0.548500 0.280417
Si Si7 0.023448 0.948419 0.958652
Si Si8 0.928460 0.199550 0.042017
O O1 0.697984 0.895616 0.286737
O O2 0.604614 0.807070 0.408625
O O3 0.660197 0.184090 0.464220
O O4 0.617385 0.113524 0.181805
O O5 0.193090 0.086160 0.689279
O O6 0.112347 0.376120 0.767013
O O7 0.106847 0.912213 0.670744
O O8 0.138304 0.051483 0.944563
O O9 0.249745 0.910488 0.106089
O O10 0.266710 0.530844 0.903665
O O11 0.938969 0.993278 0.596846
O O12 0.839565 0.008839 0.712716
O O13 0.968079 0.812137 0.343764
O O14 0.959299 0.428614 0.119406
O O15 0.960881 0.320570 0.391161
O O16 0.965989 0.978605 0.996831
#
# Coordination Sequence:
#
# PCOD9346447 Si02
#       8
#     4   4   4   4   4   4   4   4
#     4  11  26  46  72 109 150 197 252 327 390 466
#     4  11  24  49  75 106 152 202 257 321 390 477
#     4  11  26  45  72 110 143 199 254 314 401 466
#     4  10  26  48  69 112 147 199 253 324 390 461
#     4  11  27  45  72 107 150 196 252 324 394 472
#     4  11  24  47  68 114 144 207 256 315 390 456
#     4  11  28  43  78 111 156 203 265 316 395 464
#     4  12  25  47  78 107 158 205 265 323 394 474
#
# _framework density 25.341618
#
# number of rings (size 3 to 8) (size 9 to 14) (size 15 to 20)
#    0.000    1.000    5.000    0.000   10.500    3.000 
#    0.000    0.000    0.000    0.000    0.000    0.000 
#    0.000    0.000    0.000    0.000    0.000    0.000 
#
# Total GULP energy -178588.161501 kJ/mol
# GULP energy per Si atom -5580.880047 kJ/mol
# Density = 2.528394 g / cm^3
# Si number density = 25.341618 Si / 1000 Ang^3
#
#
#
# Elastic Constant Matrix: (Units=GPa)
#
#
# Indices 1 2 3 4 5 6 
#
# 1 84.6927 17.3999 51.1340 0.0000 0.0000 0.0000
# 2 17.3999 94.3102 37.7998 0.0000 0.0000 0.0000
# 3 51.1340 37.7998 137.1562 0.0000 0.0000 0.0000
# 4 0.0000 0.0000 0.0000 47.8395 0.0000 0.0000
# 5 0.0000 0.0000 0.0000 0.0000 38.3937 0.0000
# 6 0.0000 0.0000 0.0000 0.0000 0.0000 23.1747
#
#
#
# Elastic Compliance Matrix: (Units=1/GPa)
#
#
# Indices 1 2 3 4 5 6 
#
# 1 0.015267 -0.000602 -0.005526 0.000000 0.000000 0.000000
# 2 -0.000602 0.011944 -0.003067 0.000000 0.000000 0.000000
# 3 -0.005526 -0.003067 0.010196 0.000000 0.000000 0.000000
# 4 0.000000 0.000000 0.000000 0.020903 0.000000 0.000000
# 5 0.000000 0.000000 0.000000 0.000000 0.026046 0.000000
# 6 0.000000 0.000000 0.000000 0.000000 0.000000 0.043151
#
#
# Mechanical properties :
#
#
# Convention : Reuss Voigt Hill
#
# Bulk Modulus (GPa) = 52.58397 58.75850 55.67124
# Shear Modulus (GPa) = 32.84354 35.86994 34.35674
#
# Velocity S-wave (km/s) = 3.60395 3.76634 3.68604
# Velocity P-wave (km/s) = 6.17358 6.49235 6.33497
#
# Compressibility (1/GPa) = 0.01901720
#
# Stress axis : x y z
#
# Youngs Moduli (GPa) = 65.49867 83.72599 98.07300
#
# Poissons Ratio (x) = 0.05040 0.54196
# Poissons Ratio (y) = 0.03943 0.30081
# Poissons Ratio (z) = 0.36195 0.25681
#
# Static dielectric constant tensor:
#      x y z
#    x 2.069610 0.000000 0.000000 
#    y 0.000000 2.487830 0.000000 
#    z 0.000000 0.000000 2.059860 
# 
# From -- ./inp_files/5366.got.cif
#   From: 2010.05.17/outbox.cif.g08.bks.cpg/sg33_3_cif.got.tgz:5366.got - 2010.06.03 17:15:25.
