data_PCOD9346877
_publ_section_title
;
Structure prediction by ZEFSAII (Michael W. Deem and Ramdas Pophale) SiO2 
 PCOD9346877
Probable space group: P N A 21
;
_chemical_formula_sum "Si O2"
_cell_formula_units_Z 16
_cell_length_a 10.160689
_cell_length_b 9.949327
_cell_length_c 6.298866
_cell_angle_alpha 90.000000
_cell_angle_beta 90.000000
_cell_angle_gamma 90.000000
_cell_volume 636.765071
_symmetry_space_group_name_H-M "P N A 21"
_symmetry_group_IT_number 33
_symmetry_cell_setting 'orthorhombic'
loop_
_space_group_symop_operation_xyz
x,y,z
-x,-y,1/2+z
1/2-x,1/2+y,1/2+z
1/2+x,1/2-y,z
loop_
_atom_site_type_symbol
_atom_site_label
_atom_site_fract_x
_atom_site_fract_y
_atom_site_fract_z
Si Si1 0.415731 0.063053 0.512400
Si Si2 0.178976 0.001399 0.821440
Si Si3 0.064741 0.843958 0.196478
Si Si4 0.635058 0.837852 0.550723
O O1 0.297224 0.997350 0.649606
O O2 0.358839 0.126622 0.296717
O O3 0.525916 0.949824 0.481933
O O4 0.480307 0.197470 0.613247
O O5 0.043093 0.040524 0.712511
O O6 0.223209 0.132496 0.952958
O O7 0.165650 0.892415 0.010996
O O8 0.103456 0.803483 0.438615
#
# Coordination Sequence:
#
# PCOD9346877 Si02
#       4
#     4   4   4   4
#     4  11  25  48  79 111 157 208 261 330 400 469
#     4  11  28  47  74 116 161 206 264 325 396 485
#     4  11  28  47  72 115 154 209 256 329 394 480
#     4  11  25  48  79 108 160 205 263 328 400 466
#
# _framework density 25.127003999999999
#
# number of rings (size 3 to 8) (size 9 to 14) (size 15 to 20)
#    0.000    1.000    5.000    0.000   14.000    2.000 
#    0.000    0.000    0.000    0.000    0.000    0.000 
#    0.000    0.000    0.000    0.000    0.000    0.000 
#
# Total GULP energy -89097.242734 kJ/mol
# GULP energy per Si atom -5568.577671 kJ/mol
# Density = 2.506981 g / cm^3
# Si number density = 25.127004 Si / 1000 Ang^3
#
#
#
# Elastic Constant Matrix: (Units=GPa)
#
#
# Indices 1 2 3 4 5 6 
#
# 1 58.6508 31.7845 51.8013 0.0000 0.0000 0.0000
# 2 31.7845 125.8885 50.6633 0.0000 0.0000 0.0000
# 3 51.8013 50.6633 164.8542 0.0000 0.0000 0.0000
# 4 0.0000 0.0000 0.0000 73.4455 0.0000 0.0000
# 5 0.0000 0.0000 0.0000 0.0000 43.6453 0.0000
# 6 0.0000 0.0000 0.0000 0.0000 0.0000 43.6398
#
#
#
# Elastic Compliance Matrix: (Units=1/GPa)
#
#
# Indices 1 2 3 4 5 6 
#
# 1 0.024943 -0.003587 -0.006735 0.000000 0.000000 0.000000
# 2 -0.003587 0.009580 -0.001817 0.000000 0.000000 0.000000
# 3 -0.006735 -0.001817 0.008741 0.000000 0.000000 0.000000
# 4 0.000000 0.000000 0.000000 0.013616 0.000000 0.000000
# 5 0.000000 0.000000 0.000000 0.000000 0.022912 0.000000
# 6 0.000000 0.000000 0.000000 0.000000 0.000000 0.022915
#
#
# Mechanical properties :
#
#
# Convention : Reuss Voigt Hill
#
# Bulk Modulus (GPa) = 52.67278 68.65463 60.66370
# Shear Modulus (GPa) = 37.50560 46.48909 41.99735
#
# Velocity S-wave (km/s) = 3.86766 4.30602 4.09271
# Velocity P-wave (km/s) = 6.39947 7.21836 6.82122
#
# Compressibility (1/GPa) = 0.01898514
#
# Stress axis : x y z
#
# Youngs Moduli (GPa) = 40.09203 104.37875 114.40596
#
# Poissons Ratio (x) = 0.37440 0.77055
# Poissons Ratio (y) = 0.14381 0.20790
# Poissons Ratio (z) = 0.27003 0.18968
#
# Static dielectric constant tensor:
#      x y z
#    x 1.933910 0.000000 0.000000 
#    y 0.000000 1.992900 0.000000 
#    z 0.000000 0.000000 2.221110 
# 
# From -- ./inp_files/661.got.cif
#   From: 2010.05.17/outbox.cif.g08.bks.cpg/sg33_1_cif.got.tgz:661.got - 2010.06.03 17:15:25.
