data_PCOD9346378
_publ_section_title
;
Structure prediction by ZEFSAII (Michael W. Deem and Ramdas Pophale) SiO2 
 PCOD9346378
Probable space group: P N A 21
;
_chemical_formula_sum "Si O2"
_cell_formula_units_Z 20
_cell_length_a 9.323677
_cell_length_b 7.016059
_cell_length_c 10.347584
_cell_angle_alpha 90.000000
_cell_angle_beta 90.000000
_cell_angle_gamma 90.000000
_cell_volume 676.892049
_symmetry_space_group_name_H-M "P N A 21"
_symmetry_group_IT_number 33
_symmetry_cell_setting 'orthorhombic'
loop_
_space_group_symop_operation_xyz
x,y,z
-x,-y,1/2+z
1/2-x,1/2+y,1/2+z
1/2+x,1/2-y,z
loop_
_atom_site_type_symbol
_atom_site_label
_atom_site_fract_x
_atom_site_fract_y
_atom_site_fract_z
Si Si1 0.636273 0.959761 0.449110
Si Si2 0.864057 0.119916 0.781372
Si Si3 0.636254 0.197584 0.093529
Si Si4 0.138082 0.716227 0.767591
Si Si5 0.488778 0.642232 0.003550
O O1 0.472471 0.900877 0.495391
O O2 0.775395 0.862315 0.517485
O O3 0.352532 0.157126 0.814639
O O4 0.619552 0.179858 0.489796
O O5 0.960094 0.111862 0.650777
O O6 0.722052 0.986404 0.762469
O O7 0.924445 0.030854 0.917231
O O8 0.773758 0.137014 0.178114
O O9 0.520986 0.219294 0.209652
O O10 0.117383 0.789247 0.910527
#
# Coordination Sequence:
#
# PCOD9346378 Si02
#       5
#     4   4   4   4   4
#     4  11  27  55  90 137 185 250 320 405 487 582
#     4  12  29  54  92 139 184 256 321 392 500 576
#     4  10  24  51  91 127 189 244 318 390 491 575
#     4  11  24  54  85 132 188 250 317 393 483 594
#     4  12  30  56  92 133 194 248 322 408 477 591
#
# _framework density 29.546804999999999
#
# number of rings (size 3 to 8) (size 9 to 14) (size 15 to 20)
#    0.000    0.800    2.000    2.400    8.400    4.800 
#    7.200    0.000    4.400    0.000    0.000    0.000 
#    0.000    0.000    0.000    0.000    0.000    0.000 
#
# Total GULP energy -111498.894342 kJ/mol
# GULP energy per Si atom -5574.944717 kJ/mol
# Density = 2.947956 g / cm^3
# Si number density = 29.546805 Si / 1000 Ang^3
#
#
#
# Elastic Constant Matrix: (Units=GPa)
#
#
# Indices 1 2 3 4 5 6 
#
# 1 173.7396 12.1370 58.3073 0.0000 0.0000 0.0000
# 2 12.1370 153.0047 72.1875 0.0000 0.0000 0.0000
# 3 58.3073 72.1875 198.1451 0.0000 0.0000 0.0000
# 4 0.0000 0.0000 0.0000 33.6339 0.0000 0.0000
# 5 0.0000 0.0000 0.0000 0.0000 68.5568 0.0000
# 6 0.0000 0.0000 0.0000 0.0000 0.0000 -25.3813
#
#
#
# Elastic Compliance Matrix: (Units=1/GPa)
#
#
# Indices 1 2 3 4 5 6 
#
# 1 0.006413 0.000461 -0.002055 0.000000 0.000000 0.000000
# 2 0.000461 0.007925 -0.003023 0.000000 0.000000 0.000000
# 3 -0.002055 -0.003023 0.006753 0.000000 0.000000 0.000000
# 4 0.000000 0.000000 0.000000 0.029732 0.000000 0.000000
# 5 0.000000 0.000000 0.000000 0.000000 0.014586 0.000000
# 6 0.000000 0.000000 0.000000 0.000000 0.000000 -0.039399
#
#
# Mechanical properties :
#
#
# Convention : Reuss Voigt Hill
#
# Bulk Modulus (GPa) = 84.33753 90.01701 87.17727
# Shear Modulus (GPa) = 127.55856 40.84570 84.20213
#
# Velocity S-wave (km/s) = 6.57764 3.72211 5.34413
# Velocity P-wave (km/s) = 9.28940 7.00030 8.22487
#
# Compressibility (1/GPa) = 0.01185712
#
# Stress axis : x y z
#
# Youngs Moduli (GPa) = 155.92742 126.17616 148.08508
#
# Poissons Ratio (x) = -0.05815 0.30433
# Poissons Ratio (y) = -0.07186 0.44766
# Poissons Ratio (z) = 0.32045 0.38143
#
# Static dielectric constant tensor:
#      x y z
#    x 2.291280 0.000000 0.000000 
#    y 0.000000 2.650020 0.000000 
#    z 0.000000 0.000000 2.381350 
# 
# From -- ./inp_files/3705.got.cif
#   From: 2010.05.17/outbox.cif.g08.bks.cpg/sg33_2_cif.got.tgz:3705.got - 2010.06.03 17:15:25.
