data_PCOD9346097
_publ_section_title
;
Structure prediction by ZEFSAII (Michael W. Deem and Ramdas Pophale) SiO2 
 PCOD9346097
Probable space group: P N A 21
;
_chemical_formula_sum "Si O2"
_cell_formula_units_Z 24
_cell_length_a 18.312216
_cell_length_b 4.897494
_cell_length_c 10.758335
_cell_angle_alpha 90.000000
_cell_angle_beta 90.000000
_cell_angle_gamma 90.000000
_cell_volume 964.850172
_symmetry_space_group_name_H-M "P N A 21"
_symmetry_group_IT_number 33
_symmetry_cell_setting 'orthorhombic'
loop_
_space_group_symop_operation_xyz
x,y,z
-x,-y,1/2+z
1/2-x,1/2+y,1/2+z
1/2+x,1/2-y,z
loop_
_atom_site_type_symbol
_atom_site_label
_atom_site_fract_x
_atom_site_fract_y
_atom_site_fract_z
Si Si1 0.030758 0.358057 0.083740
Si Si2 0.622247 0.039013 0.570404
Si Si3 0.640716 0.869730 0.931266
Si Si4 0.412191 0.456523 0.206253
Si Si5 0.702007 0.306982 0.342146
Si Si6 0.144359 0.686777 0.205058
O O1 0.066372 0.533743 0.195867
O O2 0.961232 0.509574 0.023777
O O3 0.992312 0.095936 0.144959
O O4 0.094274 0.372013 0.981640
O O5 0.614428 0.238921 0.688276
O O6 0.671315 0.169366 0.466685
O O7 0.639056 0.736840 0.618257
O O8 0.593876 0.679898 0.839987
O O9 0.717749 0.920906 0.867071
O O10 0.657869 0.722220 0.063298
O O11 0.801031 0.556256 0.744907
O O12 0.652691 0.556786 0.294268
#
# Coordination Sequence:
#
# PCOD9346097 Si02
#       6
#     4   4   4   4   4   4
#     4   8  24  43  68 102 131 179 231 275 344 397
#     4  10  24  41  71 100 135 182 228 278 347 393
#     4  10  26  45  74 100 142 180 230 283 347 407
#     4  10  23  43  69 102 133 176 226 289 333 410
#     4  12  26  45  70  98 146 176 232 284 338 417
#     4  10  27  43  68 102 133 183 225 281 345 404
#
# _framework density 24.874326
#
# number of rings (size 3 to 8) (size 9 to 14) (size 15 to 20)
#    2.000    0.000    0.000    1.000    9.333    2.667 
#    6.000    0.000    0.000    0.000    0.000    0.000 
#    0.000    0.000    0.000    0.000    0.000    0.000 
#
# Total GULP energy -133907.749484 kJ/mol
# GULP energy per Si atom -5579.489562 kJ/mol
# Density = 2.481771 g / cm^3
# Si number density = 24.874326 Si / 1000 Ang^3
#
#
#
# Elastic Constant Matrix: (Units=GPa)
#
#
# Indices 1 2 3 4 5 6 
#
# 1 102.0801 15.2899 22.8113 0.0000 0.0000 0.0000
# 2 15.2899 97.2300 4.9674 0.0000 0.0000 0.0000
# 3 22.8113 4.9674 89.0457 0.0000 0.0000 0.0000
# 4 0.0000 0.0000 0.0000 22.6174 0.0000 0.0000
# 5 0.0000 0.0000 0.0000 0.0000 38.5705 0.0000
# 6 0.0000 0.0000 0.0000 0.0000 0.0000 9.1002
#
#
#
# Elastic Compliance Matrix: (Units=1/GPa)
#
#
# Indices 1 2 3 4 5 6 
#
# 1 0.010615 -0.001535 -0.002634 0.000000 0.000000 0.000000
# 2 -0.001535 0.010536 -0.000195 0.000000 0.000000 0.000000
# 3 -0.002634 -0.000195 0.011916 0.000000 0.000000 0.000000
# 4 0.000000 0.000000 0.000000 0.044214 0.000000 0.000000
# 5 0.000000 0.000000 0.000000 0.000000 0.025927 0.000000
# 6 0.000000 0.000000 0.000000 0.000000 0.000000 0.109887
#
#
# Mechanical properties :
#
#
# Convention : Reuss Voigt Hill
#
# Bulk Modulus (GPa) = 41.08336 41.61034 41.34685
# Shear Modulus (GPa) = 21.74542 30.41010 26.07776
#
# Velocity S-wave (km/s) = 2.95991 3.50029 3.24138
# Velocity P-wave (km/s) = 5.31354 5.75331 5.53779
#
# Compressibility (1/GPa) = 0.02434075
#
# Stress axis : x y z
#
# Youngs Moduli (GPa) = 94.20976 94.91123 83.92289
#
# Poissons Ratio (x) = 0.14566 0.22102
# Poissons Ratio (y) = 0.14458 0.01633
# Poissons Ratio (z) = 0.24811 0.01847
#
# Static dielectric constant tensor:
#      x y z
#    x 1.981830 0.000000 0.000000 
#    y 0.000000 1.947620 0.000000 
#    z 0.000000 0.000000 1.994440 
# 
# From -- ./inp_files/7104.got.cif
#   From: 2010.05.17/outbox.cif.g08.bks.cpg/sg33_4_cif.got.tgz:7104.got - 2010.06.03 17:15:25.
