data_PCOD9346664
_publ_section_title
;
Structure prediction by ZEFSAII (Michael W. Deem and Ramdas Pophale) SiO2 
 PCOD9346664
Probable space group: P N A 21
;
_chemical_formula_sum "Si O2"
_cell_formula_units_Z 20
_cell_length_a 15.967013
_cell_length_b 8.851151
_cell_length_c 5.455558
_cell_angle_alpha 90.000000
_cell_angle_beta 90.000000
_cell_angle_gamma 90.000000
_cell_volume 771.014607
_symmetry_space_group_name_H-M "P N A 21"
_symmetry_group_IT_number 33
_symmetry_cell_setting 'orthorhombic'
loop_
_space_group_symop_operation_xyz
x,y,z
-x,-y,1/2+z
1/2-x,1/2+y,1/2+z
1/2+x,1/2-y,z
loop_
_atom_site_type_symbol
_atom_site_label
_atom_site_fract_x
_atom_site_fract_y
_atom_site_fract_z
Si Si1 0.583246 0.951903 0.864170
Si Si2 0.594986 0.180801 0.215017
Si Si3 0.949459 0.995151 0.937325
Si Si4 0.226571 0.515943 0.464583
Si Si5 0.667471 0.719154 0.238041
O O1 0.488574 0.902822 0.814724
O O2 0.653369 0.941150 0.656084
O O3 0.613719 0.835356 0.075337
O O4 0.584197 0.130267 0.933877
O O5 0.593618 0.344597 0.331456
O O6 0.681453 0.101503 0.285278
O O7 0.888235 0.139177 0.945473
O O8 0.013078 0.028002 0.708630
O O9 0.300361 0.423011 0.584189
O O10 0.243195 0.675171 0.333378
#
# Coordination Sequence:
#
# PCOD9346664 Si02
#       5
#     4   4   4   4   4
#     4  11  23  46  73 101 142 192 255 306 381 460
#     4  11  24  43  73 105 139 199 251 314 376 456
#     4  12  28  47  77 113 153 198 257 323 383 462
#     4  11  27  47  73 101 154 196 256 317 387 466
#     4  11  28  47  70 112 148 203 253 320 391 462
#
# _framework density 25.939844000000001
#
# number of rings (size 3 to 8) (size 9 to 14) (size 15 to 20)
#    0.000    0.800    4.000    1.200   11.200    1.600 
#    0.000    0.000    0.000    0.000    0.000    0.000 
#    0.000    0.000    0.000    0.000    0.000    0.000 
#
# Total GULP energy -111825.255396 kJ/mol
# GULP energy per Si atom -5591.262770 kJ/mol
# Density = 2.588080 g / cm^3
# Si number density = 25.939844 Si / 1000 Ang^3
#
#
#
# Elastic Constant Matrix: (Units=GPa)
#
#
# Indices 1 2 3 4 5 6 
#
# 1 58.6786 22.1468 4.9087 0.0000 0.0000 0.0000
# 2 22.1468 121.1887 19.0327 0.0000 0.0000 0.0000
# 3 4.9087 19.0327 35.1834 0.0000 0.0000 0.0000
# 4 0.0000 0.0000 0.0000 31.0772 0.0000 0.0000
# 5 0.0000 0.0000 0.0000 0.0000 31.4762 0.0000
# 6 0.0000 0.0000 0.0000 0.0000 0.0000 48.8361
#
#
#
# Elastic Compliance Matrix: (Units=1/GPa)
#
#
# Indices 1 2 3 4 5 6 
#
# 1 0.018326 -0.003221 -0.000814 0.000000 0.000000 0.000000
# 2 -0.003221 0.009584 -0.004735 0.000000 0.000000 0.000000
# 3 -0.000814 -0.004735 0.031098 0.000000 0.000000 0.000000
# 4 0.000000 0.000000 0.000000 0.032178 0.000000 0.000000
# 5 0.000000 0.000000 0.000000 0.000000 0.031770 0.000000
# 6 0.000000 0.000000 0.000000 0.000000 0.000000 0.020477
#
#
# Mechanical properties :
#
#
# Convention : Reuss Voigt Hill
#
# Bulk Modulus (GPa) = 24.11590 34.13632 29.12611
# Shear Modulus (GPa) = 28.60493 33.54206 31.07350
#
# Velocity S-wave (km/s) = 3.32436 3.59983 3.46483
# Velocity P-wave (km/s) = 4.90430 5.51967 5.22106
#
# Compressibility (1/GPa) = 0.04146642
#
# Stress axis : x y z
#
# Youngs Moduli (GPa) = 54.56775 104.34187 32.15681
#
# Poissons Ratio (x) = 0.33610 0.02618
# Poissons Ratio (y) = 0.17577 0.15226
# Poissons Ratio (z) = 0.04443 0.49407
#
# Static dielectric constant tensor:
#      x y z
#    x 2.036860 0.000000 0.000000 
#    y 0.000000 2.042670 0.000000 
#    z 0.000000 0.000000 2.151380 
# 
# From -- ./inp_files/1595.got.cif
#   From: 2010.05.17/outbox.cif.g08.bks.cpg/sg33_1_cif.got.tgz:1595.got - 2010.06.03 17:15:25.
