data_PCOD9346970
_publ_section_title
;
Structure prediction by ZEFSAII (Michael W. Deem and Ramdas Pophale) SiO2 
 PCOD9346970
Probable space group: P N A 21
;
_chemical_formula_sum "Si O2"
_cell_formula_units_Z 24
_cell_length_a 19.904961
_cell_length_b 9.305361
_cell_length_c 4.918014
_cell_angle_alpha 90.000000
_cell_angle_beta 90.000000
_cell_angle_gamma 90.000000
_cell_volume 910.928559
_symmetry_space_group_name_H-M "P N A 21"
_symmetry_group_IT_number 33
_symmetry_cell_setting 'orthorhombic'
loop_
_space_group_symop_operation_xyz
x,y,z
-x,-y,1/2+z
1/2-x,1/2+y,1/2+z
1/2+x,1/2-y,z
loop_
_atom_site_type_symbol
_atom_site_label
_atom_site_fract_x
_atom_site_fract_y
_atom_site_fract_z
Si Si1 0.858386 0.721687 0.694640
Si Si2 0.791548 0.208299 0.205852
Si Si3 0.893100 0.444141 0.065887
Si Si4 0.520885 0.170920 0.795828
Si Si5 0.842529 0.052347 0.701645
Si Si6 0.516934 0.585951 0.922926
O O1 0.783054 0.702868 0.578605
O O2 0.869923 0.582782 0.888269
O O3 0.919854 0.734161 0.484111
O O4 0.847674 0.885998 0.790740
O O5 0.788702 0.120597 0.489067
O O6 0.830820 0.362729 0.211021
O O7 0.835510 0.129783 0.983564
O O8 0.944230 0.344138 0.894574
O O9 0.948115 0.511793 0.268932
O O10 0.518054 0.268067 0.523588
O O11 0.908142 0.090356 0.529890
O O12 0.485458 0.460204 0.111769
#
# Coordination Sequence:
#
# PCOD9346970 Si02
#       6
#     4   4   4   4   4   4
#     4  12  29  51  78 113 160 208 266 328 399 474
#     4  12  31  51  81 114 160 212 265 325 397 479
#     4  12  28  50  78 119 155 212 261 334 395 476
#     4  12  27  45  80 111 157 205 265 325 396 465
#     4  12  28  52  78 112 156 211 260 326 393 477
#     4  12  25  47  77 113 150 198 259 324 392 465
#
# _framework density 26.346744000000001
#
# number of rings (size 3 to 8) (size 9 to 14) (size 15 to 20)
#    0.000    0.000    5.000    3.000   11.667    0.000 
#    0.000    0.000    0.000    0.000    0.000    0.000 
#    0.000    0.000    0.000    0.000    0.000    0.000 
#
# Total GULP energy -134110.398831 kJ/mol
# GULP energy per Si atom -5587.933285 kJ/mol
# Density = 2.628678 g / cm^3
# Si number density = 26.346744 Si / 1000 Ang^3
#
#
#
# Elastic Constant Matrix: (Units=GPa)
#
#
# Indices 1 2 3 4 5 6 
#
# 1 145.7907 49.3496 16.1502 0.0000 0.0000 0.0000
# 2 49.3496 142.1212 26.7149 0.0000 0.0000 0.0000
# 3 16.1502 26.7149 71.9447 0.0000 0.0000 0.0000
# 4 0.0000 0.0000 0.0000 39.5398 0.0000 0.0000
# 5 0.0000 0.0000 0.0000 0.0000 12.2040 0.0000
# 6 0.0000 0.0000 0.0000 0.0000 0.0000 12.3518
#
#
#
# Elastic Compliance Matrix: (Units=1/GPa)
#
#
# Indices 1 2 3 4 5 6 
#
# 1 0.007816 -0.002563 -0.000803 0.000000 0.000000 0.000000
# 2 -0.002563 0.008405 -0.002546 0.000000 0.000000 0.000000
# 3 -0.000803 -0.002546 0.015025 0.000000 0.000000 0.000000
# 4 0.000000 0.000000 0.000000 0.025291 0.000000 0.000000
# 5 0.000000 0.000000 0.000000 0.000000 0.081940 0.000000
# 6 0.000000 0.000000 0.000000 0.000000 0.000000 0.080960
#
#
# Mechanical properties :
#
#
# Convention : Reuss Voigt Hill
#
# Bulk Modulus (GPa) = 51.48596 60.47622 55.98109
# Shear Modulus (GPa) = 21.03200 30.66192 25.84696
#
# Velocity S-wave (km/s) = 2.82844 3.41513 3.13554
# Velocity P-wave (km/s) = 5.50008 6.20924 5.86539
#
# Compressibility (1/GPa) = 0.01942277
#
# Stress axis : x y z
#
# Youngs Moduli (GPa) = 127.94867 118.98110 66.55580
#
# Poissons Ratio (x) = 0.30495 0.05343
# Poissons Ratio (y) = 0.32793 0.16942
# Poissons Ratio (z) = 0.10271 0.30287
#
# Static dielectric constant tensor:
#      x y z
#    x 2.132080 0.000000 0.000000 
#    y 0.000000 2.281450 0.000000 
#    z 0.000000 0.000000 2.097790 
# 
# From -- ./inp_files/1665.got.cif
#   From: 2010.05.17/outbox.cif.g08.bks.cpg/sg33_1_cif.got.tgz:1665.got - 2010.06.03 17:15:25.
