data_PCOD9346639
_publ_section_title
;
Structure prediction by ZEFSAII (Michael W. Deem and Ramdas Pophale) SiO2 
 PCOD9346639
Probable space group: P N A 21
;
_chemical_formula_sum "Si O2"
_cell_formula_units_Z 20
_cell_length_a 15.516133
_cell_length_b 9.324775
_cell_length_c 5.188805
_cell_angle_alpha 90.000000
_cell_angle_beta 90.000000
_cell_angle_gamma 90.000000
_cell_volume 750.739393
_symmetry_space_group_name_H-M "P N A 21"
_symmetry_group_IT_number 33
_symmetry_cell_setting 'orthorhombic'
loop_
_space_group_symop_operation_xyz
x,y,z
-x,-y,1/2+z
1/2-x,1/2+y,1/2+z
1/2+x,1/2-y,z
loop_
_atom_site_type_symbol
_atom_site_label
_atom_site_fract_x
_atom_site_fract_y
_atom_site_fract_z
Si Si1 0.389548 0.449403 0.193180
Si Si2 0.041026 0.565724 0.174317
Si Si3 0.175954 0.184232 0.320960
Si Si4 0.288892 0.981424 0.972621
Si Si5 0.527385 0.302285 0.955934
O O1 0.294970 0.441040 0.306569
O O2 0.440595 0.307784 0.123198
O O3 0.446006 0.536898 0.394573
O O4 0.374154 0.553342 0.951264
O O5 0.136514 0.548068 0.291442
O O6 0.979150 0.491540 0.391671
O O7 0.004531 0.725301 0.199682
O O8 0.186716 0.313414 0.531416
O O9 0.111436 0.252560 0.107243
O O10 0.256318 0.100289 0.181383
#
# Coordination Sequence:
#
# PCOD9346639 Si02
#       5
#     4   4   4   4   4
#     4  11  24  44  73 102 147 193 252 314 387 462
#     4  12  27  47  76 107 155 200 254 318 382 457
#     4  11  24  46  71 106 152 190 262 311 392 463
#     4  11  26  45  71 110 145 199 250 324 380 470
#     4  11  23  44  73 105 143 204 252 311 383 466
#
# _framework density 26.640405000000001
#
# number of rings (size 3 to 8) (size 9 to 14) (size 15 to 20)
#    0.000    0.800    4.000    2.400    2.800    4.800 
#    0.000    0.000    0.000    0.000    0.000    0.000 
#    0.000    0.000    0.000    0.000    0.000    0.000 
#
# Total GULP energy -111702.425175 kJ/mol
# GULP energy per Si atom -5585.121259 kJ/mol
# Density = 2.657977 g / cm^3
# Si number density = 26.640405 Si / 1000 Ang^3
#
#
#
# Elastic Constant Matrix: (Units=GPa)
#
#
# Indices 1 2 3 4 5 6 
#
# 1 146.4172 24.5207 11.0891 0.0000 0.0000 0.0000
# 2 24.5207 84.0111 29.8163 0.0000 0.0000 0.0000
# 3 11.0891 29.8163 65.0459 0.0000 0.0000 0.0000
# 4 0.0000 0.0000 0.0000 35.0768 0.0000 0.0000
# 5 0.0000 0.0000 0.0000 0.0000 39.8285 0.0000
# 6 0.0000 0.0000 0.0000 0.0000 0.0000 16.5592
#
#
#
# Elastic Compliance Matrix: (Units=1/GPa)
#
#
# Indices 1 2 3 4 5 6 
#
# 1 0.007186 -0.001986 -0.000315 0.000000 0.000000 0.000000
# 2 -0.001986 0.014765 -0.006429 0.000000 0.000000 0.000000
# 3 -0.000315 -0.006429 0.018375 0.000000 0.000000 0.000000
# 4 0.000000 0.000000 0.000000 0.028509 0.000000 0.000000
# 5 0.000000 0.000000 0.000000 0.000000 0.025108 0.000000
# 6 0.000000 0.000000 0.000000 0.000000 0.000000 0.060389
#
#
# Mechanical properties :
#
#
# Convention : Reuss Voigt Hill
#
# Bulk Modulus (GPa) = 43.73416 47.36960 45.55188
# Shear Modulus (GPa) = 27.86865 33.62946 30.74905
#
# Velocity S-wave (km/s) = 3.23786 3.55681 3.40108
# Velocity P-wave (km/s) = 5.51638 5.88961 5.70605
#
# Compressibility (1/GPa) = 0.02286542
#
# Stress axis : x y z
#
# Youngs Moduli (GPa) = 139.15569 67.72945 54.42288
#
# Poissons Ratio (x) = 0.13449 0.01714
# Poissons Ratio (y) = 0.27632 0.34991
# Poissons Ratio (z) = 0.04382 0.43546
#
# Static dielectric constant tensor:
#      x y z
#    x 2.150090 0.000000 0.000000 
#    y 0.000000 2.150410 0.000000 
#    z 0.000000 0.000000 2.117400 
# 
# From -- ./inp_files/1225.got.cif
#   From: 2010.05.17/outbox.cif.g08.bks.cpg/sg33_1_cif.got.tgz:1225.got - 2010.06.03 17:15:25.
