data_PCOD9346185
_publ_section_title
;
Structure prediction by ZEFSAII (Michael W. Deem and Ramdas Pophale) SiO2 
 PCOD9346185
Probable space group: P N A 21
;
_chemical_formula_sum "Si O2"
_cell_formula_units_Z 16
_cell_length_a 10.211469
_cell_length_b 12.361574
_cell_length_c 4.846506
_cell_angle_alpha 90.000000
_cell_angle_beta 90.000000
_cell_angle_gamma 90.000000
_cell_volume 611.773627
_symmetry_space_group_name_H-M "P N A 21"
_symmetry_group_IT_number 33
_symmetry_cell_setting 'orthorhombic'
loop_
_space_group_symop_operation_xyz
x,y,z
-x,-y,1/2+z
1/2-x,1/2+y,1/2+z
1/2+x,1/2-y,z
loop_
_atom_site_type_symbol
_atom_site_label
_atom_site_fract_x
_atom_site_fract_y
_atom_site_fract_z
Si Si1 0.935181 0.455510 0.192480
Si Si2 0.611588 0.231709 0.309673
Si Si3 0.700127 0.566695 0.504923
Si Si4 0.930506 0.868905 0.314415
O O1 0.803886 0.504944 0.311791
O O2 0.044206 0.523036 0.370047
O O3 0.975296 0.333309 0.260065
O O4 0.617233 0.269986 0.622579
O O5 0.723599 0.153903 0.191954
O O6 0.609750 0.338212 0.122621
O O7 0.630058 0.478357 0.698568
O O8 0.586974 0.620922 0.321750
#
# Coordination Sequence:
#
# PCOD9346185 Si02
#       4
#     4   4   4   4
#     4  10  23  46  77 107 151 202 254 322 390 462
#     4  11  27  48  79 115 153 215 263 318 405 482
#     4  11  28  51  78 116 168 195 276 330 398 476
#     4  12  28  47  80 116 158 212 257 332 405 458
#
# _framework density 26.153466000000002
#
# number of rings (size 3 to 8) (size 9 to 14) (size 15 to 20)
#    0.000    1.000    0.000    4.500    7.000   16.000 
#    0.000    0.000    0.000    0.000    0.000    0.000 
#    0.000    0.000    0.000    0.000    0.000    0.000 
#
# Total GULP energy -89808.742538 kJ/mol
# GULP energy per Si atom -5613.046409 kJ/mol
# Density = 2.609394 g / cm^3
# Si number density = 26.153466 Si / 1000 Ang^3
#
#
#
# Elastic Constant Matrix: (Units=GPa)
#
#
# Indices 1 2 3 4 5 6 
#
# 1 170.7908 57.7865 32.9595 0.0000 0.0000 0.0000
# 2 57.7865 102.6601 21.4235 0.0000 0.0000 0.0000
# 3 32.9595 21.4235 87.0329 0.0000 0.0000 0.0000
# 4 0.0000 0.0000 0.0000 47.7588 0.0000 0.0000
# 5 0.0000 0.0000 0.0000 0.0000 43.8288 0.0000
# 6 0.0000 0.0000 0.0000 0.0000 0.0000 47.6917
#
#
#
# Elastic Compliance Matrix: (Units=1/GPa)
#
#
# Indices 1 2 3 4 5 6 
#
# 1 0.007520 -0.003836 -0.001904 0.000000 0.000000 0.000000
# 2 -0.003836 0.012225 -0.001557 0.000000 0.000000 0.000000
# 3 -0.001904 -0.001557 0.012594 0.000000 0.000000 0.000000
# 4 0.000000 0.000000 0.000000 0.020939 0.000000 0.000000
# 5 0.000000 0.000000 0.000000 0.000000 0.022816 0.000000
# 6 0.000000 0.000000 0.000000 0.000000 0.000000 0.020968
#
#
# Mechanical properties :
#
#
# Convention : Reuss Voigt Hill
#
# Bulk Modulus (GPa) = 56.34787 64.98030 60.66409
# Shear Modulus (GPa) = 42.52791 44.41015 43.46903
#
# Velocity S-wave (km/s) = 4.03686 4.12522 4.08128
# Velocity P-wave (km/s) = 6.58180 6.89853 6.74202
#
# Compressibility (1/GPa) = 0.01774690
#
# Stress axis : x y z
#
# Youngs Moduli (GPa) = 132.97245 81.80039 79.40281
#
# Poissons Ratio (x) = 0.31377 0.15116
# Poissons Ratio (y) = 0.51006 0.12360
# Poissons Ratio (z) = 0.25315 0.12733
#
# Static dielectric constant tensor:
#      x y z
#    x 2.072740 0.000000 0.000000 
#    y 0.000000 2.017780 0.000000 
#    z 0.000000 0.000000 1.948960 
# 
# From -- ./inp_files/260.got.cif
#   From: 2010.05.17/outbox.cif.g08.bks.cpg/sg33_1_cif.got.tgz:260.got - 2010.06.03 17:15:25.
