data_PCOD9346967
_publ_section_title
;
Structure prediction by ZEFSAII (Michael W. Deem and Ramdas Pophale) SiO2 
 PCOD9346967
Probable space group: P N A 21
;
_chemical_formula_sum "Si O2"
_cell_formula_units_Z 16
_cell_length_a 8.931219
_cell_length_b 4.545497
_cell_length_c 14.576342
_cell_angle_alpha 90.000000
_cell_angle_beta 90.000000
_cell_angle_gamma 90.000000
_cell_volume 591.753266
_symmetry_space_group_name_H-M "P N A 21"
_symmetry_group_IT_number 33
_symmetry_cell_setting 'orthorhombic'
loop_
_space_group_symop_operation_xyz
x,y,z
-x,-y,1/2+z
1/2-x,1/2+y,1/2+z
1/2+x,1/2-y,z
loop_
_atom_site_type_symbol
_atom_site_label
_atom_site_fract_x
_atom_site_fract_y
_atom_site_fract_z
Si Si1 0.791807 0.014049 0.902080
Si Si2 0.978443 0.886814 0.656615
Si Si3 0.978440 0.613187 0.282186
Si Si4 0.291805 0.014045 0.036722
O O1 0.922467 0.194290 0.851581
O O2 0.839963 0.750002 0.969401
O O3 0.661091 0.952875 0.829610
O O4 0.922464 0.305711 0.087221
O O5 0.930222 0.647354 0.732916
O O6 0.838913 0.047127 0.609191
O O7 0.069781 0.147354 0.705885
O O8 0.783110 0.750002 0.469401
#
# Coordination Sequence:
#
# PCOD9346967 Si02
#       4
#     4   4   4   4
#     4  12  26  46  72 108 145 188 241 298 358 430
#     4  12  25  46  73 106 146 192 238 296 361 430
#     4  12  25  46  73 106 146 192 238 296 361 430
#     4  12  26  46  72 108 145 188 241 298 358 430
#
# _framework density 27.038295999999999
#
# number of rings (size 3 to 8) (size 9 to 14) (size 15 to 20)
#    0.000    0.000    0.000   10.500    0.000    4.000 
#    0.000    0.000    0.000    0.000    0.000    0.000 
#    0.000    0.000    0.000    0.000    0.000    0.000 
#
# Total GULP energy -89684.068003 kJ/mol
# GULP energy per Si atom -5605.254250 kJ/mol
# Density = 2.697676 g / cm^3
# Si number density = 27.038296 Si / 1000 Ang^3
#
#
#
# Elastic Constant Matrix: (Units=GPa)
#
#
# Indices 1 2 3 4 5 6 
#
# 1 121.0227 15.7891 72.1206 0.0000 0.0000 0.0000
# 2 15.7891 144.5144 69.5118 0.0000 0.0000 0.0000
# 3 72.1206 69.5118 131.2432 0.0000 0.0000 0.0000
# 4 0.0000 0.0000 0.0000 42.7880 0.0000 0.0000
# 5 0.0000 0.0000 0.0000 0.0000 27.6676 0.0000
# 6 0.0000 0.0000 0.0000 0.0000 0.0000 34.9793
#
#
#
# Elastic Compliance Matrix: (Units=1/GPa)
#
#
# Indices 1 2 3 4 5 6 
#
# 1 0.013033 0.002712 -0.008598 0.000000 0.000000 0.000000
# 2 0.002712 0.009849 -0.006707 0.000000 0.000000 0.000000
# 3 -0.008598 -0.006707 0.015897 0.000000 0.000000 0.000000
# 4 0.000000 0.000000 0.000000 0.023371 0.000000 0.000000
# 5 0.000000 0.000000 0.000000 0.000000 0.036143 0.000000
# 6 0.000000 0.000000 0.000000 0.000000 0.000000 0.028588
#
#
# Mechanical properties :
#
#
# Convention : Reuss Voigt Hill
#
# Bulk Modulus (GPa) = 73.56981 79.06925 76.31953
# Shear Modulus (GPa) = 31.92870 37.04424 34.48647
#
# Velocity S-wave (km/s) = 3.44011 3.70546 3.57524
# Velocity P-wave (km/s) = 6.56107 6.90030 6.73282
#
# Compressibility (1/GPa) = 0.01359253
#
# Stress axis : x y z
#
# Youngs Moduli (GPa) = 76.72845 101.52842 62.90689
#
# Poissons Ratio (x) = -0.27532 0.54088
# Poissons Ratio (y) = -0.20807 0.42191
# Poissons Ratio (z) = 0.65972 0.68094
#
# Static dielectric constant tensor:
#      x y z
#    x 1.996950 0.000000 0.000000 
#    y 0.000000 2.068130 0.000000 
#    z 0.000000 0.000000 2.291850 
# 
# From -- ./inp_files/4136.got.cif
#   From: 2010.05.17/outbox.cif.g08.bks.cpg/sg33_3_cif.got.tgz:4136.got - 2010.06.03 17:15:25.
