data_PCOD9346178
_publ_section_title
;
Structure prediction by ZEFSAII (Michael W. Deem and Ramdas Pophale) SiO2 
 PCOD9346178
Probable space group: P N A 21
;
_chemical_formula_sum "Si O2"
_cell_formula_units_Z 32
_cell_length_a 7.758238
_cell_length_b 18.848386
_cell_length_c 9.055260
_cell_angle_alpha 90.000000
_cell_angle_beta 90.000000
_cell_angle_gamma 90.000000
_cell_volume 1324.153065
_symmetry_space_group_name_H-M "P N A 21"
_symmetry_group_IT_number 33
_symmetry_cell_setting 'orthorhombic'
loop_
_space_group_symop_operation_xyz
x,y,z
-x,-y,1/2+z
1/2-x,1/2+y,1/2+z
1/2+x,1/2-y,z
loop_
_atom_site_type_symbol
_atom_site_label
_atom_site_fract_x
_atom_site_fract_y
_atom_site_fract_z
Si Si1 0.515985 0.054061 0.797080
Si Si2 0.408035 0.094079 0.245012
Si Si3 0.511598 0.440508 0.324577
Si Si4 0.440517 0.673943 0.064895
Si Si5 0.678630 0.556744 0.518916
Si Si6 0.048199 0.811410 0.388142
Si Si7 0.527371 0.838841 0.050719
Si Si8 0.826586 0.337306 0.962437
O O1 0.564719 0.114321 0.677067
O O2 0.499560 0.980292 0.713501
O O3 0.649100 0.036062 0.928602
O O4 0.353008 0.089379 0.875746
O O5 0.202542 0.077780 0.258448
O O6 0.490034 0.124141 0.393105
O O7 0.420967 0.151397 0.116446
O O8 0.478712 0.374754 0.436683
O O9 0.537649 0.510082 0.426996
O O10 0.378830 0.450423 0.189485
O O11 0.521919 0.658397 0.224368
O O12 0.465500 0.757975 0.041609
O O13 0.235455 0.659308 0.075080
O O14 0.676647 0.640202 0.479252
O O15 0.871412 0.819284 0.476312
O O16 0.095916 0.729507 0.376508
#
# Coordination Sequence:
#
# PCOD9346178 Si02
#       8
#     4   4   4   4   4   4   4   4
#     4  11  23  45  69  99 141 183 238 288 357 429
#     4  10  24  44  68  99 141 181 235 300 348 427
#     4  10  23  46  69 103 143 183 233 297 360 434
#     4  11  23  44  67  95 137 179 236 286 354 427
#     4  11  24  44  71 104 139 184 234 290 364 434
#     4  12  23  41  70  97 138 181 232 291 356 433
#     4  11  24  43  68  98 133 186 230 291 352 418
#     4  12  24  43  68 103 136 185 236 291 363 424
#
# _framework density 24.166388000000001
#
# number of rings (size 3 to 8) (size 9 to 14) (size 15 to 20)
#    0.000    1.000    3.750    2.250    3.500    0.000 
#    4.500    0.000    0.000    0.000    0.000    0.000 
#    0.000    0.000    0.000    0.000    0.000    0.000 
#
# Total GULP energy -178902.091362 kJ/mol
# GULP energy per Si atom -5590.690355 kJ/mol
# Density = 2.411138 g / cm^3
# Si number density = 24.166388 Si / 1000 Ang^3
#
#
#
# Elastic Constant Matrix: (Units=GPa)
#
#
# Indices 1 2 3 4 5 6 
#
# 1 47.5146 15.2474 27.3338 0.0000 0.0000 0.0000
# 2 15.2474 65.8065 50.9065 0.0000 0.0000 0.0000
# 3 27.3338 50.9065 158.4834 0.0000 0.0000 0.0000
# 4 0.0000 0.0000 0.0000 30.7644 0.0000 0.0000
# 5 0.0000 0.0000 0.0000 0.0000 25.0712 0.0000
# 6 0.0000 0.0000 0.0000 0.0000 0.0000 22.9188
#
#
#
# Elastic Compliance Matrix: (Units=1/GPa)
#
#
# Indices 1 2 3 4 5 6 
#
# 1 0.023835 -0.003117 -0.003110 0.000000 0.000000 0.000000
# 2 -0.003117 0.020628 -0.006088 0.000000 0.000000 0.000000
# 3 -0.003110 -0.006088 0.008802 0.000000 0.000000 0.000000
# 4 0.000000 0.000000 0.000000 0.032505 0.000000 0.000000
# 5 0.000000 0.000000 0.000000 0.000000 0.039886 0.000000
# 6 0.000000 0.000000 0.000000 0.000000 0.000000 0.043632
#
#
# Mechanical properties :
#
#
# Convention : Reuss Voigt Hill
#
# Bulk Modulus (GPa) = 34.92228 50.97555 42.94891
# Shear Modulus (GPa) = 24.57435 27.63868 26.10652
#
# Velocity S-wave (km/s) = 3.19232 3.38551 3.29033
# Velocity P-wave (km/s) = 5.29811 6.03503 5.67854
#
# Compressibility (1/GPa) = 0.02863502
#
# Stress axis : x y z
#
# Youngs Moduli (GPa) = 41.95456 48.47756 113.61341
#
# Poissons Ratio (x) = 0.15111 0.35330
# Poissons Ratio (y) = 0.13078 0.69172
# Poissons Ratio (z) = 0.13046 0.29515
#
# Static dielectric constant tensor:
#      x y z
#    x 1.955090 0.000000 0.000000 
#    y 0.000000 1.938730 0.000000 
#    z 0.000000 0.000000 1.938600 
# 
# From -- ./inp_files/3517.got.cif
#   From: 2010.05.17/outbox.cif.g08.bks.cpg/sg33_2_cif.got.tgz:3517.got - 2010.06.03 17:15:25.
