data_PCOD9346172
_publ_section_title
;
Structure prediction by ZEFSAII (Michael W. Deem and Ramdas Pophale) SiO2 
 PCOD9346172
Probable space group: P N A 21
;
_chemical_formula_sum "Si O2"
_cell_formula_units_Z 28
_cell_length_a 14.611767
_cell_length_b 14.321503
_cell_length_c 5.041189
_cell_angle_alpha 90.000000
_cell_angle_beta 90.000000
_cell_angle_gamma 90.000000
_cell_volume 1054.931636
_symmetry_space_group_name_H-M "P N A 21"
_symmetry_group_IT_number 33
_symmetry_cell_setting 'orthorhombic'
loop_
_space_group_symop_operation_xyz
x,y,z
-x,-y,1/2+z
1/2-x,1/2+y,1/2+z
1/2+x,1/2-y,z
loop_
_atom_site_type_symbol
_atom_site_label
_atom_site_fract_x
_atom_site_fract_y
_atom_site_fract_z
Si Si1 0.969249 0.950538 0.853490
Si Si2 0.960329 0.386183 0.192032
Si Si3 0.534773 0.727592 0.085724
Si Si4 0.833099 0.537329 0.060431
Si Si5 0.804668 0.274880 0.869143
Si Si6 0.123394 0.298194 0.908384
Si Si7 0.765309 0.951565 0.065465
O O1 0.871093 0.956921 0.994048
O O2 0.006633 0.844891 0.859944
O O3 0.967948 0.991544 0.559688
O O4 0.882387 0.325824 0.039650
O O5 0.062720 0.364128 0.094106
O O6 0.956498 0.334175 0.477647
O O7 0.933587 0.489016 0.085918
O O8 0.632124 0.700873 0.213163
O O9 0.450882 0.726423 0.292412
O O10 0.840527 0.642482 0.158033
O O11 0.784510 0.480409 0.297156
O O12 0.775910 0.517406 0.796784
O O13 0.716634 0.240663 0.031425
O O14 0.760857 0.348749 0.665845
#
# Coordination Sequence:
#
# PCOD9346172 Si02
#       7
#     4   4   4   4   4   4   4
#     4  12  29  47  73 106 151 191 250 304 362 434
#     4  10  25  43  73 102 148 185 242 306 359 429
#     4  11  25  46  70 104 139 191 239 300 364 432
#     4  11  26  45  74 107 148 188 243 302 365 433
#     4  10  23  46  67 101 140 189 240 292 357 438
#     4  11  26  42  74 104 141 190 241 294 368 434
#     4  11  24  49  69 104 147 194 239 298 367 420
#
# _framework density 26.542006000000001
#
# number of rings (size 3 to 8) (size 9 to 14) (size 15 to 20)
#    0.000    1.143    2.857    0.857   12.000    3.429 
#    0.000    0.000    0.000    0.000    0.000    0.000 
#    0.000    0.000    0.000    0.000    0.000    0.000 
#
# Total GULP energy -156767.980739 kJ/mol
# GULP energy per Si atom -5598.856455 kJ/mol
# Density = 2.648160 g / cm^3
# Si number density = 26.542006 Si / 1000 Ang^3
#
#
#
# Elastic Constant Matrix: (Units=GPa)
#
#
# Indices 1 2 3 4 5 6 
#
# 1 162.5078 17.9296 20.1936 0.0000 0.0000 0.0000
# 2 17.9296 65.1405 -2.1900 0.0000 0.0000 0.0000
# 3 20.1936 -2.1900 86.8771 0.0000 0.0000 0.0000
# 4 0.0000 0.0000 0.0000 34.1025 0.0000 0.0000
# 5 0.0000 0.0000 0.0000 0.0000 37.0528 0.0000
# 6 0.0000 0.0000 0.0000 0.0000 0.0000 27.3930
#
#
#
# Elastic Compliance Matrix: (Units=1/GPa)
#
#
# Indices 1 2 3 4 5 6 
#
# 1 0.006553 -0.001857 -0.001570 0.000000 0.000000 0.000000
# 2 -0.001857 0.015890 0.000832 0.000000 0.000000 0.000000
# 3 -0.001570 0.000832 0.011896 0.000000 0.000000 0.000000
# 4 0.000000 0.000000 0.000000 0.029323 0.000000 0.000000
# 5 0.000000 0.000000 0.000000 0.000000 0.026989 0.000000
# 6 0.000000 0.000000 0.000000 0.000000 0.000000 0.036506
#
#
# Mechanical properties :
#
#
# Convention : Reuss Voigt Hill
#
# Bulk Modulus (GPa) = 34.30391 42.93244 38.61817
# Shear Modulus (GPa) = 35.19537 38.28247 36.73892
#
# Velocity S-wave (km/s) = 3.64541 3.80193 3.72449
# Velocity P-wave (km/s) = 5.53815 5.95678 5.75128
#
# Compressibility (1/GPa) = 0.02915120
#
# Stress axis : x y z
#
# Youngs Moduli (GPa) = 152.59040 62.93096 84.05880
#
# Poissons Ratio (x) = 0.11684 0.13198
# Poissons Ratio (y) = 0.28330 -0.06995
# Poissons Ratio (z) = 0.23958 -0.05237
#
# Static dielectric constant tensor:
#      x y z
#    x 2.112570 0.000000 0.000000 
#    y 0.000000 2.129860 0.000000 
#    z 0.000000 0.000000 2.108110 
# 
# From -- ./inp_files/1406.got.cif
#   From: 2010.05.17/outbox.cif.g08.bks.cpg/sg33_1_cif.got.tgz:1406.got - 2010.06.03 17:15:25.
