data_PCOD9346280
_publ_section_title
;
Structure prediction by ZEFSAII (Michael W. Deem and Ramdas Pophale) SiO2 
 PCOD9346280
Probable space group: P N A 21
;
_chemical_formula_sum "Si O2"
_cell_formula_units_Z 32
_cell_length_a 11.080130
_cell_length_b 8.972505
_cell_length_c 13.462263
_cell_angle_alpha 90.000000
_cell_angle_beta 90.000000
_cell_angle_gamma 90.000000
_cell_volume 1338.371363
_symmetry_space_group_name_H-M "P N A 21"
_symmetry_group_IT_number 33
_symmetry_cell_setting 'orthorhombic'
loop_
_space_group_symop_operation_xyz
x,y,z
-x,-y,1/2+z
1/2-x,1/2+y,1/2+z
1/2+x,1/2-y,z
loop_
_atom_site_type_symbol
_atom_site_label
_atom_site_fract_x
_atom_site_fract_y
_atom_site_fract_z
Si Si1 0.349317 0.933910 0.036170
Si Si2 0.337774 0.304750 0.406480
Si Si3 0.741767 0.248134 0.725739
Si Si4 0.580296 0.013928 0.947697
Si Si5 0.791251 0.771735 0.563222
Si Si6 0.493842 0.519782 0.533282
Si Si7 0.483155 0.277438 0.839146
Si Si8 0.819515 0.047391 0.200586
O O1 0.299258 0.857923 0.136145
O O2 0.292564 0.098386 0.020566
O O3 0.297900 0.835177 0.945336
O O4 0.492154 0.953095 0.033561
O O5 0.360185 0.129435 0.397910
O O6 0.421745 0.377633 0.492646
O O7 0.364453 0.400521 0.308236
O O8 0.616468 0.285092 0.786688
O O9 0.862577 0.187015 0.777408
O O10 0.779591 0.417947 0.701770
O O11 0.491614 0.106339 0.875887
O O12 0.673358 0.136998 0.989484
O O13 0.730372 0.699769 0.656691
O O14 0.910080 0.862016 0.590652
O O15 0.526563 0.615795 0.435592
O O16 0.593360 0.484264 0.613975
#
# Coordination Sequence:
#
# PCOD9346280 Si02
#       8
#     4   4   4   4   4   4   4   4
#     4  11  26  48  73 107 155 198 261 324 397 472
#     4  11  25  46  69 111 145 198 255 325 388 473
#     4  12  28  48  78 111 150 206 260 326 391 481
#     4  11  25  46  76 104 154 198 256 324 397 465
#     4  10  24  43  71 102 142 197 253 314 390 456
#     4  10  24  45  73 100 151 195 254 313 394 460
#     4  11  27  49  75 109 153 202 263 314 399 468
#     4  12  25  43  73 104 148 198 258 318 394 471
#
# _framework density 23.909655000000001
#
# number of rings (size 3 to 8) (size 9 to 14) (size 15 to 20)
#    0.000    1.000    1.250    3.750   15.750    2.000 
#    0.000    0.000    0.000    0.000    0.000    0.000 
#    0.000    0.000    0.000    0.000    0.000    0.000 
#
# Total GULP energy -178708.796036 kJ/mol
# GULP energy per Si atom -5584.649876 kJ/mol
# Density = 2.385524 g / cm^3
# Si number density = 23.909655 Si / 1000 Ang^3
#
#
#
# Elastic Constant Matrix: (Units=GPa)
#
#
# Indices 1 2 3 4 5 6 
#
# 1 83.1701 15.7832 43.8123 0.0000 0.0000 0.0000
# 2 15.7832 137.1503 24.6041 0.0000 0.0000 0.0000
# 3 43.8123 24.6041 95.8545 0.0000 0.0000 0.0000
# 4 0.0000 0.0000 0.0000 28.2999 0.0000 0.0000
# 5 0.0000 0.0000 0.0000 0.0000 12.3251 0.0000
# 6 0.0000 0.0000 0.0000 0.0000 0.0000 22.3968
#
#
#
# Elastic Compliance Matrix: (Units=1/GPa)
#
#
# Indices 1 2 3 4 5 6 
#
# 1 0.015876 -0.000551 -0.007115 0.000000 0.000000 0.000000
# 2 -0.000551 0.007662 -0.001715 0.000000 0.000000 0.000000
# 3 -0.007115 -0.001715 0.014125 0.000000 0.000000 0.000000
# 4 0.000000 0.000000 0.000000 0.035336 0.000000 0.000000
# 5 0.000000 0.000000 0.000000 0.000000 0.081135 0.000000
# 6 0.000000 0.000000 0.000000 0.000000 0.000000 0.044649
#
#
# Mechanical properties :
#
#
# Convention : Reuss Voigt Hill
#
# Bulk Modulus (GPa) = 52.90577 53.84156 53.37367
# Shear Modulus (GPa) = 22.33678 28.06938 25.20308
#
# Velocity S-wave (km/s) = 3.05981 3.43005 3.25021
# Velocity P-wave (km/s) = 5.88716 6.18503 6.03793
#
# Compressibility (1/GPa) = 0.01890153
#
# Stress axis : x y z
#
# Youngs Moduli (GPa) = 62.98748 130.50880 70.79716
#
# Poissons Ratio (x) = 0.07186 0.50374
# Poissons Ratio (y) = 0.03468 0.12143
# Poissons Ratio (z) = 0.44817 0.22384
#
# Static dielectric constant tensor:
#      x y z
#    x 1.995120 0.000000 0.000000 
#    y 0.000000 1.921940 0.000000 
#    z 0.000000 0.000000 1.988060 
# 
# From -- ./inp_files/7939.got.cif
#   From: 2010.05.17/outbox.cif.g08.bks.cpg/sg33_4_cif.got.tgz:7939.got - 2010.06.03 17:15:25.
