data_PCOD9346346
_publ_section_title
;
Structure prediction by ZEFSAII (Michael W. Deem and Ramdas Pophale) SiO2 
 PCOD9346346
Probable space group: P N A 21
;
_chemical_formula_sum "Si O2"
_cell_formula_units_Z 28
_cell_length_a 8.936487
_cell_length_b 12.547032
_cell_length_c 10.255831
_cell_angle_alpha 90.000000
_cell_angle_beta 90.000000
_cell_angle_gamma 90.000000
_cell_volume 1149.949290
_symmetry_space_group_name_H-M "P N A 21"
_symmetry_group_IT_number 33
_symmetry_cell_setting 'orthorhombic'
loop_
_space_group_symop_operation_xyz
x,y,z
-x,-y,1/2+z
1/2-x,1/2+y,1/2+z
1/2+x,1/2-y,z
loop_
_atom_site_type_symbol
_atom_site_label
_atom_site_fract_x
_atom_site_fract_y
_atom_site_fract_z
Si Si1 0.003671 0.648029 0.620990
Si Si2 0.528575 0.601450 0.036296
Si Si3 0.227995 0.526777 0.435128
Si Si4 0.220918 0.887363 0.285237
Si Si5 0.084136 0.215540 0.879131
Si Si6 0.000112 0.327122 0.417187
Si Si7 0.223342 0.525063 0.034078
O O1 0.938244 0.740420 0.526599
O O2 0.872757 0.559143 0.614839
O O3 0.145329 0.587319 0.556578
O O4 0.040456 0.687631 0.765152
O O5 0.664552 0.600214 0.139218
O O6 0.608746 0.528366 0.930853
O O7 0.467289 0.711491 0.977785
O O8 0.385439 0.542116 0.093000
O O9 0.277850 0.634130 0.358110
O O10 0.116996 0.426525 0.411218
O O11 0.370381 0.817041 0.292654
O O12 0.076565 0.829494 0.345253
O O13 0.254699 0.983091 0.384643
O O14 0.869718 0.368593 0.512137
#
# Coordination Sequence:
#
# PCOD9346346 Si02
#       7
#     4   4   4   4   4   4   4
#     4  10  24  46  71  97 140 177 233 284 342 419
#     4  12  26  43  69 104 137 180 228 288 346 407
#     4  11  24  44  66  99 131 181 222 269 348 401
#     4  11  25  43  71  97 138 172 233 282 337 425
#     4  11  23  45  69  99 129 184 224 277 344 408
#     4  11  26  44  68 101 141 180 226 289 345 405
#     4  10  24  47  66 107 134 190 232 279 358 411
#
# _framework density 24.3489
#
# number of rings (size 3 to 8) (size 9 to 14) (size 15 to 20)
#    0.000    1.143    2.857    1.714    6.000    4.571 
#    0.000    0.000    0.000    0.000    0.000    0.000 
#    0.000    0.000    0.000    0.000    0.000    0.000 
#
# Total GULP energy -156166.965459 kJ/mol
# GULP energy per Si atom -5577.391624 kJ/mol
# Density = 2.429348 g / cm^3
# Si number density = 24.348900 Si / 1000 Ang^3
#
#
#
# Elastic Constant Matrix: (Units=GPa)
#
#
# Indices 1 2 3 4 5 6 
#
# 1 87.4135 17.9478 -12.1992 0.0000 0.0000 0.0000
# 2 17.9478 69.5227 7.9065 0.0000 0.0000 0.0000
# 3 -12.1992 7.9065 67.7624 0.0000 0.0000 0.0000
# 4 0.0000 0.0000 0.0000 -2.5293 0.0000 0.0000
# 5 0.0000 0.0000 0.0000 0.0000 7.8548 0.0000
# 6 0.0000 0.0000 0.0000 0.0000 0.0000 -18.5232
#
#
#
# Elastic Compliance Matrix: (Units=1/GPa)
#
#
# Indices 1 2 3 4 5 6 
#
# 1 0.012540 -0.003541 0.002671 0.000000 0.000000 0.000000
# 2 -0.003541 0.015577 -0.002455 0.000000 0.000000 0.000000
# 3 0.002671 -0.002455 0.015525 0.000000 0.000000 0.000000
# 4 0.000000 0.000000 0.000000 -0.395367 0.000000 0.000000
# 5 0.000000 0.000000 0.000000 0.000000 0.127311 0.000000
# 6 0.000000 0.000000 0.000000 0.000000 0.000000 -0.053986
#
#
# Mechanical properties :
#
#
# Convention : Reuss Voigt Hill
#
# Bulk Modulus (GPa) = 27.03370 28.00098 27.51734
# Shear Modulus (GPa) = -19.27370 11.43003 -3.92183
#
# Velocity S-wave (km/s) = -2.81653 2.16898 -1.27050
# Velocity P-wave (km/s) = 0.74138 4.21871 3.02879
#
# Compressibility (1/GPa) = 0.03699087
#
# Stress axis : x y z
#
# Youngs Moduli (GPa) = 79.74735 64.19683 64.41351
#
# Poissons Ratio (x) = 0.22731 -0.17203
# Poissons Ratio (y) = 0.28238 0.15813
# Poissons Ratio (z) = -0.21298 0.15760
#
# Static dielectric constant tensor:
#      x y z
#    x 1.907220 0.000000 0.000000 
#    y 0.000000 1.982980 0.000000 
#    z 0.000000 0.000000 2.151790 
# 
# From -- ./inp_files/5842.got.cif
#   From: 2010.05.17/outbox.cif.g08.bks.cpg/sg33_3_cif.got.tgz:5842.got - 2010.06.03 17:15:25.
