data_PCOD9346507
_publ_section_title
;
Structure prediction by ZEFSAII (Michael W. Deem and Ramdas Pophale) SiO2 
 PCOD9346507
Probable space group: P N A 21
;
_chemical_formula_sum "Si O2"
_cell_formula_units_Z 32
_cell_length_a 9.325030
_cell_length_b 15.761511
_cell_length_c 10.370735
_cell_angle_alpha 90.000000
_cell_angle_beta 90.000000
_cell_angle_gamma 90.000000
_cell_volume 1524.254985
_symmetry_space_group_name_H-M "P N A 21"
_symmetry_group_IT_number 33
_symmetry_cell_setting 'orthorhombic'
loop_
_space_group_symop_operation_xyz
x,y,z
-x,-y,1/2+z
1/2-x,1/2+y,1/2+z
1/2+x,1/2-y,z
loop_
_atom_site_type_symbol
_atom_site_label
_atom_site_fract_x
_atom_site_fract_y
_atom_site_fract_z
Si Si1 0.674683 0.845810 0.621370
Si Si2 0.596798 0.392084 0.909564
Si Si3 0.799042 0.648929 0.078764
Si Si4 0.095804 0.506365 0.754635
Si Si5 0.983080 0.235164 0.710223
Si Si6 0.331748 0.341335 0.070997
Si Si7 0.441141 0.865056 0.430012
Si Si8 0.232945 0.444235 0.315263
O O1 0.808532 0.859184 0.529189
O O2 0.679069 0.904736 0.746104
O O3 0.623696 0.749326 0.631370
O O4 0.547318 0.890355 0.542139
O O5 0.582500 0.333879 0.782488
O O6 0.665746 0.480479 0.866826
O O7 0.440069 0.384941 0.972448
O O8 0.851241 0.559891 0.144157
O O9 0.660232 0.689828 0.154149
O O10 0.927102 0.716209 0.100721
O O11 0.774915 0.625122 0.930137
O O12 0.130142 0.449718 0.877815
O O13 0.925438 0.521999 0.775651
O O14 0.973086 0.308677 0.823657
O O15 0.296410 0.402859 0.187317
O O16 0.190907 0.315837 0.990054
#
# Coordination Sequence:
#
# PCOD9346507 Si02
#       8
#     4   4   4   4   4   4   4   4
#     4  12  21  44  70 104 134 185 239 290 352 425
#     4  12  24  43  71 107 139 184 246 299 344 424
#     4  11  26  47  72 110 142 189 240 295 372 427
#     4  11  23  42  74  95 144 182 240 293 351 435
#     4  11  23  44  77 102 142 185 242 304 345 435
#     4  12  26  44  73 106 145 186 241 298 359 417
#     4  11  21  42  70 106 128 187 241 285 350 430
#     4  12  28  46  67 108 154 186 233 300 371 435
#
# _framework density 20.993863000000001
#
# number of rings (size 3 to 8) (size 9 to 14) (size 15 to 20)
#    0.000    0.500    6.250    2.250    3.500    2.000 
#    0.000    1.250    0.000    0.000    0.000    0.000 
#    0.000    0.000    0.000    0.000    0.000    0.000 
#
# Total GULP energy -178379.616044 kJ/mol
# GULP energy per Si atom -5574.363001 kJ/mol
# Density = 2.094608 g / cm^3
# Si number density = 20.993863 Si / 1000 Ang^3
#
#
#
# Elastic Constant Matrix: (Units=GPa)
#
#
# Indices 1 2 3 4 5 6 
#
# 1 85.9317 35.1291 6.5642 0.0000 0.0000 0.0000
# 2 35.1291 119.1116 25.5715 0.0000 0.0000 0.0000
# 3 6.5642 25.5715 25.8581 0.0000 0.0000 0.0000
# 4 0.0000 0.0000 0.0000 -28.1597 0.0000 0.0000
# 5 0.0000 0.0000 0.0000 0.0000 11.8062 0.0000
# 6 0.0000 0.0000 0.0000 0.0000 0.0000 31.4556
#
#
#
# Elastic Compliance Matrix: (Units=1/GPa)
#
#
# Indices 1 2 3 4 5 6 
#
# 1 0.013241 -0.004041 0.000635 0.000000 0.000000 0.000000
# 2 -0.004041 0.011892 -0.010734 0.000000 0.000000 0.000000
# 3 0.000635 -0.010734 0.049126 0.000000 0.000000 0.000000
# 4 0.000000 0.000000 0.000000 -0.035512 0.000000 0.000000
# 5 0.000000 0.000000 0.000000 0.000000 0.084701 0.000000
# 6 0.000000 0.000000 0.000000 0.000000 0.000000 0.031791
#
#
# Mechanical properties :
#
#
# Convention : Reuss Voigt Hill
#
# Bulk Modulus (GPa) = 21.74919 40.60344 31.17631
# Shear Modulus (GPa) = 25.14511 13.92955 19.53733
#
# Velocity S-wave (km/s) = 3.46459 2.57865 3.05392
# Velocity P-wave (km/s) = 5.13680 5.31494 5.22663
#
# Compressibility (1/GPa) = 0.04597873
#
# Stress axis : x y z
#
# Youngs Moduli (GPa) = 75.52436 84.09108 20.35568
#
# Poissons Ratio (x) = 0.33985 -0.01293
# Poissons Ratio (y) = 0.30523 0.21850
# Poissons Ratio (z) = -0.04799 0.90264
#
# Static dielectric constant tensor:
#      x y z
#    x 1.782650 0.000000 0.000000 
#    y 0.000000 1.811190 0.000000 
#    z 0.000000 0.000000 1.783020 
# 
# From -- ./inp_files/6015.got.cif
#   From: 2010.05.17/outbox.cif.g08.bks.cpg/sg33_4_cif.got.tgz:6015.got - 2010.06.03 17:15:25.
