data_PCOD9346774
_publ_section_title
;
Structure prediction by ZEFSAII (Michael W. Deem and Ramdas Pophale) SiO2 
 PCOD9346774
Probable space group: P N A 21
;
_chemical_formula_sum "Si O2"
_cell_formula_units_Z 32
_cell_length_a 20.625526
_cell_length_b 11.247248
_cell_length_c 4.953842
_cell_angle_alpha 90.000000
_cell_angle_beta 90.000000
_cell_angle_gamma 90.000000
_cell_volume 1149.194279
_symmetry_space_group_name_H-M "P N A 21"
_symmetry_group_IT_number 33
_symmetry_cell_setting 'orthorhombic'
loop_
_space_group_symop_operation_xyz
x,y,z
-x,-y,1/2+z
1/2-x,1/2+y,1/2+z
1/2+x,1/2-y,z
loop_
_atom_site_type_symbol
_atom_site_label
_atom_site_fract_x
_atom_site_fract_y
_atom_site_fract_z
Si Si1 0.033035 0.550580 0.906240
Si Si2 0.889343 0.821004 0.942748
Si Si3 0.522904 0.681649 0.687866
Si Si4 0.696810 0.517294 0.547192
Si Si5 0.230161 0.268610 0.081045
Si Si6 0.858363 0.592891 0.178252
Si Si7 0.317505 0.097237 0.748442
Si Si8 0.606845 0.660291 0.170111
O O1 0.104974 0.497429 0.875027
O O2 0.989204 0.467542 0.711202
O O3 0.026766 0.679252 0.771574
O O4 0.857216 0.921007 0.130134
O O5 0.905987 0.702705 0.109206
O O6 0.951069 0.859659 0.768922
O O7 0.830199 0.775462 0.754546
O O8 0.575917 0.625475 0.887865
O O9 0.548000 0.661584 0.387648
O O10 0.720556 0.634300 0.710945
O O11 0.662196 0.573462 0.284319
O O12 0.763473 0.442413 0.531648
O O13 0.272435 0.161851 0.973139
O O14 0.200324 0.340149 0.824735
O O15 0.844228 0.516479 0.911988
O O16 0.365000 0.204878 0.667294
#
# Coordination Sequence:
#
# PCOD9346774 Si02
#       8
#     4   4   4   4   4   4   4   4
#     4  12  25  42  71 108 151 195 244 319 381 456
#     4  12  26  45  76 107 146 203 255 317 389 466
#     4  12  27  48  74 110 157 202 263 308 393 477
#     4  11  26  49  75 107 150 198 261 317 382 467
#     4  11  25  44  71 106 142 190 252 314 388 451
#     4  12  24  40  70 104 140 190 242 309 387 447
#     4  11  24  46  75 106 149 194 251 322 389 462
#     4  11  29  50  76 112 151 208 250 324 393 462
#
# _framework density 27.845597999999999
#
# number of rings (size 3 to 8) (size 9 to 14) (size 15 to 20)
#    0.000    0.500    5.000    2.250    3.500    6.000 
#    0.000    0.000    0.000    0.000    0.000    0.000 
#    0.000    0.000    0.000    0.000    0.000    0.000 
#
# Total GULP energy -179466.991298 kJ/mol
# GULP energy per Si atom -5608.343478 kJ/mol
# Density = 2.778222 g / cm^3
# Si number density = 27.845598 Si / 1000 Ang^3
#
#
#
# Elastic Constant Matrix: (Units=GPa)
#
#
# Indices 1 2 3 4 5 6 
#
# 1 138.1230 45.0208 19.5473 0.0000 0.0000 0.0000
# 2 45.0208 133.1198 27.2177 0.0000 0.0000 0.0000
# 3 19.5473 27.2177 80.7197 0.0000 0.0000 0.0000
# 4 0.0000 0.0000 0.0000 42.5093 0.0000 0.0000
# 5 0.0000 0.0000 0.0000 0.0000 49.8393 0.0000
# 6 0.0000 0.0000 0.0000 0.0000 0.0000 41.3496
#
#
#
# Elastic Compliance Matrix: (Units=1/GPa)
#
#
# Indices 1 2 3 4 5 6 
#
# 1 0.008232 -0.002552 -0.001133 0.000000 0.000000 0.000000
# 2 -0.002552 0.008860 -0.002369 0.000000 0.000000 0.000000
# 3 -0.001133 -0.002369 0.013462 0.000000 0.000000 0.000000
# 4 0.000000 0.000000 0.000000 0.023524 0.000000 0.000000
# 5 0.000000 0.000000 0.000000 0.000000 0.020065 0.000000
# 6 0.000000 0.000000 0.000000 0.000000 0.000000 0.024184
#
#
# Mechanical properties :
#
#
# Convention : Reuss Voigt Hill
#
# Bulk Modulus (GPa) = 54.21685 59.50379 56.86032
# Shear Modulus (GPa) = 42.88758 44.08475 43.48616
#
# Velocity S-wave (km/s) = 3.92879 3.98324 3.95611
# Velocity P-wave (km/s) = 6.33193 6.52461 6.42899
#
# Compressibility (1/GPa) = 0.01844445
#
# Stress axis : x y z
#
# Youngs Moduli (GPa) = 121.47378 112.87069 74.28442
#
# Poissons Ratio (x) = 0.28810 0.08415
# Poissons Ratio (y) = 0.31006 0.17600
# Poissons Ratio (z) = 0.13761 0.26742
#
# Static dielectric constant tensor:
#      x y z
#    x 2.232400 0.000000 0.000000 
#    y 0.000000 2.187720 0.000000 
#    z 0.000000 0.000000 2.161640 
# 
# From -- ./inp_files/2047.got.cif
#   From: 2010.05.17/outbox.cif.g08.bks.cpg/sg33_2_cif.got.tgz:2047.got - 2010.06.03 17:15:25.
