data_PCOD9346789
_publ_section_title
;
Structure prediction by ZEFSAII (Michael W. Deem and Ramdas Pophale) SiO2 
 PCOD9346789
Probable space group: P N A 21
;
_chemical_formula_sum "Si O2"
_cell_formula_units_Z 28
_cell_length_a 13.683143
_cell_length_b 7.281227
_cell_length_c 10.382041
_cell_angle_alpha 90.000000
_cell_angle_beta 90.000000
_cell_angle_gamma 90.000000
_cell_volume 1034.363474
_symmetry_space_group_name_H-M "P N A 21"
_symmetry_group_IT_number 33
_symmetry_cell_setting 'orthorhombic'
loop_
_space_group_symop_operation_xyz
x,y,z
-x,-y,1/2+z
1/2-x,1/2+y,1/2+z
1/2+x,1/2-y,z
loop_
_atom_site_type_symbol
_atom_site_label
_atom_site_fract_x
_atom_site_fract_y
_atom_site_fract_z
Si Si1 0.063378 0.050615 0.110730
Si Si2 0.575757 0.887915 0.556623
Si Si3 0.868598 0.564791 0.305608
Si Si4 0.068621 0.205116 0.475042
Si Si5 0.268474 0.686234 0.762186
Si Si6 0.281114 0.590448 0.197799
Si Si7 0.580778 0.788672 0.284470
O O1 0.046185 0.905423 0.227748
O O2 0.023877 0.931097 0.988980
O O3 0.174929 0.104238 0.134842
O O4 0.002667 0.239559 0.103739
O O5 0.646666 0.369772 0.579806
O O6 0.646797 0.942718 0.673727
O O7 0.622179 0.796201 0.429928
O O8 0.963585 0.591607 0.021438
O O9 0.791562 0.433331 0.372600
O O10 0.823820 0.765125 0.301408
O O11 0.983317 0.591158 0.305484
O O12 0.129627 0.228259 0.345105
O O13 0.218204 0.881240 0.738189
O O14 0.166390 0.643323 0.190894
#
# Coordination Sequence:
#
# PCOD9346789 Si02
#       7
#     4   4   4   4   4   4   4
#     4  12  25  45  74 111 155 200 257 318 382 466
#     4  11  25  48  74 106 152 202 250 316 389 447
#     4  11  26  47  74 110 152 201 261 324 377 471
#     4  11  26  50  76 113 154 206 265 320 382 482
#     4  12  26  46  78 109 155 209 251 330 392 447
#     4  11  24  48  73 106 156 192 264 316 376 465
#     4  12  24  50  75 111 158 198 256 322 376 464
#
# _framework density 27.069787999999999
#
# number of rings (size 3 to 8) (size 9 to 14) (size 15 to 20)
#    0.000    0.571    5.714    2.571    0.000    2.286 
#    5.143    0.000    0.000    0.000    0.000    0.000 
#    0.000    0.000    0.000    0.000    0.000    0.000 
#
# Total GULP energy -156243.893688 kJ/mol
# GULP energy per Si atom -5580.139060 kJ/mol
# Density = 2.700818 g / cm^3
# Si number density = 27.069788 Si / 1000 Ang^3
#
#
#
# Elastic Constant Matrix: (Units=GPa)
#
#
# Indices 1 2 3 4 5 6 
#
# 1 161.7601 56.2182 1.3939 0.0000 0.0000 0.0000
# 2 56.2182 207.1630 10.2460 0.0000 0.0000 0.0000
# 3 1.3939 10.2460 59.9727 0.0000 0.0000 0.0000
# 4 0.0000 0.0000 0.0000 28.0041 0.0000 0.0000
# 5 0.0000 0.0000 0.0000 0.0000 29.1137 0.0000
# 6 0.0000 0.0000 0.0000 0.0000 0.0000 52.9868
#
#
#
# Elastic Compliance Matrix: (Units=1/GPa)
#
#
# Indices 1 2 3 4 5 6 
#
# 1 0.006827 -0.001861 0.000159 0.000000 0.000000 0.000000
# 2 -0.001861 0.005375 -0.000875 0.000000 0.000000 0.000000
# 3 0.000159 -0.000875 0.016820 0.000000 0.000000 0.000000
# 4 0.000000 0.000000 0.000000 0.035709 0.000000 0.000000
# 5 0.000000 0.000000 0.000000 0.000000 0.034348 0.000000
# 6 0.000000 0.000000 0.000000 0.000000 0.000000 0.018873
#
#
# Mechanical properties :
#
#
# Convention : Reuss Voigt Hill
#
# Bulk Modulus (GPa) = 41.89423 62.73465 52.31444
# Shear Modulus (GPa) = 38.14990 46.09010 42.12000
#
# Velocity S-wave (km/s) = 3.75816 4.13078 3.94887
# Velocity P-wave (km/s) = 5.86018 6.78061 6.33712
#
# Compressibility (1/GPa) = 0.02386964
#
# Stress axis : x y z
#
# Youngs Moduli (GPa) = 146.47176 186.03567 59.45278
#
# Poissons Ratio (x) = 0.34614 -0.00946
# Poissons Ratio (y) = 0.27253 0.05203
# Poissons Ratio (z) = -0.02332 0.16280
#
# Static dielectric constant tensor:
#      x y z
#    x 2.756740 0.000000 0.000000 
#    y 0.000000 2.256100 0.000000 
#    z 0.000000 0.000000 2.331800 
# 
# From -- ./inp_files/6700.got.cif
#   From: 2010.05.17/outbox.cif.g08.bks.cpg/sg33_4_cif.got.tgz:6700.got - 2010.06.03 17:15:25.
