data_PCOD9346106
_publ_section_title
;
Structure prediction by ZEFSAII (Michael W. Deem and Ramdas Pophale) SiO2 
 PCOD9346106
Probable space group: P N A 21
;
_chemical_formula_sum "Si O2"
_cell_formula_units_Z 32
_cell_length_a 8.961872
_cell_length_b 25.891172
_cell_length_c 5.602215
_cell_angle_alpha 90.000000
_cell_angle_beta 90.000000
_cell_angle_gamma 90.000000
_cell_volume 1299.900823
_symmetry_space_group_name_H-M "P N A 21"
_symmetry_group_IT_number 33
_symmetry_cell_setting 'orthorhombic'
loop_
_space_group_symop_operation_xyz
x,y,z
-x,-y,1/2+z
1/2-x,1/2+y,1/2+z
1/2+x,1/2-y,z
loop_
_atom_site_type_symbol
_atom_site_label
_atom_site_fract_x
_atom_site_fract_y
_atom_site_fract_z
Si Si1 0.044596 0.774840 0.493710
Si Si2 0.909710 0.503963 0.614366
Si Si3 0.131476 0.054581 0.066882
Si Si4 0.714019 0.243442 0.329257
Si Si5 0.538341 0.806854 0.118132
Si Si6 0.706386 0.898994 0.951517
Si Si7 0.494104 0.371081 0.668585
Si Si8 0.332056 0.444562 0.366142
O O1 0.188873 0.789846 0.645160
O O2 0.058366 0.717190 0.381556
O O3 0.029006 0.815650 0.283302
O O4 0.902398 0.774685 0.665685
O O5 0.802137 0.454250 0.581045
O O6 0.992301 0.505504 0.356067
O O7 0.802190 0.552556 0.676223
O O8 0.270909 0.086998 0.173832
O O9 0.047585 0.087222 0.864624
O O10 0.996856 0.048536 0.255527
O O11 0.186913 0.997056 0.015947
O O12 0.619966 0.211627 0.519796
O O13 0.836520 0.277816 0.460127
O O14 0.571010 0.866035 0.056719
O O15 0.857946 0.868708 0.009046
O O16 0.353283 0.394303 0.528608
#
# Coordination Sequence:
#
# PCOD9346106 Si02
#       8
#     4   4   4   4   4   4   4   4
#     4  11  23  45  68 105 142 184 237 302 360 441
#     4  12  28  50  69 101 153 201 245 299 363 451
#     4  11  20  40  71  99 132 175 237 311 361 424
#     4  10  23  43  71  99 145 184 238 299 365 427
#     4  11  23  46  71 100 144 183 240 298 362 438
#     4  11  24  43  71 100 132 193 241 293 374 442
#     4  11  23  39  75 101 133 179 239 305 374 426
#     4  11  22  42  68 101 135 179 239 303 359 427
#
# _framework density 24.617262
#
# number of rings (size 3 to 8) (size 9 to 14) (size 15 to 20)
#    0.000    1.000    2.500    4.500    1.750    4.000 
#    6.750    0.000    0.000    0.000    0.000    0.000 
#    0.000    0.000    0.000    0.000    0.000    0.000 
#
# Total GULP energy -178959.558777 kJ/mol
# GULP energy per Si atom -5592.486212 kJ/mol
# Density = 2.456123 g / cm^3
# Si number density = 24.617262 Si / 1000 Ang^3
#
#
#
# Elastic Constant Matrix: (Units=GPa)
#
#
# Indices 1 2 3 4 5 6 
#
# 1 89.1653 8.0589 26.0269 0.0000 0.0000 0.0000
# 2 8.0589 45.4946 6.8923 0.0000 0.0000 0.0000
# 3 26.0269 6.8923 79.2742 0.0000 0.0000 0.0000
# 4 0.0000 0.0000 0.0000 38.0680 0.0000 0.0000
# 5 0.0000 0.0000 0.0000 0.0000 43.2745 0.0000
# 6 0.0000 0.0000 0.0000 0.0000 0.0000 32.9344
#
#
#
# Elastic Compliance Matrix: (Units=1/GPa)
#
#
# Indices 1 2 3 4 5 6 
#
# 1 0.012520 -0.001616 -0.003970 0.000000 0.000000 0.000000
# 2 -0.001616 0.022483 -0.001424 0.000000 0.000000 0.000000
# 3 -0.003970 -0.001424 0.014042 0.000000 0.000000 0.000000
# 4 0.000000 0.000000 0.000000 0.026269 0.000000 0.000000
# 5 0.000000 0.000000 0.000000 0.000000 0.023108 0.000000
# 6 0.000000 0.000000 0.000000 0.000000 0.000000 0.030363
#
#
# Mechanical properties :
#
#
# Convention : Reuss Voigt Hill
#
# Bulk Modulus (GPa) = 28.55213 32.87670 30.71442
# Shear Modulus (GPa) = 32.36660 34.38577 33.37619
#
# Velocity S-wave (km/s) = 3.62994 3.74145 3.68612
# Velocity P-wave (km/s) = 5.40298 5.66116 5.53358
#
# Compressibility (1/GPa) = 0.03502366
#
# Stress axis : x y z
#
# Youngs Moduli (GPa) = 79.87193 44.47862 71.21659
#
# Poissons Ratio (x) = 0.07189 0.28273
# Poissons Ratio (y) = 0.12910 0.10141
# Poissons Ratio (z) = 0.31709 0.06334
#
# Static dielectric constant tensor:
#      x y z
#    x 1.961870 0.000000 0.000000 
#    y 0.000000 1.970250 0.000000 
#    z 0.000000 0.000000 2.040310 
# 
# From -- ./inp_files/616.got.cif
#   From: 2010.05.17/outbox.cif.g08.bks.cpg/sg33_1_cif.got.tgz:616.got - 2010.06.03 17:15:25.
