data_PCOD9346424
_publ_section_title
;
Structure prediction by ZEFSAII (Michael W. Deem and Ramdas Pophale) SiO2 
 PCOD9346424
Probable space group: P N A 21
;
_chemical_formula_sum "Si O2"
_cell_formula_units_Z 32
_cell_length_a 27.568566
_cell_length_b 5.050658
_cell_length_c 8.592459
_cell_angle_alpha 90.000000
_cell_angle_beta 90.000000
_cell_angle_gamma 90.000000
_cell_volume 1196.408822
_symmetry_space_group_name_H-M "P N A 21"
_symmetry_group_IT_number 33
_symmetry_cell_setting 'orthorhombic'
loop_
_space_group_symop_operation_xyz
x,y,z
-x,-y,1/2+z
1/2-x,1/2+y,1/2+z
1/2+x,1/2-y,z
loop_
_atom_site_type_symbol
_atom_site_label
_atom_site_fract_x
_atom_site_fract_y
_atom_site_fract_z
Si Si1 0.682126 0.573456 0.187740
Si Si2 0.594451 0.432336 0.790474
Si Si3 0.483347 0.563094 0.051963
Si Si4 0.173115 0.717366 0.855217
Si Si5 0.228276 0.425460 0.302257
Si Si6 0.414758 0.700168 0.619409
Si Si7 0.566146 0.938878 0.401193
Si Si8 0.339334 0.863564 0.072819
O O1 0.711403 0.296926 0.176478
O O2 0.627095 0.467271 0.207687
O O3 0.706545 0.779555 0.304604
O O4 0.681603 0.767468 0.038176
O O5 0.541199 0.435528 0.723240
O O6 0.616731 0.709144 0.838610
O O7 0.627174 0.365048 0.641465
O O8 0.603880 0.252887 0.942596
O O9 0.471147 0.846924 0.977947
O O10 0.455953 0.342962 0.946963
O O11 0.538056 0.474236 0.080955
O O12 0.214089 0.931917 0.804917
O O13 0.181437 0.496917 0.727553
O O14 0.203837 0.296609 0.456783
O O15 0.427347 0.953648 0.724675
O O16 0.619192 0.968423 0.480855
#
# Coordination Sequence:
#
# PCOD9346424 Si02
#       8
#     4   4   4   4   4   4   4   4
#     4  11  29  48  73 112 145 195 256 308 385 453
#     4  10  25  48  70 111 146 200 247 318 375 454
#     4  11  25  48  74 110 148 201 252 308 383 454
#     4  11  26  45  75 102 149 192 249 313 379 451
#     4  12  28  47  75 109 147 198 249 314 381 466
#     4  11  25  49  79 109 158 201 257 320 381 462
#     4  11  25  45  73 107 147 197 251 308 377 448
#     4  11  25  46  73 102 152 196 245 313 381 446
#
# _framework density 26.746713
#
# number of rings (size 3 to 8) (size 9 to 14) (size 15 to 20)
#    0.000    1.000    2.500    1.500   10.500    4.000 
#    4.500    0.000    0.000    0.000    0.000    0.000 
#    0.000    0.000    0.000    0.000    0.000    0.000 
#
# Total GULP energy -178924.802883 kJ/mol
# GULP energy per Si atom -5591.400090 kJ/mol
# Density = 2.668584 g / cm^3
# Si number density = 26.746713 Si / 1000 Ang^3
#
#
#
# Elastic Constant Matrix: (Units=GPa)
#
#
# Indices 1 2 3 4 5 6 
#
# 1 74.4582 -5.8602 -1.6401 0.0000 0.0000 0.0000
# 2 -5.8602 112.4773 27.5560 0.0000 0.0000 0.0000
# 3 -1.6401 27.5560 90.9934 0.0000 0.0000 0.0000
# 4 0.0000 0.0000 0.0000 40.1190 0.0000 0.0000
# 5 0.0000 0.0000 0.0000 0.0000 18.8470 0.0000
# 6 0.0000 0.0000 0.0000 0.0000 0.0000 24.7230
#
#
#
# Elastic Compliance Matrix: (Units=1/GPa)
#
#
# Indices 1 2 3 4 5 6 
#
# 1 0.013486 0.000695 0.000033 0.000000 0.000000 0.000000
# 2 0.000695 0.009639 -0.002906 0.000000 0.000000 0.000000
# 3 0.000033 -0.002906 0.011871 0.000000 0.000000 0.000000
# 4 0.000000 0.000000 0.000000 0.024926 0.000000 0.000000
# 5 0.000000 0.000000 0.000000 0.000000 0.053059 0.000000
# 6 0.000000 0.000000 0.000000 0.000000 0.000000 0.040448
#
#
# Mechanical properties :
#
#
# Convention : Reuss Voigt Hill
#
# Bulk Modulus (GPa) = 32.64030 35.33778 33.98904
# Shear Modulus (GPa) = 29.76212 33.92935 31.84574
#
# Velocity S-wave (km/s) = 3.33939 3.56552 3.45431
# Velocity P-wave (km/s) = 5.20564 5.49466 5.35210
#
# Compressibility (1/GPa) = 0.03063697
#
# Stress axis : x y z
#
# Youngs Moduli (GPa) = 74.15236 103.74591 84.24186
#
# Poissons Ratio (x) = -0.07206 -0.00276
# Poissons Ratio (y) = -0.05151 0.24485
# Poissons Ratio (z) = -0.00243 0.30154
#
# Static dielectric constant tensor:
#      x y z
#    x 2.083870 0.000000 0.000000 
#    y 0.000000 2.085280 0.000000 
#    z 0.000000 0.000000 2.218090 
# 
# From -- ./inp_files/5315.got.cif
#   From: 2010.05.17/outbox.cif.g08.bks.cpg/sg33_3_cif.got.tgz:5315.got - 2010.06.03 17:15:25.
