data_PCOD9346130
_publ_section_title
;
Structure prediction by ZEFSAII (Michael W. Deem and Ramdas Pophale) SiO2 
 PCOD9346130
Probable space group: P N A 21
;
_chemical_formula_sum "Si O2"
_cell_formula_units_Z 28
_cell_length_a 16.742097
_cell_length_b 11.861647
_cell_length_c 5.196492
_cell_angle_alpha 90.000000
_cell_angle_beta 90.000000
_cell_angle_gamma 90.000000
_cell_volume 1031.965343
_symmetry_space_group_name_H-M "P N A 21"
_symmetry_group_IT_number 33
_symmetry_cell_setting 'orthorhombic'
loop_
_space_group_symop_operation_xyz
x,y,z
-x,-y,1/2+z
1/2-x,1/2+y,1/2+z
1/2+x,1/2-y,z
loop_
_atom_site_type_symbol
_atom_site_label
_atom_site_fract_x
_atom_site_fract_y
_atom_site_fract_z
Si Si1 0.104738 0.395141 0.586010
Si Si2 0.283026 0.229142 0.160604
Si Si3 0.826790 0.423668 0.740421
Si Si4 0.814968 0.021247 0.082220
Si Si5 0.626667 0.315692 0.940395
Si Si6 0.977618 0.059322 0.842664
Si Si7 0.945849 0.383278 0.371582
O O1 0.167866 0.471530 0.432819
O O2 0.135245 0.296503 0.768415
O O3 0.062193 0.492584 0.754016
O O4 0.037601 0.347765 0.387272
O O5 0.291817 0.360135 0.203140
O O6 0.370152 0.185601 0.260951
O O7 0.187158 0.196617 0.185483
O O8 0.290105 0.186731 0.865693
O O9 0.769559 0.464026 0.507560
O O10 0.915271 0.392983 0.663897
O O11 0.849332 0.930635 0.285796
O O12 0.882462 0.054648 0.878749
O O13 0.530350 0.337637 0.956242
O O14 0.995556 0.039785 0.542602
#
# Coordination Sequence:
#
# PCOD9346130 Si02
#       7
#     4   4   4   4   4   4   4
#     4  11  23  43  70 108 143 189 247 310 385 451
#     4  10  24  44  67 101 139 193 241 302 376 459
#     4  10  23  44  68 100 141 185 242 305 377 452
#     4  10  23  45  67 104 138 194 244 306 380 459
#     4  10  24  46  71 107 147 193 247 320 383 466
#     4  10  24  47  72 104 148 194 253 314 383 467
#     4  11  23  41  71 102 142 186 244 307 370 464
#
# _framework density 27.132697
#
# number of rings (size 3 to 8) (size 9 to 14) (size 15 to 20)
#    0.000    1.714    1.429    0.857    4.000    6.857 
#   15.429    0.000    0.000    0.000    0.000    0.000 
#    0.000    0.000    0.000    0.000    0.000    0.000 
#
# Total GULP energy -156094.700064 kJ/mol
# GULP energy per Si atom -5574.810717 kJ/mol
# Density = 2.707094 g / cm^3
# Si number density = 27.132697 Si / 1000 Ang^3
#
#
#
# Elastic Constant Matrix: (Units=GPa)
#
#
# Indices 1 2 3 4 5 6 
#
# 1 126.9968 30.4038 20.7509 0.0000 0.0000 0.0000
# 2 30.4038 108.3049 24.1761 0.0000 0.0000 0.0000
# 3 20.7509 24.1761 53.8251 0.0000 0.0000 0.0000
# 4 0.0000 0.0000 0.0000 26.0242 0.0000 0.0000
# 5 0.0000 0.0000 0.0000 0.0000 38.6893 0.0000
# 6 0.0000 0.0000 0.0000 0.0000 0.0000 32.8379
#
#
#
# Elastic Compliance Matrix: (Units=1/GPa)
#
#
# Indices 1 2 3 4 5 6 
#
# 1 0.008739 -0.001891 -0.002520 0.000000 0.000000 0.000000
# 2 -0.001891 0.010671 -0.004064 0.000000 0.000000 0.000000
# 3 -0.002520 -0.004064 0.021376 0.000000 0.000000 0.000000
# 4 0.000000 0.000000 0.000000 0.038426 0.000000 0.000000
# 5 0.000000 0.000000 0.000000 0.000000 0.025847 0.000000
# 6 0.000000 0.000000 0.000000 0.000000 0.000000 0.030453
#
#
# Mechanical properties :
#
#
# Convention : Reuss Voigt Hill
#
# Bulk Modulus (GPa) = 41.95299 48.86537 45.40918
# Shear Modulus (GPa) = 31.17106 33.76333 32.46720
#
# Velocity S-wave (km/s) = 3.39313 3.53140 3.46295
# Velocity P-wave (km/s) = 5.55399 5.88868 5.72378
#
# Compressibility (1/GPa) = 0.02383621
#
# Stress axis : x y z
#
# Youngs Moduli (GPa) = 114.43519 93.71052 46.78235
#
# Poissons Ratio (x) = 0.17718 0.11788
# Poissons Ratio (y) = 0.21636 0.19013
# Poissons Ratio (z) = 0.28834 0.38085
#
# Static dielectric constant tensor:
#      x y z
#    x 2.365520 0.000000 0.000000 
#    y 0.000000 2.134990 0.000000 
#    z 0.000000 0.000000 2.239710 
# 
# From -- ./inp_files/1732.got.cif
#   From: 2010.05.17/outbox.cif.g08.bks.cpg/sg33_1_cif.got.tgz:1732.got - 2010.06.03 17:15:25.
