data_PCOD9346714
_publ_section_title
;
Structure prediction by ZEFSAII (Michael W. Deem and Ramdas Pophale) SiO2 
 PCOD9346714
Probable space group: P N A 21
;
_chemical_formula_sum "Si O2"
_cell_formula_units_Z 24
_cell_length_a 29.694289
_cell_length_b 5.727936
_cell_length_c 5.155444
_cell_angle_alpha 90.000000
_cell_angle_beta 90.000000
_cell_angle_gamma 90.000000
_cell_volume 876.873936
_symmetry_space_group_name_H-M "P N A 21"
_symmetry_group_IT_number 33
_symmetry_cell_setting 'orthorhombic'
loop_
_space_group_symop_operation_xyz
x,y,z
-x,-y,1/2+z
1/2-x,1/2+y,1/2+z
1/2+x,1/2-y,z
loop_
_atom_site_type_symbol
_atom_site_label
_atom_site_fract_x
_atom_site_fract_y
_atom_site_fract_z
Si Si1 0.222529 0.745120 0.859700
Si Si2 0.609144 0.253805 0.490097
Si Si3 0.807501 0.498795 0.859651
Si Si4 0.860645 0.003846 0.485492
Si Si5 0.556778 0.767895 0.913513
Si Si6 0.028885 0.236208 0.155836
O O1 0.210863 0.687650 0.564933
O O2 0.274855 0.782445 0.915627
O O3 0.191863 0.965870 0.937600
O O4 0.203369 0.559377 0.063775
O O5 0.640041 0.036811 0.408615
O O6 0.620507 0.314544 0.783538
O O7 0.556316 0.244493 0.428791
O O8 0.628337 0.443091 0.281997
O O9 0.889963 0.229205 0.400374
O O10 0.524970 0.752704 0.662894
O O11 0.541042 0.523794 0.053740
O O12 0.545482 0.023034 0.023804
#
# Coordination Sequence:
#
# PCOD9346714 Si02
#       6
#     4   4   4   4   4   4
#     4  12  24  41  65  95 133 178 230 288 350 416
#     4  11  24  44  68  98 135 177 229 288 350 416
#     4  12  24  41  65  95 133 178 230 288 350 416
#     4  11  24  44  68  98 135 177 229 288 350 416
#     4  11  24  43  69 103 142 187 236 292 352 420
#     4  11  24  43  69 103 142 187 236 292 352 420
#
# _framework density 27.369954
#
# number of rings (size 3 to 8) (size 9 to 14) (size 15 to 20)
#    0.000    0.667    0.000    8.000    0.000    6.667 
#    0.000    0.000    0.000    0.000    0.000    0.000 
#    0.000    0.000    0.000    0.000    0.000    0.000 
#
# Total GULP energy -134271.826712 kJ/mol
# GULP energy per Si atom -5594.659446 kJ/mol
# Density = 2.730766 g / cm^3
# Si number density = 27.369954 Si / 1000 Ang^3
#
#
#
# Elastic Constant Matrix: (Units=GPa)
#
#
# Indices 1 2 3 4 5 6 
#
# 1 82.3289 23.6962 36.4518 0.0000 0.0000 0.0000
# 2 23.6962 134.7689 48.9953 0.0000 0.0000 0.0000
# 3 36.4518 48.9953 55.8026 0.0000 0.0000 0.0000
# 4 0.0000 0.0000 0.0000 56.6040 0.0000 0.0000
# 5 0.0000 0.0000 0.0000 0.0000 43.0207 0.0000
# 6 0.0000 0.0000 0.0000 0.0000 0.0000 50.2657
#
#
#
# Elastic Compliance Matrix: (Units=1/GPa)
#
#
# Indices 1 2 3 4 5 6 
#
# 1 0.017312 0.001568 -0.012685 0.000000 0.000000 0.000000
# 2 0.001568 0.011041 -0.010718 0.000000 0.000000 0.000000
# 3 -0.012685 -0.010718 0.035617 0.000000 0.000000 0.000000
# 4 0.000000 0.000000 0.000000 0.017667 0.000000 0.000000
# 5 0.000000 0.000000 0.000000 0.000000 0.023245 0.000000
# 6 0.000000 0.000000 0.000000 0.000000 0.000000 0.019894
#
#
# Mechanical properties :
#
#
# Convention : Reuss Voigt Hill
#
# Bulk Modulus (GPa) = 49.26357 54.57633 51.91995
# Shear Modulus (GPa) = 28.53677 40.89522 34.71600
#
# Velocity S-wave (km/s) = 3.23248 3.86964 3.56532
# Velocity P-wave (km/s) = 5.65422 6.32052 5.99663
#
# Compressibility (1/GPa) = 0.02029897
#
# Stress axis : x y z
#
# Youngs Moduli (GPa) = 57.76502 90.57063 28.07631
#
# Poissons Ratio (x) = -0.14199 0.35614
# Poissons Ratio (y) = -0.09056 0.30093
# Poissons Ratio (z) = 0.73274 0.97076
#
# Static dielectric constant tensor:
#      x y z
#    x 2.152320 0.000000 0.000000 
#    y 0.000000 2.189440 0.000000 
#    z 0.000000 0.000000 2.126700 
# 
# From -- ./inp_files/2489.got.cif
#   From: 2010.05.17/outbox.cif.g08.bks.cpg/sg33_2_cif.got.tgz:2489.got - 2010.06.03 17:15:25.
