data_PCOD9346898
_publ_section_title
;
Structure prediction by ZEFSAII (Michael W. Deem and Ramdas Pophale) SiO2 
 PCOD9346898
Probable space group: P N A 21
;
_chemical_formula_sum "Si O2"
_cell_formula_units_Z 28
_cell_length_a 25.636733
_cell_length_b 8.234347
_cell_length_c 4.872591
_cell_angle_alpha 90.000000
_cell_angle_beta 90.000000
_cell_angle_gamma 90.000000
_cell_volume 1028.612514
_symmetry_space_group_name_H-M "P N A 21"
_symmetry_group_IT_number 33
_symmetry_cell_setting 'orthorhombic'
loop_
_space_group_symop_operation_xyz
x,y,z
-x,-y,1/2+z
1/2-x,1/2+y,1/2+z
1/2+x,1/2-y,z
loop_
_atom_site_type_symbol
_atom_site_label
_atom_site_fract_x
_atom_site_fract_y
_atom_site_fract_z
Si Si1 0.239085 0.666082 0.311800
Si Si2 0.978135 0.923639 0.945815
Si Si3 0.982910 0.402695 0.707196
Si Si4 0.685551 0.612237 0.652650
Si Si5 0.368851 0.146806 0.487448
Si Si6 0.133097 0.111614 0.210483
Si Si7 0.341833 0.822949 0.196640
O O1 0.274981 0.510173 0.295227
O O2 0.220171 0.726911 0.604854
O O3 0.279225 0.808580 0.221113
O O4 0.184592 0.638518 0.160667
O O5 0.924527 0.940833 0.784545
O O6 0.018682 0.952596 0.699394
O O7 0.986043 0.751014 0.089561
O O8 0.921665 0.365755 0.662711
O O9 0.000295 0.552961 0.513770
O O10 0.637061 0.683041 0.822621
O O11 0.668865 0.523884 0.367002
O O12 0.366670 0.990974 0.288110
O O13 0.144155 0.273527 0.390115
O O14 0.138106 0.178638 0.901715
#
# Coordination Sequence:
#
# PCOD9346898 Si02
#       7
#     4   4   4   4   4   4   4
#     4  11  27  44  70 109 152 193 244 306 372 457
#     4  12  25  45  77 110 152 193 258 318 379 437
#     4  12  28  51  78 112 150 200 259 321 376 447
#     4  11  28  44  77 103 156 194 256 301 383 454
#     4  12  28  46  78 109 152 201 255 310 383 446
#     4  11  26  49  73 109 151 202 250 309 383 442
#     4  11  26  47  73 104 151 199 244 307 374 457
#
# _framework density 27.221136000000001
#
# number of rings (size 3 to 8) (size 9 to 14) (size 15 to 20)
#    0.000    0.571    1.429    4.286   16.000    0.000 
#    0.000    0.000    0.000    0.000    0.000    0.000 
#    0.000    0.000    0.000    0.000    0.000    0.000 
#
# Total GULP energy -157016.410635 kJ/mol
# GULP energy per Si atom -5607.728951 kJ/mol
# Density = 2.715918 g / cm^3
# Si number density = 27.221136 Si / 1000 Ang^3
#
#
#
# Elastic Constant Matrix: (Units=GPa)
#
#
# Indices 1 2 3 4 5 6 
#
# 1 128.3600 18.5230 7.1122 0.0000 0.0000 0.0000
# 2 18.5230 124.3310 8.9873 0.0000 0.0000 0.0000
# 3 7.1122 8.9873 69.4523 0.0000 0.0000 0.0000
# 4 0.0000 0.0000 0.0000 33.1074 0.0000 0.0000
# 5 0.0000 0.0000 0.0000 0.0000 42.8625 0.0000
# 6 0.0000 0.0000 0.0000 0.0000 0.0000 23.8107
#
#
#
# Elastic Compliance Matrix: (Units=1/GPa)
#
#
# Indices 1 2 3 4 5 6 
#
# 1 0.007993 -0.001142 -0.000671 0.000000 0.000000 0.000000
# 2 -0.001142 0.008282 -0.000955 0.000000 0.000000 0.000000
# 3 -0.000671 -0.000955 0.014591 0.000000 0.000000 0.000000
# 4 0.000000 0.000000 0.000000 0.030205 0.000000 0.000000
# 5 0.000000 0.000000 0.000000 0.000000 0.023330 0.000000
# 6 0.000000 0.000000 0.000000 0.000000 0.000000 0.041998
#
#
# Mechanical properties :
#
#
# Convention : Reuss Voigt Hill
#
# Bulk Modulus (GPa) = 39.47884 43.48759 41.48322
# Shear Modulus (GPa) = 35.61831 39.12417 37.37124
#
# Velocity S-wave (km/s) = 3.62122 3.79525 3.70925
# Velocity P-wave (km/s) = 5.65851 5.93427 5.79803
#
# Compressibility (1/GPa) = 0.02533002
#
# Stress axis : x y z
#
# Youngs Moduli (GPa) = 125.11599 120.74026 68.53727
#
# Poissons Ratio (x) = 0.13792 0.04597
# Poissons Ratio (y) = 0.14292 0.06544
# Poissons Ratio (z) = 0.08391 0.11528
#
# Static dielectric constant tensor:
#      x y z
#    x 2.102740 0.000000 0.000000 
#    y 0.000000 2.172950 0.000000 
#    z 0.000000 0.000000 2.132470 
# 
# From -- ./inp_files/2259.got.cif
#   From: 2010.05.17/outbox.cif.g08.bks.cpg/sg33_2_cif.got.tgz:2259.got - 2010.06.03 17:15:25.
