data_PCOD9346467
_publ_section_title
;
Structure prediction by ZEFSAII (Michael W. Deem and Ramdas Pophale) SiO2 
 PCOD9346467
Probable space group: P N A 21
;
_chemical_formula_sum "Si O2"
_cell_formula_units_Z 28
_cell_length_a 13.619111
_cell_length_b 8.452398
_cell_length_c 11.543241
_cell_angle_alpha 90.000000
_cell_angle_beta 90.000000
_cell_angle_gamma 90.000000
_cell_volume 1328.790336
_symmetry_space_group_name_H-M "P N A 21"
_symmetry_group_IT_number 33
_symmetry_cell_setting 'orthorhombic'
loop_
_space_group_symop_operation_xyz
x,y,z
-x,-y,1/2+z
1/2-x,1/2+y,1/2+z
1/2+x,1/2-y,z
loop_
_atom_site_type_symbol
_atom_site_label
_atom_site_fract_x
_atom_site_fract_y
_atom_site_fract_z
Si Si1 0.086837 0.858224 0.565880
Si Si2 0.411589 0.048594 0.438011
Si Si3 0.485611 0.259345 0.836806
Si Si4 0.159467 0.037104 0.934434
Si Si5 0.776273 0.226598 0.283355
Si Si6 0.370136 0.785141 0.604595
Si Si7 0.017529 0.822394 0.072921
O O1 0.159256 0.808973 0.667988
O O2 0.097480 0.801772 0.432081
O O3 0.981834 0.775687 0.596477
O O4 0.068841 0.047604 0.567783
O O5 0.331108 0.140094 0.359607
O O6 0.490110 0.174681 0.486585
O O7 0.465074 0.908924 0.367803
O O8 0.366868 0.961659 0.552387
O O9 0.569818 0.392889 0.858407
O O10 0.461476 0.267826 0.702807
O O11 0.229664 0.935266 0.855940
O O12 0.192097 0.182966 0.011524
O O13 0.112009 0.915236 0.025035
O O14 0.670018 0.256292 0.230243
#
# Coordination Sequence:
#
# PCOD9346467 Si02
#       7
#     4   4   4   4   4   4   4
#     4   9  20  36  60  87 105 161 193 224 297 352
#     4   9  21  34  57  84 118 147 188 254 280 323
#     4   9  17  33  55  85 118 140 189 241 283 333
#     4   8  18  36  57  81 112 151 188 235 283 342
#     4  11  19  40  62  79 119 154 190 237 293 347
#     4   9  21  41  53  86 121 142 196 242 282 336
#     4   9  16  34  58  78 113 151 182 233 288 335
#
# _framework density 21.071798000000001
#
# number of rings (size 3 to 8) (size 9 to 14) (size 15 to 20)
#    0.000    3.429    1.429    0.000    4.000    0.000 
#    7.714    5.714    0.000    0.000    0.000    0.000 
#    0.000    0.000    0.000    0.000    0.000    0.000 
#
# Total GULP energy -155930.028434 kJ/mol
# GULP energy per Si atom -5568.929587 kJ/mol
# Density = 2.102384 g / cm^3
# Si number density = 21.071798 Si / 1000 Ang^3
#
#
#
# Elastic Constant Matrix: (Units=GPa)
#
#
# Indices 1 2 3 4 5 6 
#
# 1 13.6208 9.3358 15.7053 0.0000 0.0000 0.0000
# 2 9.3358 98.7478 30.8726 0.0000 0.0000 0.0000
# 3 15.7053 30.8726 86.5199 0.0000 0.0000 0.0000
# 4 0.0000 0.0000 0.0000 24.0598 0.0000 0.0000
# 5 0.0000 0.0000 0.0000 0.0000 29.8753 0.0000
# 6 0.0000 0.0000 0.0000 0.0000 0.0000 0.3055
#
#
#
# Elastic Compliance Matrix: (Units=1/GPa)
#
#
# Indices 1 2 3 4 5 6 
#
# 1 0.094240 -0.004009 -0.015676 0.000000 0.000000 0.000000
# 2 -0.004009 0.011569 -0.003400 0.000000 0.000000 0.000000
# 3 -0.015676 -0.003400 0.015617 0.000000 0.000000 0.000000
# 4 0.000000 0.000000 0.000000 0.041563 0.000000 0.000000
# 5 0.000000 0.000000 0.000000 0.000000 0.033473 0.000000
# 6 0.000000 0.000000 0.000000 0.000000 0.000000 3.273458
#
#
# Mechanical properties :
#
#
# Convention : Reuss Voigt Hill
#
# Bulk Modulus (GPa) = 13.28809 34.52398 23.90603
# Shear Modulus (GPa) = 1.41196 20.37977 10.89587
#
# Velocity S-wave (km/s) = 0.81947 3.11329 2.27641
# Velocity P-wave (km/s) = 2.68611 5.41692 4.27540
#
# Compressibility (1/GPa) = 0.07525535
#
# Stress axis : x y z
#
# Youngs Moduli (GPa) = 10.61120 86.43859 64.03277
#
# Poissons Ratio (x) = 0.34649 1.00380
# Poissons Ratio (y) = 0.04254 0.21774
# Poissons Ratio (z) = 0.16634 0.29393
#
# Static dielectric constant tensor:
#      x y z
#    x 1.799540 0.000000 0.000000 
#    y 0.000000 1.807630 0.000000 
#    z 0.000000 0.000000 1.788220 
# 
# From -- ./inp_files/7014.got.cif
#   From: 2010.05.17/outbox.cif.g08.bks.cpg/sg33_4_cif.got.tgz:7014.got - 2010.06.03 17:15:25.
