data_PCOD9346011
_publ_section_title
;
Structure prediction by ZEFSAII (Michael W. Deem and Ramdas Pophale) SiO2 
 PCOD9346011
Probable space group: P N A 21
;
_chemical_formula_sum "Si O2"
_cell_formula_units_Z 24
_cell_length_a 9.752241
_cell_length_b 8.537626
_cell_length_c 14.528095
_cell_angle_alpha 90.000000
_cell_angle_beta 90.000000
_cell_angle_gamma 90.000000
_cell_volume 1209.623519
_symmetry_space_group_name_H-M "P N A 21"
_symmetry_group_IT_number 33
_symmetry_cell_setting 'orthorhombic'
loop_
_space_group_symop_operation_xyz
x,y,z
-x,-y,1/2+z
1/2-x,1/2+y,1/2+z
1/2+x,1/2-y,z
loop_
_atom_site_type_symbol
_atom_site_label
_atom_site_fract_x
_atom_site_fract_y
_atom_site_fract_z
Si Si1 0.614343 0.552988 0.867420
Si Si2 0.464444 0.847482 0.611438
Si Si3 0.675036 0.606280 0.330644
Si Si4 0.845287 0.425669 0.742232
Si Si5 0.419258 0.121319 0.304058
Si Si6 0.760139 0.329807 0.000500
O O1 0.472841 0.461641 0.854286
O O2 0.710434 0.512560 0.779418
O O3 0.587086 0.737415 0.874984
O O4 0.695482 0.482188 0.953508
O O5 0.534875 0.798349 0.707918
O O6 0.346042 0.733823 0.576255
O O7 0.588555 0.858529 0.540064
O O8 0.393114 0.010359 0.643423
O O9 0.668467 0.741076 0.253221
O O10 0.775869 0.467666 0.301233
O O11 0.731623 0.697716 0.420471
O O12 0.965165 0.486799 0.812165
#
# Coordination Sequence:
#
# PCOD9346011 Si02
#       6
#     4   4   4   4   4   4
#     4  11  21  38  66  96 125 173 229 263 328 408
#     4  10  23  41  65 100 130 175 217 283 345 386
#     4  11  22  41  69  94 124 182 230 269 329 410
#     4   9  21  38  66  91 125 170 228 267 323 402
#     4  10  23  40  69  92 127 172 232 273 323 406
#     4  11  22  42  67  97 139 176 212 279 354 390
#
# _framework density 19.840885
#
# number of rings (size 3 to 8) (size 9 to 14) (size 15 to 20)
#    1.000    0.667    1.667    4.000    4.667    0.000 
#    0.000    1.667    3.667    0.000    0.000    0.000 
#    0.000    0.000    0.000    0.000    0.000    0.000 
#
# Total GULP energy -133823.382373 kJ/mol
# GULP energy per Si atom -5575.974266 kJ/mol
# Density = 1.979573 g / cm^3
# Si number density = 19.840885 Si / 1000 Ang^3
#
#
#
# Elastic Constant Matrix: (Units=GPa)
#
#
# Indices 1 2 3 4 5 6 
#
# 1 77.7609 7.6466 17.2025 0.0000 0.0000 0.0000
# 2 7.6466 80.2607 21.6032 0.0000 0.0000 0.0000
# 3 17.2025 21.6032 61.6555 0.0000 0.0000 0.0000
# 4 0.0000 0.0000 0.0000 19.4683 0.0000 0.0000
# 5 0.0000 0.0000 0.0000 0.0000 40.0782 0.0000
# 6 0.0000 0.0000 0.0000 0.0000 0.0000 1.2210
#
#
#
# Elastic Compliance Matrix: (Units=1/GPa)
#
#
# Indices 1 2 3 4 5 6 
#
# 1 0.013713 -0.000305 -0.003719 0.000000 0.000000 0.000000
# 2 -0.000305 0.013764 -0.004737 0.000000 0.000000 0.000000
# 3 -0.003719 -0.004737 0.018917 0.000000 0.000000 0.000000
# 4 0.000000 0.000000 0.000000 0.051366 0.000000 0.000000
# 5 0.000000 0.000000 0.000000 0.000000 0.024951 0.000000
# 6 0.000000 0.000000 0.000000 0.000000 0.000000 0.818990
#
#
# Mechanical properties :
#
#
# Convention : Reuss Voigt Hill
#
# Bulk Modulus (GPa) = 34.63864 34.73130 34.68497
# Shear Modulus (GPa) = 5.16078 23.70182 14.43130
#
# Velocity S-wave (km/s) = 1.61454 3.46004 2.69987
# Velocity P-wave (km/s) = 4.57949 5.78839 5.21906
#
# Compressibility (1/GPa) = 0.02886949
#
# Stress axis : x y z
#
# Youngs Moduli (GPa) = 72.92520 72.65534 52.86347
#
# Poissons Ratio (x) = 0.02219 0.19660
# Poissons Ratio (y) = 0.02227 0.25043
# Poissons Ratio (z) = 0.27120 0.34419
#
# Static dielectric constant tensor:
#      x y z
#    x 1.696590 0.000000 0.000000 
#    y 0.000000 1.696290 0.000000 
#    z 0.000000 0.000000 1.723510 
# 
# From -- ./inp_files/8439.got.cif
#   From: 2010.05.17/outbox.cif.g08.bks.cpg/sg33_5_cif.got.tgz:8439.got - 2010.06.03 17:15:25.
