data_PCOD9346341
_publ_section_title
;
Structure prediction by ZEFSAII (Michael W. Deem and Ramdas Pophale) SiO2 
 PCOD9346341
Probable space group: P N A 21
;
_chemical_formula_sum "Si O2"
_cell_formula_units_Z 28
_cell_length_a 17.287821
_cell_length_b 12.724224
_cell_length_c 5.795514
_cell_angle_alpha 90.000000
_cell_angle_beta 90.000000
_cell_angle_gamma 90.000000
_cell_volume 1274.863016
_symmetry_space_group_name_H-M "P N A 21"
_symmetry_group_IT_number 33
_symmetry_cell_setting 'orthorhombic'
loop_
_space_group_symop_operation_xyz
x,y,z
-x,-y,1/2+z
1/2-x,1/2+y,1/2+z
1/2+x,1/2-y,z
loop_
_atom_site_type_symbol
_atom_site_label
_atom_site_fract_x
_atom_site_fract_y
_atom_site_fract_z
Si Si1 0.959960 0.999129 0.845280
Si Si2 0.418430 0.891778 0.973927
Si Si3 0.298739 0.190460 0.398303
Si Si4 0.143074 0.807560 0.505642
Si Si5 0.358101 0.693783 0.677641
Si Si6 0.082123 0.610015 0.207374
Si Si7 0.699654 0.191044 0.784101
O O1 0.910948 0.898451 0.767628
O O2 0.999667 0.027413 0.595175
O O3 0.908941 0.098083 0.922236
O O4 0.500464 0.864590 0.088547
O O5 0.352850 0.897010 0.170870
O O6 0.387276 0.799429 0.806765
O O7 0.425851 0.001463 0.842842
O O8 0.355592 0.272959 0.272136
O O9 0.230931 0.158257 0.224019
O O10 0.351359 0.103026 0.513383
O O11 0.248992 0.249767 0.590671
O O12 0.112549 0.703744 0.372084
O O13 0.232374 0.841107 0.457752
O O14 0.357174 0.726278 0.409919
#
# Coordination Sequence:
#
# PCOD9346341 Si02
#       7
#     4   4   4   4   4   4   4
#     4  12  30  46  76 110 148 202 248 314 378 444
#     4  11  26  41  68 104 142 187 236 303 374 445
#     4   9  22  44  71 101 137 188 239 309 365 441
#     4  10  24  46  71 101 142 188 248 301 371 445
#     4  10  24  46  71 101 142 188 248 301 371 445
#     4  11  26  41  68 104 142 187 236 303 374 445
#     4   9  22  44  71 101 137 188 239 309 365 441
#
# _framework density 21.963142999999999
#
# number of rings (size 3 to 8) (size 9 to 14) (size 15 to 20)
#    0.000    1.714    0.000    0.857   16.000    6.857 
#    0.000    0.000    0.000    0.000    0.000    0.000 
#    0.000    0.000    0.000    0.000    0.000    0.000 
#
# Total GULP energy -156175.520857 kJ/mol
# GULP energy per Si atom -5577.697173 kJ/mol
# Density = 2.191315 g / cm^3
# Si number density = 21.963143 Si / 1000 Ang^3
#
#
#
# Elastic Constant Matrix: (Units=GPa)
#
#
# Indices 1 2 3 4 5 6 
#
# 1 131.5116 61.2520 63.7525 0.0000 0.0000 0.0000
# 2 61.2520 128.1655 61.2945 0.0000 0.0000 0.0000
# 3 63.7525 61.2945 134.5007 0.0000 0.0000 0.0000
# 4 0.0000 0.0000 0.0000 9.0530 0.0000 0.0000
# 5 0.0000 0.0000 0.0000 0.0000 32.9836 0.0000
# 6 0.0000 0.0000 0.0000 0.0000 0.0000 49.9979
#
#
#
# Elastic Compliance Matrix: (Units=1/GPa)
#
#
# Indices 1 2 3 4 5 6 
#
# 1 0.010995 -0.003532 -0.003602 0.000000 0.000000 0.000000
# 2 -0.003532 0.011111 -0.003390 0.000000 0.000000 0.000000
# 3 -0.003602 -0.003390 0.010687 0.000000 0.000000 0.000000
# 4 0.000000 0.000000 0.000000 0.110460 0.000000 0.000000
# 5 0.000000 0.000000 0.000000 0.000000 0.030318 0.000000
# 6 0.000000 0.000000 0.000000 0.000000 0.000000 0.020001
#
#
# Mechanical properties :
#
#
# Convention : Reuss Voigt Hill
#
# Bulk Modulus (GPa) = 85.13317 85.19730 85.16523
# Shear Modulus (GPa) = 22.87962 32.26549 27.57255
#
# Velocity S-wave (km/s) = 3.23108 3.83701 3.54701
# Velocity P-wave (km/s) = 7.26401 7.64888 7.45893
#
# Compressibility (1/GPa) = 0.01174630
#
# Stress axis : x y z
#
# Youngs Moduli (GPa) = 90.94975 89.99717 93.57261
#
# Poissons Ratio (x) = 0.31788 0.33705
# Poissons Ratio (y) = 0.32124 0.31717
# Poissons Ratio (z) = 0.32760 0.30505
#
# Static dielectric constant tensor:
#      x y z
#    x 1.856880 0.000000 0.000000 
#    y 0.000000 1.775340 0.000000 
#    z 0.000000 0.000000 1.712820 
# 
# From -- ./inp_files/1737.got.cif
#   From: 2010.05.17/outbox.cif.g08.bks.cpg/sg33_1_cif.got.tgz:1737.got - 2010.06.03 17:15:25.
