data_PCOD9346477
_publ_section_title
;
Structure prediction by ZEFSAII (Michael W. Deem and Ramdas Pophale) SiO2 
 PCOD9346477
Probable space group: P N A 21
;
_chemical_formula_sum "Si O2"
_cell_formula_units_Z 24
_cell_length_a 15.951095
_cell_length_b 11.422936
_cell_length_c 6.401028
_cell_angle_alpha 90.000000
_cell_angle_beta 90.000000
_cell_angle_gamma 90.000000
_cell_volume 1166.320669
_symmetry_space_group_name_H-M "P N A 21"
_symmetry_group_IT_number 33
_symmetry_cell_setting 'orthorhombic'
loop_
_space_group_symop_operation_xyz
x,y,z
-x,-y,1/2+z
1/2-x,1/2+y,1/2+z
1/2+x,1/2-y,z
loop_
_atom_site_type_symbol
_atom_site_label
_atom_site_fract_x
_atom_site_fract_y
_atom_site_fract_z
Si Si1 0.391482 0.263627 0.978000
Si Si2 0.101564 0.953482 0.843396
Si Si3 0.500297 0.838068 0.116072
Si Si4 0.297200 0.452490 0.741185
Si Si5 0.114883 0.548374 0.770965
Si Si6 0.077175 0.113025 0.491609
O O1 0.463837 0.238275 0.808641
O O2 0.319485 0.330489 0.852188
O O3 0.408938 0.352708 0.168362
O O4 0.372450 0.140787 0.084475
O O5 0.111080 0.073291 0.716814
O O6 0.179062 0.936262 0.998604
O O7 0.014529 0.946695 0.968752
O O8 0.439867 0.751116 0.985311
O O9 0.450798 0.949243 0.202260
O O10 0.575634 0.883584 0.969029
O O11 0.204560 0.489716 0.802193
O O12 0.360925 0.553336 0.825724
#
# Coordination Sequence:
#
# PCOD9346477 Si02
#       6
#     4   4   4   4   4   4
#     4  11  23  45  71  99 141 185 230 296 341 429
#     4  11  20  40  70 105 136 182 229 288 353 407
#     4  12  25  46  72  97 142 193 240 281 360 423
#     4  11  26  43  71 107 141 179 240 297 350 420
#     4  12  27  47  69 103 141 191 237 293 354 421
#     4  11  21  39  71 101 135 184 230 285 350 418
#
# _framework density 20.577529999999999
#
# number of rings (size 3 to 8) (size 9 to 14) (size 15 to 20)
#    0.000    0.667    6.667    1.000    0.000    6.667 
#    3.000    0.000    0.000    0.000    0.000    0.000 
#    0.000    0.000    0.000    0.000    0.000    0.000 
#
# Total GULP energy -134043.900125 kJ/mol
# GULP energy per Si atom -5585.162505 kJ/mol
# Density = 2.053070 g / cm^3
# Si number density = 20.577530 Si / 1000 Ang^3
#
#
#
# Elastic Constant Matrix: (Units=GPa)
#
#
# Indices 1 2 3 4 5 6 
#
# 1 86.6124 42.1352 37.8746 0.0000 0.0000 0.0000
# 2 42.1352 110.6451 43.2448 0.0000 0.0000 0.0000
# 3 37.8746 43.2448 99.0236 0.0000 0.0000 0.0000
# 4 0.0000 0.0000 0.0000 39.3950 0.0000 0.0000
# 5 0.0000 0.0000 0.0000 0.0000 16.5485 0.0000
# 6 0.0000 0.0000 0.0000 0.0000 0.0000 7.7551
#
#
#
# Elastic Compliance Matrix: (Units=1/GPa)
#
#
# Indices 1 2 3 4 5 6 
#
# 1 0.015388 -0.004292 -0.004011 0.000000 0.000000 0.000000
# 2 -0.004292 0.012095 -0.003640 0.000000 0.000000 0.000000
# 3 -0.004011 -0.003640 0.013223 0.000000 0.000000 0.000000
# 4 0.000000 0.000000 0.000000 0.025384 0.000000 0.000000
# 5 0.000000 0.000000 0.000000 0.000000 0.060428 0.000000
# 6 0.000000 0.000000 0.000000 0.000000 0.000000 0.128947
#
#
# Mechanical properties :
#
#
# Convention : Reuss Voigt Hill
#
# Bulk Modulus (GPa) = 59.45945 60.31001 59.88473
# Shear Modulus (GPa) = 17.54641 24.27483 20.91062
#
# Velocity S-wave (km/s) = 2.92327 3.43837 3.19123
# Velocity P-wave (km/s) = 6.35233 6.71829 6.53787
#
# Compressibility (1/GPa) = 0.01681819
#
# Stress axis : x y z
#
# Youngs Moduli (GPa) = 64.98680 82.67691 75.62806
#
# Poissons Ratio (x) = 0.35486 0.30335
# Poissons Ratio (y) = 0.27893 0.27532
# Poissons Ratio (z) = 0.26067 0.30098
#
# Static dielectric constant tensor:
#      x y z
#    x 1.702600 0.000000 0.000000 
#    y 0.000000 1.754800 0.000000 
#    z 0.000000 0.000000 1.776150 
# 
# From -- ./inp_files/1335.got.cif
#   From: 2010.05.17/outbox.cif.g08.bks.cpg/sg33_1_cif.got.tgz:1335.got - 2010.06.03 17:15:25.
