data_PCOD9346306
_publ_section_title
;
Structure prediction by ZEFSAII (Michael W. Deem and Ramdas Pophale) SiO2 
 PCOD9346306
Probable space group: P N A 21
;
_chemical_formula_sum "Si O2"
_cell_formula_units_Z 20
_cell_length_a 26.078764
_cell_length_b 5.669773
_cell_length_c 4.755408
_cell_angle_alpha 90.000000
_cell_angle_beta 90.000000
_cell_angle_gamma 90.000000
_cell_volume 703.137823
_symmetry_space_group_name_H-M "P N A 21"
_symmetry_group_IT_number 33
_symmetry_cell_setting 'orthorhombic'
loop_
_space_group_symop_operation_xyz
x,y,z
-x,-y,1/2+z
1/2-x,1/2+y,1/2+z
1/2+x,1/2-y,z
loop_
_atom_site_type_symbol
_atom_site_label
_atom_site_fract_x
_atom_site_fract_y
_atom_site_fract_z
Si Si1 0.109009 0.022345 0.842660
Si Si2 0.185548 0.516399 0.369864
Si Si3 0.030652 0.891575 0.443545
Si Si4 0.083906 0.533718 0.742848
Si Si5 0.212389 0.241978 0.860379
O O1 0.084951 0.282833 0.900047
O O2 0.168978 0.044084 0.904967
O O3 0.087535 0.996227 0.518034
O O4 0.092385 0.761672 0.944310
O O5 0.131284 0.533935 0.521238
O O6 0.209256 0.289338 0.529576
O O7 0.228855 0.707415 0.438459
O O8 0.189480 0.457046 0.043095
O O9 0.035758 0.622236 0.553463
O O10 0.006134 0.962402 0.153797
#
# Coordination Sequence:
#
# PCOD9346306 Si02
#       5
#     4   4   4   4   4
#     4   9  22  44  67 100 136 176 229 281 343 407
#     4  11  23  41  66 101 141 185 228 280 342 413
#     4  10  24  44  70  98 134 178 230 288 350 406
#     4   9  22  44  67 100 136 176 229 281 343 407
#     4  11  23  41  66 101 141 185 228 280 342 413
#
# _framework density 28.443930000000002
#
# number of rings (size 3 to 8) (size 9 to 14) (size 15 to 20)
#    1.200    0.800    0.000    2.400    0.000   11.200 
#    3.600    0.000    0.000    0.000    0.000    0.000 
#    0.000    0.000    0.000    0.000    0.000    0.000 
#
# Total GULP energy -111520.811663 kJ/mol
# GULP energy per Si atom -5576.040583 kJ/mol
# Density = 2.837919 g / cm^3
# Si number density = 28.443930 Si / 1000 Ang^3
#
#
#
# Elastic Constant Matrix: (Units=GPa)
#
#
# Indices 1 2 3 4 5 6 
#
# 1 101.5623 22.7939 25.0534 0.0000 0.0000 0.0000
# 2 22.7939 181.3113 18.0067 0.0000 0.0000 0.0000
# 3 25.0534 18.0067 87.4276 0.0000 0.0000 0.0000
# 4 0.0000 0.0000 0.0000 36.8153 0.0000 0.0000
# 5 0.0000 0.0000 0.0000 0.0000 46.8027 0.0000
# 6 0.0000 0.0000 0.0000 0.0000 0.0000 54.8465
#
#
#
# Elastic Compliance Matrix: (Units=1/GPa)
#
#
# Indices 1 2 3 4 5 6 
#
# 1 0.010795 -0.001072 -0.002873 0.000000 0.000000 0.000000
# 2 -0.001072 0.005737 -0.000874 0.000000 0.000000 0.000000
# 3 -0.002873 -0.000874 0.012441 0.000000 0.000000 0.000000
# 4 0.000000 0.000000 0.000000 0.027163 0.000000 0.000000
# 5 0.000000 0.000000 0.000000 0.000000 0.021366 0.000000
# 6 0.000000 0.000000 0.000000 0.000000 0.000000 0.018233
#
#
# Mechanical properties :
#
#
# Convention : Reuss Voigt Hill
#
# Bulk Modulus (GPa) = 51.71819 55.77882 53.74850
# Shear Modulus (GPa) = 44.71524 47.98937 46.35230
#
# Velocity S-wave (km/s) = 3.96921 4.11196 4.04121
# Velocity P-wave (km/s) = 6.26324 6.49592 6.38064
#
# Compressibility (1/GPa) = 0.01933556
#
# Stress axis : x y z
#
# Youngs Moduli (GPa) = 92.63213 174.30800 80.37701
#
# Poissons Ratio (x) = 0.18683 0.23091
# Poissons Ratio (y) = 0.09929 0.07028
# Poissons Ratio (z) = 0.26611 0.15242
#
# Static dielectric constant tensor:
#      x y z
#    x 2.357990 0.000000 0.000000 
#    y 0.000000 2.264810 0.000000 
#    z 0.000000 0.000000 2.174100 
# 
# From -- ./inp_files/2354.got.cif
#   From: 2010.05.17/outbox.cif.g08.bks.cpg/sg33_2_cif.got.tgz:2354.got - 2010.06.03 17:15:25.
