data_PCOD9346291
_publ_section_title
;
Structure prediction by ZEFSAII (Michael W. Deem and Ramdas Pophale) SiO2 
 PCOD9346291
Probable space group: P N A 21
;
_chemical_formula_sum "Si O2"
_cell_formula_units_Z 32
_cell_length_a 15.536578
_cell_length_b 11.787552
_cell_length_c 8.330288
_cell_angle_alpha 90.000000
_cell_angle_beta 90.000000
_cell_angle_gamma 90.000000
_cell_volume 1525.594125
_symmetry_space_group_name_H-M "P N A 21"
_symmetry_group_IT_number 33
_symmetry_cell_setting 'orthorhombic'
loop_
_space_group_symop_operation_xyz
x,y,z
-x,-y,1/2+z
1/2-x,1/2+y,1/2+z
1/2+x,1/2-y,z
loop_
_atom_site_type_symbol
_atom_site_label
_atom_site_fract_x
_atom_site_fract_y
_atom_site_fract_z
Si Si1 0.213474 0.504224 0.616690
Si Si2 0.917093 0.171997 0.902292
Si Si3 0.862827 0.934341 0.850913
Si Si4 0.961559 0.447128 0.314486
Si Si5 0.473388 0.162412 0.657366
Si Si6 0.933809 0.742496 0.627649
Si Si7 0.761652 0.766767 0.450435
Si Si8 0.166699 0.258821 0.594812
O O1 0.287059 0.504358 0.752066
O O2 0.242557 0.603380 0.497963
O O3 0.202148 0.381115 0.536214
O O4 0.124792 0.536825 0.708422
O O5 0.827057 0.202956 0.984895
O O6 0.915466 0.237313 0.730458
O O7 0.922910 0.036898 0.904919
O O8 0.998983 0.222484 0.991900
O O9 0.916351 0.851058 0.737908
O O10 0.822626 0.850327 0.983123
O O11 0.944308 0.403900 0.495731
O O12 0.023640 0.355797 0.231628
O O13 0.010242 0.567357 0.295089
O O14 0.564873 0.219872 0.616915
O O15 0.841009 0.715836 0.551423
O O16 0.790558 0.759754 0.267001
#
# Coordination Sequence:
#
# PCOD9346291 Si02
#       8
#     4   4   4   4   4   4   4   4
#     4  10  24  44  67 102 134 179 237 282 348 418
#     4  12  25  45  67 100 140 186 230 279 354 417
#     4  11  26  43  67 101 139 184 228 287 347 423
#     4  11  23  43  71 101 136 182 235 294 341 404
#     4  11  25  41  70 100 138 180 233 285 345 412
#     4  11  24  44  69  98 141 180 235 282 349 416
#     4  11  24  45  68  99 139 180 228 292 341 415
#     4  11  23  47  65  99 139 177 228 293 343 409
#
# _framework density 20.975434
#
# number of rings (size 3 to 8) (size 9 to 14) (size 15 to 20)
#    0.000    1.000    5.000    0.750    7.000    0.000 
#    4.500    2.500    0.000    0.000    0.000    0.000 
#    0.000    0.000    0.000    0.000    0.000    0.000 
#
# Total GULP energy -178821.469822 kJ/mol
# GULP energy per Si atom -5588.170932 kJ/mol
# Density = 2.092769 g / cm^3
# Si number density = 20.975434 Si / 1000 Ang^3
#
#
#
# Elastic Constant Matrix: (Units=GPa)
#
#
# Indices 1 2 3 4 5 6 
#
# 1 70.9858 17.0303 -7.5637 0.0000 0.0000 0.0000
# 2 17.0303 102.9592 24.0294 0.0000 0.0000 0.0000
# 3 -7.5637 24.0294 48.7075 0.0000 0.0000 0.0000
# 4 0.0000 0.0000 0.0000 34.7057 0.0000 0.0000
# 5 0.0000 0.0000 0.0000 0.0000 15.3337 0.0000
# 6 0.0000 0.0000 0.0000 0.0000 0.0000 18.4260
#
#
#
# Elastic Compliance Matrix: (Units=1/GPa)
#
#
# Indices 1 2 3 4 5 6 
#
# 1 0.015366 -0.003502 0.004114 0.000000 0.000000 0.000000
# 2 -0.003502 0.011774 -0.006353 0.000000 0.000000 0.000000
# 3 0.004114 -0.006353 0.024304 0.000000 0.000000 0.000000
# 4 0.000000 0.000000 0.000000 0.028814 0.000000 0.000000
# 5 0.000000 0.000000 0.000000 0.000000 0.065216 0.000000
# 6 0.000000 0.000000 0.000000 0.000000 0.000000 0.054271
#
#
# Mechanical properties :
#
#
# Convention : Reuss Voigt Hill
#
# Bulk Modulus (GPa) = 25.02348 32.18271 28.60310
# Shear Modulus (GPa) = 22.26710 26.30350 24.28530
#
# Velocity S-wave (km/s) = 3.26172 3.54505 3.40633
# Velocity P-wave (km/s) = 5.11282 5.66858 5.39786
#
# Compressibility (1/GPa) = 0.03996246
#
# Stress axis : x y z
#
# Youngs Moduli (GPa) = 65.07980 84.92990 41.14627
#
# Poissons Ratio (x) = 0.29740 -0.16926
# Poissons Ratio (y) = 0.22789 0.26139
# Poissons Ratio (z) = -0.26772 0.53952
#
# Static dielectric constant tensor:
#      x y z
#    x 1.749060 0.000000 0.000000 
#    y 0.000000 1.768510 0.000000 
#    z 0.000000 0.000000 1.787860 
# 
# From -- ./inp_files/4456.got.cif
#   From: 2010.05.17/outbox.cif.g08.bks.cpg/sg33_3_cif.got.tgz:4456.got - 2010.06.03 17:15:25.
