data_PCOD9346131
_publ_section_title
;
Structure prediction by ZEFSAII (Michael W. Deem and Ramdas Pophale) SiO2 
 PCOD9346131
Probable space group: P N A 21
;
_chemical_formula_sum "Si O2"
_cell_formula_units_Z 20
_cell_length_a 24.945968
_cell_length_b 5.133288
_cell_length_c 6.359336
_cell_angle_alpha 90.000000
_cell_angle_beta 90.000000
_cell_angle_gamma 90.000000
_cell_volume 814.343742
_symmetry_space_group_name_H-M "P N A 21"
_symmetry_group_IT_number 33
_symmetry_cell_setting 'orthorhombic'
loop_
_space_group_symop_operation_xyz
x,y,z
-x,-y,1/2+z
1/2-x,1/2+y,1/2+z
1/2+x,1/2-y,z
loop_
_atom_site_type_symbol
_atom_site_label
_atom_site_fract_x
_atom_site_fract_y
_atom_site_fract_z
Si Si1 0.119850 0.866942 0.928080
Si Si2 0.689450 0.434309 0.312078
Si Si3 0.488294 0.170757 0.307325
Si Si4 0.945259 0.846589 0.123055
Si Si5 0.307863 0.069568 0.112172
O O1 0.060009 0.755000 0.967661
O O2 0.153788 0.639585 0.811712
O O3 0.108030 0.083773 0.747699
O O4 0.147905 0.001020 0.124564
O O5 0.687079 0.679406 0.465359
O O6 0.747962 0.437621 0.204260
O O7 0.682843 0.174256 0.453970
O O8 0.547368 0.230650 0.391809
O O9 0.475000 0.374837 0.123312
O O10 0.475257 0.879634 0.249289
#
# Coordination Sequence:
#
# PCOD9346131 Si02
#       5
#     4   4   4   4   4
#     4  10  28  46  72 112 150 182 264 292 376 446
#     4  12  27  46  77 104 150 196 243 304 372 436
#     4  10  23  44  68  95 142 182 236 296 362 429
#     4  10  23  44  68  95 142 182 236 296 362 429
#     4  12  27  46  77 104 150 196 243 304 372 436
#
# _framework density 24.559652
#
# number of rings (size 3 to 8) (size 9 to 14) (size 15 to 20)
#    1.200    0.000    2.000    2.400    5.600    1.600 
#    0.000    0.000    0.000    0.000    0.000    0.000 
#    0.000    0.000    0.000    0.000    0.000    0.000 
#
# Total GULP energy -111549.723022 kJ/mol
# GULP energy per Si atom -5577.486151 kJ/mol
# Density = 2.450375 g / cm^3
# Si number density = 24.559652 Si / 1000 Ang^3
#
#
#
# Elastic Constant Matrix: (Units=GPa)
#
#
# Indices 1 2 3 4 5 6 
#
# 1 111.4826 38.5075 61.7803 0.0000 0.0000 0.0000
# 2 38.5075 180.2085 66.6571 0.0000 0.0000 0.0000
# 3 61.7803 66.6571 94.8666 0.0000 0.0000 0.0000
# 4 0.0000 0.0000 0.0000 53.9521 0.0000 0.0000
# 5 0.0000 0.0000 0.0000 0.0000 45.9649 0.0000
# 6 0.0000 0.0000 0.0000 0.0000 0.0000 36.5909
#
#
#
# Elastic Compliance Matrix: (Units=1/GPa)
#
#
# Indices 1 2 3 4 5 6 
#
# 1 0.014071 0.000517 -0.009527 0.000000 0.000000 0.000000
# 2 0.000517 0.007517 -0.005618 0.000000 0.000000 0.000000
# 3 -0.009527 -0.005618 0.020693 0.000000 0.000000 0.000000
# 4 0.000000 0.000000 0.000000 0.018535 0.000000 0.000000
# 5 0.000000 0.000000 0.000000 0.000000 0.021756 0.000000
# 6 0.000000 0.000000 0.000000 0.000000 0.000000 0.027329
#
#
# Mechanical properties :
#
#
# Convention : Reuss Voigt Hill
#
# Bulk Modulus (GPa) = 76.77789 80.04975 78.41382
# Shear Modulus (GPa) = 34.84368 41.94243 38.39305
#
# Velocity S-wave (km/s) = 3.77070 4.13701 3.95809
# Velocity P-wave (km/s) = 7.09135 7.44880 7.27227
#
# Compressibility (1/GPa) = 0.01302458
#
# Stress axis : x y z
#
# Youngs Moduli (GPa) = 71.06902 133.03529 48.32560
#
# Poissons Ratio (x) = -0.06880 0.46039
# Poissons Ratio (y) = -0.03675 0.27151
# Poissons Ratio (z) = 0.67706 0.74744
#
# Static dielectric constant tensor:
#      x y z
#    x 2.020840 0.000000 0.000000 
#    y 0.000000 1.927040 0.000000 
#    z 0.000000 0.000000 2.031420 
# 
# From -- ./inp_files/2161.got.cif
#   From: 2010.05.17/outbox.cif.g08.bks.cpg/sg33_2_cif.got.tgz:2161.got - 2010.06.03 17:15:25.
