data_PCOD9346419
_publ_section_title
;
Structure prediction by ZEFSAII (Michael W. Deem and Ramdas Pophale) SiO2 
 PCOD9346419
Probable space group: P N A 21
;
_chemical_formula_sum "Si O2"
_cell_formula_units_Z 28
_cell_length_a 10.905595
_cell_length_b 7.118272
_cell_length_c 13.698315
_cell_angle_alpha 90.000000
_cell_angle_beta 90.000000
_cell_angle_gamma 90.000000
_cell_volume 1063.386379
_symmetry_space_group_name_H-M "P N A 21"
_symmetry_group_IT_number 33
_symmetry_cell_setting 'orthorhombic'
loop_
_space_group_symop_operation_xyz
x,y,z
-x,-y,1/2+z
1/2-x,1/2+y,1/2+z
1/2+x,1/2-y,z
loop_
_atom_site_type_symbol
_atom_site_label
_atom_site_fract_x
_atom_site_fract_y
_atom_site_fract_z
Si Si1 0.509489 0.852090 0.670230
Si Si2 0.694541 0.908636 0.505877
Si Si3 0.366289 0.718057 0.940943
Si Si4 0.556551 0.536323 0.086265
Si Si5 0.931261 0.609751 0.341831
Si Si6 0.307767 0.962713 0.534505
Si Si7 0.846887 0.119357 0.791901
O O1 0.611898 0.947654 0.600985
O O2 0.514895 0.631521 0.644427
O O3 0.541132 0.925316 0.777081
O O4 0.373490 0.919791 0.636255
O O5 0.699587 0.682174 0.501302
O O6 0.539632 0.741289 0.332112
O O7 0.838300 0.938732 0.523630
O O8 0.478558 0.661008 0.011746
O O9 0.251900 0.660647 0.011087
O O10 0.357616 0.587898 0.844022
O O11 0.654083 0.060447 0.425963
O O12 0.624563 0.630290 0.177174
O O13 0.912889 0.563604 0.454498
O O14 0.795038 0.680444 0.308069
#
# Coordination Sequence:
#
# PCOD9346419 Si02
#       7
#     4   4   4   4   4   4   4
#     4  11  23  44  72 103 150 197 240 311 380 444
#     4  11  23  44  72 105 142 197 242 310 382 441
#     4  11  25  46  76 105 147 198 252 311 380 457
#     4  11  24  45  70 109 153 189 259 309 369 464
#     4  11  25  47  74 110 154 199 252 316 388 453
#     4  10  25  46  72 106 146 193 253 310 377 455
#     4  11  25  48  70 118 148 199 260 311 382 464
#
# _framework density 26.330974000000001
#
# number of rings (size 3 to 8) (size 9 to 14) (size 15 to 20)
#    0.000    1.143    2.857    2.571    6.000    1.143 
#    7.714    0.000    0.000    0.000    0.000    0.000 
#    0.000    0.000    0.000    0.000    0.000    0.000 
#
# Total GULP energy -156543.319208 kJ/mol
# GULP energy per Si atom -5590.832829 kJ/mol
# Density = 2.627104 g / cm^3
# Si number density = 26.330974 Si / 1000 Ang^3
#
#
#
# Elastic Constant Matrix: (Units=GPa)
#
#
# Indices 1 2 3 4 5 6 
#
# 1 137.5400 36.0588 23.9714 0.0000 0.0000 0.0000
# 2 36.0588 113.4839 14.4770 0.0000 0.0000 0.0000
# 3 23.9714 14.4770 99.7790 0.0000 0.0000 0.0000
# 4 0.0000 0.0000 0.0000 34.6848 0.0000 0.0000
# 5 0.0000 0.0000 0.0000 0.0000 44.9420 0.0000
# 6 0.0000 0.0000 0.0000 0.0000 0.0000 44.5157
#
#
#
# Elastic Compliance Matrix: (Units=1/GPa)
#
#
# Indices 1 2 3 4 5 6 
#
# 1 0.008180 -0.002393 -0.001618 0.000000 0.000000 0.000000
# 2 -0.002393 0.009678 -0.000829 0.000000 0.000000 0.000000
# 3 -0.001618 -0.000829 0.010531 0.000000 0.000000 0.000000
# 4 0.000000 0.000000 0.000000 0.028831 0.000000 0.000000
# 5 0.000000 0.000000 0.000000 0.000000 0.022251 0.000000
# 6 0.000000 0.000000 0.000000 0.000000 0.000000 0.022464
#
#
# Mechanical properties :
#
#
# Convention : Reuss Voigt Hill
#
# Bulk Modulus (GPa) = 53.45062 55.53528 54.49295
# Shear Modulus (GPa) = 42.42632 43.24821 42.83727
#
# Velocity S-wave (km/s) = 4.01842 4.05715 4.03783
# Velocity P-wave (km/s) = 6.47100 6.56387 6.51760
#
# Compressibility (1/GPa) = 0.01870886
#
# Stress axis : x y z
#
# Youngs Moduli (GPa) = 122.25074 103.32834 94.95599
#
# Poissons Ratio (x) = 0.24723 0.15364
# Poissons Ratio (y) = 0.29251 0.07875
# Poissons Ratio (z) = 0.19780 0.08569
#
# Static dielectric constant tensor:
#      x y z
#    x 2.079180 0.000000 0.000000 
#    y 0.000000 2.161530 0.000000 
#    z 0.000000 0.000000 2.058140 
# 
# From -- ./inp_files/8016.got.cif
#   From: 2010.05.17/outbox.cif.g08.bks.cpg/sg33_5_cif.got.tgz:8016.got - 2010.06.03 17:15:25.
