data_PCOD9346436
_publ_section_title
;
Structure prediction by ZEFSAII (Michael W. Deem and Ramdas Pophale) SiO2 
 PCOD9346436
Probable space group: P N A 21
;
_chemical_formula_sum "Si O2"
_cell_formula_units_Z 24
_cell_length_a 9.242322
_cell_length_b 5.624568
_cell_length_c 19.506228
_cell_angle_alpha 90.000000
_cell_angle_beta 90.000000
_cell_angle_gamma 90.000000
_cell_volume 1014.013094
_symmetry_space_group_name_H-M "P N A 21"
_symmetry_group_IT_number 33
_symmetry_cell_setting 'orthorhombic'
loop_
_space_group_symop_operation_xyz
x,y,z
-x,-y,1/2+z
1/2-x,1/2+y,1/2+z
1/2+x,1/2-y,z
loop_
_atom_site_type_symbol
_atom_site_label
_atom_site_fract_x
_atom_site_fract_y
_atom_site_fract_z
Si Si1 0.475024 0.073393 0.394080
Si Si2 0.228083 0.546630 0.233311
Si Si3 0.251978 0.308349 0.473993
Si Si4 0.904421 0.933903 0.364634
Si Si5 0.772117 0.071561 0.620326
Si Si6 0.481102 0.242910 0.162308
O O1 0.314197 0.094852 0.427523
O O2 0.487482 0.317594 0.350132
O O3 0.591667 0.115554 0.453529
O O4 0.482332 0.817303 0.359503
O O5 0.270473 0.568047 0.312314
O O6 0.366001 0.411580 0.200071
O O7 0.084203 0.403602 0.213721
O O8 0.217131 0.793826 0.192639
O O9 0.351238 0.521241 0.442678
O O10 0.273230 0.263609 0.553675
O O11 0.620345 0.934245 0.619944
O O12 0.907976 0.895714 0.617401
#
# Coordination Sequence:
#
# PCOD9346436 Si02
#       6
#     4   4   4   4   4   4
#     4  10  26  46  71 106 136 194 230 301 351 437
#     4  11  25  44  72 102 143 185 243 297 364 433
#     4  10  27  43  73 101 149 181 246 292 366 425
#     4  10  27  44  74 102 149 183 242 290 365 425
#     4  11  25  46  69 105 140 190 236 303 357 438
#     4  10  26  43  71 102 139 187 235 295 365 432
#
# _framework density 23.668334000000002
#
# number of rings (size 3 to 8) (size 9 to 14) (size 15 to 20)
#    1.000    0.667    0.000    1.000   16.333    2.667 
#    0.000    0.000    0.000    0.000    0.000    0.000 
#    0.000    0.000    0.000    0.000    0.000    0.000 
#
# Total GULP energy -133969.340122 kJ/mol
# GULP energy per Si atom -5582.055838 kJ/mol
# Density = 2.361446 g / cm^3
# Si number density = 23.668334 Si / 1000 Ang^3
#
#
#
# Elastic Constant Matrix: (Units=GPa)
#
#
# Indices 1 2 3 4 5 6 
#
# 1 108.3050 19.6043 0.2680 0.0000 0.0000 0.0000
# 2 19.6043 116.9641 4.1468 0.0000 0.0000 0.0000
# 3 0.2680 4.1468 49.6477 0.0000 0.0000 0.0000
# 4 0.0000 0.0000 0.0000 21.1485 0.0000 0.0000
# 5 0.0000 0.0000 0.0000 0.0000 12.9904 0.0000
# 6 0.0000 0.0000 0.0000 0.0000 0.0000 16.9180
#
#
#
# Elastic Compliance Matrix: (Units=1/GPa)
#
#
# Indices 1 2 3 4 5 6 
#
# 1 0.009522 -0.001599 0.000082 0.000000 0.000000 0.000000
# 2 -0.001599 0.008844 -0.000730 0.000000 0.000000 0.000000
# 3 0.000082 -0.000730 0.020202 0.000000 0.000000 0.000000
# 4 0.000000 0.000000 0.000000 0.047285 0.000000 0.000000
# 5 0.000000 0.000000 0.000000 0.000000 0.076980 0.000000
# 6 0.000000 0.000000 0.000000 0.000000 0.000000 0.059109
#
#
# Mechanical properties :
#
#
# Convention : Reuss Voigt Hill
#
# Bulk Modulus (GPa) = 29.34727 35.88389 32.61558
# Shear Modulus (GPa) = 21.02664 26.93788 23.98226
#
# Velocity S-wave (km/s) = 2.98382 3.37729 3.18663
# Velocity P-wave (km/s) = 4.92922 5.51382 5.22969
#
# Compressibility (1/GPa) = 0.03407472
#
# Stress axis : x y z
#
# Youngs Moduli (GPa) = 105.01543 113.07716 49.49895
#
# Poissons Ratio (x) = 0.18081 -0.00407
# Poissons Ratio (y) = 0.16792 0.03614
# Poissons Ratio (z) = -0.00863 0.08255
#
# Static dielectric constant tensor:
#      x y z
#    x 1.876680 0.000000 0.000000 
#    y 0.000000 1.929260 0.000000 
#    z 0.000000 0.000000 1.846460 
# 
# From -- ./inp_files/9224.got.cif
#   From: 2010.05.17/outbox.cif.g08.bks.cpg/sg33_5_cif.got.tgz:9224.got - 2010.06.03 17:15:25.
