data_PCOD9346545
_publ_section_title
;
Structure prediction by ZEFSAII (Michael W. Deem and Ramdas Pophale) SiO2 
 PCOD9346545
Probable space group: P N A 21
;
_chemical_formula_sum "Si O2"
_cell_formula_units_Z 20
_cell_length_a 7.303124
_cell_length_b 8.232975
_cell_length_c 12.176104
_cell_angle_alpha 90.000000
_cell_angle_beta 90.000000
_cell_angle_gamma 90.000000
_cell_volume 732.105754
_symmetry_space_group_name_H-M "P N A 21"
_symmetry_group_IT_number 33
_symmetry_cell_setting 'orthorhombic'
loop_
_space_group_symop_operation_xyz
x,y,z
-x,-y,1/2+z
1/2-x,1/2+y,1/2+z
1/2+x,1/2-y,z
loop_
_atom_site_type_symbol
_atom_site_label
_atom_site_fract_x
_atom_site_fract_y
_atom_site_fract_z
Si Si1 0.469201 0.131556 0.555630
Si Si2 0.330372 0.384160 0.120449
Si Si3 0.319317 0.449926 0.677058
Si Si4 0.821300 0.521787 0.851381
Si Si5 0.949706 0.182893 0.891420
O O1 0.418296 0.302128 0.610814
O O2 0.619128 0.038161 0.629262
O O3 0.281684 0.031999 0.562664
O O4 0.571655 0.134767 0.438246
O O5 0.542682 0.406129 0.153311
O O6 0.232553 0.384193 0.239896
O O7 0.363310 0.281292 0.010216
O O8 0.325699 0.412976 0.804906
O O9 0.950200 0.362891 0.838453
O O10 0.631543 0.431072 0.891321
#
# Coordination Sequence:
#
# PCOD9346545 Si02
#       5
#     4   4   4   4   4
#     4  12  22  41  68 100 135 184 236 289 347 419
#     4  11  24  41  69 103 136 182 237 285 352 425
#     4  11  22  42  68  95 135 186 229 283 350 416
#     4  11  24  41  71 105 139 187 237 289 356 422
#     4  11  22  45  68 101 143 181 235 292 345 426
#
# _framework density 27.318460000000002
#
# number of rings (size 3 to 8) (size 9 to 14) (size 15 to 20)
#    0.000    0.800    6.000    2.400    2.800    0.000 
#    0.000    6.000    0.000    0.000    0.000    0.000 
#    0.000    0.000    0.000    0.000    0.000    0.000 
#
# Total GULP energy -111678.156949 kJ/mol
# GULP energy per Si atom -5583.907847 kJ/mol
# Density = 2.725628 g / cm^3
# Si number density = 27.318460 Si / 1000 Ang^3
#
#
#
# Elastic Constant Matrix: (Units=GPa)
#
#
# Indices 1 2 3 4 5 6 
#
# 1 146.6072 34.0333 36.9427 0.0000 0.0000 0.0000
# 2 34.0333 54.6265 49.1897 0.0000 0.0000 0.0000
# 3 36.9427 49.1897 196.0542 0.0000 0.0000 0.0000
# 4 0.0000 0.0000 0.0000 39.4158 0.0000 0.0000
# 5 0.0000 0.0000 0.0000 0.0000 45.7427 0.0000
# 6 0.0000 0.0000 0.0000 0.0000 0.0000 16.4359
#
#
#
# Elastic Compliance Matrix: (Units=1/GPa)
#
#
# Indices 1 2 3 4 5 6 
#
# 1 0.007991 -0.004680 -0.000332 0.000000 0.000000 0.000000
# 2 -0.004680 0.026390 -0.005739 0.000000 0.000000 0.000000
# 3 -0.000332 -0.005739 0.006603 0.000000 0.000000 0.000000
# 4 0.000000 0.000000 0.000000 0.025371 0.000000 0.000000
# 5 0.000000 0.000000 0.000000 0.000000 0.021861 0.000000
# 6 0.000000 0.000000 0.000000 0.000000 0.000000 0.060842
#
#
# Mechanical properties :
#
#
# Convention : Reuss Voigt Hill
#
# Bulk Modulus (GPa) = 51.32866 70.84657 61.08761
# Shear Modulus (GPa) = 28.23998 38.79370 33.51684
#
# Velocity S-wave (km/s) = 3.21866 3.77245 3.50650
# Velocity P-wave (km/s) = 5.71339 6.70560 6.22928
#
# Compressibility (1/GPa) = 0.01948229
#
# Stress axis : x y z
#
# Youngs Moduli (GPa) = 125.14265 37.89325 151.44413
#
# Poissons Ratio (x) = 0.17734 0.05021
# Poissons Ratio (y) = 0.58566 0.86919
# Poissons Ratio (z) = 0.04149 0.21748
#
# Static dielectric constant tensor:
#      x y z
#    x 2.154500 0.000000 0.000000 
#    y 0.000000 2.166050 0.000000 
#    z 0.000000 0.000000 2.127730 
# 
# From -- ./inp_files/2989.got.cif
#   From: 2010.05.17/outbox.cif.g08.bks.cpg/sg33_2_cif.got.tgz:2989.got - 2010.06.03 17:15:25.
