data_PCOD9346663
_publ_section_title
;
Structure prediction by ZEFSAII (Michael W. Deem and Ramdas Pophale) SiO2 
 PCOD9346663
Probable space group: P N A 21
;
_chemical_formula_sum "Si O2"
_cell_formula_units_Z 20
_cell_length_a 13.380043
_cell_length_b 6.235296
_cell_length_c 9.051993
_cell_angle_alpha 90.000000
_cell_angle_beta 90.000000
_cell_angle_gamma 90.000000
_cell_volume 755.194457
_symmetry_space_group_name_H-M "P N A 21"
_symmetry_group_IT_number 33
_symmetry_cell_setting 'orthorhombic'
loop_
_space_group_symop_operation_xyz
x,y,z
-x,-y,1/2+z
1/2-x,1/2+y,1/2+z
1/2+x,1/2-y,z
loop_
_atom_site_type_symbol
_atom_site_label
_atom_site_fract_x
_atom_site_fract_y
_atom_site_fract_z
Si Si1 0.530333 0.627116 0.252920
Si Si2 0.830945 0.833335 0.948409
Si Si3 0.114104 0.135125 0.985093
Si Si4 0.209399 0.806279 0.662065
Si Si5 0.525516 0.986247 0.597688
O O1 0.608633 0.525154 0.366064
O O2 0.420827 0.574750 0.321291
O O3 0.559834 0.523913 0.098130
O O4 0.530590 0.879208 0.224058
O O5 0.759379 0.731737 0.823050
O O6 0.782582 0.957377 0.087683
O O7 0.908574 0.658000 0.008210
O O8 0.224841 0.164327 0.043740
O O9 0.059469 0.362363 0.009891
O O10 0.102197 0.689833 0.659117
#
# Coordination Sequence:
#
# PCOD9346663 Si02
#       5
#     4   4   4   4   4
#     4  11  23  46  72 109 146 196 252 310 376 472
#     4  11  26  49  73 113 159 199 263 320 396 478
#     4  11  26  44  77 104 149 200 248 311 382 454
#     4  11  26  47  74 115 150 202 263 324 388 467
#     4  12  25  46  78 105 154 201 254 317 390 461
#
# _framework density 26.483245
#
# number of rings (size 3 to 8) (size 9 to 14) (size 15 to 20)
#    0.000    0.800    4.000    1.200    5.600    8.000 
#    3.600    0.000    0.000    0.000    0.000    0.000 
#    0.000    0.000    0.000    0.000    0.000    0.000 
#
# Total GULP energy -112008.627592 kJ/mol
# GULP energy per Si atom -5600.431380 kJ/mol
# Density = 2.642297 g / cm^3
# Si number density = 26.483245 Si / 1000 Ang^3
#
#
#
# Elastic Constant Matrix: (Units=GPa)
#
#
# Indices 1 2 3 4 5 6 
#
# 1 76.3009 34.8481 9.7304 0.0000 0.0000 0.0000
# 2 34.8481 135.5757 46.6369 0.0000 0.0000 0.0000
# 3 9.7304 46.6369 107.1906 0.0000 0.0000 0.0000
# 4 0.0000 0.0000 0.0000 47.3130 0.0000 0.0000
# 5 0.0000 0.0000 0.0000 0.0000 32.1408 0.0000
# 6 0.0000 0.0000 0.0000 0.0000 0.0000 45.7879
#
#
#
# Elastic Compliance Matrix: (Units=1/GPa)
#
#
# Indices 1 2 3 4 5 6 
#
# 1 0.014862 -0.003947 0.000368 0.000000 0.000000 0.000000
# 2 -0.003947 0.009722 -0.003872 0.000000 0.000000 0.000000
# 3 0.000368 -0.003872 0.010980 0.000000 0.000000 0.000000
# 4 0.000000 0.000000 0.000000 0.021136 0.000000 0.000000
# 5 0.000000 0.000000 0.000000 0.000000 0.031113 0.000000
# 6 0.000000 0.000000 0.000000 0.000000 0.000000 0.021840
#
#
# Mechanical properties :
#
#
# Convention : Reuss Voigt Hill
#
# Bulk Modulus (GPa) = 48.39456 55.72200 52.05828
# Shear Modulus (GPa) = 38.03981 40.23845 39.13913
#
# Velocity S-wave (km/s) = 3.79406 3.90217 3.84849
# Velocity P-wave (km/s) = 6.12426 6.43341 6.28073
#
# Compressibility (1/GPa) = 0.02066348
#
# Stress axis : x y z
#
# Youngs Moduli (GPa) = 67.28772 102.85733 91.07232
#
# Poissons Ratio (x) = 0.40593 -0.03351
# Poissons Ratio (y) = 0.26556 0.35261
# Poissons Ratio (z) = -0.02476 0.39823
#
# Static dielectric constant tensor:
#      x y z
#    x 2.075340 0.000000 0.000000 
#    y 0.000000 2.075160 0.000000 
#    z 0.000000 0.000000 2.094790 
# 
# From -- ./inp_files/6610.got.cif
#   From: 2010.05.17/outbox.cif.g08.bks.cpg/sg33_4_cif.got.tgz:6610.got - 2010.06.03 17:15:25.
