data_PCOD9346322
_publ_section_title
;
Structure prediction by ZEFSAII (Michael W. Deem and Ramdas Pophale) SiO2 
 PCOD9346322
Probable space group: P N A 21
;
_chemical_formula_sum "Si O2"
_cell_formula_units_Z 16
_cell_length_a 8.131827
_cell_length_b 7.784655
_cell_length_c 9.124724
_cell_angle_alpha 90.000000
_cell_angle_beta 90.000000
_cell_angle_gamma 90.000000
_cell_volume 577.626671
_symmetry_space_group_name_H-M "P N A 21"
_symmetry_group_IT_number 33
_symmetry_cell_setting 'orthorhombic'
loop_
_space_group_symop_operation_xyz
x,y,z
-x,-y,1/2+z
1/2-x,1/2+y,1/2+z
1/2+x,1/2-y,z
loop_
_atom_site_type_symbol
_atom_site_label
_atom_site_fract_x
_atom_site_fract_y
_atom_site_fract_z
Si Si1 0.508160 0.493773 0.157520
Si Si2 0.182731 0.593914 0.840337
Si Si3 0.187448 0.421931 0.349190
Si Si4 0.879480 0.203208 0.892820
O O1 0.673967 0.404348 0.218927
O O2 0.331262 0.447936 0.230211
O O3 0.546849 0.682156 0.227352
O O4 0.486361 0.425915 0.993752
O O5 0.243547 0.756311 0.938136
O O6 0.207117 0.402302 0.900566
O O7 0.996874 0.617825 0.793858
O O8 0.154069 0.601572 0.429663
#
# Coordination Sequence:
#
# PCOD9346322 Si02
#       4
#     4   4   4   4
#     4  10  25  51  72 117 150 194 256 304 376 454
#     4  10  24  45  72 116 144 199 253 306 368 456
#     4  12  22  50  75 108 156 202 240 316 375 444
#     4  10  25  52  75 113 154 199 251 312 377 450
#
# _framework density 27.699551
#
# number of rings (size 3 to 8) (size 9 to 14) (size 15 to 20)
#    1.500    0.000    2.500    1.500    0.000    4.000 
#   18.000    0.000    0.000    0.000    0.000    0.000 
#    0.000    0.000    0.000    0.000    0.000    0.000 
#
# Total GULP energy -89119.395760 kJ/mol
# GULP energy per Si atom -5569.962235 kJ/mol
# Density = 2.763651 g / cm^3
# Si number density = 27.699551 Si / 1000 Ang^3
#
#
#
# Elastic Constant Matrix: (Units=GPa)
#
#
# Indices 1 2 3 4 5 6 
#
# 1 228.7001 23.4974 36.2594 0.0000 0.0000 0.0000
# 2 23.4974 173.2223 9.7397 0.0000 0.0000 0.0000
# 3 36.2594 9.7397 95.5841 0.0000 0.0000 0.0000
# 4 0.0000 0.0000 0.0000 4.0356 0.0000 0.0000
# 5 0.0000 0.0000 0.0000 0.0000 36.0373 0.0000
# 6 0.0000 0.0000 0.0000 0.0000 0.0000 37.9324
#
#
#
# Elastic Compliance Matrix: (Units=1/GPa)
#
#
# Indices 1 2 3 4 5 6 
#
# 1 0.004702 -0.000541 -0.001729 0.000000 0.000000 0.000000
# 2 -0.000541 0.005868 -0.000393 0.000000 0.000000 0.000000
# 3 -0.001729 -0.000393 0.011158 0.000000 0.000000 0.000000
# 4 0.000000 0.000000 0.000000 0.247793 0.000000 0.000000
# 5 0.000000 0.000000 0.000000 0.000000 0.027749 0.000000
# 6 0.000000 0.000000 0.000000 0.000000 0.000000 0.026363
#
#
# Mechanical properties :
#
#
# Convention : Reuss Voigt Hill
#
# Bulk Modulus (GPa) = 60.96094 70.72218 65.84156
# Shear Modulus (GPa) = 14.95100 44.13507 29.54304
#
# Velocity S-wave (km/s) = 2.32579 3.99601 3.26936
# Velocity P-wave (km/s) = 5.41000 6.84676 6.17034
#
# Compressibility (1/GPa) = 0.01640395
#
# Stress axis : x y z
#
# Youngs Moduli (GPa) = 212.66841 170.40541 89.62359
#
# Poissons Ratio (x) = 0.09213 0.15493
# Poissons Ratio (y) = 0.11498 0.03521
# Poissons Ratio (z) = 0.36763 0.06695
#
# Static dielectric constant tensor:
#      x y z
#    x 2.139000 0.000000 0.000000 
#    y 0.000000 2.298330 0.000000 
#    z 0.000000 0.000000 2.162030 
# 
# From -- ./inp_files/5682.got.cif
#   From: 2010.05.17/outbox.cif.g08.bks.cpg/sg33_3_cif.got.tgz:5682.got - 2010.06.03 17:15:25.
