data_PCOD9346690
_publ_section_title
;
Structure prediction by ZEFSAII (Michael W. Deem and Ramdas Pophale) SiO2 
 PCOD9346690
Probable space group: P N A 21
;
_chemical_formula_sum "Si O2"
_cell_formula_units_Z 20
_cell_length_a 13.578799
_cell_length_b 7.572498
_cell_length_c 6.694682
_cell_angle_alpha 90.000000
_cell_angle_beta 90.000000
_cell_angle_gamma 90.000000
_cell_volume 688.383544
_symmetry_space_group_name_H-M "P N A 21"
_symmetry_group_IT_number 33
_symmetry_cell_setting 'orthorhombic'
loop_
_space_group_symop_operation_xyz
x,y,z
-x,-y,1/2+z
1/2-x,1/2+y,1/2+z
1/2+x,1/2-y,z
loop_
_atom_site_type_symbol
_atom_site_label
_atom_site_fract_x
_atom_site_fract_y
_atom_site_fract_z
Si Si1 0.353776 0.043465 0.197430
Si Si2 0.440742 0.792731 0.709696
Si Si3 0.300344 0.099541 0.732866
Si Si4 0.088723 0.147168 0.797349
Si Si5 0.635599 0.503845 0.256321
O O1 0.398592 0.853247 0.252168
O O2 0.251192 0.065445 0.308151
O O3 0.445621 0.174716 0.225853
O O4 0.327315 0.078937 0.967522
O O5 0.398587 0.637871 0.551741
O O6 0.407109 0.676476 0.892274
O O7 0.380491 0.963272 0.649215
O O8 0.185553 0.043714 0.726772
O O9 0.318050 0.302677 0.679279
O O10 0.977364 0.091155 0.776864
#
# Coordination Sequence:
#
# PCOD9346690 Si02
#       5
#     4   4   4   4   4
#     4  11  23  49  73 104 148 192 246 308 365 443
#     4  12  24  47  77 105 149 194 243 310 372 441
#     4  11  25  50  68 107 147 192 246 307 372 443
#     4  11  25  48  73 107 151 189 252 307 371 448
#     4  11  25  44  71 107 141 189 245 300 366 447
#
# _framework density 29.053573
#
# number of rings (size 3 to 8) (size 9 to 14) (size 15 to 20)
#    0.000    0.800    6.000    0.000    2.800    1.600 
#   18.000    0.000    0.000    0.000    0.000    0.000 
#    0.000    0.000    0.000    0.000    0.000    0.000 
#
# Total GULP energy -111414.563222 kJ/mol
# GULP energy per Si atom -5570.728161 kJ/mol
# Density = 2.898745 g / cm^3
# Si number density = 29.053573 Si / 1000 Ang^3
#
#
#
# Elastic Constant Matrix: (Units=GPa)
#
#
# Indices 1 2 3 4 5 6 
#
# 1 357.7959 94.4506 40.8816 0.0000 0.0000 0.0000
# 2 94.4506 140.3116 9.4209 0.0000 0.0000 0.0000
# 3 40.8816 9.4209 53.3664 0.0000 0.0000 0.0000
# 4 0.0000 0.0000 0.0000 31.2335 0.0000 0.0000
# 5 0.0000 0.0000 0.0000 0.0000 31.2290 0.0000
# 6 0.0000 0.0000 0.0000 0.0000 0.0000 56.1835
#
#
#
# Elastic Compliance Matrix: (Units=1/GPa)
#
#
# Indices 1 2 3 4 5 6 
#
# 1 0.003682 -0.002317 -0.002412 0.000000 0.000000 0.000000
# 2 -0.002317 0.008670 0.000244 0.000000 0.000000 0.000000
# 3 -0.002412 0.000244 0.020543 0.000000 0.000000 0.000000
# 4 0.000000 0.000000 0.000000 0.032017 0.000000 0.000000
# 5 0.000000 0.000000 0.000000 0.000000 0.032022 0.000000
# 6 0.000000 0.000000 0.000000 0.000000 0.000000 0.017799
#
#
# Mechanical properties :
#
#
# Convention : Reuss Voigt Hill
#
# Bulk Modulus (GPa) = 41.79475 93.44223 67.61849
# Shear Modulus (GPa) = 37.97209 50.84393 44.40801
#
# Velocity S-wave (km/s) = 3.61912 4.18785 3.91383
# Velocity P-wave (km/s) = 5.64630 7.45761 6.61425
#
# Compressibility (1/GPa) = 0.02392645
#
# Stress axis : x y z
#
# Youngs Moduli (GPa) = 271.59345 115.34007 48.67903
#
# Poissons Ratio (x) = 0.26720 0.11740
# Poissons Ratio (y) = 0.62917 -0.01188
# Poissons Ratio (z) = 0.65499 -0.02815
#
# Static dielectric constant tensor:
#      x y z
#    x 2.044890 0.000000 0.000000 
#    y 0.000000 2.223240 0.000000 
#    z 0.000000 0.000000 2.677800 
# 
# From -- ./inp_files/3672.got.cif
#   From: 2010.05.17/outbox.cif.g08.bks.cpg/sg33_2_cif.got.tgz:3672.got - 2010.06.03 17:15:25.
