data_PCOD9346909
_publ_section_title
;
Structure prediction by ZEFSAII (Michael W. Deem and Ramdas Pophale) SiO2 
 PCOD9346909
Probable space group: P N A 21
;
_chemical_formula_sum "Si O2"
_cell_formula_units_Z 20
_cell_length_a 19.275129
_cell_length_b 7.308030
_cell_length_c 5.266725
_cell_angle_alpha 90.000000
_cell_angle_beta 90.000000
_cell_angle_gamma 90.000000
_cell_volume 741.887848
_symmetry_space_group_name_H-M "P N A 21"
_symmetry_group_IT_number 33
_symmetry_cell_setting 'orthorhombic'
loop_
_space_group_symop_operation_xyz
x,y,z
-x,-y,1/2+z
1/2-x,1/2+y,1/2+z
1/2+x,1/2-y,z
loop_
_atom_site_type_symbol
_atom_site_label
_atom_site_fract_x
_atom_site_fract_y
_atom_site_fract_z
Si Si1 0.457665 0.744795 0.713800
Si Si2 0.406391 0.067365 0.405063
Si Si3 0.294178 0.501950 0.213807
Si Si4 0.121297 0.894460 0.216922
Si Si5 0.828105 0.617456 0.018792
O O1 0.534314 0.813750 0.769273
O O2 0.445966 0.527359 0.710846
O O3 0.433113 0.864306 0.472289
O O4 0.403082 0.812882 0.926586
O O5 0.281587 0.925225 0.774557
O O6 0.340874 0.043633 0.220429
O O7 0.335265 0.425148 0.971567
O O8 0.105578 0.684031 0.159780
O O9 0.290730 0.717416 0.163458
O O10 0.164294 0.964336 0.973017
#
# Coordination Sequence:
#
# PCOD9346909 Si02
#       5
#     4   4   4   4   4
#     4  11  26  50  77 119 166 210 273 337 411 500
#     4  12  26  49  86 116 164 219 273 339 422 492
#     4  11  28  52  78 116 167 214 277 337 406 495
#     4  11  29  50  80 121 164 215 274 339 412 489
#     4  11  27  51  79 116 167 216 273 342 411 488
#
# _framework density 26.958248999999999
#
# number of rings (size 3 to 8) (size 9 to 14) (size 15 to 20)
#    0.000    0.800    4.000    0.000    8.400    6.400 
#    0.000    0.000    0.000    0.000    0.000    0.000 
#    0.000    0.000    0.000    0.000    0.000    0.000 
#
# Total GULP energy -112285.111606 kJ/mol
# GULP energy per Si atom -5614.255580 kJ/mol
# Density = 2.689689 g / cm^3
# Si number density = 26.958249 Si / 1000 Ang^3
#
#
#
# Elastic Constant Matrix: (Units=GPa)
#
#
# Indices 1 2 3 4 5 6 
#
# 1 81.3337 23.7079 43.5860 0.0000 0.0000 0.0000
# 2 23.7079 107.1187 25.0322 0.0000 0.0000 0.0000
# 3 43.5860 25.0322 165.2537 0.0000 0.0000 0.0000
# 4 0.0000 0.0000 0.0000 45.3880 0.0000 0.0000
# 5 0.0000 0.0000 0.0000 0.0000 55.5547 0.0000
# 6 0.0000 0.0000 0.0000 0.0000 0.0000 36.7771
#
#
#
# Elastic Compliance Matrix: (Units=1/GPa)
#
#
# Indices 1 2 3 4 5 6 
#
# 1 0.014924 -0.002471 -0.003562 0.000000 0.000000 0.000000
# 2 -0.002471 0.010087 -0.000876 0.000000 0.000000 0.000000
# 3 -0.003562 -0.000876 0.007124 0.000000 0.000000 0.000000
# 4 0.000000 0.000000 0.000000 0.022032 0.000000 0.000000
# 5 0.000000 0.000000 0.000000 0.000000 0.018000 0.000000
# 6 0.000000 0.000000 0.000000 0.000000 0.000000 0.027191
#
#
# Mechanical properties :
#
#
# Convention : Reuss Voigt Hill
#
# Bulk Modulus (GPa) = 54.59509 59.81758 57.20634
# Shear Modulus (GPa) = 41.91766 44.96929 43.44348
#
# Velocity S-wave (km/s) = 3.94751 4.08868 4.01872
# Velocity P-wave (km/s) = 6.40881 6.67285 6.54216
#
# Compressibility (1/GPa) = 0.01831667
#
# Stress axis : x y z
#
# Youngs Moduli (GPa) = 67.00601 99.13712 140.37992
#
# Poissons Ratio (x) = 0.24493 0.50003
# Poissons Ratio (y) = 0.16555 0.12302
# Poissons Ratio (z) = 0.23868 0.08688
#
# Static dielectric constant tensor:
#      x y z
#    x 2.090550 0.000000 0.000000 
#    y 0.000000 2.082450 0.000000 
#    z 0.000000 0.000000 2.082070 
# 
# From -- ./inp_files/4635.got.cif
#   From: 2010.05.17/outbox.cif.g08.bks.cpg/sg33_3_cif.got.tgz:4635.got - 2010.06.03 17:15:25.
