data_PCOD9346599
_publ_section_title
;
Structure prediction by ZEFSAII (Michael W. Deem and Ramdas Pophale) SiO2 
 PCOD9346599
Probable space group: P N A 21
;
_chemical_formula_sum "Si O2"
_cell_formula_units_Z 32
_cell_length_a 9.078091
_cell_length_b 20.028272
_cell_length_c 7.703082
_cell_angle_alpha 90.000000
_cell_angle_beta 90.000000
_cell_angle_gamma 90.000000
_cell_volume 1400.562628
_symmetry_space_group_name_H-M "P N A 21"
_symmetry_group_IT_number 33
_symmetry_cell_setting 'orthorhombic'
loop_
_space_group_symop_operation_xyz
x,y,z
-x,-y,1/2+z
1/2-x,1/2+y,1/2+z
1/2+x,1/2-y,z
loop_
_atom_site_type_symbol
_atom_site_label
_atom_site_fract_x
_atom_site_fract_y
_atom_site_fract_z
Si Si1 0.483868 0.649134 0.080250
Si Si2 0.134844 0.999138 0.554930
Si Si3 0.926035 0.875107 0.470879
Si Si4 0.519853 0.157053 0.254774
Si Si5 0.586407 0.066314 0.924272
Si Si6 0.188380 0.383286 0.587326
Si Si7 0.216087 0.515479 0.408429
Si Si8 0.814623 0.787902 0.772286
O O1 0.433326 0.572654 0.037437
O O2 0.459518 0.658566 0.286491
O O3 0.659025 0.654810 0.048815
O O4 0.383295 0.696210 0.961766
O O5 0.285842 0.987521 0.454251
O O6 0.034039 0.937662 0.499111
O O7 0.178663 0.990758 0.755578
O O8 0.769286 0.911295 0.457527
O O9 0.915478 0.829232 0.637061
O O10 0.562099 0.131249 0.447274
O O11 0.355900 0.189374 0.257402
O O12 0.647564 0.212194 0.224381
O O13 0.542425 0.101770 0.105255
O O14 0.638310 0.121767 0.785633
O O15 0.448774 0.026900 0.846484
O O16 0.223604 0.461917 0.559790
#
# Coordination Sequence:
#
# PCOD9346599 Si02
#       8
#     4   4   4   4   4   4   4   4
#     4  11  26  43  72 110 142 191 237 294 359 433
#     4  11  23  41  71 107 152 184 232 288 366 433
#     4  11  24  45  72 108 142 191 235 293 357 434
#     4  12  30  51  71 106 137 198 247 302 355 433
#     4  12  26  44  70 105 148 190 235 302 361 422
#     4  12  25  43  71 105 148 187 236 291 362 426
#     4  11  23  41  67 108 150 182 234 289 362 429
#     4  12  29  50  78  95 147 189 248 297 360 424
#
# _framework density 22.847958999999999
#
# number of rings (size 3 to 8) (size 9 to 14) (size 15 to 20)
#    0.000    0.500    5.000    2.250   10.500    1.000 
#    0.000    0.000    0.000    0.000    0.000    0.000 
#    0.000    0.000    0.000    0.000    0.000    0.000 
#
# Total GULP energy -178954.003124 kJ/mol
# GULP energy per Si atom -5592.312598 kJ/mol
# Density = 2.279596 g / cm^3
# Si number density = 22.847959 Si / 1000 Ang^3
#
#
#
# Elastic Constant Matrix: (Units=GPa)
#
#
# Indices 1 2 3 4 5 6 
#
# 1 117.6077 9.8898 15.6076 0.0000 0.0000 0.0000
# 2 9.8898 19.7694 17.9434 0.0000 0.0000 0.0000
# 3 15.6076 17.9434 95.5896 0.0000 0.0000 0.0000
# 4 0.0000 0.0000 0.0000 18.7120 0.0000 0.0000
# 5 0.0000 0.0000 0.0000 0.0000 14.1164 0.0000
# 6 0.0000 0.0000 0.0000 0.0000 0.0000 30.1909
#
#
#
# Elastic Compliance Matrix: (Units=1/GPa)
#
#
# Indices 1 2 3 4 5 6 
#
# 1 0.008920 -0.003785 -0.000746 0.000000 0.000000 0.000000
# 2 -0.003785 0.062578 -0.011129 0.000000 0.000000 0.000000
# 3 -0.000746 -0.011129 0.012672 0.000000 0.000000 0.000000
# 4 0.000000 0.000000 0.000000 0.053442 0.000000 0.000000
# 5 0.000000 0.000000 0.000000 0.000000 0.070840 0.000000
# 6 0.000000 0.000000 0.000000 0.000000 0.000000 0.033123
#
#
# Mechanical properties :
#
#
# Convention : Reuss Voigt Hill
#
# Bulk Modulus (GPa) = 18.92140 35.53872 27.23006
# Shear Modulus (GPa) = 17.21111 25.23893 21.22502
#
# Velocity S-wave (km/s) = 2.74759 3.32723 3.05120
# Velocity P-wave (km/s) = 4.28545 5.50898 4.93528
#
# Compressibility (1/GPa) = 0.05285020
#
# Stress axis : x y z
#
# Youngs Moduli (GPa) = 112.10575 15.98016 78.91320
#
# Poissons Ratio (x) = 0.06049 0.05886
# Poissons Ratio (y) = 0.42437 0.87819
# Poissons Ratio (z) = 0.08362 0.17784
#
# Static dielectric constant tensor:
#      x y z
#    x 1.929010 0.000000 0.000000 
#    y 0.000000 1.881310 0.000000 
#    z 0.000000 0.000000 1.852840 
# 
# From -- ./inp_files/3499.got.cif
#   From: 2010.05.17/outbox.cif.g08.bks.cpg/sg33_2_cif.got.tgz:3499.got - 2010.06.03 17:15:25.
