data_PCOD9346208
_publ_section_title
;
Structure prediction by ZEFSAII (Michael W. Deem and Ramdas Pophale) SiO2 
 PCOD9346208
Probable space group: P N A 21
;
_chemical_formula_sum "Si O2"
_cell_formula_units_Z 16
_cell_length_a 14.186973
_cell_length_b 6.810709
_cell_length_c 7.124060
_cell_angle_alpha 90.000000
_cell_angle_beta 90.000000
_cell_angle_gamma 90.000000
_cell_volume 688.350505
_symmetry_space_group_name_H-M "P N A 21"
_symmetry_group_IT_number 33
_symmetry_cell_setting 'orthorhombic'
loop_
_space_group_symop_operation_xyz
x,y,z
-x,-y,1/2+z
1/2-x,1/2+y,1/2+z
1/2+x,1/2-y,z
loop_
_atom_site_type_symbol
_atom_site_label
_atom_site_fract_x
_atom_site_fract_y
_atom_site_fract_z
Si Si1 0.448235 0.549044 0.212700
Si Si2 0.352621 0.833921 0.918050
Si Si3 0.797285 0.870998 0.530496
Si Si4 0.395079 0.259818 0.923947
O O1 0.385108 0.593607 0.394565
O O2 0.552839 0.613550 0.267120
O O3 0.408308 0.687166 0.049616
O O4 0.434050 0.333118 0.126175
O O5 0.321372 0.729358 0.727104
O O6 0.413414 0.031029 0.883297
O O7 0.261943 0.925358 0.026410
O O8 0.717983 0.726802 0.437062
#
# Coordination Sequence:
#
# PCOD9346208 Si02
#       4
#     4   4   4   4
#     4  12  26  44  74 104 148 191 241 308 368 437
#     4  10  25  45  72 105 141 192 241 310 354 443
#     4  10  23  49  69 102 142 194 242 297 368 437
#     4  10  26  46  67 109 141 189 242 301 364 443
#
# _framework density 23.243971999999999
#
# number of rings (size 3 to 8) (size 9 to 14) (size 15 to 20)
#    1.500    0.000    2.500    0.000   10.500    0.000 
#    0.000    0.000    0.000    0.000    0.000    0.000 
#    0.000    0.000    0.000    0.000    0.000    0.000 
#
# Total GULP energy -89371.280017 kJ/mol
# GULP energy per Si atom -5585.705001 kJ/mol
# Density = 2.319107 g / cm^3
# Si number density = 23.243972 Si / 1000 Ang^3
#
#
#
# Elastic Constant Matrix: (Units=GPa)
#
#
# Indices 1 2 3 4 5 6 
#
# 1 99.2932 49.1935 57.1345 0.0000 0.0000 0.0000
# 2 49.1935 124.5450 81.9328 0.0000 0.0000 0.0000
# 3 57.1345 81.9328 179.7721 0.0000 0.0000 0.0000
# 4 0.0000 0.0000 0.0000 50.7103 0.0000 0.0000
# 5 0.0000 0.0000 0.0000 0.0000 52.0461 0.0000
# 6 0.0000 0.0000 0.0000 0.0000 0.0000 25.1108
#
#
#
# Elastic Compliance Matrix: (Units=1/GPa)
#
#
# Indices 1 2 3 4 5 6 
#
# 1 0.013336 -0.003541 -0.002625 0.000000 0.000000 0.000000
# 2 -0.003541 0.012408 -0.004530 0.000000 0.000000 0.000000
# 3 -0.002625 -0.004530 0.008461 0.000000 0.000000 0.000000
# 4 0.000000 0.000000 0.000000 0.019720 0.000000 0.000000
# 5 0.000000 0.000000 0.000000 0.000000 0.019214 0.000000
# 6 0.000000 0.000000 0.000000 0.000000 0.000000 0.039824
#
#
# Mechanical properties :
#
#
# Convention : Reuss Voigt Hill
#
# Bulk Modulus (GPa) = 78.03635 86.68132 82.35883
# Shear Modulus (GPa) = 36.06911 39.93006 37.99958
#
# Velocity S-wave (km/s) = 3.94351 4.14921 4.04767
# Velocity P-wave (km/s) = 7.37433 7.76708 7.57325
#
# Compressibility (1/GPa) = 0.01281454
#
# Stress axis : x y z
#
# Youngs Moduli (GPa) = 74.98712 80.59584 118.18803
#
# Poissons Ratio (x) = 0.28538 0.31019
# Poissons Ratio (y) = 0.26552 0.53534
# Poissons Ratio (z) = 0.19681 0.36506
#
# Static dielectric constant tensor:
#      x y z
#    x 1.899600 0.000000 0.000000 
#    y 0.000000 1.903730 0.000000 
#    z 0.000000 0.000000 1.843320 
# 
# From -- ./inp_files/1203.got.cif
#   From: 2010.05.17/outbox.cif.g08.bks.cpg/sg33_1_cif.got.tgz:1203.got - 2010.06.03 17:15:25.
