data_PCOD9346413
_publ_section_title
;
Structure prediction by ZEFSAII (Michael W. Deem and Ramdas Pophale) SiO2 
 PCOD9346413
Probable space group: P N A 21
;
_chemical_formula_sum "Si O2"
_cell_formula_units_Z 32
_cell_length_a 9.633565
_cell_length_b 7.078839
_cell_length_c 18.716636
_cell_angle_alpha 90.000000
_cell_angle_beta 90.000000
_cell_angle_gamma 90.000000
_cell_volume 1276.370803
_symmetry_space_group_name_H-M "P N A 21"
_symmetry_group_IT_number 33
_symmetry_cell_setting 'orthorhombic'
loop_
_space_group_symop_operation_xyz
x,y,z
-x,-y,1/2+z
1/2-x,1/2+y,1/2+z
1/2+x,1/2-y,z
loop_
_atom_site_type_symbol
_atom_site_label
_atom_site_fract_x
_atom_site_fract_y
_atom_site_fract_z
Si Si1 0.166457 0.172781 0.122380
Si Si2 0.335801 0.866478 0.364158
Si Si3 0.459991 0.475977 0.832744
Si Si4 0.186821 0.387869 0.524689
Si Si5 0.197989 0.904992 0.743928
Si Si6 0.081057 0.366040 0.371127
Si Si7 0.201901 0.481372 0.024780
Si Si8 0.579753 0.403405 0.622192
O O1 0.254120 0.239106 0.190904
O O2 0.111111 0.363514 0.082645
O O3 0.250467 0.069165 0.060627
O O4 0.060108 0.006539 0.142514
O O5 0.427625 0.681562 0.351381
O O6 0.307492 0.889513 0.447951
O O7 0.189877 0.880498 0.322538
O O8 0.437820 0.040089 0.346835
O O9 0.541992 0.600930 0.774336
O O10 0.430519 0.643144 0.888392
O O11 0.125415 0.444617 0.448278
O O12 0.081992 0.295835 0.582983
O O13 0.298057 0.212141 0.516117
O O14 0.303837 0.903980 0.810292
O O15 0.184523 0.085366 0.689912
O O16 0.353320 0.463553 0.061205
#
# Coordination Sequence:
#
# PCOD9346413 Si02
#       8
#     4   4   4   4   4   4   4   4
#     4  11  24  48  79 107 162 217 261 336 410 481
#     4  12  28  46  81 124 164 216 264 349 413 487
#     4  12  27  49  75 119 161 207 272 325 413 490
#     4  10  25  45  77 118 153 210 272 334 406 493
#     4  11  26  53  78 109 166 214 268 342 412 483
#     4  12  27  49  83 120 164 213 275 351 410 490
#     4   9  24  42  72 115 153 202 262 325 399 487
#     4   9  23  48  71 112 155 207 272 326 399 503
#
# _framework density 25.071083999999999
#
# number of rings (size 3 to 8) (size 9 to 14) (size 15 to 20)
#    0.750    0.500    1.250    2.250    8.750    1.000 
#   11.250    0.000    0.000    0.000    0.000    0.000 
#    0.000    0.000    0.000    0.000    0.000    0.000 
#
# Total GULP energy -178528.017536 kJ/mol
# GULP energy per Si atom -5579.000548 kJ/mol
# Density = 2.501402 g / cm^3
# Si number density = 25.071084 Si / 1000 Ang^3
#
#
#
# Elastic Constant Matrix: (Units=GPa)
#
#
# Indices 1 2 3 4 5 6 
#
# 1 141.1803 58.8686 57.4656 0.0000 0.0000 0.0000
# 2 58.8686 130.5767 42.5395 0.0000 0.0000 0.0000
# 3 57.4656 42.5395 137.5047 0.0000 0.0000 0.0000
# 4 0.0000 0.0000 0.0000 43.0808 0.0000 0.0000
# 5 0.0000 0.0000 0.0000 0.0000 22.6111 0.0000
# 6 0.0000 0.0000 0.0000 0.0000 0.0000 33.7108
#
#
#
# Elastic Compliance Matrix: (Units=1/GPa)
#
#
# Indices 1 2 3 4 5 6 
#
# 1 0.009729 -0.003405 -0.003013 0.000000 0.000000 0.000000
# 2 -0.003405 0.009708 -0.001580 0.000000 0.000000 0.000000
# 3 -0.003013 -0.001580 0.009020 0.000000 0.000000 0.000000
# 4 0.000000 0.000000 0.000000 0.023212 0.000000 0.000000
# 5 0.000000 0.000000 0.000000 0.000000 0.044226 0.000000
# 6 0.000000 0.000000 0.000000 0.000000 0.000000 0.029664
#
#
# Mechanical properties :
#
#
# Convention : Reuss Voigt Hill
#
# Bulk Modulus (GPa) = 80.24401 80.77880 80.51140
# Shear Modulus (GPa) = 34.31474 36.57306 35.44390
#
# Velocity S-wave (km/s) = 3.70361 3.82353 3.76405
# Velocity P-wave (km/s) = 7.09683 7.19600 7.14659
#
# Compressibility (1/GPa) = 0.01246199
#
# Stress axis : x y z
#
# Youngs Moduli (GPa) = 102.78452 103.00556 110.85902
#
# Poissons Ratio (x) = 0.35071 0.33398
# Poissons Ratio (y) = 0.34996 0.17521
# Poissons Ratio (z) = 0.30965 0.16280
#
# Static dielectric constant tensor:
#      x y z
#    x 2.027470 0.000000 0.000000 
#    y 0.000000 1.967720 0.000000 
#    z 0.000000 0.000000 2.052480 
# 
# From -- ./inp_files/8970.got.cif
#   From: 2010.05.17/outbox.cif.g08.bks.cpg/sg33_5_cif.got.tgz:8970.got - 2010.06.03 17:15:25.
