data_PCOD9346206
_publ_section_title
;
Structure prediction by ZEFSAII (Michael W. Deem and Ramdas Pophale) SiO2 
 PCOD9346206
Probable space group: P N A 21
;
_chemical_formula_sum "Si O2"
_cell_formula_units_Z 32
_cell_length_a 13.672045
_cell_length_b 9.609352
_cell_length_c 11.384245
_cell_angle_alpha 90.000000
_cell_angle_beta 90.000000
_cell_angle_gamma 90.000000
_cell_volume 1495.656336
_symmetry_space_group_name_H-M "P N A 21"
_symmetry_group_IT_number 33
_symmetry_cell_setting 'orthorhombic'
loop_
_space_group_symop_operation_xyz
x,y,z
-x,-y,1/2+z
1/2-x,1/2+y,1/2+z
1/2+x,1/2-y,z
loop_
_atom_site_type_symbol
_atom_site_label
_atom_site_fract_x
_atom_site_fract_y
_atom_site_fract_z
Si Si1 0.818613 0.870629 0.961880
Si Si2 0.332800 0.918052 0.830867
Si Si3 0.662132 0.376617 0.740762
Si Si4 0.269058 0.375107 0.836935
Si Si5 0.147385 0.647344 0.504853
Si Si6 0.847896 0.975361 0.606711
Si Si7 0.037825 0.929659 0.882871
Si Si8 0.009236 0.267358 0.193905
O O1 0.802014 0.725787 0.894080
O O2 0.925633 0.926508 0.922853
O O3 0.745623 0.988862 0.914057
O O4 0.825919 0.858312 0.101732
O O5 0.410917 0.879692 0.732161
O O6 0.244370 0.010543 0.780717
O O7 0.382057 0.013672 0.929365
O O8 0.681857 0.228577 0.801360
O O9 0.564561 0.444816 0.793822
O O10 0.336617 0.276541 0.917540
O O11 0.317706 0.427993 0.715840
O O12 0.251138 0.606862 0.564112
O O13 0.067688 0.682604 0.600280
O O14 0.928336 0.863159 0.645941
O O15 0.893160 0.056708 0.496030
O O16 0.048247 0.788929 0.808063
#
# Coordination Sequence:
#
# PCOD9346206 Si02
#       8
#     4   4   4   4   4   4   4   4
#     4  11  24  43  71 103 138 183 240 288 353 429
#     4  10  23  49  65 104 143 180 238 284 357 421
#     4  11  24  42  71 103 138 180 233 297 350 419
#     4  11  23  43  69 102 130 182 235 284 346 423
#     4  11  25  48  70 104 148 179 234 301 346 416
#     4  12  23  44  75 103 140 187 235 285 355 423
#     4  11  22  43  70  99 138 182 232 288 348 418
#     4  11  26  44  73 104 139 191 233 293 351 429
#
# _framework density 21.395288999999998
#
# number of rings (size 3 to 8) (size 9 to 14) (size 15 to 20)
#    0.000    1.000    5.000    3.000    3.500    0.000 
#   11.250    1.250    0.000    0.000    0.000    0.000 
#    0.000    0.000    0.000    0.000    0.000    0.000 
#
# Total GULP energy -178952.364909 kJ/mol
# GULP energy per Si atom -5592.261403 kJ/mol
# Density = 2.134659 g / cm^3
# Si number density = 21.395289 Si / 1000 Ang^3
#
#
#
# Elastic Constant Matrix: (Units=GPa)
#
#
# Indices 1 2 3 4 5 6 
#
# 1 70.0633 24.9635 27.5941 0.0000 0.0000 0.0000
# 2 24.9635 104.5729 27.7246 0.0000 0.0000 0.0000
# 3 27.5941 27.7246 110.0049 0.0000 0.0000 0.0000
# 4 0.0000 0.0000 0.0000 37.2435 0.0000 0.0000
# 5 0.0000 0.0000 0.0000 0.0000 45.7290 0.0000
# 6 0.0000 0.0000 0.0000 0.0000 0.0000 24.7394
#
#
#
# Elastic Compliance Matrix: (Units=1/GPa)
#
#
# Indices 1 2 3 4 5 6 
#
# 1 0.016717 -0.003085 -0.003416 0.000000 0.000000 0.000000
# 2 -0.003085 0.010817 -0.001952 0.000000 0.000000 0.000000
# 3 -0.003416 -0.001952 0.010439 0.000000 0.000000 0.000000
# 4 0.000000 0.000000 0.000000 0.026850 0.000000 0.000000
# 5 0.000000 0.000000 0.000000 0.000000 0.021868 0.000000
# 6 0.000000 0.000000 0.000000 0.000000 0.000000 0.040421
#
#
# Mechanical properties :
#
#
# Convention : Reuss Voigt Hill
#
# Bulk Modulus (GPa) = 47.46773 49.46727 48.46750
# Shear Modulus (GPa) = 33.10333 35.16629 34.13481
#
# Velocity S-wave (km/s) = 3.93775 4.05859 3.99862
# Velocity P-wave (km/s) = 6.55047 6.71816 6.63485
#
# Compressibility (1/GPa) = 0.02106694
#
# Stress axis : x y z
#
# Youngs Moduli (GPa) = 59.81797 92.44895 95.79093
#
# Poissons Ratio (x) = 0.28522 0.32721
# Poissons Ratio (y) = 0.18455 0.18701
# Poissons Ratio (z) = 0.20433 0.18049
#
# Static dielectric constant tensor:
#      x y z
#    x 1.791570 0.000000 0.000000 
#    y 0.000000 1.773830 0.000000 
#    z 0.000000 0.000000 1.798750 
# 
# From -- ./inp_files/6763.got.cif
#   From: 2010.05.17/outbox.cif.g08.bks.cpg/sg33_4_cif.got.tgz:6763.got - 2010.06.03 17:15:25.
