data_PCOD9346604
_publ_section_title
;
Structure prediction by ZEFSAII (Michael W. Deem and Ramdas Pophale) SiO2 
 PCOD9346604
Probable space group: P N A 21
;
_chemical_formula_sum "Si O2"
_cell_formula_units_Z 24
_cell_length_a 9.991990
_cell_length_b 6.459770
_cell_length_c 17.336085
_cell_angle_alpha 90.000000
_cell_angle_beta 90.000000
_cell_angle_gamma 90.000000
_cell_volume 1118.974201
_symmetry_space_group_name_H-M "P N A 21"
_symmetry_group_IT_number 33
_symmetry_cell_setting 'orthorhombic'
loop_
_space_group_symop_operation_xyz
x,y,z
-x,-y,1/2+z
1/2-x,1/2+y,1/2+z
1/2+x,1/2-y,z
loop_
_atom_site_type_symbol
_atom_site_label
_atom_site_fract_x
_atom_site_fract_y
_atom_site_fract_z
Si Si1 0.337357 0.169189 0.685860
Si Si2 0.604065 0.384270 0.461743
Si Si3 0.197288 0.807207 0.591032
Si Si4 0.468933 0.160430 0.225619
Si Si5 0.825995 0.091565 0.528029
Si Si6 0.199654 0.050333 0.289925
O O1 0.367498 0.293564 0.607434
O O2 0.277988 0.331759 0.746647
O O3 0.252591 0.975685 0.652515
O O4 0.461341 0.062466 0.728298
O O5 0.636529 0.564997 0.521746
O O6 0.689059 0.187965 0.493317
O O7 0.444513 0.362158 0.468036
O O8 0.654915 0.450178 0.378020
O O9 0.087241 0.682777 0.639226
O O10 0.300661 0.644123 0.554373
O O11 0.579383 0.331688 0.245573
O O12 0.339921 0.169249 0.280182
#
# Coordination Sequence:
#
# PCOD9346604 Si02
#       6
#     4   4   4   4   4   4
#     4  11  23  41  72  99 132 180 240 286 340 419
#     4  11  26  43  70 104 142 181 230 292 360 417
#     4  11  23  44  71 101 132 185 237 287 345 424
#     4  12  24  45  70  98 140 181 241 285 353 426
#     4  11  23  46  72  99 140 183 237 286 352 428
#     4  12  27  43  69 107 142 186 231 296 360 414
#
# _framework density 21.448217
#
# number of rings (size 3 to 8) (size 9 to 14) (size 15 to 20)
#    0.000    0.667    3.333    4.000    4.667    4.000 
#    0.000    0.000    0.000    0.000    0.000    0.000 
#    0.000    0.000    0.000    0.000    0.000    0.000 
#
# Total GULP energy -134101.998822 kJ/mol
# GULP energy per Si atom -5587.583284 kJ/mol
# Density = 2.139940 g / cm^3
# Si number density = 21.448217 Si / 1000 Ang^3
#
#
#
# Elastic Constant Matrix: (Units=GPa)
#
#
# Indices 1 2 3 4 5 6 
#
# 1 101.6425 27.0007 -1.9971 0.0000 0.0000 0.0000
# 2 27.0007 83.0042 7.4977 0.0000 0.0000 0.0000
# 3 -1.9971 7.4977 87.8478 0.0000 0.0000 0.0000
# 4 0.0000 0.0000 0.0000 13.4192 0.0000 0.0000
# 5 0.0000 0.0000 0.0000 0.0000 27.5951 0.0000
# 6 0.0000 0.0000 0.0000 0.0000 0.0000 32.8895
#
#
#
# Elastic Compliance Matrix: (Units=1/GPa)
#
#
# Indices 1 2 3 4 5 6 
#
# 1 0.010795 -0.003561 0.000549 0.000000 0.000000 0.000000
# 2 -0.003561 0.013316 -0.001217 0.000000 0.000000 0.000000
# 3 0.000549 -0.001217 0.011500 0.000000 0.000000 0.000000
# 4 0.000000 0.000000 0.000000 0.074520 0.000000 0.000000
# 5 0.000000 0.000000 0.000000 0.000000 0.036238 0.000000
# 6 0.000000 0.000000 0.000000 0.000000 0.000000 0.030405
#
#
# Mechanical properties :
#
#
# Convention : Reuss Voigt Hill
#
# Bulk Modulus (GPa) = 36.82934 37.49968 37.16451
# Shear Modulus (GPa) = 25.73554 30.78030 28.25792
#
# Velocity S-wave (km/s) = 3.46770 3.79238 3.63367
# Velocity P-wave (km/s) = 5.76557 6.05788 5.91354
#
# Compressibility (1/GPa) = 0.02715226
#
# Stress axis : x y z
#
# Youngs Moduli (GPa) = 92.63363 75.09765 86.95866
#
# Poissons Ratio (x) = 0.26744 -0.04777
# Poissons Ratio (y) = 0.32989 0.10587
# Poissons Ratio (z) = -0.05089 0.09143
#
# Static dielectric constant tensor:
#      x y z
#    x 1.824850 0.000000 0.000000 
#    y 0.000000 1.776350 0.000000 
#    z 0.000000 0.000000 1.751820 
# 
# From -- ./inp_files/8421.got.cif
#   From: 2010.05.17/outbox.cif.g08.bks.cpg/sg33_5_cif.got.tgz:8421.got - 2010.06.03 17:15:25.
