data_PCOD9346359
_publ_section_title
;
Structure prediction by ZEFSAII (Michael W. Deem and Ramdas Pophale) SiO2 
 PCOD9346359
Probable space group: P N A 21
;
_chemical_formula_sum "Si O2"
_cell_formula_units_Z 28
_cell_length_a 20.865970
_cell_length_b 6.565285
_cell_length_c 8.471287
_cell_angle_alpha 90.000000
_cell_angle_beta 90.000000
_cell_angle_gamma 90.000000
_cell_volume 1160.490415
_symmetry_space_group_name_H-M "P N A 21"
_symmetry_group_IT_number 33
_symmetry_cell_setting 'orthorhombic'
loop_
_space_group_symop_operation_xyz
x,y,z
-x,-y,1/2+z
1/2-x,1/2+y,1/2+z
1/2+x,1/2-y,z
loop_
_atom_site_type_symbol
_atom_site_label
_atom_site_fract_x
_atom_site_fract_y
_atom_site_fract_z
Si Si1 0.419332 0.766300 0.472550
Si Si2 0.353026 0.681335 0.791409
Si Si3 0.985574 0.322215 0.518189
Si Si4 0.128802 0.505576 0.525037
Si Si5 0.287608 0.385405 0.991129
Si Si6 0.522024 0.532543 0.327789
Si Si7 0.809720 0.804819 0.259307
O O1 0.378710 0.684243 0.617000
O O2 0.490060 0.677521 0.456516
O O3 0.382217 0.671092 0.323646
O O4 0.430718 0.007220 0.493916
O O5 0.293290 0.556464 0.852362
O O6 0.408422 0.547837 0.875295
O O7 0.355100 0.908513 0.854722
O O8 0.986233 0.185001 0.357990
O O9 0.054281 0.437221 0.547764
O O10 0.975876 0.170156 0.668632
O O11 0.152959 0.734513 0.523741
O O12 0.176089 0.384613 0.643195
O O13 0.232209 0.247353 0.913374
O O14 0.280593 0.514986 0.152430
#
# Coordination Sequence:
#
# PCOD9346359 Si02
#       7
#     4   4   4   4   4   4   4
#     4  12  26  43  71 108 147 189 252 295 381 449
#     4  10  25  43  70 106 142 192 241 299 372 449
#     4  11  25  43  71 105 149 192 237 305 371 450
#     4  10  24  47  71 103 146 190 242 297 381 432
#     4  11  27  50  75 100 149 190 249 320 361 453
#     4  11  23  44  67 106 144 187 242 299 364 449
#     4  11  28  48  73 110 139 198 253 305 382 440
#
# _framework density 24.127728000000001
#
# number of rings (size 3 to 8) (size 9 to 14) (size 15 to 20)
#    0.000    1.143    2.857    0.857   10.000    3.429 
#    0.000    0.000    0.000    0.000    0.000    0.000 
#    0.000    0.000    0.000    0.000    0.000    0.000 
#
# Total GULP energy -155922.819952 kJ/mol
# GULP energy per Si atom -5568.672141 kJ/mol
# Density = 2.407281 g / cm^3
# Si number density = 24.127728 Si / 1000 Ang^3
#
#
#
# Elastic Constant Matrix: (Units=GPa)
#
#
# Indices 1 2 3 4 5 6 
#
# 1 56.4799 36.3106 33.1487 0.0000 0.0000 0.0000
# 2 36.3106 112.9414 50.0622 0.0000 0.0000 0.0000
# 3 33.1487 50.0622 89.2498 0.0000 0.0000 0.0000
# 4 0.0000 0.0000 0.0000 31.8275 0.0000 0.0000
# 5 0.0000 0.0000 0.0000 0.0000 32.0726 0.0000
# 6 0.0000 0.0000 0.0000 0.0000 0.0000 19.8461
#
#
#
# Elastic Compliance Matrix: (Units=1/GPa)
#
#
# Indices 1 2 3 4 5 6 
#
# 1 0.024710 -0.005159 -0.006284 0.000000 0.000000 0.000000
# 2 -0.005159 0.012861 -0.005298 0.000000 0.000000 0.000000
# 3 -0.006284 -0.005298 0.016510 0.000000 0.000000 0.000000
# 4 0.000000 0.000000 0.000000 0.031419 0.000000 0.000000
# 5 0.000000 0.000000 0.000000 0.000000 0.031179 0.000000
# 6 0.000000 0.000000 0.000000 0.000000 0.000000 0.050388
#
#
# Mechanical properties :
#
#
# Convention : Reuss Voigt Hill
#
# Bulk Modulus (GPa) = 48.54420 55.30156 51.92288
# Shear Modulus (GPa) = 24.10611 26.02586 25.06599
#
# Velocity S-wave (km/s) = 3.16429 3.28787 3.22667
# Velocity P-wave (km/s) = 5.78910 6.11421 5.95387
#
# Compressibility (1/GPa) = 0.02059978
#
# Stress axis : x y z
#
# Youngs Moduli (GPa) = 40.46918 77.75376 60.56847
#
# Poissons Ratio (x) = 0.40112 0.38061
# Poissons Ratio (y) = 0.20878 0.32089
# Poissons Ratio (z) = 0.25431 0.41194
#
# Static dielectric constant tensor:
#      x y z
#    x 2.045560 0.000000 0.000000 
#    y 0.000000 1.970580 0.000000 
#    z 0.000000 0.000000 1.993330 
# 
# From -- ./inp_files/5160.got.cif
#   From: 2010.05.17/outbox.cif.g08.bks.cpg/sg33_3_cif.got.tgz:5160.got - 2010.06.03 17:15:25.
