data_PCOD9346562
_publ_section_title
;
Structure prediction by ZEFSAII (Michael W. Deem and Ramdas Pophale) SiO2 
 PCOD9346562
Probable space group: P N A 21
;
_chemical_formula_sum "Si O2"
_cell_formula_units_Z 16
_cell_length_a 9.298066
_cell_length_b 10.645057
_cell_length_c 7.480615
_cell_angle_alpha 90.000000
_cell_angle_beta 90.000000
_cell_angle_gamma 90.000000
_cell_volume 740.419622
_symmetry_space_group_name_H-M "P N A 21"
_symmetry_group_IT_number 33
_symmetry_cell_setting 'orthorhombic'
loop_
_space_group_symop_operation_xyz
x,y,z
-x,-y,1/2+z
1/2-x,1/2+y,1/2+z
1/2+x,1/2-y,z
loop_
_atom_site_type_symbol
_atom_site_label
_atom_site_fract_x
_atom_site_fract_y
_atom_site_fract_z
Si Si1 0.065245 0.485637 0.447510
Si Si2 0.161742 0.249653 0.213736
Si Si3 0.738900 0.008015 0.819309
Si Si4 0.410704 0.264371 0.961358
O O1 0.103441 0.366699 0.325471
O O2 0.150973 0.475428 0.633786
O O3 0.108117 0.625514 0.379929
O O4 0.891476 0.493382 0.461070
O O5 0.168612 0.118986 0.318397
O O6 0.323628 0.272911 0.148289
O O7 0.073670 0.226681 0.029753
O O8 0.844867 0.124424 0.846815
#
# Coordination Sequence:
#
# PCOD9346562 Si02
#       4
#     4   4   4   4
#     4  11  22  44  69  97 138 182 216 291 340 399
#     4  11  23  44  68  96 140 175 229 281 337 405
#     4  11  24  43  71 101 139 181 228 279 349 410
#     4  11  23  45  66  98 139 176 225 287 332 414
#
# _framework density 21.609368
#
# number of rings (size 3 to 8) (size 9 to 14) (size 15 to 20)
#    0.000    1.000    7.500    0.000    0.000    8.000 
#    4.500    0.000    0.000    0.000    0.000    0.000 
#    0.000    0.000    0.000    0.000    0.000    0.000 
#
# Total GULP energy -89287.810671 kJ/mol
# GULP energy per Si atom -5580.488167 kJ/mol
# Density = 2.156018 g / cm^3
# Si number density = 21.609368 Si / 1000 Ang^3
#
#
#
# Elastic Constant Matrix: (Units=GPa)
#
#
# Indices 1 2 3 4 5 6 
#
# 1 59.5827 58.1347 15.6392 0.0000 0.0000 0.0000
# 2 58.1347 218.8358 55.7438 0.0000 0.0000 0.0000
# 3 15.6392 55.7438 52.8520 0.0000 0.0000 0.0000
# 4 0.0000 0.0000 0.0000 39.3304 0.0000 0.0000
# 5 0.0000 0.0000 0.0000 0.0000 39.7134 0.0000
# 6 0.0000 0.0000 0.0000 0.0000 0.0000 38.0443
#
#
#
# Elastic Compliance Matrix: (Units=1/GPa)
#
#
# Indices 1 2 3 4 5 6 
#
# 1 0.022665 -0.005897 -0.000487 0.000000 0.000000 0.000000
# 2 -0.005897 0.007783 -0.006464 0.000000 0.000000 0.000000
# 3 -0.000487 -0.006464 0.025882 0.000000 0.000000 0.000000
# 4 0.000000 0.000000 0.000000 0.025426 0.000000 0.000000
# 5 0.000000 0.000000 0.000000 0.000000 0.025180 0.000000
# 6 0.000000 0.000000 0.000000 0.000000 0.000000 0.026285
#
#
# Mechanical properties :
#
#
# Convention : Reuss Voigt Hill
#
# Bulk Modulus (GPa) = 32.64295 65.58955 49.11625
# Shear Modulus (GPa) = 29.56353 36.86781 33.21567
#
# Velocity S-wave (km/s) = 3.70278 4.13498 3.92483
# Velocity P-wave (km/s) = 5.78096 7.29491 6.58161
#
# Compressibility (1/GPa) = 0.03063449
#
# Stress axis : x y z
#
# Youngs Moduli (GPa) = 44.12112 128.49117 38.63683
#
# Poissons Ratio (x) = 0.75771 0.01882
# Poissons Ratio (y) = 0.26018 0.24973
# Poissons Ratio (z) = 0.02149 0.83050
#
# Static dielectric constant tensor:
#      x y z
#    x 1.755310 0.000000 0.000000 
#    y 0.000000 1.796110 0.000000 
#    z 0.000000 0.000000 1.844640 
# 
# From -- ./inp_files/2897.got.cif
#   From: 2010.05.17/outbox.cif.g08.bks.cpg/sg33_2_cif.got.tgz:2897.got - 2010.06.03 17:15:25.
