data_PCOD9346342
_publ_section_title
;
Structure prediction by ZEFSAII (Michael W. Deem and Ramdas Pophale) SiO2 
 PCOD9346342
Probable space group: P N A 21
;
_chemical_formula_sum "Si O2"
_cell_formula_units_Z 28
_cell_length_a 9.394723
_cell_length_b 18.046162
_cell_length_c 6.725413
_cell_angle_alpha 90.000000
_cell_angle_beta 90.000000
_cell_angle_gamma 90.000000
_cell_volume 1140.217731
_symmetry_space_group_name_H-M "P N A 21"
_symmetry_group_IT_number 33
_symmetry_cell_setting 'orthorhombic'
loop_
_space_group_symop_operation_xyz
x,y,z
-x,-y,1/2+z
1/2-x,1/2+y,1/2+z
1/2+x,1/2-y,z
loop_
_atom_site_type_symbol
_atom_site_label
_atom_site_fract_x
_atom_site_fract_y
_atom_site_fract_z
Si Si1 0.056380 0.469988 0.660180
Si Si2 0.514021 0.397495 0.658158
Si Si3 0.248360 0.377269 0.946945
Si Si4 0.390742 0.111596 0.392670
Si Si5 0.688858 0.749735 0.700941
Si Si6 0.931249 0.749044 0.942213
Si Si7 0.814180 0.028296 0.340261
O O1 0.117331 0.414907 0.830434
O O2 0.179911 0.471152 0.490697
O O3 0.902376 0.444660 0.578469
O O4 0.049191 0.554281 0.732647
O O5 0.383303 0.386249 0.805455
O O6 0.572094 0.318090 0.586417
O O7 0.629188 0.449135 0.763740
O O8 0.448324 0.438402 0.465147
O O9 0.246106 0.290465 0.010985
O O10 0.282004 0.419924 0.151375
O O11 0.289223 0.162628 0.252879
O O12 0.479398 0.177231 0.498427
O O13 0.776801 0.718474 0.888970
O O14 0.522868 0.732088 0.740085
#
# Coordination Sequence:
#
# PCOD9346342 Si02
#       7
#     4   4   4   4   4   4   4
#     4  11  27  44  76 106 147 205 252 317 384 462
#     4  11  23  41  74 109 145 195 243 311 382 450
#     4  11  24  46  76 104 147 202 246 316 394 440
#     4  10  26  49  68 108 151 193 259 309 376 456
#     4  10  24  46  75  98 155 192 245 319 368 447
#     4  10  24  46  71 102 150 193 238 323 363 450
#     4  11  22  42  70 111 147 182 259 309 371 461
#
# _framework density 24.556716000000002
#
# number of rings (size 3 to 8) (size 9 to 14) (size 15 to 20)
#    0.857    0.571    2.857    0.857    8.000    1.143 
#    7.714    0.000    0.000    0.000    0.000    0.000 
#    0.000    0.000    0.000    0.000    0.000    0.000 
#
# Total GULP energy -155876.385210 kJ/mol
# GULP energy per Si atom -5567.013758 kJ/mol
# Density = 2.450082 g / cm^3
# Si number density = 24.556716 Si / 1000 Ang^3
#
#
#
# Elastic Constant Matrix: (Units=GPa)
#
#
# Indices 1 2 3 4 5 6 
#
# 1 71.5577 23.5001 31.5796 0.0000 0.0000 0.0000
# 2 23.5001 111.4633 41.5110 0.0000 0.0000 0.0000
# 3 31.5796 41.5110 116.2623 0.0000 0.0000 0.0000
# 4 0.0000 0.0000 0.0000 67.7002 0.0000 0.0000
# 5 0.0000 0.0000 0.0000 0.0000 25.9463 0.0000
# 6 0.0000 0.0000 0.0000 0.0000 0.0000 -12.9090
#
#
#
# Elastic Compliance Matrix: (Units=1/GPa)
#
#
# Indices 1 2 3 4 5 6 
#
# 1 0.016278 -0.002059 -0.003686 0.000000 0.000000 0.000000
# 2 -0.002059 0.010608 -0.003228 0.000000 0.000000 0.000000
# 3 -0.003686 -0.003228 0.010755 0.000000 0.000000 0.000000
# 4 0.000000 0.000000 0.000000 0.014771 0.000000 0.000000
# 5 0.000000 0.000000 0.000000 0.000000 0.038541 0.000000
# 6 0.000000 0.000000 0.000000 0.000000 0.000000 -0.077465
#
#
# Mechanical properties :
#
#
# Convention : Reuss Voigt Hill
#
# Bulk Modulus (GPa) = 50.77751 54.71830 52.74791
# Shear Modulus (GPa) = 131.58155 29.66035 80.62095
#
# Velocity S-wave (km/s) = 7.32796 3.47916 5.73601
# Velocity P-wave (km/s) = 9.60840 6.20243 8.08676
#
# Compressibility (1/GPa) = 0.01969376
#
# Stress axis : x y z
#
# Youngs Moduli (GPa) = 61.43361 94.26904 92.97883
#
# Poissons Ratio (x) = 0.19410 0.34274
# Poissons Ratio (y) = 0.12650 0.30016
# Poissons Ratio (z) = 0.22646 0.30432
#
# Static dielectric constant tensor:
#      x y z
#    x 2.008660 0.000000 0.000000 
#    y 0.000000 1.999330 0.000000 
#    z 0.000000 0.000000 2.012060 
# 
# From -- ./inp_files/942.got.cif
#   From: 2010.05.17/outbox.cif.g08.bks.cpg/sg33_1_cif.got.tgz:942.got - 2010.06.03 17:15:25.
