data_PCOD9346017
_publ_section_title
;
Structure prediction by ZEFSAII (Michael W. Deem and Ramdas Pophale) SiO2 
 PCOD9346017
Probable space group: P N A 21
;
_chemical_formula_sum "Si O2"
_cell_formula_units_Z 32
_cell_length_a 9.134841
_cell_length_b 8.251919
_cell_length_c 18.489479
_cell_angle_alpha 90.000000
_cell_angle_beta 90.000000
_cell_angle_gamma 90.000000
_cell_volume 1393.736336
_symmetry_space_group_name_H-M "P N A 21"
_symmetry_group_IT_number 33
_symmetry_cell_setting 'orthorhombic'
loop_
_space_group_symop_operation_xyz
x,y,z
-x,-y,1/2+z
1/2-x,1/2+y,1/2+z
1/2+x,1/2-y,z
loop_
_atom_site_type_symbol
_atom_site_label
_atom_site_fract_x
_atom_site_fract_y
_atom_site_fract_z
Si Si1 0.562831 0.393866 0.511760
Si Si2 0.549008 0.525444 0.775439
Si Si3 0.668724 0.271137 0.665046
Si Si4 0.655682 0.431718 0.932603
Si Si5 0.844318 0.568282 0.479194
Si Si6 0.437169 0.893865 0.900037
Si Si7 0.668724 0.228863 0.246751
Si Si8 0.950992 0.474556 0.636358
O O1 0.594553 0.342514 0.592542
O O2 0.399537 0.451934 0.496547
O O3 0.674581 0.538589 0.494505
O O4 0.595841 0.250000 0.455899
O O5 0.603526 0.366318 0.733561
O O6 0.568456 0.488489 0.860542
O O7 0.389228 0.586959 0.750812
O O8 0.663396 0.669994 0.753764
O O9 0.836605 0.330006 0.658033
O O10 0.610773 0.086959 0.660984
O O11 0.627444 0.250000 0.955898
O O12 0.825419 0.461411 0.917291
O O13 0.931544 0.511512 0.551255
O O14 0.899537 0.451933 0.415250
O O15 0.405447 0.842512 0.819256
O O16 0.603525 0.133682 0.178237
#
# Coordination Sequence:
#
# PCOD9346017 Si02
#       8
#     4   4   4   4   4   4   4   4
#     4  11  22  41  65  90 124 165 211 255 315 374
#     4  10  23  43  62  92 127 164 209 256 309 375
#     4  10  23  41  62  91 125 165 208 255 308 372
#     4  11  24  40  63  94 127 162 208 264 314 368
#     4  11  24  40  63  94 127 162 208 264 314 368
#     4  11  22  41  65  90 124 165 211 255 315 374
#     4  10  23  41  62  91 125 165 208 255 308 372
#     4  10  23  43  62  92 127 164 209 256 309 375
#
# _framework density 22.959866999999999
#
# number of rings (size 3 to 8) (size 9 to 14) (size 15 to 20)
#    0.000    1.500    2.500    1.500    7.000    1.000 
#    4.500    0.000    0.000    0.000    0.000    0.000 
#    0.000    0.000    0.000    0.000    0.000    0.000 
#
# Total GULP energy -178847.326038 kJ/mol
# GULP energy per Si atom -5588.978939 kJ/mol
# Density = 2.290761 g / cm^3
# Si number density = 22.959867 Si / 1000 Ang^3
#
#
#
# Elastic Constant Matrix: (Units=GPa)
#
#
# Indices 1 2 3 4 5 6 
#
# 1 52.9250 17.8120 0.2639 0.0000 0.0000 0.0000
# 2 17.8120 53.6937 -10.9384 0.0000 0.0000 0.0000
# 3 0.2639 -10.9384 54.5390 0.0000 0.0000 0.0000
# 4 0.0000 0.0000 0.0000 26.0372 0.0000 0.0000
# 5 0.0000 0.0000 0.0000 0.0000 12.8956 0.0000
# 6 0.0000 0.0000 0.0000 0.0000 0.0000 33.3237
#
#
#
# Elastic Compliance Matrix: (Units=1/GPa)
#
#
# Indices 1 2 3 4 5 6 
#
# 1 0.021401 -0.007424 -0.001592 0.000000 0.000000 0.000000
# 2 -0.007424 0.021993 0.004447 0.000000 0.000000 0.000000
# 3 -0.001592 0.004447 0.019235 0.000000 0.000000 0.000000
# 4 0.000000 0.000000 0.000000 0.038407 0.000000 0.000000
# 5 0.000000 0.000000 0.000000 0.000000 0.077546 0.000000
# 6 0.000000 0.000000 0.000000 0.000000 0.000000 0.030009
#
#
# Mechanical properties :
#
#
# Convention : Reuss Voigt Hill
#
# Bulk Modulus (GPa) = 18.69512 19.49252 19.09382
# Shear Modulus (GPa) = 21.22611 24.71933 22.97272
#
# Velocity S-wave (km/s) = 3.04384 3.28477 3.16659
# Velocity P-wave (km/s) = 4.52918 4.78482 4.65875
#
# Compressibility (1/GPa) = 0.05348989
#
# Stress axis : x y z
#
# Youngs Moduli (GPa) = 46.72650 45.46939 51.98839
#
# Poissons Ratio (x) = 0.33756 0.08279
# Poissons Ratio (y) = 0.34689 -0.23118
# Poissons Ratio (z) = 0.07441 -0.20219
#
# Static dielectric constant tensor:
#      x y z
#    x 1.834670 0.000000 0.000000 
#    y 0.000000 1.951610 0.000000 
#    z 0.000000 0.000000 1.804830 
# 
# From -- ./inp_files/8964.got.cif
#   From: 2010.05.17/outbox.cif.g08.bks.cpg/sg33_5_cif.got.tgz:8964.got - 2010.06.03 17:15:25.
