data_PCOD9346655
_publ_section_title
;
Structure prediction by ZEFSAII (Michael W. Deem and Ramdas Pophale) SiO2 
 PCOD9346655
Probable space group: P N A 21
;
_chemical_formula_sum "Si O2"
_cell_formula_units_Z 24
_cell_length_a 10.136289
_cell_length_b 10.845858
_cell_length_c 8.881100
_cell_angle_alpha 90.000000
_cell_angle_beta 90.000000
_cell_angle_gamma 90.000000
_cell_volume 976.359281
_symmetry_space_group_name_H-M "P N A 21"
_symmetry_group_IT_number 33
_symmetry_cell_setting 'orthorhombic'
loop_
_space_group_symop_operation_xyz
x,y,z
-x,-y,1/2+z
1/2-x,1/2+y,1/2+z
1/2+x,1/2-y,z
loop_
_atom_site_type_symbol
_atom_site_label
_atom_site_fract_x
_atom_site_fract_y
_atom_site_fract_z
Si Si1 0.623823 0.393574 0.059320
Si Si2 0.114899 0.996200 0.372417
Si Si3 0.988000 0.309907 0.559491
Si Si4 0.681533 0.221228 0.831054
Si Si5 0.260336 0.375275 0.428030
Si Si6 0.729134 0.957969 0.156275
O O1 0.585743 0.416709 0.231095
O O2 0.513084 0.428769 0.936016
O O3 0.660000 0.257696 0.005205
O O4 0.732044 0.498507 0.025239
O O5 0.226421 0.897749 0.326441
O O6 0.168208 0.060167 0.522079
O O7 0.052969 0.286698 0.724593
O O8 0.116057 0.320409 0.455065
O O9 0.879659 0.212759 0.490081
O O10 0.912410 0.440759 0.577843
O O11 0.759434 0.337651 0.761640
O O12 0.264713 0.424163 0.256659
#
# Coordination Sequence:
#
# PCOD9346655 Si02
#       6
#     4   4   4   4   4   4
#     4  11  23  45  77 106 150 198 252 311 390 455
#     4  12  25  48  76 112 150 203 255 319 385 467
#     4  12  23  48  78 109 164 201 258 324 392 460
#     4  11  24  47  74 110 149 201 251 317 381 460
#     4  11  25  45  78 110 152 208 254 317 393 459
#     4  11  26  45  73 111 151 199 260 318 385 461
#
# _framework density 24.581116999999999
#
# number of rings (size 3 to 8) (size 9 to 14) (size 15 to 20)
#    0.000    0.667    3.333    5.000    2.333    1.333 
#    3.000    0.000    0.000    0.000    0.000    0.000 
#    0.000    0.000    0.000    0.000    0.000    0.000 
#
# Total GULP energy -134079.934825 kJ/mol
# GULP energy per Si atom -5586.663951 kJ/mol
# Density = 2.452517 g / cm^3
# Si number density = 24.581117 Si / 1000 Ang^3
#
#
#
# Elastic Constant Matrix: (Units=GPa)
#
#
# Indices 1 2 3 4 5 6 
#
# 1 132.2094 38.1245 22.0347 0.0000 0.0000 0.0000
# 2 38.1245 74.4080 49.6493 0.0000 0.0000 0.0000
# 3 22.0347 49.6493 156.4219 0.0000 0.0000 0.0000
# 4 0.0000 0.0000 0.0000 39.7459 0.0000 0.0000
# 5 0.0000 0.0000 0.0000 0.0000 29.0150 0.0000
# 6 0.0000 0.0000 0.0000 0.0000 0.0000 33.0216
#
#
#
# Elastic Compliance Matrix: (Units=1/GPa)
#
#
# Indices 1 2 3 4 5 6 
#
# 1 0.008882 -0.004715 0.000245 0.000000 0.000000 0.000000
# 2 -0.004715 0.019553 -0.005542 0.000000 0.000000 0.000000
# 3 0.000245 -0.005542 0.008118 0.000000 0.000000 0.000000
# 4 0.000000 0.000000 0.000000 0.025160 0.000000 0.000000
# 5 0.000000 0.000000 0.000000 0.000000 0.034465 0.000000
# 6 0.000000 0.000000 0.000000 0.000000 0.000000 0.030283
#
#
# Mechanical properties :
#
#
# Convention : Reuss Voigt Hill
#
# Bulk Modulus (GPa) = 60.49666 64.73960 62.61813
# Shear Modulus (GPa) = 32.89596 37.23855 35.06725
#
# Velocity S-wave (km/s) = 3.66219 3.89643 3.78112
# Velocity P-wave (km/s) = 6.52278 6.82914 6.67772
#
# Compressibility (1/GPa) = 0.01652984
#
# Stress axis : x y z
#
# Youngs Moduli (GPa) = 112.58150 51.14266 123.19020
#
# Poissons Ratio (x) = 0.24112 -0.03021
# Poissons Ratio (y) = 0.53079 0.68274
# Poissons Ratio (z) = -0.02761 0.28344
#
# Static dielectric constant tensor:
#      x y z
#    x 2.036410 0.000000 0.000000 
#    y 0.000000 2.052860 0.000000 
#    z 0.000000 0.000000 2.002560 
# 
# From -- ./inp_files/3063.got.cif
#   From: 2010.05.17/outbox.cif.g08.bks.cpg/sg33_2_cif.got.tgz:3063.got - 2010.06.03 17:15:25.
