data_PCOD9346314
_publ_section_title
;
Structure prediction by ZEFSAII (Michael W. Deem and Ramdas Pophale) SiO2 
 PCOD9346314
Probable space group: P N A 21
;
_chemical_formula_sum "Si O2"
_cell_formula_units_Z 20
_cell_length_a 10.563665
_cell_length_b 11.194797
_cell_length_c 7.337065
_cell_angle_alpha 90.000000
_cell_angle_beta 90.000000
_cell_angle_gamma 90.000000
_cell_volume 867.667258
_symmetry_space_group_name_H-M "P N A 21"
_symmetry_group_IT_number 33
_symmetry_cell_setting 'orthorhombic'
loop_
_space_group_symop_operation_xyz
x,y,z
-x,-y,1/2+z
1/2-x,1/2+y,1/2+z
1/2+x,1/2-y,z
loop_
_atom_site_type_symbol
_atom_site_label
_atom_site_fract_x
_atom_site_fract_y
_atom_site_fract_z
Si Si1 0.107156 0.621118 0.144930
Si Si2 0.908051 0.122653 0.664167
Si Si3 0.299279 0.201903 0.254428
Si Si4 0.155152 0.479605 0.496251
Si Si5 0.468718 0.639014 0.801544
O O1 0.107556 0.747881 0.254098
O O2 0.151001 0.519265 0.285162
O O3 0.184340 0.646749 0.959060
O O4 0.969878 0.586427 0.066087
O O5 0.017276 0.146867 0.517744
O O6 0.779227 0.093693 0.553804
O O7 0.943385 0.000560 0.763806
O O8 0.398614 0.309081 0.228449
O O9 0.148643 0.218361 0.232116
O O10 0.336944 0.099571 0.114354
#
# Coordination Sequence:
#
# PCOD9346314 Si02
#       5
#     4   4   4   4   4
#     4  11  24  43  73  96 145 178 230 284 345 415
#     4  10  26  42  70 105 138 180 235 284 350 406
#     4  10  24  46  67 102 135 186 230 283 346 411
#     4  11  24  46  68 103 136 187 231 281 352 414
#     4  10  24  45  68 100 140 177 234 282 347 412
#
# _framework density 23.050312000000002
#
# number of rings (size 3 to 8) (size 9 to 14) (size 15 to 20)
#    0.000    1.600    2.000    0.000   16.800    0.000 
#    3.600    0.000    0.000    0.000    0.000    0.000 
#    0.000    0.000    0.000    0.000    0.000    0.000 
#
# Total GULP energy -111669.106004 kJ/mol
# GULP energy per Si atom -5583.455300 kJ/mol
# Density = 2.299785 g / cm^3
# Si number density = 23.050312 Si / 1000 Ang^3
#
#
#
# Elastic Constant Matrix: (Units=GPa)
#
#
# Indices 1 2 3 4 5 6 
#
# 1 80.8749 53.0001 -7.3018 0.0000 0.0000 0.0000
# 2 53.0001 107.7378 34.5524 0.0000 0.0000 0.0000
# 3 -7.3018 34.5524 60.5702 0.0000 0.0000 0.0000
# 4 0.0000 0.0000 0.0000 32.3329 0.0000 0.0000
# 5 0.0000 0.0000 0.0000 0.0000 22.7232 0.0000
# 6 0.0000 0.0000 0.0000 0.0000 0.0000 29.4965
#
#
#
# Elastic Compliance Matrix: (Units=1/GPa)
#
#
# Indices 1 2 3 4 5 6 
#
# 1 0.023326 -0.015148 0.011453 0.000000 0.000000 0.000000
# 2 -0.015148 0.021197 -0.013918 0.000000 0.000000 0.000000
# 3 0.011453 -0.013918 0.025830 0.000000 0.000000 0.000000
# 4 0.000000 0.000000 0.000000 0.030928 0.000000 0.000000
# 5 0.000000 0.000000 0.000000 0.000000 0.044008 0.000000
# 6 0.000000 0.000000 0.000000 0.000000 0.000000 0.033902
#
#
# Mechanical properties :
#
#
# Convention : Reuss Voigt Hill
#
# Bulk Modulus (GPa) = 28.46792 45.52048 36.99420
# Shear Modulus (GPa) = 22.11152 28.17266 25.14209
#
# Velocity S-wave (km/s) = 3.10057 3.49983 3.30623
# Velocity P-wave (km/s) = 5.01948 6.01023 5.53706
#
# Compressibility (1/GPa) = 0.03512726
#
# Stress axis : x y z
#
# Youngs Moduli (GPa) = 42.87104 47.17596 38.71459
#
# Poissons Ratio (x) = 0.71462 -0.44340
# Poissons Ratio (y) = 0.64941 0.53883
# Poissons Ratio (z) = -0.49101 0.65660
#
# Static dielectric constant tensor:
#      x y z
#    x 1.871850 0.000000 0.000000 
#    y 0.000000 1.947930 0.000000 
#    z 0.000000 0.000000 1.879220 
# 
# From -- ./inp_files/2991.got.cif
#   From: 2010.05.17/outbox.cif.g08.bks.cpg/sg33_2_cif.got.tgz:2991.got - 2010.06.03 17:15:25.
