data_PCOD9346917
_publ_section_title
;
Structure prediction by ZEFSAII (Michael W. Deem and Ramdas Pophale) SiO2 
 PCOD9346917
Probable space group: P N A 21
;
_chemical_formula_sum "Si O2"
_cell_formula_units_Z 20
_cell_length_a 7.979320
_cell_length_b 9.854412
_cell_length_c 9.058663
_cell_angle_alpha 90.000000
_cell_angle_beta 90.000000
_cell_angle_gamma 90.000000
_cell_volume 712.296321
_symmetry_space_group_name_H-M "P N A 21"
_symmetry_group_IT_number 33
_symmetry_cell_setting 'orthorhombic'
loop_
_space_group_symop_operation_xyz
x,y,z
-x,-y,1/2+z
1/2-x,1/2+y,1/2+z
1/2+x,1/2-y,z
loop_
_atom_site_type_symbol
_atom_site_label
_atom_site_fract_x
_atom_site_fract_y
_atom_site_fract_z
Si Si1 0.835027 0.948195 0.673840
Si Si2 0.325439 0.769884 0.237030
Si Si3 0.494414 0.076983 0.975038
Si Si4 0.376561 0.798388 0.896760
Si Si5 0.301355 0.465126 0.193900
O O1 0.678821 0.911255 0.567373
O O2 0.863096 0.835008 0.798782
O O3 0.023215 0.954779 0.609262
O O4 0.795091 0.098376 0.736002
O O5 0.459553 0.805190 0.361878
O O6 0.268024 0.616231 0.251116
O O7 0.389792 0.768507 0.068515
O O8 0.647201 0.077136 0.091260
O O9 0.498561 0.931140 0.888994
O O10 0.205569 0.871374 0.840023
#
# Coordination Sequence:
#
# PCOD9346917 Si02
#       5
#     4   4   4   4   4
#     4  11  29  54  90 125 173 238 292 356 450 513
#     4  11  28  54  86 127 171 223 295 364 430 522
#     4  11  28  58  88 128 178 223 300 369 428 529
#     4  11  27  54  88 121 172 231 286 364 436 521
#     4  12  30  54  90 125 174 237 291 357 450 523
#
# _framework density 28.078199999999999
#
# number of rings (size 3 to 8) (size 9 to 14) (size 15 to 20)
#    0.000    0.800    0.000    3.600   16.800    8.000 
#    3.600    2.000    0.000    0.000    0.000    0.000 
#    0.000    0.000    0.000    0.000    0.000    0.000 
#
# Total GULP energy -112046.492392 kJ/mol
# GULP energy per Si atom -5602.324620 kJ/mol
# Density = 2.801429 g / cm^3
# Si number density = 28.078200 Si / 1000 Ang^3
#
#
#
# Elastic Constant Matrix: (Units=GPa)
#
#
# Indices 1 2 3 4 5 6 
#
# 1 219.1060 20.4367 81.8873 0.0000 0.0000 0.0000
# 2 20.4367 173.8663 86.3278 0.0000 0.0000 0.0000
# 3 81.8873 86.3278 185.7303 0.0000 0.0000 0.0000
# 4 0.0000 0.0000 0.0000 58.6234 0.0000 0.0000
# 5 0.0000 0.0000 0.0000 0.0000 41.6340 0.0000
# 6 0.0000 0.0000 0.0000 0.0000 0.0000 25.5241
#
#
#
# Elastic Compliance Matrix: (Units=1/GPa)
#
#
# Indices 1 2 3 4 5 6 
#
# 1 0.005535 0.000729 -0.002779 0.000000 0.000000 0.000000
# 2 0.000729 0.007573 -0.003842 0.000000 0.000000 0.000000
# 3 -0.002779 -0.003842 0.008395 0.000000 0.000000 0.000000
# 4 0.000000 0.000000 0.000000 0.017058 0.000000 0.000000
# 5 0.000000 0.000000 0.000000 0.000000 0.024019 0.000000
# 6 0.000000 0.000000 0.000000 0.000000 0.000000 0.039179
#
#
# Mechanical properties :
#
#
# Convention : Reuss Voigt Hill
#
# Bulk Modulus (GPa) = 102.88016 106.22291 104.55153
# Shear Modulus (GPa) = 42.81502 51.15969 46.98735
#
# Velocity S-wave (km/s) = 3.90917 4.27317 4.09522
# Velocity P-wave (km/s) = 7.55616 7.89049 7.72514
#
# Compressibility (1/GPa) = 0.00972005
#
# Stress axis : x y z
#
# Youngs Moduli (GPa) = 180.67977 132.04349 119.11722
#
# Poissons Ratio (x) = -0.09631 0.33105
# Poissons Ratio (y) = -0.13178 0.45761
# Poissons Ratio (z) = 0.50215 0.50726
#
# Static dielectric constant tensor:
#      x y z
#    x 2.279480 0.000000 0.000000 
#    y 0.000000 2.236750 0.000000 
#    z 0.000000 0.000000 2.230770 
# 
# From -- ./inp_files/3756.got.cif
#   From: 2010.05.17/outbox.cif.g08.bks.cpg/sg33_2_cif.got.tgz:3756.got - 2010.06.03 17:15:25.
