data_PCOD9346984
_publ_section_title
;
Structure prediction by ZEFSAII (Michael W. Deem and Ramdas Pophale) SiO2 
 PCOD9346984
Probable space group: P N A 21
;
_chemical_formula_sum "Si O2"
_cell_formula_units_Z 20
_cell_length_a 22.312299
_cell_length_b 6.944494
_cell_length_c 5.375430
_cell_angle_alpha 90.000000
_cell_angle_beta 90.000000
_cell_angle_gamma 90.000000
_cell_volume 832.910120
_symmetry_space_group_name_H-M "P N A 21"
_symmetry_group_IT_number 33
_symmetry_cell_setting 'orthorhombic'
loop_
_space_group_symop_operation_xyz
x,y,z
-x,-y,1/2+z
1/2-x,1/2+y,1/2+z
1/2+x,1/2-y,z
loop_
_atom_site_type_symbol
_atom_site_label
_atom_site_fract_x
_atom_site_fract_y
_atom_site_fract_z
Si Si1 0.182508 0.402999 0.138690
Si Si2 0.699779 0.347832 0.641673
Si Si3 0.093035 0.859849 0.723996
Si Si4 0.066071 0.530792 0.372444
Si Si5 0.501096 0.315795 0.587906
O O1 0.233960 0.564111 0.148549
O O2 0.189819 0.263198 0.380604
O O3 0.118191 0.501086 0.172632
O O4 0.188827 0.289362 0.879474
O O5 0.653398 0.524657 0.675129
O O6 0.094699 0.648951 0.602576
O O7 0.066978 0.856009 0.002888
O O8 0.039412 0.993726 0.613986
O O9 0.039147 0.319945 0.407551
O O10 0.009412 0.665313 0.308860
#
# Coordination Sequence:
#
# PCOD9346984 Si02
#       5
#     4   4   4   4   4
#     4  12  29  51  79 109 150 196 254 312 376 442
#     4  12  29  51  79 109 150 196 254 312 376 442
#     4  12  27  45  73 108 152 196 249 307 370 446
#     4  12  27  45  73 108 152 196 249 307 370 446
#     4  12  26  44  70 108 152 198 246 300 378 442
#
# _framework density 24.012194000000001
#
# number of rings (size 3 to 8) (size 9 to 14) (size 15 to 20)
#    0.000    0.000    6.000    2.400   14.000    0.000 
#    0.000    0.000    0.000    0.000    0.000    0.000 
#    0.000    0.000    0.000    0.000    0.000    0.000 
#
# Total GULP energy -111822.509476 kJ/mol
# GULP energy per Si atom -5591.125474 kJ/mol
# Density = 2.395754 g / cm^3
# Si number density = 24.012194 Si / 1000 Ang^3
#
#
#
# Elastic Constant Matrix: (Units=GPa)
#
#
# Indices 1 2 3 4 5 6 
#
# 1 84.3347 17.8430 4.7946 0.0000 0.0000 0.0000
# 2 17.8430 99.6991 29.4285 0.0000 0.0000 0.0000
# 3 4.7946 29.4285 91.2973 0.0000 0.0000 0.0000
# 4 0.0000 0.0000 0.0000 50.1346 0.0000 0.0000
# 5 0.0000 0.0000 0.0000 0.0000 31.4810 0.0000
# 6 0.0000 0.0000 0.0000 0.0000 0.0000 63.8213
#
#
#
# Elastic Compliance Matrix: (Units=1/GPa)
#
#
# Indices 1 2 3 4 5 6 
#
# 1 0.012325 -0.002227 0.000070 0.000000 0.000000 0.000000
# 2 -0.002227 0.011487 -0.003586 0.000000 0.000000 0.000000
# 3 0.000070 -0.003586 0.012105 0.000000 0.000000 0.000000
# 4 0.000000 0.000000 0.000000 0.019946 0.000000 0.000000
# 5 0.000000 0.000000 0.000000 0.000000 0.031765 0.000000
# 6 0.000000 0.000000 0.000000 0.000000 0.000000 0.015669
#
#
# Mechanical properties :
#
#
# Convention : Reuss Voigt Hill
#
# Bulk Modulus (GPa) = 40.92771 42.16259 41.54515
# Shear Modulus (GPa) = 40.67508 43.97172 42.32340
#
# Velocity S-wave (km/s) = 4.12021 4.28392 4.20286
# Velocity P-wave (km/s) = 6.30209 6.48585 6.39463
#
# Compressibility (1/GPa) = 0.02443332
#
# Stress axis : x y z
#
# Youngs Moduli (GPa) = 81.13869 87.05428 82.60809
#
# Poissons Ratio (x) = 0.19383 -0.00582
# Poissons Ratio (y) = 0.18066 0.29621
# Poissons Ratio (z) = -0.00572 0.31216
#
# Static dielectric constant tensor:
#      x y z
#    x 1.877030 0.000000 0.000000 
#    y 0.000000 1.890900 0.000000 
#    z 0.000000 0.000000 2.114110 
# 
# From -- ./inp_files/1934.got.cif
#   From: 2010.05.17/outbox.cif.g08.bks.cpg/sg33_1_cif.got.tgz:1934.got - 2010.06.03 17:15:25.
