data_PCOD9346324
_publ_section_title
;
Structure prediction by ZEFSAII (Michael W. Deem and Ramdas Pophale) SiO2 
 PCOD9346324
Probable space group: P N A 21
;
_chemical_formula_sum "Si O2"
_cell_formula_units_Z 24
_cell_length_a 18.730672
_cell_length_b 5.359234
_cell_length_c 9.098322
_cell_angle_alpha 90.000000
_cell_angle_beta 90.000000
_cell_angle_gamma 90.000000
_cell_volume 913.308252
_symmetry_space_group_name_H-M "P N A 21"
_symmetry_group_IT_number 33
_symmetry_cell_setting 'orthorhombic'
loop_
_space_group_symop_operation_xyz
x,y,z
-x,-y,1/2+z
1/2-x,1/2+y,1/2+z
1/2+x,1/2-y,z
loop_
_atom_site_type_symbol
_atom_site_label
_atom_site_fract_x
_atom_site_fract_y
_atom_site_fract_z
Si Si1 0.050544 0.019719 0.691220
Si Si2 0.894072 0.993196 0.666250
Si Si3 0.193535 0.381564 0.023934
Si Si4 0.104434 0.323636 0.453554
Si Si5 0.795129 0.353017 0.816686
Si Si6 0.048744 0.522493 0.885389
O O1 0.106359 0.095536 0.566617
O O2 0.049660 0.259482 0.798972
O O3 0.058118 0.761045 0.777386
O O4 0.973643 0.016747 0.609608
O O5 0.834664 0.900069 0.554518
O O6 0.898488 0.776007 0.787809
O O7 0.866806 0.222827 0.759087
O O8 0.242490 0.354812 0.880872
O O9 0.119543 0.522407 0.985682
O O10 0.228843 0.492254 0.172279
O O11 0.176408 0.483077 0.453406
O O12 0.027587 0.460410 0.469203
#
# Coordination Sequence:
#
# PCOD9346324 Si02
#       6
#     4   4   4   4   4   4
#     4  11  25  44  79 118 155 195 263 327 394 461
#     4  10  24  45  74 109 154 201 252 327 387 461
#     4  11  28  48  79 108 158 208 262 319 393 471
#     4  10  24  45  74 111 154 201 256 324 392 458
#     4  11  25  51  76 107 156 207 260 319 390 473
#     4  11  26  45  78 119 151 202 261 324 392 466
#
# _framework density 26.278093999999999
#
# number of rings (size 3 to 8) (size 9 to 14) (size 15 to 20)
#    0.000    1.333    1.667    1.000   14.000    5.333 
#    0.000    0.000    0.000    0.000    0.000    0.000 
#    0.000    0.000    0.000    0.000    0.000    0.000 
#
# Total GULP energy -134299.579690 kJ/mol
# GULP energy per Si atom -5595.815820 kJ/mol
# Density = 2.621828 g / cm^3
# Si number density = 26.278094 Si / 1000 Ang^3
#
#
#
# Elastic Constant Matrix: (Units=GPa)
#
#
# Indices 1 2 3 4 5 6 
#
# 1 110.5153 22.0060 47.1627 0.0000 0.0000 0.0000
# 2 22.0060 116.4632 40.9590 0.0000 0.0000 0.0000
# 3 47.1627 40.9590 101.1019 0.0000 0.0000 0.0000
# 4 0.0000 0.0000 0.0000 50.0628 0.0000 0.0000
# 5 0.0000 0.0000 0.0000 0.0000 33.8796 0.0000
# 6 0.0000 0.0000 0.0000 0.0000 0.0000 36.1374
#
#
#
# Elastic Compliance Matrix: (Units=1/GPa)
#
#
# Indices 1 2 3 4 5 6 
#
# 1 0.011308 -0.000328 -0.005142 0.000000 0.000000 0.000000
# 2 -0.000328 0.010023 -0.003907 0.000000 0.000000 0.000000
# 3 -0.005142 -0.003907 0.013873 0.000000 0.000000 0.000000
# 4 0.000000 0.000000 0.000000 0.019975 0.000000 0.000000
# 5 0.000000 0.000000 0.000000 0.000000 0.029516 0.000000
# 6 0.000000 0.000000 0.000000 0.000000 0.000000 0.027672
#
#
# Mechanical properties :
#
#
# Convention : Reuss Voigt Hill
#
# Bulk Modulus (GPa) = 60.79714 60.92621 60.86168
# Shear Modulus (GPa) = 36.60183 38.54614 37.57398
#
# Velocity S-wave (km/s) = 3.73616 3.83411 3.78545
# Velocity P-wave (km/s) = 6.46515 6.54492 6.50516
#
# Compressibility (1/GPa) = 0.01644814
#
# Stress axis : x y z
#
# Youngs Moduli (GPa) = 88.43032 99.77466 72.08393
#
# Poissons Ratio (x) = 0.03275 0.37067
# Poissons Ratio (y) = 0.02903 0.28165
# Poissons Ratio (z) = 0.45473 0.38985
#
# Static dielectric constant tensor:
#      x y z
#    x 2.078300 0.000000 0.000000 
#    y 0.000000 2.125730 0.000000 
#    z 0.000000 0.000000 2.061590 
# 
# From -- ./inp_files/4632.got.cif
#   From: 2010.05.17/outbox.cif.g08.bks.cpg/sg33_3_cif.got.tgz:4632.got - 2010.06.03 17:15:25.
