data_PCOD9346091
_publ_section_title
;
Structure prediction by ZEFSAII (Michael W. Deem and Ramdas Pophale) SiO2 
 PCOD9346091
Probable space group: P N A 21
;
_chemical_formula_sum "Si O2"
_cell_formula_units_Z 28
_cell_length_a 18.175047
_cell_length_b 8.019247
_cell_length_c 7.273921
_cell_angle_alpha 90.000000
_cell_angle_beta 90.000000
_cell_angle_gamma 90.000000
_cell_volume 1060.175376
_symmetry_space_group_name_H-M "P N A 21"
_symmetry_group_IT_number 33
_symmetry_cell_setting 'orthorhombic'
loop_
_space_group_symop_operation_xyz
x,y,z
-x,-y,1/2+z
1/2-x,1/2+y,1/2+z
1/2+x,1/2-y,z
loop_
_atom_site_type_symbol
_atom_site_label
_atom_site_fract_x
_atom_site_fract_y
_atom_site_fract_z
Si Si1 0.790227 0.492475 0.931800
Si Si2 0.138991 0.880471 0.970115
Si Si3 0.426719 0.845884 0.810098
Si Si4 0.322853 0.002098 0.357703
Si Si5 0.477589 0.505460 0.860806
Si Si6 0.167447 0.887587 0.405640
Si Si7 0.465176 0.850141 0.240176
O O1 0.704547 0.508149 0.884596
O O2 0.840981 0.605812 0.800072
O O3 0.822366 0.307544 0.933092
O O4 0.801194 0.537447 0.145901
O O5 0.153905 0.691479 0.901670
O O6 0.056344 0.929268 0.926895
O O7 0.151151 0.898569 0.187842
O O8 0.449882 0.664580 0.739825
O O9 0.478481 0.995115 0.745012
O O10 0.440190 0.836847 0.029926
O O11 0.245023 0.970382 0.456478
O O12 0.396637 0.891240 0.375855
O O13 0.405843 0.469651 0.991346
O O14 0.495664 0.320462 0.791493
#
# Coordination Sequence:
#
# PCOD9346091 Si02
#       7
#     4   4   4   4   4   4   4
#     4  10  23  43  67  98 136 178 230 289 345 410
#     4  11  24  43  68  99 136 182 232 283 348 417
#     4  11  24  43  68  99 136 179 228 284 342 408
#     4  10  23  43  67  98 136 178 230 289 345 410
#     4  12  24  40  68 102 138 180 228 284 340 410
#     4  11  24  43  68  99 136 182 232 283 348 417
#     4  11  24  43  68  99 136 179 228 284 342 408
#
# _framework density 26.410724999999999
#
# number of rings (size 3 to 8) (size 9 to 14) (size 15 to 20)
#    0.000    1.143    2.857    2.571    0.000    5.714 
#    0.000    0.000    0.000    0.000    0.000    0.000 
#    0.000    0.000    0.000    0.000    0.000    0.000 
#
# Total GULP energy -156774.807402 kJ/mol
# GULP energy per Si atom -5599.100264 kJ/mol
# Density = 2.635061 g / cm^3
# Si number density = 26.410725 Si / 1000 Ang^3
#
#
#
# Elastic Constant Matrix: (Units=GPa)
#
#
# Indices 1 2 3 4 5 6 
#
# 1 259.4390 84.0458 31.7601 0.0000 0.0000 0.0000
# 2 84.0458 144.3091 1.5103 0.0000 0.0000 0.0000
# 3 31.7601 1.5103 58.0500 0.0000 0.0000 0.0000
# 4 0.0000 0.0000 0.0000 31.1945 0.0000 0.0000
# 5 0.0000 0.0000 0.0000 0.0000 27.6719 0.0000
# 6 0.0000 0.0000 0.0000 0.0000 0.0000 31.3198
#
#
#
# Elastic Compliance Matrix: (Units=1/GPa)
#
#
# Indices 1 2 3 4 5 6 
#
# 1 0.005153 -0.002972 -0.002742 0.000000 0.000000 0.000000
# 2 -0.002972 0.008646 0.001401 0.000000 0.000000 0.000000
# 3 -0.002742 0.001401 0.018690 0.000000 0.000000 0.000000
# 4 0.000000 0.000000 0.000000 0.032057 0.000000 0.000000
# 5 0.000000 0.000000 0.000000 0.000000 0.036138 0.000000
# 6 0.000000 0.000000 0.000000 0.000000 0.000000 0.031929
#
#
# Mechanical properties :
#
#
# Convention : Reuss Voigt Hill
#
# Bulk Modulus (GPa) = 41.90563 77.38117 59.64340
# Shear Modulus (GPa) = 33.51356 41.00271 37.25814
#
# Velocity S-wave (km/s) = 3.56608 3.94446 3.76003
# Velocity P-wave (km/s) = 5.73212 7.07868 6.44069
#
# Compressibility (1/GPa) = 0.02386314
#
# Stress axis : x y z
#
# Youngs Moduli (GPa) = 194.05899 115.65958 53.50384
#
# Poissons Ratio (x) = 0.34379 0.14671
# Poissons Ratio (y) = 0.57683 -0.07498
# Poissons Ratio (z) = 0.53211 -0.16208
#
# Static dielectric constant tensor:
#      x y z
#    x 2.167040 0.000000 0.000000 
#    y 0.000000 1.996470 0.000000 
#    z 0.000000 0.000000 2.245440 
# 
# From -- ./inp_files/4764.got.cif
#   From: 2010.05.17/outbox.cif.g08.bks.cpg/sg33_3_cif.got.tgz:4764.got - 2010.06.03 17:15:25.
