data_PCOD9346776
_publ_section_title
;
Structure prediction by ZEFSAII (Michael W. Deem and Ramdas Pophale) SiO2 
 PCOD9346776
Probable space group: P N A 21
;
_chemical_formula_sum "Si O2"
_cell_formula_units_Z 32
_cell_length_a 21.795331
_cell_length_b 11.719768
_cell_length_c 5.357399
_cell_angle_alpha 90.000000
_cell_angle_beta 90.000000
_cell_angle_gamma 90.000000
_cell_volume 1368.473765
_symmetry_space_group_name_H-M "P N A 21"
_symmetry_group_IT_number 33
_symmetry_cell_setting 'orthorhombic'
loop_
_space_group_symop_operation_xyz
x,y,z
-x,-y,1/2+z
1/2-x,1/2+y,1/2+z
1/2+x,1/2-y,z
loop_
_atom_site_type_symbol
_atom_site_label
_atom_site_fract_x
_atom_site_fract_y
_atom_site_fract_z
Si Si1 0.817668 0.304161 0.028590
Si Si2 0.149296 0.957172 0.566415
Si Si3 0.627295 0.202735 0.511643
Si Si4 0.430520 0.469518 0.567775
Si Si5 0.917580 0.463025 0.243009
Si Si6 0.255280 0.659383 0.028308
Si Si7 0.474206 0.682480 0.301470
Si Si8 0.048795 0.386856 0.117340
O O1 0.823861 0.168780 0.033732
O O2 0.881143 0.360840 0.119734
O O3 0.772402 0.343776 0.250858
O O4 0.793547 0.334640 0.752852
O O5 0.107817 0.981806 0.321930
O O6 0.203178 0.048977 0.573498
O O7 0.111526 0.955042 0.824712
O O8 0.698256 0.231854 0.532496
O O9 0.590983 0.298216 0.668051
O O10 0.595913 0.202075 0.241342
O O11 0.606062 0.076980 0.600253
O O12 0.469937 0.582866 0.507138
O O13 0.474961 0.361476 0.609531
O O14 0.908992 0.508694 0.524474
O O15 0.990236 0.436727 0.257679
O O16 0.484767 0.807767 0.410328
#
# Coordination Sequence:
#
# PCOD9346776 Si02
#       8
#     4   4   4   4   4   4   4   4
#     4  12  31  48  81 109 151 205 259 322 375 457
#     4  12  27  50  74 108 152 192 256 316 376 452
#     4  11  26  47  75 102 155 199 253 310 384 465
#     4  12  25  45  73 113 153 195 244 310 383 461
#     4  11  26  45  76 113 149 198 252 325 389 463
#     4  12  29  51  75 107 149 208 262 309 381 452
#     4  11  26  40  73 110 148 201 239 306 390 467
#     4  11  24  46  75 114 153 194 253 322 404 467
#
# _framework density 23.383717000000001
#
# number of rings (size 3 to 8) (size 9 to 14) (size 15 to 20)
#    0.000    0.500    2.500    3.750   14.000    0.000 
#    0.000    0.000    0.000    0.000    0.000    0.000 
#    0.000    0.000    0.000    0.000    0.000    0.000 
#
# Total GULP energy -178809.710913 kJ/mol
# GULP energy per Si atom -5587.803466 kJ/mol
# Density = 2.333049 g / cm^3
# Si number density = 23.383717 Si / 1000 Ang^3
#
#
#
# Elastic Constant Matrix: (Units=GPa)
#
#
# Indices 1 2 3 4 5 6 
#
# 1 64.2150 9.4903 17.1667 0.0000 0.0000 0.0000
# 2 9.4903 90.4029 10.4170 0.0000 0.0000 0.0000
# 3 17.1667 10.4170 92.2150 0.0000 0.0000 0.0000
# 4 0.0000 0.0000 0.0000 30.1687 0.0000 0.0000
# 5 0.0000 0.0000 0.0000 0.0000 40.2768 0.0000
# 6 0.0000 0.0000 0.0000 0.0000 0.0000 26.4080
#
#
#
# Elastic Compliance Matrix: (Units=1/GPa)
#
#
# Indices 1 2 3 4 5 6 
#
# 1 0.016562 -0.001402 -0.002925 0.000000 0.000000 0.000000
# 2 -0.001402 0.011326 -0.001019 0.000000 0.000000 0.000000
# 3 -0.002925 -0.001019 0.011504 0.000000 0.000000 0.000000
# 4 0.000000 0.000000 0.000000 0.033147 0.000000 0.000000
# 5 0.000000 0.000000 0.000000 0.000000 0.024828 0.000000
# 6 0.000000 0.000000 0.000000 0.000000 0.000000 0.037867
#
#
# Mechanical properties :
#
#
# Convention : Reuss Voigt Hill
#
# Bulk Modulus (GPa) = 34.84109 35.66456 35.25282
# Shear Modulus (GPa) = 32.15619 33.35463 32.75541
#
# Velocity S-wave (km/s) = 3.71233 3.78087 3.74676
# Velocity P-wave (km/s) = 5.77124 5.86046 5.81602
#
# Compressibility (1/GPa) = 0.02870174
#
# Stress axis : x y z
#
# Youngs Moduli (GPa) = 60.38023 88.29173 86.92815
#
# Poissons Ratio (x) = 0.12375 0.25425
# Poissons Ratio (y) = 0.08463 0.08854
# Poissons Ratio (z) = 0.17660 0.08993
#
# Static dielectric constant tensor:
#      x y z
#    x 1.889680 0.000000 0.000000 
#    y 0.000000 1.862120 0.000000 
#    z 0.000000 0.000000 2.078240 
# 
# From -- ./inp_files/2079.got.cif
#   From: 2010.05.17/outbox.cif.g08.bks.cpg/sg33_2_cif.got.tgz:2079.got - 2010.06.03 17:15:25.
