data_PCOD9346305
_publ_section_title
;
Structure prediction by ZEFSAII (Michael W. Deem and Ramdas Pophale) SiO2 
 PCOD9346305
Probable space group: P N A 21
;
_chemical_formula_sum "Si O2"
_cell_formula_units_Z 32
_cell_length_a 29.053856
_cell_length_b 5.260034
_cell_length_c 8.505350
_cell_angle_alpha 90.000000
_cell_angle_beta 90.000000
_cell_angle_gamma 90.000000
_cell_volume 1299.823908
_symmetry_space_group_name_H-M "P N A 21"
_symmetry_group_IT_number 33
_symmetry_cell_setting 'orthorhombic'
loop_
_space_group_symop_operation_xyz
x,y,z
-x,-y,1/2+z
1/2-x,1/2+y,1/2+z
1/2+x,1/2-y,z
loop_
_atom_site_type_symbol
_atom_site_label
_atom_site_fract_x
_atom_site_fract_y
_atom_site_fract_z
Si Si1 0.658805 0.502603 0.867210
Si Si2 0.608081 0.658568 0.591058
Si Si3 0.339655 0.002965 0.570829
Si Si4 0.252264 0.160252 0.771185
Si Si5 0.304043 0.021332 0.064421
Si Si6 0.477035 0.825036 0.889066
Si Si7 0.502214 0.687537 0.551969
Si Si8 0.375416 0.744451 0.875057
O O1 0.622283 0.462121 0.728108
O O2 0.710310 0.536929 0.796652
O O3 0.645940 0.738186 0.980815
O O4 0.663417 0.237402 0.957183
O O5 0.648354 0.858616 0.622869
O O6 0.554944 0.709682 0.610881
O O7 0.616470 0.553732 0.413063
O O8 0.290893 0.066976 0.650855
O O9 0.370770 0.888424 0.710847
O O10 0.229199 0.406832 0.694009
O O11 0.276754 0.192757 0.939451
O O12 0.326462 0.796128 0.958278
O O13 0.473498 0.746100 0.707049
O O14 0.423822 0.846522 0.945366
O O15 0.501613 0.593006 0.980030
O O16 0.502345 0.090044 0.922717
#
# Coordination Sequence:
#
# PCOD9346305 Si02
#       8
#     4   4   4   4   4   4   4   4
#     4  12  26  43  64  96 133 175 232 288 347 403
#     4  11  25  44  73 100 142 188 233 293 358 431
#     4  11  28  43  63  98 133 178 234 290 346 405
#     4  11  24  42  67  95 134 184 236 294 343 415
#     4  11  22  45  68  99 137 188 237 294 348 422
#     4  11  24  46  73 111 141 194 232 301 359 444
#     4  11  25  45  76 108 149 184 245 287 374 434
#     4  10  24  44  70  97 141 185 235 287 357 428
#
# _framework density 24.618718000000001
#
# number of rings (size 3 to 8) (size 9 to 14) (size 15 to 20)
#    0.000    1.000    3.750    1.500    5.250    3.000 
#    2.250    0.000    0.000    0.000    0.000    0.000 
#    0.000    0.000    0.000    0.000    0.000    0.000 
#
# Total GULP energy -178769.108249 kJ/mol
# GULP energy per Si atom -5586.534633 kJ/mol
# Density = 2.456268 g / cm^3
# Si number density = 24.618718 Si / 1000 Ang^3
#
#
#
# Elastic Constant Matrix: (Units=GPa)
#
#
# Indices 1 2 3 4 5 6 
#
# 1 42.7798 26.6557 -9.2894 0.0000 0.0000 0.0000
# 2 26.6557 99.8003 39.8027 0.0000 0.0000 0.0000
# 3 -9.2894 39.8027 75.4486 0.0000 0.0000 0.0000
# 4 0.0000 0.0000 0.0000 33.6591 0.0000 0.0000
# 5 0.0000 0.0000 0.0000 0.0000 30.8488 0.0000
# 6 0.0000 0.0000 0.0000 0.0000 0.0000 13.2476
#
#
#
# Elastic Compliance Matrix: (Units=1/GPa)
#
#
# Indices 1 2 3 4 5 6 
#
# 1 0.034483 -0.013809 0.011530 0.000000 0.000000 0.000000
# 2 -0.013809 0.018220 -0.011312 0.000000 0.000000 0.000000
# 3 0.011530 -0.011312 0.020641 0.000000 0.000000 0.000000
# 4 0.000000 0.000000 0.000000 0.029710 0.000000 0.000000
# 5 0.000000 0.000000 0.000000 0.000000 0.032416 0.000000
# 6 0.000000 0.000000 0.000000 0.000000 0.000000 0.075486
#
#
# Mechanical properties :
#
#
# Convention : Reuss Voigt Hill
#
# Bulk Modulus (GPa) = 21.66196 36.92964 29.29580
# Shear Modulus (GPa) = 19.72198 26.27507 22.99853
#
# Velocity S-wave (km/s) = 2.83344 3.27047 3.05977
# Velocity P-wave (km/s) = 4.41843 5.41244 4.94050
#
# Compressibility (1/GPa) = 0.04616387
#
# Stress axis : x y z
#
# Youngs Moduli (GPa) = 28.99945 54.88571 48.44658
#
# Poissons Ratio (x) = 0.75791 -0.55861
# Poissons Ratio (y) = 0.40045 0.54802
# Poissons Ratio (z) = -0.33438 0.62086
#
# Static dielectric constant tensor:
#      x y z
#    x 1.925780 0.000000 0.000000 
#    y 0.000000 2.116580 0.000000 
#    z 0.000000 0.000000 2.050980 
# 
# From -- ./inp_files/5317.got.cif
#   From: 2010.05.17/outbox.cif.g08.bks.cpg/sg33_3_cif.got.tgz:5317.got - 2010.06.03 17:15:25.
