data_PCOD9346520
_publ_section_title
;
Structure prediction by ZEFSAII (Michael W. Deem and Ramdas Pophale) SiO2 
 PCOD9346520
Probable space group: P N A 21
;
_chemical_formula_sum "Si O2"
_cell_formula_units_Z 32
_cell_length_a 14.624616
_cell_length_b 7.357397
_cell_length_c 12.186799
_cell_angle_alpha 90.000000
_cell_angle_beta 90.000000
_cell_angle_gamma 90.000000
_cell_volume 1311.288676
_symmetry_space_group_name_H-M "P N A 21"
_symmetry_group_IT_number 33
_symmetry_cell_setting 'orthorhombic'
loop_
_space_group_symop_operation_xyz
x,y,z
-x,-y,1/2+z
1/2-x,1/2+y,1/2+z
1/2+x,1/2-y,z
loop_
_atom_site_type_symbol
_atom_site_label
_atom_site_fract_x
_atom_site_fract_y
_atom_site_fract_z
Si Si1 0.454215 0.825490 0.420900
Si Si2 0.899176 0.344242 0.753822
Si Si3 0.651675 0.621374 0.040730
Si Si4 0.225807 0.698398 0.631789
Si Si5 0.789999 0.783869 0.863039
Si Si6 0.978599 0.329934 0.161892
Si Si7 0.497995 0.256376 0.391772
Si Si8 0.757222 0.192462 0.900807
O O1 0.522325 0.751696 0.328401
O O2 0.486950 0.774205 0.542660
O O3 0.350557 0.775265 0.395935
O O4 0.462855 0.048517 0.414689
O O5 0.865205 0.239880 0.648130
O O6 0.815877 0.348466 0.841168
O O7 0.950168 0.520016 0.705491
O O8 0.720536 0.714732 0.954602
O O9 0.556164 0.615685 0.974933
O O10 0.700091 0.441889 0.085317
O O11 0.262758 0.788677 0.742382
O O12 0.126772 0.607225 0.651549
O O13 0.213784 0.830003 0.527822
O O14 0.893136 0.752024 0.901601
O O15 0.778130 0.000280 0.845647
O O16 0.977096 0.193227 0.264917
#
# Coordination Sequence:
#
# PCOD9346520 Si02
#       8
#     4   4   4   4   4   4   4   4
#     4  11  22  45  72 103 143 193 245 303 373 433
#     4  11  24  39  72 104 142 191 241 293 369 437
#     4  12  25  45  69 109 144 192 245 297 371 441
#     4  12  26  48  77 107 149 193 247 308 370 435
#     4  12  25  48  74 107 149 190 247 309 359 445
#     4  11  21  45  72 103 138 194 244 296 370 437
#     4  11  24  43  73 103 143 192 239 303 372 433
#     4  12  25  47  73 110 146 191 246 307 360 443
#
# _framework density 24.403476000000001
#
# number of rings (size 3 to 8) (size 9 to 14) (size 15 to 20)
#    0.000    0.500    6.250    2.250    1.750    2.000 
#    2.250    0.000    0.000    0.000    0.000    0.000 
#    0.000    0.000    0.000    0.000    0.000    0.000 
#
# Total GULP energy -179170.782205 kJ/mol
# GULP energy per Si atom -5599.086944 kJ/mol
# Density = 2.434793 g / cm^3
# Si number density = 24.403476 Si / 1000 Ang^3
#
#
#
# Elastic Constant Matrix: (Units=GPa)
#
#
# Indices 1 2 3 4 5 6 
#
# 1 223.4675 26.4654 74.0594 0.0000 0.0000 0.0000
# 2 26.4654 45.9982 22.8894 0.0000 0.0000 0.0000
# 3 74.0594 22.8894 187.0710 0.0000 0.0000 0.0000
# 4 0.0000 0.0000 0.0000 18.5603 0.0000 0.0000
# 5 0.0000 0.0000 0.0000 0.0000 53.3184 0.0000
# 6 0.0000 0.0000 0.0000 0.0000 0.0000 23.7173
#
#
#
# Elastic Compliance Matrix: (Units=1/GPa)
#
#
# Indices 1 2 3 4 5 6 
#
# 1 0.005344 -0.002153 -0.001852 0.000000 0.000000 0.000000
# 2 -0.002153 0.024017 -0.002086 0.000000 0.000000 0.000000
# 3 -0.001852 -0.002086 0.006334 0.000000 0.000000 0.000000
# 4 0.000000 0.000000 0.000000 0.053878 0.000000 0.000000
# 5 0.000000 0.000000 0.000000 0.000000 0.018755 0.000000
# 6 0.000000 0.000000 0.000000 0.000000 0.000000 0.042163
#
#
# Mechanical properties :
#
#
# Convention : Reuss Voigt Hill
#
# Bulk Modulus (GPa) = 42.53149 78.15168 60.34159
# Shear Modulus (GPa) = 29.32355 41.32738 35.32546
#
# Velocity S-wave (km/s) = 3.47019 4.11968 3.80881
# Velocity P-wave (km/s) = 5.78987 7.39753 6.64251
#
# Compressibility (1/GPa) = 0.02351199
#
# Stress axis : x y z
#
# Youngs Moduli (GPa) = 187.13643 41.63742 157.87669
#
# Poissons Ratio (x) = 0.08964 0.29240
# Poissons Ratio (y) = 0.40289 0.32938
# Poissons Ratio (z) = 0.34659 0.08687
#
# Static dielectric constant tensor:
#      x y z
#    x 1.914310 0.000000 0.000000 
#    y 0.000000 1.984780 0.000000 
#    z 0.000000 0.000000 1.954240 
# 
# From -- ./inp_files/6804.got.cif
#   From: 2010.05.17/outbox.cif.g08.bks.cpg/sg33_4_cif.got.tgz:6804.got - 2010.06.03 17:15:25.
