data_PCOD9346685
_publ_section_title
;
Structure prediction by ZEFSAII (Michael W. Deem and Ramdas Pophale) SiO2 
 PCOD9346685
Probable space group: P N A 21
;
_chemical_formula_sum "Si O2"
_cell_formula_units_Z 20
_cell_length_a 10.024910
_cell_length_b 9.668523
_cell_length_c 8.308315
_cell_angle_alpha 90.000000
_cell_angle_beta 90.000000
_cell_angle_gamma 90.000000
_cell_volume 805.292345
_symmetry_space_group_name_H-M "P N A 21"
_symmetry_group_IT_number 33
_symmetry_cell_setting 'orthorhombic'
loop_
_space_group_symop_operation_xyz
x,y,z
-x,-y,1/2+z
1/2-x,1/2+y,1/2+z
1/2+x,1/2-y,z
loop_
_atom_site_type_symbol
_atom_site_label
_atom_site_fract_x
_atom_site_fract_y
_atom_site_fract_z
Si Si1 0.376009 0.958329 0.447000
Si Si2 0.918923 0.650298 0.089662
Si Si3 0.251652 0.081949 0.936831
Si Si4 0.512427 0.716993 0.560885
Si Si5 0.855146 0.960650 0.115979
O O1 0.418486 0.892850 0.277690
O O2 0.418527 0.849981 0.587858
O O3 0.460491 0.093636 0.482520
O O4 0.220562 0.990396 0.454813
O O5 0.921397 0.814867 0.083597
O O6 0.793619 0.562125 0.019149
O O7 0.355574 0.200172 0.996917
O O8 0.259497 0.070779 0.745709
O O9 0.097343 0.125368 0.962579
O O10 0.565591 0.595888 0.675669
#
# Coordination Sequence:
#
# PCOD9346685 Si02
#       5
#     4   4   4   4   4
#     4  11  24  49  69 110 150 194 244 318 367 444
#     4  11  26  46  75 103 154 193 252 305 378 445
#     4  11  26  48  73 111 150 197 245 313 375 441
#     4  11  23  48  73 106 149 195 239 310 371 439
#     4  12  25  45  78 106 145 197 254 304 377 445
#
# _framework density 24.835702000000001
#
# number of rings (size 3 to 8) (size 9 to 14) (size 15 to 20)
#    0.000    0.800    4.000    2.400    2.800    4.800 
#   10.800    0.000    0.000    0.000    0.000    0.000 
#    0.000    0.000    0.000    0.000    0.000    0.000 
#
# Total GULP energy -111451.357097 kJ/mol
# GULP energy per Si atom -5572.567855 kJ/mol
# Density = 2.477917 g / cm^3
# Si number density = 24.835702 Si / 1000 Ang^3
#
#
#
# Elastic Constant Matrix: (Units=GPa)
#
#
# Indices 1 2 3 4 5 6 
#
# 1 58.1346 14.8383 6.5562 0.0000 0.0000 0.0000
# 2 14.8383 187.7097 17.3075 0.0000 0.0000 0.0000
# 3 6.5562 17.3075 10.8949 0.0000 0.0000 0.0000
# 4 0.0000 0.0000 0.0000 28.7834 0.0000 0.0000
# 5 0.0000 0.0000 0.0000 0.0000 30.5825 0.0000
# 6 0.0000 0.0000 0.0000 0.0000 0.0000 38.6776
#
#
#
# Elastic Compliance Matrix: (Units=1/GPa)
#
#
# Indices 1 2 3 4 5 6 
#
# 1 0.018495 -0.000511 -0.010319 0.000000 0.000000 0.000000
# 2 -0.000511 0.006256 -0.009630 0.000000 0.000000 0.000000
# 3 -0.010319 -0.009630 0.113294 0.000000 0.000000 0.000000
# 4 0.000000 0.000000 0.000000 0.034742 0.000000 0.000000
# 5 0.000000 0.000000 0.000000 0.000000 0.032698 0.000000
# 6 0.000000 0.000000 0.000000 0.000000 0.000000 0.025855
#
#
# Mechanical properties :
#
#
# Convention : Reuss Voigt Hill
#
# Bulk Modulus (GPa) = 10.29593 37.12703 23.71148
# Shear Modulus (GPa) = 16.41306 34.14452 25.27879
#
# Velocity S-wave (km/s) = 2.57352 3.71187 3.19382
# Velocity P-wave (km/s) = 3.60351 5.77514 4.81339
#
# Compressibility (1/GPa) = 0.09712574
#
# Stress axis : x y z
#
# Youngs Moduli (GPa) = 54.06728 159.85415 8.82658
#
# Poissons Ratio (x) = 0.08163 0.09108
# Poissons Ratio (y) = 0.02761 0.08500
# Poissons Ratio (z) = 0.55790 1.53947
#
# Static dielectric constant tensor:
#      x y z
#    x 2.082550 0.000000 0.000000 
#    y 0.000000 1.965310 0.000000 
#    z 0.000000 0.000000 2.041870 
# 
# From -- ./inp_files/3654.got.cif
#   From: 2010.05.17/outbox.cif.g08.bks.cpg/sg33_2_cif.got.tgz:3654.got - 2010.06.03 17:15:25.
