data_PCOD9346566
_publ_section_title
;
Structure prediction by ZEFSAII (Michael W. Deem and Ramdas Pophale) SiO2 
 PCOD9346566
Probable space group: P N A 21
;
_chemical_formula_sum "Si O2"
_cell_formula_units_Z 32
_cell_length_a 14.014590
_cell_length_b 9.328854
_cell_length_c 10.797692
_cell_angle_alpha 90.000000
_cell_angle_beta 90.000000
_cell_angle_gamma 90.000000
_cell_volume 1411.690943
_symmetry_space_group_name_H-M "P N A 21"
_symmetry_group_IT_number 33
_symmetry_cell_setting 'orthorhombic'
loop_
_space_group_symop_operation_xyz
x,y,z
-x,-y,1/2+z
1/2-x,1/2+y,1/2+z
1/2+x,1/2-y,z
loop_
_atom_site_type_symbol
_atom_site_label
_atom_site_fract_x
_atom_site_fract_y
_atom_site_fract_z
Si Si1 0.800339 0.088559 0.434960
Si Si2 0.959525 0.775416 0.799773
Si Si3 0.561831 0.047576 0.112678
Si Si4 0.400651 0.512987 0.204751
Si Si5 0.744646 0.877207 0.792283
Si Si6 0.958565 0.216072 0.577402
Si Si7 0.356439 0.102004 0.027448
Si Si8 0.260137 0.393983 0.997503
O O1 0.846675 0.979751 0.335972
O O2 0.796207 0.242069 0.368371
O O3 0.867388 0.113273 0.553780
O O4 0.696182 0.033179 0.467217
O O5 0.959782 0.615615 0.746165
O O6 0.855745 0.841621 0.778315
O O7 0.032118 0.873483 0.720814
O O8 0.990058 0.781502 0.942695
O O9 0.469368 0.086096 0.030882
O O10 0.658060 0.122100 0.064037
O O11 0.572101 0.876262 0.112791
O O12 0.467527 0.646326 0.172585
O O13 0.326499 0.483020 0.093879
O O14 0.686246 0.891069 0.666683
O O15 0.738865 0.017399 0.875156
O O16 0.316317 0.248290 0.969219
#
# Coordination Sequence:
#
# PCOD9346566 Si02
#       8
#     4   4   4   4   4   4   4   4
#     4  11  24  46  73 106 145 190 232 300 361 422
#     4  11  22  44  74 101 143 192 235 296 357 425
#     4  12  25  42  71 106 140 188 242 293 355 427
#     4  11  23  47  73 106 142 190 239 291 362 424
#     4  12  23  48  74 101 144 193 235 292 367 425
#     4  11  24  43  72 108 145 189 242 295 356 430
#     4  12  26  46  72 108 142 189 244 297 357 430
#     4  12  25  46  73 102 145 189 235 300 361 425
#
# _framework density 22.667850999999999
#
# number of rings (size 3 to 8) (size 9 to 14) (size 15 to 20)
#    0.000    0.500    6.250    2.250    0.000    1.000 
#    0.000    2.500    0.000    0.000    0.000    0.000 
#    0.000    0.000    0.000    0.000    0.000    0.000 
#
# Total GULP energy -179197.532315 kJ/mol
# GULP energy per Si atom -5599.922885 kJ/mol
# Density = 2.261626 g / cm^3
# Si number density = 22.667851 Si / 1000 Ang^3
#
#
#
# Elastic Constant Matrix: (Units=GPa)
#
#
# Indices 1 2 3 4 5 6 
#
# 1 99.4596 -20.0264 -21.9942 0.0000 0.0000 0.0000
# 2 -20.0264 50.3221 5.0236 0.0000 0.0000 0.0000
# 3 -21.9942 5.0236 27.5728 0.0000 0.0000 0.0000
# 4 0.0000 0.0000 0.0000 33.3877 0.0000 0.0000
# 5 0.0000 0.0000 0.0000 0.0000 22.9147 0.0000
# 6 0.0000 0.0000 0.0000 0.0000 0.0000 30.0238
#
#
#
# Elastic Compliance Matrix: (Units=1/GPa)
#
#
# Indices 1 2 3 4 5 6 
#
# 1 0.013034 0.004226 0.009627 0.000000 0.000000 0.000000
# 2 0.004226 0.021610 -0.000566 0.000000 0.000000 0.000000
# 3 0.009627 -0.000566 0.044050 0.000000 0.000000 0.000000
# 4 0.000000 0.000000 0.000000 0.029951 0.000000 0.000000
# 5 0.000000 0.000000 0.000000 0.000000 0.043640 0.000000
# 6 0.000000 0.000000 0.000000 0.000000 0.000000 0.033307
#
#
# Mechanical properties :
#
#
# Convention : Reuss Voigt Hill
#
# Bulk Modulus (GPa) = 9.49951 11.48450 10.49201
# Shear Modulus (GPa) = 25.75878 31.55532 28.65705
#
# Velocity S-wave (km/s) = 3.37465 3.73510 3.55944
# Velocity P-wave (km/s) = 4.40275 4.86608 4.64020
#
# Compressibility (1/GPa) = 0.10526854
#
# Stress axis : x y z
#
# Youngs Moduli (GPa) = 76.72144 46.27413 22.70141
#
# Poissons Ratio (x) = -0.19556 -0.21855
# Poissons Ratio (y) = -0.32423 0.01285
# Poissons Ratio (z) = -0.73860 0.02620
#
# Static dielectric constant tensor:
#      x y z
#    x 1.851330 0.000000 0.000000 
#    y 0.000000 1.825450 0.000000 
#    z 0.000000 0.000000 1.843600 
# 
# From -- ./inp_files/6777.got.cif
#   From: 2010.05.17/outbox.cif.g08.bks.cpg/sg33_4_cif.got.tgz:6777.got - 2010.06.03 17:15:25.
