data_PCOD9346052
_publ_section_title
;
Structure prediction by ZEFSAII (Michael W. Deem and Ramdas Pophale) SiO2 
 PCOD9346052
Probable space group: P N A 21
;
_chemical_formula_sum "Si O2"
_cell_formula_units_Z 32
_cell_length_a 17.510194
_cell_length_b 9.500719
_cell_length_c 9.053572
_cell_angle_alpha 90.000000
_cell_angle_beta 90.000000
_cell_angle_gamma 90.000000
_cell_volume 1506.147103
_symmetry_space_group_name_H-M "P N A 21"
_symmetry_group_IT_number 33
_symmetry_cell_setting 'orthorhombic'
loop_
_space_group_symop_operation_xyz
x,y,z
-x,-y,1/2+z
1/2-x,1/2+y,1/2+z
1/2+x,1/2-y,z
loop_
_atom_site_type_symbol
_atom_site_label
_atom_site_fract_x
_atom_site_fract_y
_atom_site_fract_z
Si Si1 0.191464 0.984063 0.542510
Si Si2 0.925003 0.335002 0.822314
Si Si3 0.229609 0.698544 0.515811
Si Si4 0.210957 0.234826 0.323556
Si Si5 0.977299 0.141912 0.058389
Si Si6 0.686832 0.530962 0.878285
Si Si7 0.451153 0.338013 0.533411
Si Si8 0.955823 0.664576 0.804313
O O1 0.246427 0.861543 0.484737
O O2 0.109357 0.910881 0.549363
O O3 0.205098 0.019451 0.712590
O O4 0.193879 0.107532 0.429311
O O5 0.984482 0.229827 0.905803
O O6 0.914270 0.255893 0.664539
O O7 0.956727 0.494535 0.809229
O O8 0.845889 0.343249 0.920408
O O9 0.228050 0.697607 0.694917
O O10 0.301596 0.603082 0.478639
O O11 0.247296 0.359380 0.418294
O O12 0.130589 0.290884 0.264950
O O13 0.020792 0.993775 0.085413
O O14 0.993327 0.259343 0.180628
O O15 0.609609 0.614000 0.909001
O O16 0.516201 0.241602 0.455899
#
# Coordination Sequence:
#
# PCOD9346052 Si02
#       8
#     4   4   4   4   4   4   4   4
#     4  10  23  42  66 100 136 176 235 295 351 426
#     4  11  26  45  69 103 147 186 239 302 365 441
#     4  10  24  42  65 100 136 185 232 291 353 431
#     4  11  24  43  71  98 141 187 231 297 359 429
#     4  11  23  43  69 101 138 180 240 295 355 439
#     4  11  24  43  66  98 139 182 233 291 355 435
#     4  12  25  42  75 105 138 193 239 300 369 436
#     4  12  23  46  69 105 143 183 241 303 365 431
#
# _framework density 21.246264
#
# number of rings (size 3 to 8) (size 9 to 14) (size 15 to 20)
#    0.000    1.000    3.750    2.250    7.000    0.000 
#    0.000    1.250    0.000    0.000    0.000    0.000 
#    0.000    0.000    0.000    0.000    0.000    0.000 
#
# Total GULP energy -178282.359169 kJ/mol
# GULP energy per Si atom -5571.323724 kJ/mol
# Density = 2.119791 g / cm^3
# Si number density = 21.246264 Si / 1000 Ang^3
#
#
#
# Elastic Constant Matrix: (Units=GPa)
#
#
# Indices 1 2 3 4 5 6 
#
# 1 56.7863 25.9648 13.1825 0.0000 0.0000 0.0000
# 2 25.9648 141.8511 52.3651 0.0000 0.0000 0.0000
# 3 13.1825 52.3651 63.4277 0.0000 0.0000 0.0000
# 4 0.0000 0.0000 0.0000 35.8346 0.0000 0.0000
# 5 0.0000 0.0000 0.0000 0.0000 37.7133 0.0000
# 6 0.0000 0.0000 0.0000 0.0000 0.0000 37.8628
#
#
#
# Elastic Compliance Matrix: (Units=1/GPa)
#
#
# Indices 1 2 3 4 5 6 
#
# 1 0.019327 -0.002956 -0.001577 0.000000 0.000000 0.000000
# 2 -0.002956 0.010592 -0.008130 0.000000 0.000000 0.000000
# 3 -0.001577 -0.008130 0.022806 0.000000 0.000000 0.000000
# 4 0.000000 0.000000 0.000000 0.027906 0.000000 0.000000
# 5 0.000000 0.000000 0.000000 0.000000 0.026516 0.000000
# 6 0.000000 0.000000 0.000000 0.000000 0.000000 0.026411
#
#
# Mechanical properties :
#
#
# Convention : Reuss Voigt Hill
#
# Bulk Modulus (GPa) = 36.49653 49.45442 42.97547
# Shear Modulus (GPa) = 29.75889 33.65234 31.70561
#
# Velocity S-wave (km/s) = 3.74661 3.98416 3.86721
# Velocity P-wave (km/s) = 5.99427 6.67024 6.34126
#
# Compressibility (1/GPa) = 0.02739986
#
# Stress axis : x y z
#
# Youngs Moduli (GPa) = 51.74011 94.41083 43.84818
#
# Poissons Ratio (x) = 0.27905 0.06914
# Poissons Ratio (y) = 0.15293 0.35650
# Poissons Ratio (z) = 0.08158 0.76759
#
# Static dielectric constant tensor:
#      x y z
#    x 1.800500 0.000000 0.000000 
#    y 0.000000 1.781090 0.000000 
#    z 0.000000 0.000000 1.810410 
# 
# From -- ./inp_files/4999.got.cif
#   From: 2010.05.17/outbox.cif.g08.bks.cpg/sg33_3_cif.got.tgz:4999.got - 2010.06.03 17:15:25.
