data_PCOD9346517
_publ_section_title
;
Structure prediction by ZEFSAII (Michael W. Deem and Ramdas Pophale) SiO2 
 PCOD9346517
Probable space group: P N A 21
;
_chemical_formula_sum "Si O2"
_cell_formula_units_Z 28
_cell_length_a 8.444173
_cell_length_b 8.659955
_cell_length_c 15.257150
_cell_angle_alpha 90.000000
_cell_angle_beta 90.000000
_cell_angle_gamma 90.000000
_cell_volume 1115.696764
_symmetry_space_group_name_H-M "P N A 21"
_symmetry_group_IT_number 33
_symmetry_cell_setting 'orthorhombic'
loop_
_space_group_symop_operation_xyz
x,y,z
-x,-y,1/2+z
1/2-x,1/2+y,1/2+z
1/2+x,1/2-y,z
loop_
_atom_site_type_symbol
_atom_site_label
_atom_site_fract_x
_atom_site_fract_y
_atom_site_fract_z
Si Si1 0.538047 0.425026 0.031700
Si Si2 0.085175 0.599443 0.536096
Si Si3 0.258726 0.700053 0.245354
Si Si4 0.116252 0.253018 0.563870
Si Si5 0.744112 0.784359 0.868867
Si Si6 0.540237 0.069906 0.841524
Si Si7 0.972978 0.018666 0.332493
O O1 0.725907 0.408105 0.038733
O O2 0.465381 0.267957 0.073929
O O3 0.480344 0.591294 0.066893
O O4 0.498648 0.440487 0.927285
O O5 0.035737 0.425009 0.566623
O O6 0.019223 0.612527 0.437730
O O7 0.265268 0.750871 0.145764
O O8 0.300581 0.840491 0.311119
O O9 0.419878 0.600899 0.260307
O O10 0.099710 0.613452 0.274486
O O11 0.204016 0.235301 0.469931
O O12 0.883790 0.866179 0.815939
O O13 0.686531 0.618200 0.841893
O O14 0.593581 0.894255 0.853368
#
# Coordination Sequence:
#
# PCOD9346517 Si02
#       7
#     4   4   4   4   4   4   4
#     4  11  25  44  74 110 142 207 261 305 380 483
#     4  12  24  47  77 107 149 204 259 316 370 491
#     4  12  26  45  72 113 156 193 254 338 399 449
#     4  11  28  47  78 113 158 198 265 328 404 455
#     4  11  24  45  77 106 145 204 261 315 381 491
#     4  12  24  44  74 107 145 204 255 314 392 470
#     4  11  21  44  72 108 147 196 263 314 384 477
#
# _framework density 25.096426000000001
#
# number of rings (size 3 to 8) (size 9 to 14) (size 15 to 20)
#    0.000    0.571    4.286    3.429    8.000    0.000 
#    2.571    0.000    0.000    0.000    0.000    0.000 
#    0.000    0.000    0.000    0.000    0.000    0.000 
#
# Total GULP energy -156527.829433 kJ/mol
# GULP energy per Si atom -5590.279623 kJ/mol
# Density = 2.503931 g / cm^3
# Si number density = 25.096426 Si / 1000 Ang^3
#
#
#
# Elastic Constant Matrix: (Units=GPa)
#
#
# Indices 1 2 3 4 5 6 
#
# 1 81.8004 54.2950 10.1963 0.0000 0.0000 0.0000
# 2 54.2950 215.8015 30.5527 0.0000 0.0000 0.0000
# 3 10.1963 30.5527 62.1687 0.0000 0.0000 0.0000
# 4 0.0000 0.0000 0.0000 8.8391 0.0000 0.0000
# 5 0.0000 0.0000 0.0000 0.0000 25.6939 0.0000
# 6 0.0000 0.0000 0.0000 0.0000 0.0000 90.3726
#
#
#
# Elastic Compliance Matrix: (Units=1/GPa)
#
#
# Indices 1 2 3 4 5 6 
#
# 1 0.014699 -0.003608 -0.000638 0.000000 0.000000 0.000000
# 2 -0.003608 0.005866 -0.002291 0.000000 0.000000 0.000000
# 3 -0.000638 -0.002291 0.017316 0.000000 0.000000 0.000000
# 4 0.000000 0.000000 0.000000 0.113134 0.000000 0.000000
# 5 0.000000 0.000000 0.000000 0.000000 0.038920 0.000000
# 6 0.000000 0.000000 0.000000 0.000000 0.000000 0.011065
#
#
# Mechanical properties :
#
#
# Convention : Reuss Voigt Hill
#
# Bulk Modulus (GPa) = 40.31046 61.09541 50.70294
# Shear Modulus (GPa) = 22.48783 42.62956 32.55869
#
# Velocity S-wave (km/s) = 2.99667 4.12592 3.60577
# Velocity P-wave (km/s) = 5.29816 6.86256 6.13046
#
# Compressibility (1/GPa) = 0.02480745
#
# Stress axis : x y z
#
# Youngs Moduli (GPa) = 68.03112 170.47356 57.75072
#
# Poissons Ratio (x) = 0.61506 0.03683
# Poissons Ratio (y) = 0.24545 0.13231
# Poissons Ratio (z) = 0.04338 0.39057
#
# Static dielectric constant tensor:
#      x y z
#    x 2.015670 0.000000 0.000000 
#    y 0.000000 2.111140 0.000000 
#    z 0.000000 0.000000 1.924040 
# 
# From -- ./inp_files/8477.got.cif
#   From: 2010.05.17/outbox.cif.g08.bks.cpg/sg33_5_cif.got.tgz:8477.got - 2010.06.03 17:15:25.
