data_PCOD9346158
_publ_section_title
;
Structure prediction by ZEFSAII (Michael W. Deem and Ramdas Pophale) SiO2 
 PCOD9346158
Probable space group: P N A 21
;
_chemical_formula_sum "Si O2"
_cell_formula_units_Z 32
_cell_length_a 22.838957
_cell_length_b 5.208427
_cell_length_c 10.894009
_cell_angle_alpha 90.000000
_cell_angle_beta 90.000000
_cell_angle_gamma 90.000000
_cell_volume 1295.897280
_symmetry_space_group_name_H-M "P N A 21"
_symmetry_group_IT_number 33
_symmetry_cell_setting 'orthorhombic'
loop_
_space_group_symop_operation_xyz
x,y,z
-x,-y,1/2+z
1/2-x,1/2+y,1/2+z
1/2+x,1/2-y,z
loop_
_atom_site_type_symbol
_atom_site_label
_atom_site_fract_x
_atom_site_fract_y
_atom_site_fract_z
Si Si1 0.257868 0.354225 0.729080
Si Si2 0.410018 0.016086 0.925725
Si Si3 0.147337 0.186106 0.641126
Si Si4 0.791196 0.918670 0.484540
Si Si5 0.099111 0.898669 0.851437
Si Si6 0.547028 0.084203 0.956984
Si Si7 0.135837 0.453150 0.164785
Si Si8 0.312697 0.413058 0.927002
O O1 0.186807 0.320498 0.743581
O O2 0.252207 0.455844 0.588225
O O3 0.289359 0.580733 0.813490
O O4 0.315021 0.165650 0.699232
O O5 0.477625 0.055374 0.952030
O O6 0.393975 0.881299 0.796005
O O7 0.375619 0.287006 0.918173
O O8 0.381971 0.859071 0.038052
O O9 0.103382 0.003633 0.713552
O O10 0.191928 0.007475 0.563746
O O11 0.835580 0.099662 0.410999
O O12 0.831123 0.727262 0.565326
O O13 0.740865 0.788457 0.399238
O O14 0.063907 0.121298 0.925352
O O15 0.072194 0.617949 0.857943
O O16 0.578232 0.982141 0.081632
#
# Coordination Sequence:
#
# PCOD9346158 Si02
#       8
#     4   4   4   4   4   4   4   4
#     4  11  21  40  65  99 139 181 231 303 360 441
#     4  11  27  45  69 107 136 196 243 307 358 431
#     4  12  25  42  71 105 145 187 241 309 366 440
#     4  11  20  42  67 100 137 188 231 295 369 434
#     4  11  27  47  76 102 143 193 245 297 365 432
#     4  11  27  51  74 104 143 199 248 297 359 440
#     4  10  23  45  70  95 143 183 243 291 369 428
#     4  11  24  40  66 104 142 181 242 299 376 432
#
# _framework density 24.693317
#
# number of rings (size 3 to 8) (size 9 to 14) (size 15 to 20)
#    0.000    1.000    5.000    0.750    5.250    0.000 
#    4.500    0.000    0.000    0.000    0.000    0.000 
#    0.000    0.000    0.000    0.000    0.000    0.000 
#
# Total GULP energy -178357.854142 kJ/mol
# GULP energy per Si atom -5573.682942 kJ/mol
# Density = 2.463711 g / cm^3
# Si number density = 24.693317 Si / 1000 Ang^3
#
#
#
# Elastic Constant Matrix: (Units=GPa)
#
#
# Indices 1 2 3 4 5 6 
#
# 1 167.5246 23.7383 28.7105 0.0000 0.0000 0.0000
# 2 23.7383 44.5278 -7.8659 0.0000 0.0000 0.0000
# 3 28.7105 -7.8659 100.6262 0.0000 0.0000 0.0000
# 4 0.0000 0.0000 0.0000 27.5029 0.0000 0.0000
# 5 0.0000 0.0000 0.0000 0.0000 32.7891 0.0000
# 6 0.0000 0.0000 0.0000 0.0000 0.0000 34.0204
#
#
#
# Elastic Compliance Matrix: (Units=1/GPa)
#
#
# Indices 1 2 3 4 5 6 
#
# 1 0.006946 -0.004110 -0.002303 0.000000 0.000000 0.000000
# 2 -0.004110 0.025204 0.003143 0.000000 0.000000 0.000000
# 3 -0.002303 0.003143 0.010841 0.000000 0.000000 0.000000
# 4 0.000000 0.000000 0.000000 0.036360 0.000000 0.000000
# 5 0.000000 0.000000 0.000000 0.000000 0.030498 0.000000
# 6 0.000000 0.000000 0.000000 0.000000 0.000000 0.029394
#
#
# Mechanical properties :
#
#
# Convention : Reuss Voigt Hill
#
# Bulk Modulus (GPa) = 27.43453 44.64937 36.04195
# Shear Modulus (GPa) = 31.65880 36.73554 34.19717
#
# Velocity S-wave (km/s) = 3.58450 3.86122 3.72543
# Velocity P-wave (km/s) = 5.31655 6.16437 5.75609
#
# Compressibility (1/GPa) = 0.03645041
#
# Stress axis : x y z
#
# Youngs Moduli (GPa) = 143.95947 39.67587 92.24587
#
# Poissons Ratio (x) = 0.16307 0.21246
# Poissons Ratio (y) = 0.59169 -0.28992
# Poissons Ratio (z) = 0.33157 -0.12470
#
# Static dielectric constant tensor:
#      x y z
#    x 1.938720 0.000000 0.000000 
#    y 0.000000 2.120630 0.000000 
#    z 0.000000 0.000000 2.070330 
# 
# From -- ./inp_files/7179.got.cif
#   From: 2010.05.17/outbox.cif.g08.bks.cpg/sg33_4_cif.got.tgz:7179.got - 2010.06.03 17:15:25.
