data_PCOD9346162
_publ_section_title
;
Structure prediction by ZEFSAII (Michael W. Deem and Ramdas Pophale) SiO2 
 PCOD9346162
Probable space group: P N A 21
;
_chemical_formula_sum "Si O2"
_cell_formula_units_Z 24
_cell_length_a 8.448068
_cell_length_b 23.781724
_cell_length_c 4.998360
_cell_angle_alpha 90.000000
_cell_angle_beta 90.000000
_cell_angle_gamma 90.000000
_cell_volume 1004.218616
_symmetry_space_group_name_H-M "P N A 21"
_symmetry_group_IT_number 33
_symmetry_cell_setting 'orthorhombic'
loop_
_space_group_symop_operation_xyz
x,y,z
-x,-y,1/2+z
1/2-x,1/2+y,1/2+z
1/2+x,1/2-y,z
loop_
_atom_site_type_symbol
_atom_site_label
_atom_site_fract_x
_atom_site_fract_y
_atom_site_fract_z
Si Si1 0.866176 0.441138 0.968030
Si Si2 0.844831 0.166762 0.533764
Si Si3 0.592646 0.067873 0.465664
Si Si4 0.153420 0.272279 0.936690
Si Si5 0.064666 0.714538 0.915600
Si Si6 0.664692 0.348533 0.226108
O O1 0.954751 0.430644 0.688828
O O2 0.823378 0.507064 0.987995
O O3 0.004764 0.431076 0.183714
O O4 0.721403 0.401130 0.051339
O O5 0.804831 0.191065 0.833890
O O6 0.044802 0.275423 0.669469
O O7 0.843064 0.226539 0.375724
O O8 0.009683 0.144067 0.409788
O O9 0.715910 0.118372 0.495781
O O10 0.043122 0.299090 0.162758
O O11 0.166710 0.206990 0.030791
O O12 0.197143 0.667980 0.935111
#
# Coordination Sequence:
#
# PCOD9346162 Si02
#       6
#     4   4   4   4   4   4
#     4  10  23  46  71  97 131 183 233 278 341 419
#     4  11  23  41  66 101 135 174 226 284 340 395
#     4  10  23  45  72  97 132 182 233 278 342 420
#     4  11  24  42  62  92 135 181 218 265 336 412
#     4  11  24  41  62  91 134 179 217 262 334 414
#     4  11  25  43  69 104 139 177 231 289 343 400
#
# _framework density 23.899177999999999
#
# number of rings (size 3 to 8) (size 9 to 14) (size 15 to 20)
#    0.000    1.333    0.000    5.000    0.000   10.667 
#    0.000    6.667    0.000    0.000    0.000    0.000 
#    0.000    0.000    0.000    0.000    0.000    0.000 
#
# Total GULP energy -134135.466599 kJ/mol
# GULP energy per Si atom -5588.977775 kJ/mol
# Density = 2.384478 g / cm^3
# Si number density = 23.899178 Si / 1000 Ang^3
#
#
#
# Elastic Constant Matrix: (Units=GPa)
#
#
# Indices 1 2 3 4 5 6 
#
# 1 111.2851 61.5951 36.0168 0.0000 0.0000 0.0000
# 2 61.5951 192.6728 35.5355 0.0000 0.0000 0.0000
# 3 36.0168 35.5355 119.2273 0.0000 0.0000 0.0000
# 4 0.0000 0.0000 0.0000 31.6304 0.0000 0.0000
# 5 0.0000 0.0000 0.0000 0.0000 33.6640 0.0000
# 6 0.0000 0.0000 0.0000 0.0000 0.0000 57.7932
#
#
#
# Elastic Compliance Matrix: (Units=1/GPa)
#
#
# Indices 1 2 3 4 5 6 
#
# 1 0.011601 -0.003241 -0.002539 0.000000 0.000000 0.000000
# 2 -0.003241 0.006397 -0.000928 0.000000 0.000000 0.000000
# 3 -0.002539 -0.000928 0.009431 0.000000 0.000000 0.000000
# 4 0.000000 0.000000 0.000000 0.031615 0.000000 0.000000
# 5 0.000000 0.000000 0.000000 0.000000 0.029705 0.000000
# 6 0.000000 0.000000 0.000000 0.000000 0.000000 0.017303
#
#
# Mechanical properties :
#
#
# Convention : Reuss Voigt Hill
#
# Bulk Modulus (GPa) = 71.35133 76.60887 73.98010
# Shear Modulus (GPa) = 40.27766 43.95340 42.11553
#
# Velocity S-wave (km/s) = 4.10971 4.29315 4.20243
# Velocity P-wave (km/s) = 7.24152 7.52990 7.38712
#
# Compressibility (1/GPa) = 0.01401515
#
# Stress axis : x y z
#
# Youngs Moduli (GPa) = 86.19834 156.31811 106.03594
#
# Poissons Ratio (x) = 0.50655 0.26919
# Poissons Ratio (y) = 0.27933 0.09838
# Poissons Ratio (z) = 0.21883 0.14503
#
# Static dielectric constant tensor:
#      x y z
#    x 2.016490 0.000000 0.000000 
#    y 0.000000 1.945870 0.000000 
#    z 0.000000 0.000000 1.971880 
# 
# From -- ./inp_files/463.got.cif
#   From: 2010.05.17/outbox.cif.g08.bks.cpg/sg33_1_cif.got.tgz:463.got - 2010.06.03 17:15:25.
