data_PCOD9346469
_publ_section_title
;
Structure prediction by ZEFSAII (Michael W. Deem and Ramdas Pophale) SiO2 
 PCOD9346469
Probable space group: P N A 21
;
_chemical_formula_sum "Si O2"
_cell_formula_units_Z 32
_cell_length_a 28.207677
_cell_length_b 7.955246
_cell_length_c 6.715592
_cell_angle_alpha 90.000000
_cell_angle_beta 90.000000
_cell_angle_gamma 90.000000
_cell_volume 1506.972194
_symmetry_space_group_name_H-M "P N A 21"
_symmetry_group_IT_number 33
_symmetry_cell_setting 'orthorhombic'
loop_
_space_group_symop_operation_xyz
x,y,z
-x,-y,1/2+z
1/2-x,1/2+y,1/2+z
1/2+x,1/2-y,z
loop_
_atom_site_type_symbol
_atom_site_label
_atom_site_fract_x
_atom_site_fract_y
_atom_site_fract_z
Si Si1 0.469432 0.696644 0.476030
Si Si2 0.648318 0.788952 0.102295
Si Si3 0.830861 0.073792 0.249745
Si Si4 0.406322 0.684663 0.094733
Si Si5 0.297144 0.659196 0.565911
Si Si6 0.887477 0.651843 0.714977
Si Si7 0.559558 0.586337 0.276271
Si Si8 0.774062 0.115985 0.854455
O O1 0.442556 0.724061 0.267966
O O2 0.440250 0.818325 0.625382
O O3 0.523678 0.704319 0.402045
O O4 0.462582 0.513014 0.584263
O O5 0.606923 0.679287 0.207165
O O6 0.699016 0.740166 0.199971
O O7 0.634178 0.979239 0.138480
O O8 0.648229 0.728998 0.872952
O O9 0.866669 0.922957 0.204958
O O10 0.794720 0.986589 0.401141
O O11 0.808856 0.118491 0.041955
O O12 0.388462 0.835594 0.955051
O O13 0.427750 0.559236 0.931401
O O14 0.350424 0.705114 0.636920
O O15 0.273855 0.815726 0.452822
O O16 0.271948 0.569378 0.755000
#
# Coordination Sequence:
#
# PCOD9346469 Si02
#       8
#     4   4   4   4   4   4   4   4
#     4  11  21  39  66  94 119 169 216 261 315 381
#     4  11  25  43  61  96 132 167 213 266 324 387
#     4  11  21  43  68  85 125 169 209 261 314 380
#     4  11  19  41  67  87 121 168 214 257 317 376
#     4  11  25  41  64  94 124 162 217 258 317 391
#     4  11  25  42  60  93 135 166 210 266 323 385
#     4  11  21  39  67  94 122 162 221 262 311 387
#     4  11  25  42  65  95 124 167 212 265 317 385
#
# _framework density 21.234632999999999
#
# number of rings (size 3 to 8) (size 9 to 14) (size 15 to 20)
#    0.000    1.000    6.250    1.500    3.500    3.000 
#    2.250    0.000    0.000    0.000    0.000    0.000 
#    0.000    0.000    0.000    0.000    0.000    0.000 
#
# Total GULP energy -178367.696792 kJ/mol
# GULP energy per Si atom -5573.990525 kJ/mol
# Density = 2.118630 g / cm^3
# Si number density = 21.234633 Si / 1000 Ang^3
#
#
#
# Elastic Constant Matrix: (Units=GPa)
#
#
# Indices 1 2 3 4 5 6 
#
# 1 36.5141 -16.7871 8.4737 0.0000 0.0000 0.0000
# 2 -16.7871 49.5080 24.2157 0.0000 0.0000 0.0000
# 3 8.4737 24.2157 124.1511 0.0000 0.0000 0.0000
# 4 0.0000 0.0000 0.0000 19.5300 0.0000 0.0000
# 5 0.0000 0.0000 0.0000 0.0000 27.6009 0.0000
# 6 0.0000 0.0000 0.0000 0.0000 0.0000 14.0661
#
#
#
# Elastic Compliance Matrix: (Units=1/GPa)
#
#
# Indices 1 2 3 4 5 6 
#
# 1 0.035282 0.014527 -0.005242 0.000000 0.000000 0.000000
# 2 0.014527 0.028310 -0.006513 0.000000 0.000000 0.000000
# 3 -0.005242 -0.006513 0.009683 0.000000 0.000000 0.000000
# 4 0.000000 0.000000 0.000000 0.051203 0.000000 0.000000
# 5 0.000000 0.000000 0.000000 0.000000 0.036231 0.000000
# 6 0.000000 0.000000 0.000000 0.000000 0.000000 0.071093
#
#
# Mechanical properties :
#
#
# Convention : Reuss Voigt Hill
#
# Bulk Modulus (GPa) = 12.68727 26.88643 19.78685
# Shear Modulus (GPa) = 19.79954 25.19079 22.49517
#
# Velocity S-wave (km/s) = 3.05686 3.44802 3.25832
# Velocity P-wave (km/s) = 4.29500 5.34236 4.84705
#
# Compressibility (1/GPa) = 0.07881915
#
# Stress axis : x y z
#
# Youngs Moduli (GPa) = 28.34327 35.32259 103.27477
#
# Poissons Ratio (x) = -0.51313 0.54132
# Poissons Ratio (y) = -0.41174 0.67268
# Poissons Ratio (z) = 0.14856 0.23007
#
# Static dielectric constant tensor:
#      x y z
#    x 2.079800 0.000000 0.000000 
#    y 0.000000 1.821690 0.000000 
#    z 0.000000 0.000000 1.812080 
# 
# From -- ./inp_files/2522.got.cif
#   From: 2010.05.17/outbox.cif.g08.bks.cpg/sg33_2_cif.got.tgz:2522.got - 2010.06.03 17:15:25.
