data_PCOD9346722
_publ_section_title
;
Structure prediction by ZEFSAII (Michael W. Deem and Ramdas Pophale) SiO2 
 PCOD9346722
Probable space group: P N A 21
;
_chemical_formula_sum "Si O2"
_cell_formula_units_Z 32
_cell_length_a 24.884356
_cell_length_b 6.642294
_cell_length_c 8.350967
_cell_angle_alpha 90.000000
_cell_angle_beta 90.000000
_cell_angle_gamma 90.000000
_cell_volume 1380.324726
_symmetry_space_group_name_H-M "P N A 21"
_symmetry_group_IT_number 33
_symmetry_cell_setting 'orthorhombic'
loop_
_space_group_symop_operation_xyz
x,y,z
-x,-y,1/2+z
1/2-x,1/2+y,1/2+z
1/2+x,1/2-y,z
loop_
_atom_site_type_symbol
_atom_site_label
_atom_site_fract_x
_atom_site_fract_y
_atom_site_fract_z
Si Si1 0.033821 0.745686 0.175210
Si Si2 0.540900 0.521986 0.858566
Si Si3 0.207478 0.500397 0.352813
Si Si4 0.617305 0.735530 0.399228
Si Si5 0.632112 0.231356 0.851551
Si Si6 0.947578 0.421184 0.190316
Si Si7 0.155923 0.131437 0.219295
Si Si8 0.754642 0.667998 0.167323
O O1 0.089608 0.663319 0.242270
O O2 0.992596 0.572796 0.124571
O O3 0.044055 0.913830 0.042300
O O4 0.003772 0.856589 0.322246
O O5 0.596693 0.425308 0.792817
O O6 0.526292 0.732034 0.777481
O O7 0.177369 0.688226 0.433283
O O8 0.163925 0.338073 0.308778
O O9 0.243014 0.385832 0.480694
O O10 0.233861 0.605635 0.200342
O O11 0.585431 0.817507 0.549256
O O12 0.618528 0.507421 0.333214
O O13 0.687504 0.176060 0.758564
O O14 0.591945 0.044285 0.811612
O O15 0.642746 0.300167 0.036050
O O16 0.211787 0.002331 0.221369
#
# Coordination Sequence:
#
# PCOD9346722 Si02
#       8
#     4   4   4   4   4   4   4   4
#     4  11  24  44  65  99 135 178 234 283 347 419
#     4  11  25  44  69  96 137 182 222 288 346 406
#     4  11  26  42  71  97 135 182 220 286 345 407
#     4  11  24  45  64 103 135 174 235 280 341 424
#     4  11  24  45  64 100 136 174 230 279 345 420
#     4  11  25  41  71  97 132 180 229 286 347 414
#     4  11  26  43  69  96 136 181 220 283 345 407
#     4  11  24  46  65 102 136 171 234 275 338 419
#
# _framework density 23.182950999999999
#
# number of rings (size 3 to 8) (size 9 to 14) (size 15 to 20)
#    0.000    1.000    3.750    1.500    5.250    4.000 
#    0.000    0.000    0.000    0.000    0.000    0.000 
#    0.000    0.000    0.000    0.000    0.000    0.000 
#
# Total GULP energy -178311.574097 kJ/mol
# GULP energy per Si atom -5572.236691 kJ/mol
# Density = 2.313019 g / cm^3
# Si number density = 23.182951 Si / 1000 Ang^3
#
#
#
# Elastic Constant Matrix: (Units=GPa)
#
#
# Indices 1 2 3 4 5 6 
#
# 1 38.1731 23.9248 -5.7738 0.0000 0.0000 0.0000
# 2 23.9248 123.1964 45.2475 0.0000 0.0000 0.0000
# 3 -5.7738 45.2475 75.5364 0.0000 0.0000 0.0000
# 4 0.0000 0.0000 0.0000 38.1187 0.0000 0.0000
# 5 0.0000 0.0000 0.0000 0.0000 29.4515 0.0000
# 6 0.0000 0.0000 0.0000 0.0000 0.0000 23.6188
#
#
#
# Elastic Compliance Matrix: (Units=1/GPa)
#
#
# Indices 1 2 3 4 5 6 
#
# 1 0.033413 -0.009522 0.008258 0.000000 0.000000 0.000000
# 2 -0.009522 0.013120 -0.008587 0.000000 0.000000 0.000000
# 3 0.008258 -0.008587 0.019014 0.000000 0.000000 0.000000
# 4 0.000000 0.000000 0.000000 0.026234 0.000000 0.000000
# 5 0.000000 0.000000 0.000000 0.000000 0.033954 0.000000
# 6 0.000000 0.000000 0.000000 0.000000 0.000000 0.042339
#
#
# Mechanical properties :
#
#
# Convention : Reuss Voigt Hill
#
# Bulk Modulus (GPa) = 21.81274 40.41143 31.11209
# Shear Modulus (GPa) = 24.62360 29.80498 27.21429
#
# Velocity S-wave (km/s) = 3.26259 3.58948 3.42993
# Velocity P-wave (km/s) = 4.86025 5.88630 5.39771
#
# Compressibility (1/GPa) = 0.04584476
#
# Stress axis : x y z
#
# Youngs Moduli (GPa) = 29.92837 76.21928 52.59411
#
# Poissons Ratio (x) = 0.72574 -0.43430
# Poissons Ratio (y) = 0.28497 0.45162
# Poissons Ratio (z) = -0.24714 0.65449
#
# Static dielectric constant tensor:
#      x y z
#    x 1.945080 0.000000 0.000000 
#    y 0.000000 1.845030 0.000000 
#    z 0.000000 0.000000 1.952840 
# 
# From -- ./inp_files/5339.got.cif
#   From: 2010.05.17/outbox.cif.g08.bks.cpg/sg33_3_cif.got.tgz:5339.got - 2010.06.03 17:15:25.
