data_PCOD9346282
_publ_section_title
;
Structure prediction by ZEFSAII (Michael W. Deem and Ramdas Pophale) SiO2 
 PCOD9346282
Probable space group: P N A 21
;
_chemical_formula_sum "Si O2"
_cell_formula_units_Z 24
_cell_length_a 12.850165
_cell_length_b 12.530061
_cell_length_c 5.790489
_cell_angle_alpha 90.000000
_cell_angle_beta 90.000000
_cell_angle_gamma 90.000000
_cell_volume 932.346040
_symmetry_space_group_name_H-M "P N A 21"
_symmetry_group_IT_number 33
_symmetry_cell_setting 'orthorhombic'
loop_
_space_group_symop_operation_xyz
x,y,z
-x,-y,1/2+z
1/2-x,1/2+y,1/2+z
1/2+x,1/2-y,z
loop_
_atom_site_type_symbol
_atom_site_label
_atom_site_fract_x
_atom_site_fract_y
_atom_site_fract_z
Si Si1 0.904986 0.216264 0.713420
Si Si2 0.391605 0.101679 0.385879
Si Si3 0.596103 0.114557 0.122293
Si Si4 0.259667 0.693817 0.571133
Si Si5 0.457070 0.532283 0.136242
Si Si6 0.781014 0.045344 0.397510
O O1 0.929869 0.331437 0.604343
O O2 0.837184 0.131538 0.559344
O O3 0.015114 0.153308 0.709486
O O4 0.831029 0.245838 0.928052
O O5 0.475984 0.115343 0.185551
O O6 0.287268 0.165344 0.320842
O O7 0.380674 0.977637 0.437707
O O8 0.642218 0.229558 0.069196
O O9 0.664269 0.078289 0.343523
O O10 0.283548 0.575343 0.485918
O O11 0.513834 0.477532 0.363890
O O12 0.346396 0.473460 0.161430
#
# Coordination Sequence:
#
# PCOD9346282 Si02
#       6
#     4   4   4   4   4   4
#     4  11  25  46  75 108 151 195 267 324 394 482
#     4  12  28  48  75 114 154 209 257 328 409 480
#     4  12  27  49  77 108 163 198 265 328 404 496
#     4  12  26  47  78 107 153 207 258 324 401 479
#     4  10  24  43  72 108 150 195 255 328 389 459
#     4  11  24  47  73 111 143 202 256 326 393 476
#
# _framework density 25.741517999999999
#
# number of rings (size 3 to 8) (size 9 to 14) (size 15 to 20)
#    0.000    0.667    3.333    3.000    4.667    6.667 
#    0.000    0.000    0.000    0.000    0.000    0.000 
#    0.000    0.000    0.000    0.000    0.000    0.000 
#
# Total GULP energy -134031.517694 kJ/mol
# GULP energy per Si atom -5584.646571 kJ/mol
# Density = 2.568293 g / cm^3
# Si number density = 25.741518 Si / 1000 Ang^3
#
#
#
# Elastic Constant Matrix: (Units=GPa)
#
#
# Indices 1 2 3 4 5 6 
#
# 1 56.1942 29.9884 15.1273 0.0000 0.0000 0.0000
# 2 29.9884 175.2338 33.6623 0.0000 0.0000 0.0000
# 3 15.1273 33.6623 50.3471 0.0000 0.0000 0.0000
# 4 0.0000 0.0000 0.0000 57.1740 0.0000 0.0000
# 5 0.0000 0.0000 0.0000 0.0000 34.7645 0.0000
# 6 0.0000 0.0000 0.0000 0.0000 0.0000 56.5989
#
#
#
# Elastic Compliance Matrix: (Units=1/GPa)
#
#
# Indices 1 2 3 4 5 6 
#
# 1 0.020382 -0.002652 -0.004351 0.000000 0.000000 0.000000
# 2 -0.002652 0.006893 -0.003812 0.000000 0.000000 0.000000
# 3 -0.004351 -0.003812 0.023718 0.000000 0.000000 0.000000
# 4 0.000000 0.000000 0.000000 0.017490 0.000000 0.000000
# 5 0.000000 0.000000 0.000000 0.000000 0.028765 0.000000
# 6 0.000000 0.000000 0.000000 0.000000 0.000000 0.017668
#
#
# Mechanical properties :
#
#
# Convention : Reuss Voigt Hill
#
# Bulk Modulus (GPa) = 34.05595 48.81456 41.43526
# Shear Modulus (GPa) = 34.16860 43.24062 38.70461
#
# Velocity S-wave (km/s) = 3.64727 4.10298 3.88182
# Velocity P-wave (km/s) = 5.56735 6.43821 6.01855
#
# Compressibility (1/GPa) = 0.02936344
#
# Stress axis : x y z
#
# Youngs Moduli (GPa) = 49.06281 145.07955 42.16245
#
# Poissons Ratio (x) = 0.38479 0.18343
# Poissons Ratio (y) = 0.13013 0.16071
# Poissons Ratio (z) = 0.21346 0.55299
#
# Static dielectric constant tensor:
#      x y z
#    x 2.205360 0.000000 0.000000 
#    y 0.000000 1.974580 0.000000 
#    z 0.000000 0.000000 2.175110 
# 
# From -- ./inp_files/1307.got.cif
#   From: 2010.05.17/outbox.cif.g08.bks.cpg/sg33_1_cif.got.tgz:1307.got - 2010.06.03 17:15:25.
