data_PCOD9346880
_publ_section_title
;
Structure prediction by ZEFSAII (Michael W. Deem and Ramdas Pophale) SiO2 
 PCOD9346880
Probable space group: P N A 21
;
_chemical_formula_sum "Si O2"
_cell_formula_units_Z 28
_cell_length_a 9.127449
_cell_length_b 15.820187
_cell_length_c 8.141034
_cell_angle_alpha 90.000000
_cell_angle_beta 90.000000
_cell_angle_gamma 90.000000
_cell_volume 1175.548621
_symmetry_space_group_name_H-M "P N A 21"
_symmetry_group_IT_number 33
_symmetry_cell_setting 'orthorhombic'
loop_
_space_group_symop_operation_xyz
x,y,z
-x,-y,1/2+z
1/2-x,1/2+y,1/2+z
1/2+x,1/2-y,z
loop_
_atom_site_type_symbol
_atom_site_label
_atom_site_fract_x
_atom_site_fract_y
_atom_site_fract_z
Si Si1 0.118712 0.173670 0.534130
Si Si2 0.728084 0.712975 0.474584
Si Si3 0.376946 0.458258 0.457080
Si Si4 0.924849 0.848375 0.393000
Si Si5 0.174885 0.433425 0.754491
Si Si6 0.865331 0.661202 0.810723
Si Si7 0.094817 0.573523 0.002254
O O1 0.045697 0.187543 0.710800
O O2 0.148565 0.257581 0.430294
O O3 0.270060 0.126136 0.569519
O O4 0.011486 0.106830 0.446543
O O5 0.769007 0.810353 0.447794
O O6 0.559773 0.687473 0.499454
O O7 0.783918 0.659500 0.317951
O O8 0.824668 0.686384 0.629242
O O9 0.419984 0.550901 0.397513
O O10 0.308824 0.465337 0.640869
O O11 0.245983 0.413905 0.358069
O O12 0.149720 0.487880 0.918274
O O13 0.030207 0.435832 0.640246
O O14 0.025265 0.625714 0.850033
#
# Coordination Sequence:
#
# PCOD9346880 Si02
#       7
#     4   4   4   4   4   4   4
#     4  12  27  48  76 109 153 205 251 316 385 466
#     4  12  29  48  74 113 152 201 261 322 390 464
#     4  11  27  50  78 111 150 199 258 312 394 459
#     4  12  30  46  79 109 155 204 256 324 388 471
#     4  11  25  49  73 111 148 199 255 319 395 464
#     4  11  28  48  76 110 153 201 260 318 387 467
#     4  11  26  43  78 105 151 195 255 319 385 467
#
# _framework density 23.818666
#
# number of rings (size 3 to 8) (size 9 to 14) (size 15 to 20)
#    0.000    0.571    1.429    4.286   18.000    0.000 
#    0.000    0.000    0.000    0.000    0.000    0.000 
#    0.000    0.000    0.000    0.000    0.000    0.000 
#
# Total GULP energy -156803.909433 kJ/mol
# GULP energy per Si atom -5600.139623 kJ/mol
# Density = 2.376445 g / cm^3
# Si number density = 23.818666 Si / 1000 Ang^3
#
#
#
# Elastic Constant Matrix: (Units=GPa)
#
#
# Indices 1 2 3 4 5 6 
#
# 1 78.7177 15.3380 -3.4771 0.0000 0.0000 0.0000
# 2 15.3380 99.8526 3.7674 0.0000 0.0000 0.0000
# 3 -3.4771 3.7674 73.2934 0.0000 0.0000 0.0000
# 4 0.0000 0.0000 0.0000 36.3124 0.0000 0.0000
# 5 0.0000 0.0000 0.0000 0.0000 28.4331 0.0000
# 6 0.0000 0.0000 0.0000 0.0000 0.0000 33.2702
#
#
#
# Elastic Compliance Matrix: (Units=1/GPa)
#
#
# Indices 1 2 3 4 5 6 
#
# 1 0.013134 -0.002045 0.000728 0.000000 0.000000 0.000000
# 2 -0.002045 0.010353 -0.000629 0.000000 0.000000 0.000000
# 3 0.000728 -0.000629 0.013711 0.000000 0.000000 0.000000
# 4 0.000000 0.000000 0.000000 0.027539 0.000000 0.000000
# 5 0.000000 0.000000 0.000000 0.000000 0.035170 0.000000
# 6 0.000000 0.000000 0.000000 0.000000 0.000000 0.030057
#
#
# Mechanical properties :
#
#
# Convention : Reuss Voigt Hill
#
# Bulk Modulus (GPa) = 30.02489 31.45782 30.74136
# Shear Modulus (GPa) = 34.49293 35.35218 34.92255
#
# Velocity S-wave (km/s) = 3.80958 3.85674 3.83323
# Velocity P-wave (km/s) = 5.65540 5.75052 5.70316
#
# Compressibility (1/GPa) = 0.03330570
#
# Stress axis : x y z
#
# Youngs Moduli (GPa) = 76.13686 96.59391 72.93583
#
# Poissons Ratio (x) = 0.19753 -0.05311
# Poissons Ratio (y) = 0.15570 0.04589
# Poissons Ratio (z) = -0.05544 0.06077
#
# Static dielectric constant tensor:
#      x y z
#    x 1.890410 0.000000 0.000000 
#    y 0.000000 1.955890 0.000000 
#    z 0.000000 0.000000 1.933400 
# 
# From -- ./inp_files/3210.got.cif
#   From: 2010.05.17/outbox.cif.g08.bks.cpg/sg33_2_cif.got.tgz:3210.got - 2010.06.03 17:15:25.
