data_PCOD9346757
_publ_section_title
;
Structure prediction by ZEFSAII (Michael W. Deem and Ramdas Pophale) SiO2 
 PCOD9346757
Probable space group: P N A 21
;
_chemical_formula_sum "Si O2"
_cell_formula_units_Z 28
_cell_length_a 9.562787
_cell_length_b 13.511124
_cell_length_c 9.706311
_cell_angle_alpha 90.000000
_cell_angle_beta 90.000000
_cell_angle_gamma 90.000000
_cell_volume 1254.094216
_symmetry_space_group_name_H-M "P N A 21"
_symmetry_group_IT_number 33
_symmetry_cell_setting 'orthorhombic'
loop_
_space_group_symop_operation_xyz
x,y,z
-x,-y,1/2+z
1/2-x,1/2+y,1/2+z
1/2+x,1/2-y,z
loop_
_atom_site_type_symbol
_atom_site_label
_atom_site_fract_x
_atom_site_fract_y
_atom_site_fract_z
Si Si1 0.160457 0.535447 0.945140
Si Si2 0.361247 0.546296 0.698171
Si Si3 0.811441 0.065296 0.189417
Si Si4 0.291694 0.376661 0.493894
Si Si5 0.250675 0.231225 0.032253
Si Si6 0.514664 0.163638 0.859430
Si Si7 0.491458 0.781314 0.042412
O O1 0.296836 0.544645 0.849884
O O2 0.066124 0.448574 0.879501
O O3 0.213030 0.502960 0.096126
O O4 0.070800 0.634377 0.955413
O O5 0.527278 0.532160 0.689636
O O6 0.288180 0.458352 0.612570
O O7 0.321404 0.649925 0.628175
O O8 0.767588 0.072492 0.347585
O O9 0.799011 0.174357 0.121668
O O10 0.440614 0.321945 0.499890
O O11 0.172764 0.294520 0.517071
O O12 0.381739 0.184016 0.954867
O O13 0.140920 0.270062 0.919546
O O14 0.484499 0.195676 0.703572
#
# Coordination Sequence:
#
# PCOD9346757 Si02
#       7
#     4   4   4   4   4   4   4
#     4  11  27  46  73 105 147 190 246 297 368 441
#     4  12  25  49  72 111 146 191 248 300 366 444
#     4  11  27  46  75 108 143 191 239 303 370 433
#     4  12  29  46  77 106 150 195 244 305 365 434
#     4  11  24  45  77 103 145 187 238 298 366 436
#     4  11  24  46  73 109 138 191 237 301 363 438
#     4  12  28  48  73 108 151 193 248 304 368 436
#
# _framework density 22.326872000000002
#
# number of rings (size 3 to 8) (size 9 to 14) (size 15 to 20)
#    0.000    0.571    2.857    3.429   12.000    2.286 
#    0.000    0.000    0.000    0.000    0.000    0.000 
#    0.000    0.000    0.000    0.000    0.000    0.000 
#
# Total GULP energy -156952.607894 kJ/mol
# GULP energy per Si atom -5605.450282 kJ/mol
# Density = 2.227605 g / cm^3
# Si number density = 22.326872 Si / 1000 Ang^3
#
#
#
# Elastic Constant Matrix: (Units=GPa)
#
#
# Indices 1 2 3 4 5 6 
#
# 1 54.4466 2.1042 4.8873 0.0000 0.0000 0.0000
# 2 2.1042 67.5250 6.3508 0.0000 0.0000 0.0000
# 3 4.8873 6.3508 89.1717 0.0000 0.0000 0.0000
# 4 0.0000 0.0000 0.0000 16.7503 0.0000 0.0000
# 5 0.0000 0.0000 0.0000 0.0000 14.1630 0.0000
# 6 0.0000 0.0000 0.0000 0.0000 0.0000 -86.3772
#
#
#
# Elastic Compliance Matrix: (Units=1/GPa)
#
#
# Indices 1 2 3 4 5 6 
#
# 1 0.018473 -0.000484 -0.000978 0.000000 0.000000 0.000000
# 2 -0.000484 0.014922 -0.001036 0.000000 0.000000 0.000000
# 3 -0.000978 -0.001036 0.011342 0.000000 0.000000 0.000000
# 4 0.000000 0.000000 0.000000 0.059700 0.000000 0.000000
# 5 0.000000 0.000000 0.000000 0.000000 0.070606 0.000000
# 6 0.000000 0.000000 0.000000 0.000000 0.000000 -0.011577
#
#
# Mechanical properties :
#
#
# Convention : Reuss Voigt Hill
#
# Bulk Modulus (GPa) = 25.16301 26.42531 25.79416
# Shear Modulus (GPa) = 27.51651 2.09396 14.80524
#
# Velocity S-wave (km/s) = 3.51442 0.96949 2.57789
# Velocity P-wave (km/s) = 5.26906 3.62140 4.52092
#
# Compressibility (1/GPa) = 0.03974087
#
# Stress axis : x y z
#
# Youngs Moduli (GPa) = 54.13278 67.01580 88.17003
#
# Poissons Ratio (x) = 0.03241 0.08623
# Poissons Ratio (y) = 0.02618 0.09136
# Poissons Ratio (z) = 0.05294 0.06944
#
# Static dielectric constant tensor:
#      x y z
#    x 1.787830 0.000000 0.000000 
#    y 0.000000 1.782260 0.000000 
#    z 0.000000 0.000000 1.777830 
# 
# From -- ./inp_files/3201.got.cif
#   From: 2010.05.17/outbox.cif.g08.bks.cpg/sg33_2_cif.got.tgz:3201.got - 2010.06.03 17:15:25.
