data_PCOD9346739
_publ_section_title
;
Structure prediction by ZEFSAII (Michael W. Deem and Ramdas Pophale) SiO2 
 PCOD9346739
Probable space group: P N A 21
;
_chemical_formula_sum "Si O2"
_cell_formula_units_Z 32
_cell_length_a 21.821669
_cell_length_b 5.199559
_cell_length_c 11.847676
_cell_angle_alpha 90.000000
_cell_angle_beta 90.000000
_cell_angle_gamma 90.000000
_cell_volume 1344.273519
_symmetry_space_group_name_H-M "P N A 21"
_symmetry_group_IT_number 33
_symmetry_cell_setting 'orthorhombic'
loop_
_space_group_symop_operation_xyz
x,y,z
-x,-y,1/2+z
1/2-x,1/2+y,1/2+z
1/2+x,1/2-y,z
loop_
_atom_site_type_symbol
_atom_site_label
_atom_site_fract_x
_atom_site_fract_y
_atom_site_fract_z
Si Si1 0.906760 0.506065 0.908630
Si Si2 0.577677 0.236113 0.655045
Si Si3 0.226884 0.204893 0.046935
Si Si4 0.213267 0.171316 0.623960
Si Si5 0.540293 0.147052 0.905092
Si Si6 0.363470 0.606219 0.729342
Si Si7 0.721408 0.764943 0.340724
Si Si8 0.949456 0.139275 0.560118
O O1 0.905821 0.740464 0.817337
O O2 0.840335 0.387928 0.889170
O O3 0.966864 0.341063 0.884839
O O4 0.912890 0.567236 0.041444
O O5 0.643482 0.370833 0.657801
O O6 0.568165 0.117496 0.779445
O O7 0.516019 0.387723 0.620622
O O8 0.269518 0.456305 0.034592
O O9 0.167219 0.244382 0.121266
O O10 0.265904 0.958159 0.088821
O O11 0.218168 0.174240 0.914301
O O12 0.258560 0.104516 0.724943
O O13 0.558197 0.405779 0.971635
O O14 0.552668 0.902972 0.987820
O O15 0.304672 0.510072 0.800230
O O16 0.400521 0.383293 0.662213
#
# Coordination Sequence:
#
# PCOD9346739 Si02
#       8
#     4   4   4   4   4   4   4   4
#     4  11  24  46  76 101 145 201 241 311 363 463
#     4  11  26  48  74 110 150 197 250 312 371 459
#     4  11  25  45  70 105 143 190 242 306 361 440
#     4  11  25  44  69 104 141 185 244 299 366 431
#     4  11  29  47  71 115 148 199 251 308 383 443
#     4  11  26  48  75 109 151 196 255 304 384 448
#     4  11  24  44  72 106 139 196 245 303 369 445
#     4  11  29  48  77 108 155 202 246 317 377 451
#
# _framework density 23.804677999999999
#
# number of rings (size 3 to 8) (size 9 to 14) (size 15 to 20)
#    0.000    1.000    2.500    1.500   15.750    1.000 
#    0.000    0.000    0.000    0.000    0.000    0.000 
#    0.000    0.000    0.000    0.000    0.000    0.000 
#
# Total GULP energy -178332.455958 kJ/mol
# GULP energy per Si atom -5572.889249 kJ/mol
# Density = 2.375050 g / cm^3
# Si number density = 23.804678 Si / 1000 Ang^3
#
#
#
# Elastic Constant Matrix: (Units=GPa)
#
#
# Indices 1 2 3 4 5 6 
#
# 1 50.1109 21.3712 5.6341 0.0000 0.0000 0.0000
# 2 21.3712 55.3421 43.1199 0.0000 0.0000 0.0000
# 3 5.6341 43.1199 105.3805 0.0000 0.0000 0.0000
# 4 0.0000 0.0000 0.0000 2.2850 0.0000 0.0000
# 5 0.0000 0.0000 0.0000 0.0000 55.2093 0.0000
# 6 0.0000 0.0000 0.0000 0.0000 0.0000 49.1434
#
#
#
# Elastic Compliance Matrix: (Units=1/GPa)
#
#
# Indices 1 2 3 4 5 6 
#
# 1 0.024896 -0.012591 0.003821 0.000000 0.000000 0.000000
# 2 -0.012591 0.032894 -0.012787 0.000000 0.000000 0.000000
# 3 0.003821 -0.012787 0.014517 0.000000 0.000000 0.000000
# 4 0.000000 0.000000 0.000000 0.437629 0.000000 0.000000
# 5 0.000000 0.000000 0.000000 0.000000 0.018113 0.000000
# 6 0.000000 0.000000 0.000000 0.000000 0.000000 0.020349
#
#
# Mechanical properties :
#
#
# Convention : Reuss Voigt Hill
#
# Bulk Modulus (GPa) = 34.25348 39.00931 36.63139
# Shear Modulus (GPa) = 8.31611 30.70810 19.51210
#
# Velocity S-wave (km/s) = 1.87111 3.59556 2.86610
# Velocity P-wave (km/s) = 4.36906 5.80174 5.13561
#
# Compressibility (1/GPa) = 0.02919412
#
# Stress axis : x y z
#
# Youngs Moduli (GPa) = 40.16713 30.40030 68.88366
#
# Poissons Ratio (x) = 0.38277 -0.26321
# Poissons Ratio (y) = 0.50575 0.88079
# Poissons Ratio (z) = -0.15348 0.38872
#
# Static dielectric constant tensor:
#      x y z
#    x 1.769590 0.000000 0.000000 
#    y 0.000000 2.031270 0.000000 
#    z 0.000000 0.000000 1.988160 
# 
# From -- ./inp_files/7256.got.cif
#   From: 2010.05.17/outbox.cif.g08.bks.cpg/sg33_4_cif.got.tgz:7256.got - 2010.06.03 17:15:25.
