data_PCOD9346587
_publ_section_title
;
Structure prediction by ZEFSAII (Michael W. Deem and Ramdas Pophale) SiO2 
 PCOD9346587
Probable space group: P N A 21
;
_chemical_formula_sum "Si O2"
_cell_formula_units_Z 32
_cell_length_a 17.076512
_cell_length_b 13.859733
_cell_length_c 5.105734
_cell_angle_alpha 90.000000
_cell_angle_beta 90.000000
_cell_angle_gamma 90.000000
_cell_volume 1208.404174
_symmetry_space_group_name_H-M "P N A 21"
_symmetry_group_IT_number 33
_symmetry_cell_setting 'orthorhombic'
loop_
_space_group_symop_operation_xyz
x,y,z
-x,-y,1/2+z
1/2-x,1/2+y,1/2+z
1/2+x,1/2-y,z
loop_
_atom_site_type_symbol
_atom_site_label
_atom_site_fract_x
_atom_site_fract_y
_atom_site_fract_z
Si Si1 0.533527 0.228163 0.844700
Si Si2 0.540381 0.577602 0.475945
Si Si3 0.736378 0.904933 0.275018
Si Si4 0.843627 0.192824 0.350857
Si Si5 0.709080 0.206255 0.918407
Si Si6 0.337457 0.005650 0.271528
Si Si7 0.872112 0.005100 0.591388
Si Si8 0.538891 0.860966 0.857114
O O1 0.491154 0.331380 0.802654
O O2 0.620654 0.246101 0.955934
O O3 0.523916 0.169522 0.574637
O O4 0.491098 0.168546 0.072871
O O5 0.586655 0.638441 0.691305
O O6 0.461055 0.517253 0.505728
O O7 0.607410 0.499646 0.397156
O O8 0.746271 0.789702 0.257768
O O9 0.672631 0.943506 0.488042
O O10 0.812774 0.943134 0.428306
O O11 0.719864 0.949927 0.993765
O O12 0.883830 0.294543 0.409717
O O13 0.839005 0.114445 0.580004
O O14 0.764685 0.194967 0.174940
O O15 0.686061 0.105714 0.781153
O O16 0.425194 0.032114 0.364845
#
# Coordination Sequence:
#
# PCOD9346587 Si02
#       8
#     4   4   4   4   4   4   4   4
#     4  11  26  47  72 107 146 197 254 311 372 450
#     4  11  23  39  69 105 146 196 245 314 382 455
#     4  12  28  47  75 115 154 194 259 315 383 464
#     4  11  23  45  71 107 149 198 245 312 390 462
#     4  12  27  50  77 113 157 199 259 322 388 459
#     4  12  28  49  77 109 149 207 251 315 386 456
#     4  12  22  41  71 107 152 194 251 317 388 460
#     4  11  25  48  74 103 147 197 252 304 373 460
#
# _framework density 26.481204999999999
#
# number of rings (size 3 to 8) (size 9 to 14) (size 15 to 20)
#    0.000    0.500    6.250    1.500    1.750    5.000 
#    2.250    0.000    0.000    0.000    0.000    0.000 
#    0.000    0.000    0.000    0.000    0.000    0.000 
#
# Total GULP energy -178693.203794 kJ/mol
# GULP energy per Si atom -5584.162619 kJ/mol
# Density = 2.642093 g / cm^3
# Si number density = 26.481205 Si / 1000 Ang^3
#
#
#
# Elastic Constant Matrix: (Units=GPa)
#
#
# Indices 1 2 3 4 5 6 
#
# 1 113.2801 10.6003 8.7702 0.0000 0.0000 0.0000
# 2 10.6003 129.7139 16.1733 0.0000 0.0000 0.0000
# 3 8.7702 16.1733 54.7969 0.0000 0.0000 0.0000
# 4 0.0000 0.0000 0.0000 18.9875 0.0000 0.0000
# 5 0.0000 0.0000 0.0000 0.0000 43.1842 0.0000
# 6 0.0000 0.0000 0.0000 0.0000 0.0000 45.1374
#
#
#
# Elastic Compliance Matrix: (Units=1/GPa)
#
#
# Indices 1 2 3 4 5 6 
#
# 1 0.008980 -0.000576 -0.001267 0.000000 0.000000 0.000000
# 2 -0.000576 0.008041 -0.002281 0.000000 0.000000 0.000000
# 3 -0.001267 -0.002281 0.019125 0.000000 0.000000 0.000000
# 4 0.000000 0.000000 0.000000 0.052666 0.000000 0.000000
# 5 0.000000 0.000000 0.000000 0.000000 0.023157 0.000000
# 6 0.000000 0.000000 0.000000 0.000000 0.000000 0.022155
#
#
# Mechanical properties :
#
#
# Convention : Reuss Voigt Hill
#
# Bulk Modulus (GPa) = 35.84556 40.98650 38.41603
# Shear Modulus (GPa) = 32.96620 38.94496 35.95558
#
# Velocity S-wave (km/s) = 3.53213 3.83908 3.68880
# Velocity P-wave (km/s) = 5.49547 5.92981 5.71676
#
# Compressibility (1/GPa) = 0.02789746
#
# Stress axis : x y z
#
# Youngs Moduli (GPa) = 111.36269 124.36655 52.28681
#
# Poissons Ratio (x) = 0.07161 0.06626
# Poissons Ratio (y) = 0.06412 0.11927
# Poissons Ratio (z) = 0.14112 0.28369
#
# Static dielectric constant tensor:
#      x y z
#    x 2.156130 0.000000 0.000000 
#    y 0.000000 2.171390 0.000000 
#    z 0.000000 0.000000 2.237330 
# 
# From -- ./inp_files/1790.got.cif
#   From: 2010.05.17/outbox.cif.g08.bks.cpg/sg33_1_cif.got.tgz:1790.got - 2010.06.03 17:15:25.
