data_PCOD9346349
_publ_section_title
;
Structure prediction by ZEFSAII (Michael W. Deem and Ramdas Pophale) SiO2 
 PCOD9346349
Probable space group: P N A 21
;
_chemical_formula_sum "Si O2"
_cell_formula_units_Z 20
_cell_length_a 5.731730
_cell_length_b 19.675635
_cell_length_c 6.993769
_cell_angle_alpha 90.000000
_cell_angle_beta 90.000000
_cell_angle_gamma 90.000000
_cell_volume 788.725288
_symmetry_space_group_name_H-M "P N A 21"
_symmetry_group_IT_number 33
_symmetry_cell_setting 'orthorhombic'
loop_
_space_group_symop_operation_xyz
x,y,z
-x,-y,1/2+z
1/2-x,1/2+y,1/2+z
1/2+x,1/2-y,z
loop_
_atom_site_type_symbol
_atom_site_label
_atom_site_fract_x
_atom_site_fract_y
_atom_site_fract_z
Si Si1 0.932308 0.264820 0.947610
Si Si2 0.024872 0.911260 0.142366
Si Si3 0.194766 0.490417 0.341879
Si Si4 0.555548 0.717128 0.878290
Si Si5 0.141555 0.406983 0.987095
O O1 0.679775 0.255060 0.852523
O O2 0.960597 0.344869 0.992328
O O3 0.935649 0.221477 0.145720
O O4 0.996619 0.851731 0.990014
O O5 0.159391 0.970957 0.028574
O O6 0.166048 0.887867 0.330304
O O7 0.798375 0.946320 0.226203
O O8 0.951831 0.520218 0.411818
O O9 0.200551 0.425452 0.204415
O O10 0.325238 0.762985 0.926289
#
# Coordination Sequence:
#
# PCOD9346349 Si02
#       5
#     4   4   4   4   4
#     4  10  24  46  73 105 147 200 252 312 380 448
#     4  12  27  46  77 108 151 200 254 318 388 462
#     4  12  26  48  72 114 150 196 258 320 390 458
#     4  10  24  46  73 105 147 200 252 312 380 448
#     4  12  27  46  77 108 151 200 254 318 388 462
#
# _framework density 25.357371000000001
#
# number of rings (size 3 to 8) (size 9 to 14) (size 15 to 20)
#    0.000    0.800    4.000    2.400    5.600    8.000 
#    0.000    0.000    0.000    0.000    0.000    0.000 
#    0.000    0.000    0.000    0.000    0.000    0.000 
#
# Total GULP energy -111776.386524 kJ/mol
# GULP energy per Si atom -5588.819326 kJ/mol
# Density = 2.529966 g / cm^3
# Si number density = 25.357371 Si / 1000 Ang^3
#
#
#
# Elastic Constant Matrix: (Units=GPa)
#
#
# Indices 1 2 3 4 5 6 
#
# 1 114.6772 15.9024 24.3428 0.0000 0.0000 0.0000
# 2 15.9024 83.9353 22.5064 0.0000 0.0000 0.0000
# 3 24.3428 22.5064 136.9934 0.0000 0.0000 0.0000
# 4 0.0000 0.0000 0.0000 50.8984 0.0000 0.0000
# 5 0.0000 0.0000 0.0000 0.0000 29.7871 0.0000
# 6 0.0000 0.0000 0.0000 0.0000 0.0000 46.3308
#
#
#
# Elastic Compliance Matrix: (Units=1/GPa)
#
#
# Indices 1 2 3 4 5 6 
#
# 1 0.009209 -0.001366 -0.001412 0.000000 0.000000 0.000000
# 2 -0.001366 0.012666 -0.001838 0.000000 0.000000 0.000000
# 3 -0.001412 -0.001838 0.007852 0.000000 0.000000 0.000000
# 4 0.000000 0.000000 0.000000 0.019647 0.000000 0.000000
# 5 0.000000 0.000000 0.000000 0.000000 0.033572 0.000000
# 6 0.000000 0.000000 0.000000 0.000000 0.000000 0.021584
#
#
# Mechanical properties :
#
#
# Convention : Reuss Voigt Hill
#
# Bulk Modulus (GPa) = 48.79242 51.23434 50.01338
# Shear Modulus (GPa) = 41.46142 43.59354 42.52748
#
# Velocity S-wave (km/s) = 4.04800 4.15078 4.09971
# Velocity P-wave (km/s) = 6.41343 6.57425 6.49434
#
# Compressibility (1/GPa) = 0.02049499
#
# Stress axis : x y z
#
# Youngs Moduli (GPa) = 108.58584 78.95380 127.34806
#
# Poissons Ratio (x) = 0.10787 0.17981
# Poissons Ratio (y) = 0.14835 0.23407
# Poissons Ratio (z) = 0.15332 0.14512
#
# Static dielectric constant tensor:
#      x y z
#    x 2.021610 0.000000 0.000000 
#    y 0.000000 1.994220 0.000000 
#    z 0.000000 0.000000 1.968240 
# 
# From -- ./inp_files/2629.got.cif
#   From: 2010.05.17/outbox.cif.g08.bks.cpg/sg33_2_cif.got.tgz:2629.got - 2010.06.03 17:15:25.
