data_PCOD9346686
_publ_section_title
;
Structure prediction by ZEFSAII (Michael W. Deem and Ramdas Pophale) SiO2 
 PCOD9346686
Probable space group: P N A 21
;
_chemical_formula_sum "Si O2"
_cell_formula_units_Z 28
_cell_length_a 17.168867
_cell_length_b 5.463611
_cell_length_c 11.737187
_cell_angle_alpha 90.000000
_cell_angle_beta 90.000000
_cell_angle_gamma 90.000000
_cell_volume 1100.995214
_symmetry_space_group_name_H-M "P N A 21"
_symmetry_group_IT_number 33
_symmetry_cell_setting 'orthorhombic'
loop_
_space_group_symop_operation_xyz
x,y,z
-x,-y,1/2+z
1/2-x,1/2+y,1/2+z
1/2+x,1/2-y,z
loop_
_atom_site_type_symbol
_atom_site_label
_atom_site_fract_x
_atom_site_fract_y
_atom_site_fract_z
Si Si1 0.375608 0.196396 0.743540
Si Si2 0.670940 0.210763 0.553432
Si Si3 0.514942 0.422936 0.182712
Si Si4 0.035870 0.383299 0.412758
Si Si5 0.883707 0.622922 0.521925
Si Si6 0.241442 0.513913 0.856292
Si Si7 0.340114 0.295300 0.164484
O O1 0.460853 0.302451 0.709657
O O2 0.355731 0.036000 0.632057
O O3 0.307276 0.384469 0.778328
O O4 0.398692 0.064709 0.860913
O O5 0.579566 0.229131 0.520925
O O6 0.715403 0.312218 0.445014
O O7 0.685364 0.423983 0.646574
O O8 0.688974 0.931871 0.586666
O O9 0.526826 0.299438 0.307094
O O10 0.432436 0.315631 0.147865
O O11 0.577638 0.351856 0.085748
O O12 0.954737 0.496338 0.453126
O O13 0.814361 0.660155 0.432089
O O14 0.185735 0.691631 0.785043
#
# Coordination Sequence:
#
# PCOD9346686 Si02
#       7
#     4   4   4   4   4   4   4
#     4  11  26  47  75 112 159 197 270 336 392 493
#     4  12  27  49  77 109 158 204 254 325 403 456
#     4  11  24  45  75 110 146 200 267 315 381 473
#     4  11  23  48  76 107 152 210 256 328 397 463
#     4  11  25  47  74 109 150 205 265 321 404 471
#     4  12  27  48  74 111 159 208 253 334 410 467
#     4  12  28  48  77 114 152 204 271 319 383 487
#
# _framework density 25.431538
#
# number of rings (size 3 to 8) (size 9 to 14) (size 15 to 20)
#    0.000    0.571    4.286    2.571    4.000    3.429 
#    5.143    0.000    0.000    0.000    0.000    0.000 
#    0.000    0.000    0.000    0.000    0.000    0.000 
#
# Total GULP energy -156517.563107 kJ/mol
# GULP energy per Si atom -5589.912968 kJ/mol
# Density = 2.537365 g / cm^3
# Si number density = 25.431538 Si / 1000 Ang^3
#
#
#
# Elastic Constant Matrix: (Units=GPa)
#
#
# Indices 1 2 3 4 5 6 
#
# 1 99.2477 5.7571 20.7335 0.0000 0.0000 0.0000
# 2 5.7571 44.7613 4.8057 0.0000 0.0000 0.0000
# 3 20.7335 4.8057 90.7619 0.0000 0.0000 0.0000
# 4 0.0000 0.0000 0.0000 26.2506 0.0000 0.0000
# 5 0.0000 0.0000 0.0000 0.0000 56.9255 0.0000
# 6 0.0000 0.0000 0.0000 0.0000 0.0000 22.4468
#
#
#
# Elastic Compliance Matrix: (Units=1/GPa)
#
#
# Indices 1 2 3 4 5 6 
#
# 1 0.010636 -0.001113 -0.002371 0.000000 0.000000 0.000000
# 2 -0.001113 0.022585 -0.000941 0.000000 0.000000 0.000000
# 3 -0.002371 -0.000941 0.011609 0.000000 0.000000 0.000000
# 4 0.000000 0.000000 0.000000 0.038094 0.000000 0.000000
# 5 0.000000 0.000000 0.000000 0.000000 0.017567 0.000000
# 6 0.000000 0.000000 0.000000 0.000000 0.000000 0.044550
#
#
# Mechanical properties :
#
#
# Convention : Reuss Voigt Hill
#
# Bulk Modulus (GPa) = 27.79413 33.04038 30.41725
# Shear Modulus (GPa) = 30.14142 34.68958 32.41550
#
# Velocity S-wave (km/s) = 3.44641 3.69730 3.57405
# Velocity P-wave (km/s) = 5.17587 5.58988 5.38686
#
# Compressibility (1/GPa) = 0.03597883
#
# Stress axis : x y z
#
# Youngs Moduli (GPa) = 94.02364 44.27713 86.13831
#
# Poissons Ratio (x) = 0.04930 0.20420
# Poissons Ratio (y) = 0.10469 0.08110
# Poissons Ratio (z) = 0.22290 0.04169
#
# Static dielectric constant tensor:
#      x y z
#    x 2.378550 0.000000 0.000000 
#    y 0.000000 2.037440 0.000000 
#    z 0.000000 0.000000 2.007380 
# 
# From -- ./inp_files/6937.got.cif
#   From: 2010.05.17/outbox.cif.g08.bks.cpg/sg33_4_cif.got.tgz:6937.got - 2010.06.03 17:15:25.
