data_PCOD9346493
_publ_section_title
;
Structure prediction by ZEFSAII (Michael W. Deem and Ramdas Pophale) SiO2 
 PCOD9346493
Probable space group: P N A 21
;
_chemical_formula_sum "Si O2"
_cell_formula_units_Z 32
_cell_length_a 10.558379
_cell_length_b 16.500831
_cell_length_c 8.449575
_cell_angle_alpha 90.000000
_cell_angle_beta 90.000000
_cell_angle_gamma 90.000000
_cell_volume 1472.102088
_symmetry_space_group_name_H-M "P N A 21"
_symmetry_group_IT_number 33
_symmetry_cell_setting 'orthorhombic'
loop_
_space_group_symop_operation_xyz
x,y,z
-x,-y,1/2+z
1/2-x,1/2+y,1/2+z
1/2+x,1/2-y,z
loop_
_atom_site_type_symbol
_atom_site_label
_atom_site_fract_x
_atom_site_fract_y
_atom_site_fract_z
Si Si1 0.287518 0.479626 0.557740
Si Si2 0.407133 0.252953 0.276123
Si Si3 0.392209 0.786515 0.564666
Si Si4 0.031647 0.216090 0.604885
Si Si5 0.082177 0.041264 0.530134
Si Si6 0.238964 0.812092 0.240086
Si Si7 0.216476 0.128672 0.244385
Si Si8 0.250809 0.916329 0.723250
O O1 0.438556 0.491489 0.523532
O O2 0.274493 0.404900 0.680381
O O3 0.231568 0.561355 0.626475
O O4 0.226677 0.457528 0.390761
O O5 0.460013 0.229668 0.102027
O O6 0.501338 0.270174 0.420425
O O7 0.322865 0.178198 0.337144
O O8 0.335868 0.337651 0.257677
O O9 0.305145 0.799962 0.410760
O O10 0.343539 0.702491 0.644390
O O11 0.372374 0.871828 0.654284
O O12 0.073439 0.123198 0.633848
O O13 0.151483 0.271569 0.635993
O O14 0.900579 0.226251 0.704885
O O15 0.128787 0.075164 0.360749
O O16 0.177338 0.976339 0.605026
#
# Coordination Sequence:
#
# PCOD9346493 Si02
#       8
#     4   4   4   4   4   4   4   4
#     4  11  22  42  63 101 136 178 226 295 349 415
#     4  11  22  46  68  96 139 191 229 280 366 436
#     4  11  24  42  67  96 136 188 226 286 355 430
#     4  11  23  44  69 101 135 184 228 295 350 432
#     4  11  21  39  67  99 133 175 233 286 352 411
#     4  11  25  42  69  99 140 175 237 289 356 422
#     4  11  24  41  68  99 138 179 237 287 353 429
#     4  11  23  40  67  97 137 178 228 288 351 419
#
# _framework density 21.737624
#
# number of rings (size 3 to 8) (size 9 to 14) (size 15 to 20)
#    0.000    1.000    3.750    3.750    5.250    1.000 
#    0.000    6.250    0.000    0.000    0.000    0.000 
#    0.000    0.000    0.000    0.000    0.000    0.000 
#
# Total GULP energy -178371.330458 kJ/mol
# GULP energy per Si atom -5574.104077 kJ/mol
# Density = 2.168815 g / cm^3
# Si number density = 21.737624 Si / 1000 Ang^3
#
#
#
# Elastic Constant Matrix: (Units=GPa)
#
#
# Indices 1 2 3 4 5 6 
#
# 1 38.0192 18.1332 -2.7950 0.0000 0.0000 0.0000
# 2 18.1332 114.1313 22.1838 0.0000 0.0000 0.0000
# 3 -2.7950 22.1838 83.3941 0.0000 0.0000 0.0000
# 4 0.0000 0.0000 0.0000 30.3756 0.0000 0.0000
# 5 0.0000 0.0000 0.0000 0.0000 33.5235 0.0000
# 6 0.0000 0.0000 0.0000 0.0000 0.0000 15.1559
#
#
#
# Elastic Compliance Matrix: (Units=1/GPa)
#
#
# Indices 1 2 3 4 5 6 
#
# 1 0.028874 -0.005036 0.002307 0.000000 0.000000 0.000000
# 2 -0.005036 0.010118 -0.002860 0.000000 0.000000 0.000000
# 3 0.002307 -0.002860 0.012829 0.000000 0.000000 0.000000
# 4 0.000000 0.000000 0.000000 0.032921 0.000000 0.000000
# 5 0.000000 0.000000 0.000000 0.000000 0.029830 0.000000
# 6 0.000000 0.000000 0.000000 0.000000 0.000000 0.065981
#
#
# Mechanical properties :
#
#
# Convention : Reuss Voigt Hill
#
# Bulk Modulus (GPa) = 24.60413 34.50984 29.55699
# Shear Modulus (GPa) = 24.35712 29.01252 26.68482
#
# Velocity S-wave (km/s) = 3.35103 3.65727 3.50749
# Velocity P-wave (km/s) = 5.12989 5.80898 5.47997
#
# Compressibility (1/GPa) = 0.04064358
#
# Stress axis : x y z
#
# Youngs Moduli (GPa) = 34.63319 98.83457 77.94562
#
# Poissons Ratio (x) = 0.49773 -0.17985
# Poissons Ratio (y) = 0.17441 0.22295
# Poissons Ratio (z) = -0.07991 0.28269
#
# Static dielectric constant tensor:
#      x y z
#    x 1.975360 0.000000 0.000000 
#    y 0.000000 1.731060 0.000000 
#    z 0.000000 0.000000 1.912370 
# 
# From -- ./inp_files/3957.got.cif
#   From: 2010.05.17/outbox.cif.g08.bks.cpg/sg33_2_cif.got.tgz:3957.got - 2010.06.03 17:15:25.
