data_PCOD9346622
_publ_section_title
;
Structure prediction by ZEFSAII (Michael W. Deem and Ramdas Pophale) SiO2 
 PCOD9346622
Probable space group: P N A 21
;
_chemical_formula_sum "Si O2"
_cell_formula_units_Z 32
_cell_length_a 21.092796
_cell_length_b 5.434799
_cell_length_c 11.660561
_cell_angle_alpha 90.000000
_cell_angle_beta 90.000000
_cell_angle_gamma 90.000000
_cell_volume 1336.709653
_symmetry_space_group_name_H-M "P N A 21"
_symmetry_group_IT_number 33
_symmetry_cell_setting 'orthorhombic'
loop_
_space_group_symop_operation_xyz
x,y,z
-x,-y,1/2+z
1/2-x,1/2+y,1/2+z
1/2+x,1/2-y,z
loop_
_atom_site_type_symbol
_atom_site_label
_atom_site_fract_x
_atom_site_fract_y
_atom_site_fract_z
Si Si1 0.495589 0.627614 0.431220
Si Si2 0.703814 0.538353 0.890193
Si Si3 0.905898 0.267893 0.511069
Si Si4 0.099802 0.868449 0.256794
Si Si5 0.859397 0.954840 0.147245
Si Si6 0.409777 0.916949 0.291803
Si Si7 0.993714 0.222235 0.159897
Si Si8 0.283921 0.465760 0.911492
O O1 0.473601 0.364331 0.482399
O O2 0.561053 0.697824 0.371800
O O3 0.485518 0.816343 0.535443
O O4 0.443391 0.669431 0.334318
O O5 0.674126 0.559625 0.761754
O O6 0.748655 0.773656 0.903580
O O7 0.739956 0.278174 0.904727
O O8 0.648606 0.560614 0.985752
O O9 0.899532 0.314644 0.647473
O O10 0.887338 0.455329 0.408611
O O11 0.167847 0.942276 0.304088
O O12 0.053838 0.086345 0.212239
O O13 0.865789 0.666418 0.186525
O O14 0.930514 0.061543 0.129683
O O15 0.820862 0.016025 0.033166
O O16 0.466570 0.077497 0.243440
#
# Coordination Sequence:
#
# PCOD9346622 Si02
#       8
#     4   4   4   4   4   4   4   4
#     4  11  23  43  67 111 147 190 244 319 386 461
#     4  12  28  53  74 111 150 205 261 316 376 455
#     4  11  25  45  74 103 150 194 258 312 388 454
#     4  11  24  48  68 115 152 190 253 320 391 462
#     4  12  26  49  79 105 148 198 262 312 393 457
#     4  12  22  42  76 110 138 211 238 322 385 478
#     4  11  24  43  74 106 154 182 252 316 391 462
#     4  12  32  49  80 111 155 202 258 319 380 457
#
# _framework density 23.939378999999999
#
# number of rings (size 3 to 8) (size 9 to 14) (size 15 to 20)
#    0.000    0.500    6.250    0.750    7.000    2.000 
#    2.250    0.000    0.000    0.000    0.000    0.000 
#    0.000    0.000    0.000    0.000    0.000    0.000 
#
# Total GULP energy -178522.981590 kJ/mol
# GULP energy per Si atom -5578.843175 kJ/mol
# Density = 2.388489 g / cm^3
# Si number density = 23.939379 Si / 1000 Ang^3
#
#
#
# Elastic Constant Matrix: (Units=GPa)
#
#
# Indices 1 2 3 4 5 6 
#
# 1 89.4656 25.0549 21.6587 0.0000 0.0000 0.0000
# 2 25.0549 77.8237 8.5663 0.0000 0.0000 0.0000
# 3 21.6587 8.5663 139.7438 0.0000 0.0000 0.0000
# 4 0.0000 0.0000 0.0000 36.0297 0.0000 0.0000
# 5 0.0000 0.0000 0.0000 0.0000 43.7512 0.0000
# 6 0.0000 0.0000 0.0000 0.0000 0.0000 28.0695
#
#
#
# Elastic Compliance Matrix: (Units=1/GPa)
#
#
# Indices 1 2 3 4 5 6 
#
# 1 0.012686 -0.003894 -0.001728 0.000000 0.000000 0.000000
# 2 -0.003894 0.014132 -0.000263 0.000000 0.000000 0.000000
# 3 -0.001728 -0.000263 0.007440 0.000000 0.000000 0.000000
# 4 0.000000 0.000000 0.000000 0.027755 0.000000 0.000000
# 5 0.000000 0.000000 0.000000 0.000000 0.022857 0.000000
# 6 0.000000 0.000000 0.000000 0.000000 0.000000 0.035626
#
#
# Mechanical properties :
#
#
# Convention : Reuss Voigt Hill
#
# Bulk Modulus (GPa) = 44.46532 46.39922 45.43227
# Shear Modulus (GPa) = 35.77545 38.35364 37.06454
#
# Velocity S-wave (km/s) = 3.86996 4.00699 3.93907
# Velocity P-wave (km/s) = 6.21155 6.38999 6.30140
#
# Compressibility (1/GPa) = 0.02248944
#
# Stress axis : x y z
#
# Youngs Moduli (GPa) = 78.82558 70.76060 134.41214
#
# Poissons Ratio (x) = 0.27555 0.23220
# Poissons Ratio (y) = 0.30696 0.03532
# Poissons Ratio (z) = 0.13617 0.01859
#
# Static dielectric constant tensor:
#      x y z
#    x 1.967380 0.000000 0.000000 
#    y 0.000000 1.993200 0.000000 
#    z 0.000000 0.000000 1.952670 
# 
# From -- ./inp_files/7175.got.cif
#   From: 2010.05.17/outbox.cif.g08.bks.cpg/sg33_4_cif.got.tgz:7175.got - 2010.06.03 17:15:25.
