data_PCOD9346924
_publ_section_title
;
Structure prediction by ZEFSAII (Michael W. Deem and Ramdas Pophale) SiO2 
 PCOD9346924
Probable space group: P N A 21
;
_chemical_formula_sum "Si O2"
_cell_formula_units_Z 32
_cell_length_a 20.810253
_cell_length_b 5.570941
_cell_length_c 11.260904
_cell_angle_alpha 90.000000
_cell_angle_beta 90.000000
_cell_angle_gamma 90.000000
_cell_volume 1305.506911
_symmetry_space_group_name_H-M "P N A 21"
_symmetry_group_IT_number 33
_symmetry_cell_setting 'orthorhombic'
loop_
_space_group_symop_operation_xyz
x,y,z
-x,-y,1/2+z
1/2-x,1/2+y,1/2+z
1/2+x,1/2-y,z
loop_
_atom_site_type_symbol
_atom_site_label
_atom_site_fract_x
_atom_site_fract_y
_atom_site_fract_z
Si Si1 0.106481 0.686594 0.913480
Si Si2 0.470121 0.361186 0.632753
Si Si3 0.247396 0.291847 0.705816
Si Si4 0.779704 0.970102 0.419233
Si Si5 0.837760 0.622439 0.598671
Si Si6 0.452956 0.140713 0.151533
Si Si7 0.869577 0.938131 0.800875
Si Si8 0.149035 0.408719 0.496832
O O1 0.078176 0.654583 0.783547
O O2 0.178490 0.793047 0.906293
O O3 0.066464 0.854194 0.005125
O O4 0.114413 0.452100 0.994040
O O5 0.512042 0.603752 0.636414
O O6 0.420016 0.377646 0.743630
O O7 0.507764 0.110397 0.645997
O O8 0.202198 0.191664 0.809067
O O9 0.297438 0.468315 0.772987
O O10 0.195413 0.362041 0.607890
O O11 0.291210 0.090085 0.640985
O O12 0.796556 0.836583 0.540856
O O13 0.703310 0.997595 0.406326
O O14 0.876833 0.714781 0.710616
O O15 0.402397 0.096964 0.043876
O O16 0.878024 0.829815 0.932173
#
# Coordination Sequence:
#
# PCOD9346924 Si02
#       8
#     4   4   4   4   4   4   4   4
#     4  12  28  55  83 113 162 218 275 335 418 492
#     4  12  29  60  82 118 160 228 286 335 413 482
#     4  12  25  45  77 119 161 205 262 334 419 496
#     4  12  26  43  83 113 161 205 257 342 409 507
#     4  12  21  45  79 114 149 214 258 321 416 497
#     4  12  34  53  86 121 163 220 282 351 399 496
#     4  12  26  50  81 114 159 218 267 338 412 492
#     4  12  27  51  73 126 159 206 271 340 418 480
#
# _framework density 24.51155
#
# number of rings (size 3 to 8) (size 9 to 14) (size 15 to 20)
#    0.000    0.000    6.250    2.250    8.750    1.000 
#    2.250    0.000    0.000    0.000    0.000    0.000 
#    0.000    0.000    0.000    0.000    0.000    0.000 
#
# Total GULP energy -178914.520171 kJ/mol
# GULP energy per Si atom -5591.078755 kJ/mol
# Density = 2.445576 g / cm^3
# Si number density = 24.511550 Si / 1000 Ang^3
#
#
#
# Elastic Constant Matrix: (Units=GPa)
#
#
# Indices 1 2 3 4 5 6 
#
# 1 92.3958 54.0187 37.8099 0.0000 0.0000 0.0000
# 2 54.0187 109.0768 32.1483 0.0000 0.0000 0.0000
# 3 37.8099 32.1483 122.4309 0.0000 0.0000 0.0000
# 4 0.0000 0.0000 0.0000 47.7053 0.0000 0.0000
# 5 0.0000 0.0000 0.0000 0.0000 22.9417 0.0000
# 6 0.0000 0.0000 0.0000 0.0000 0.0000 8.0427
#
#
#
# Elastic Compliance Matrix: (Units=1/GPa)
#
#
# Indices 1 2 3 4 5 6 
#
# 1 0.016286 -0.007135 -0.003156 0.000000 0.000000 0.000000
# 2 -0.007135 0.013063 -0.001227 0.000000 0.000000 0.000000
# 3 -0.003156 -0.001227 0.009465 0.000000 0.000000 0.000000
# 4 0.000000 0.000000 0.000000 0.020962 0.000000 0.000000
# 5 0.000000 0.000000 0.000000 0.000000 0.043589 0.000000
# 6 0.000000 0.000000 0.000000 0.000000 0.000000 0.124336
#
#
# Mechanical properties :
#
#
# Convention : Reuss Voigt Hill
#
# Bulk Modulus (GPa) = 63.37916 63.53969 63.45943
# Shear Modulus (GPa) = 19.53161 29.06640 24.29901
#
# Velocity S-wave (km/s) = 2.82589 3.44732 3.15195
# Velocity P-wave (km/s) = 6.04653 6.46714 6.26037
#
# Compressibility (1/GPa) = 0.01577806
#
# Stress axis : x y z
#
# Youngs Moduli (GPa) = 61.40213 76.55212 105.65696
#
# Poissons Ratio (x) = 0.54622 0.33345
# Poissons Ratio (y) = 0.43812 0.12960
# Poissons Ratio (z) = 0.19378 0.09390
#
# Static dielectric constant tensor:
#      x y z
#    x 2.039920 0.000000 0.000000 
#    y 0.000000 2.032000 0.000000 
#    z 0.000000 0.000000 2.003490 
# 
# From -- ./inp_files/7255.got.cif
#   From: 2010.05.17/outbox.cif.g08.bks.cpg/sg33_4_cif.got.tgz:7255.got - 2010.06.03 17:15:25.
