data_PCOD9346086
_publ_section_title
;
Structure prediction by ZEFSAII (Michael W. Deem and Ramdas Pophale) SiO2 
 PCOD9346086
Probable space group: P N A 21
;
_chemical_formula_sum "Si O2"
_cell_formula_units_Z 32
_cell_length_a 11.793740
_cell_length_b 6.939983
_cell_length_c 17.567168
_cell_angle_alpha 90.000000
_cell_angle_beta 90.000000
_cell_angle_gamma 90.000000
_cell_volume 1437.843805
_symmetry_space_group_name_H-M "P N A 21"
_symmetry_group_IT_number 33
_symmetry_cell_setting 'orthorhombic'
loop_
_space_group_symop_operation_xyz
x,y,z
-x,-y,1/2+z
1/2-x,1/2+y,1/2+z
1/2+x,1/2-y,z
loop_
_atom_site_type_symbol
_atom_site_label
_atom_site_fract_x
_atom_site_fract_y
_atom_site_fract_z
Si Si1 0.609960 0.111101 0.746450
Si Si2 0.740245 0.480554 0.786929
Si Si3 0.460352 0.492256 0.403980
Si Si4 0.703731 0.469766 0.045227
Si Si5 0.513870 0.612002 0.142847
Si Si6 0.037898 0.601150 0.380043
Si Si7 0.079840 0.324642 0.496242
Si Si8 0.330527 0.271938 0.155022
O O1 0.711071 0.264781 0.757314
O O2 0.508898 0.247095 0.713259
O O3 0.568785 0.040962 0.828754
O O4 0.631266 0.930648 0.692185
O O5 0.630124 0.544604 0.836732
O O6 0.848141 0.477229 0.841420
O O7 0.752280 0.621485 0.715004
O O8 0.385539 0.557994 0.477350
O O9 0.537899 0.669988 0.380951
O O10 0.541350 0.320328 0.429874
O O11 0.638045 0.543910 0.120095
O O12 0.772666 0.283870 0.074869
O O13 0.789937 0.631688 0.014473
O O14 0.433618 0.423523 0.147580
O O15 0.473138 0.740227 0.071887
O O16 0.030070 0.524573 0.465620
#
# Coordination Sequence:
#
# PCOD9346086 Si02
#       8
#     4   4   4   4   4   4   4   4
#     4  10  23  43  66  98 135 172 221 273 330 401
#     4  10  23  44  67 102 131 175 227 272 335 404
#     4  10  24  46  64  98 140 169 229 284 318 412
#     4  11  24  43  68  98 133 178 225 273 338 398
#     4  10  25  43  63  99 137 165 225 279 317 407
#     4  11  24  43  70  96 133 177 221 273 342 390
#     4  11  23  44  65  97 131 176 223 272 329 394
#     4  11  24  44  67  98 136 178 221 274 345 396
#
# _framework density 22.255548000000001
#
# number of rings (size 3 to 8) (size 9 to 14) (size 15 to 20)
#    0.000    1.500    2.500    0.750    7.000    1.000 
#   13.500    0.000    0.000    0.000    0.000    0.000 
#    0.000    0.000    0.000    0.000    0.000    0.000 
#
# Total GULP energy -178739.565805 kJ/mol
# GULP energy per Si atom -5585.611431 kJ/mol
# Density = 2.220489 g / cm^3
# Si number density = 22.255548 Si / 1000 Ang^3
#
#
#
# Elastic Constant Matrix: (Units=GPa)
#
#
# Indices 1 2 3 4 5 6 
#
# 1 65.5983 39.1107 17.6654 0.0000 0.0000 0.0000
# 2 39.1107 81.3992 28.6107 0.0000 0.0000 0.0000
# 3 17.6654 28.6107 75.5565 0.0000 0.0000 0.0000
# 4 0.0000 0.0000 0.0000 49.8541 0.0000 0.0000
# 5 0.0000 0.0000 0.0000 0.0000 45.7593 0.0000
# 6 0.0000 0.0000 0.0000 0.0000 0.0000 19.8077
#
#
#
# Elastic Compliance Matrix: (Units=1/GPa)
#
#
# Indices 1 2 3 4 5 6 
#
# 1 0.021472 -0.009865 -0.001285 0.000000 0.000000 0.000000
# 2 -0.009865 0.018704 -0.004776 0.000000 0.000000 0.000000
# 3 -0.001285 -0.004776 0.015344 0.000000 0.000000 0.000000
# 4 0.000000 0.000000 0.000000 0.020059 0.000000 0.000000
# 5 0.000000 0.000000 0.000000 0.000000 0.021853 0.000000
# 6 0.000000 0.000000 0.000000 0.000000 0.000000 0.050485
#
#
# Mechanical properties :
#
#
# Convention : Reuss Voigt Hill
#
# Bulk Modulus (GPa) = 42.25093 43.70305 42.97699
# Shear Modulus (GPa) = 26.64411 32.22872 29.43641
#
# Velocity S-wave (km/s) = 3.46380 3.80955 3.64078
# Velocity P-wave (km/s) = 5.91801 6.24738 6.08492
#
# Compressibility (1/GPa) = 0.02366812
#
# Stress axis : x y z
#
# Youngs Moduli (GPa) = 46.57200 53.46460 65.17215
#
# Poissons Ratio (x) = 0.52745 0.08372
# Poissons Ratio (y) = 0.45945 0.31126
# Poissons Ratio (z) = 0.05983 0.25535
#
# Static dielectric constant tensor:
#      x y z
#    x 1.832950 0.000000 0.000000 
#    y 0.000000 1.813570 0.000000 
#    z 0.000000 0.000000 1.851260 
# 
# From -- ./inp_files/9081.got.cif
#   From: 2010.05.17/outbox.cif.g08.bks.cpg/sg33_5_cif.got.tgz:9081.got - 2010.06.03 17:15:25.
