data_PCOD9346234
_publ_section_title
;
Structure prediction by ZEFSAII (Michael W. Deem and Ramdas Pophale) SiO2 
 PCOD9346234
Probable space group: P N A 21
;
_chemical_formula_sum "Si O2"
_cell_formula_units_Z 16
_cell_length_a 9.256286
_cell_length_b 14.341444
_cell_length_c 5.236690
_cell_angle_alpha 90.000000
_cell_angle_beta 90.000000
_cell_angle_gamma 90.000000
_cell_volume 695.162781
_symmetry_space_group_name_H-M "P N A 21"
_symmetry_group_IT_number 33
_symmetry_cell_setting 'orthorhombic'
loop_
_space_group_symop_operation_xyz
x,y,z
-x,-y,1/2+z
1/2-x,1/2+y,1/2+z
1/2+x,1/2-y,z
loop_
_atom_site_type_symbol
_atom_site_label
_atom_site_fract_x
_atom_site_fract_y
_atom_site_fract_z
Si Si1 0.758434 0.353916 0.414420
Si Si2 0.780056 0.188899 0.093809
Si Si3 0.415947 0.973544 0.515204
Si Si4 0.052496 0.799428 0.089217
O O1 0.753588 0.299002 0.144935
O O2 0.779769 0.463259 0.426746
O O3 0.901382 0.308125 0.541993
O O4 0.614537 0.319535 0.553469
O O5 0.854551 0.154619 0.357620
O O6 0.634379 0.132929 0.039813
O O7 0.887076 0.173438 0.861493
O O8 0.530570 0.993608 0.292876
#
# Coordination Sequence:
#
# PCOD9346234 Si02
#       4
#     4   4   4   4
#     4  10  26  43  73  98 142 189 232 299 363 423
#     4  10  25  42  66 102 140 175 243 288 354 430
#     4  12  27  44  72 103 144 188 248 297 366 444
#     4  10  24  41  71  95 142 180 235 288 367 417
#
# _framework density 23.016190999999999
#
# number of rings (size 3 to 8) (size 9 to 14) (size 15 to 20)
#    1.500    0.000    0.000    3.000   10.500    2.000 
#    0.000    0.000    0.000    0.000    0.000    0.000 
#    0.000    0.000    0.000    0.000    0.000    0.000 
#
# Total GULP energy -89316.859609 kJ/mol
# GULP energy per Si atom -5582.303726 kJ/mol
# Density = 2.296380 g / cm^3
# Si number density = 23.016191 Si / 1000 Ang^3
#
#
#
# Elastic Constant Matrix: (Units=GPa)
#
#
# Indices 1 2 3 4 5 6 
#
# 1 56.3059 -0.6362 31.7849 0.0000 0.0000 0.0000
# 2 -0.6362 45.1243 16.8297 0.0000 0.0000 0.0000
# 3 31.7849 16.8297 148.0467 0.0000 0.0000 0.0000
# 4 0.0000 0.0000 0.0000 17.3732 0.0000 0.0000
# 5 0.0000 0.0000 0.0000 0.0000 41.9429 0.0000
# 6 0.0000 0.0000 0.0000 0.0000 0.0000 36.5348
#
#
#
# Elastic Compliance Matrix: (Units=1/GPa)
#
#
# Indices 1 2 3 4 5 6 
#
# 1 0.020382 0.002004 -0.004604 0.000000 0.000000 0.000000
# 2 0.002004 0.023339 -0.003083 0.000000 0.000000 0.000000
# 3 -0.004604 -0.003083 0.008094 0.000000 0.000000 0.000000
# 4 0.000000 0.000000 0.000000 0.057560 0.000000 0.000000
# 5 0.000000 0.000000 0.000000 0.000000 0.023842 0.000000
# 6 0.000000 0.000000 0.000000 0.000000 0.000000 0.027371
#
#
# Mechanical properties :
#
#
# Convention : Reuss Voigt Hill
#
# Bulk Modulus (GPa) = 24.72264 38.38152 31.55208
# Shear Modulus (GPa) = 26.96351 32.60342 29.78346
#
# Velocity S-wave (km/s) = 3.42643 3.76778 3.60115
# Velocity P-wave (km/s) = 5.13991 5.96995 5.57041
#
# Compressibility (1/GPa) = 0.04044876
#
# Stress axis : x y z
#
# Youngs Moduli (GPa) = 49.06394 42.84624 123.55540
#
# Poissons Ratio (x) = -0.08588 0.56881
# Poissons Ratio (y) = -0.09834 0.38098
# Poissons Ratio (z) = 0.22587 0.13212
#
# Static dielectric constant tensor:
#      x y z
#    x 1.845620 0.000000 0.000000 
#    y 0.000000 1.872790 0.000000 
#    z 0.000000 0.000000 1.874410 
# 
# From -- ./inp_files/276.got.cif
#   From: 2010.05.17/outbox.cif.g08.bks.cpg/sg33_1_cif.got.tgz:276.got - 2010.06.03 17:15:25.
