data_PCOD9346548
_publ_section_title
;
Structure prediction by ZEFSAII (Michael W. Deem and Ramdas Pophale) SiO2 
 PCOD9346548
Probable space group: P N A 21
;
_chemical_formula_sum "Si O2"
_cell_formula_units_Z 28
_cell_length_a 14.138090
_cell_length_b 14.443526
_cell_length_c 5.333435
_cell_angle_alpha 90.000000
_cell_angle_beta 90.000000
_cell_angle_gamma 90.000000
_cell_volume 1089.108070
_symmetry_space_group_name_H-M "P N A 21"
_symmetry_group_IT_number 33
_symmetry_cell_setting 'orthorhombic'
loop_
_space_group_symop_operation_xyz
x,y,z
-x,-y,1/2+z
1/2-x,1/2+y,1/2+z
1/2+x,1/2-y,z
loop_
_atom_site_type_symbol
_atom_site_label
_atom_site_fract_x
_atom_site_fract_y
_atom_site_fract_z
Si Si1 0.074453 0.140782 0.406500
Si Si2 0.949361 0.488555 0.653693
Si Si3 0.783430 0.590705 0.475127
Si Si4 0.096942 0.976710 0.739421
Si Si5 0.926757 0.285174 0.439974
Si Si6 0.310954 0.229112 0.921320
Si Si7 0.266982 0.552007 0.609836
O O1 0.178150 0.123633 0.294861
O O2 0.994377 0.086601 0.245926
O O3 0.031584 0.241934 0.430462
O O4 0.072243 0.080897 0.659620
O O5 0.860092 0.557435 0.674752
O O6 0.930015 0.391944 0.512563
O O7 0.986473 0.465314 0.932525
O O8 0.677050 0.563480 0.557285
O O9 0.776954 0.699561 0.430527
O O10 0.801478 0.519848 0.246649
O O11 0.152327 0.986513 0.997174
O O12 0.871855 0.267835 0.179071
O O13 0.870267 0.242656 0.676253
O O14 0.277399 0.121992 0.908479
#
# Coordination Sequence:
#
# PCOD9346548 Si02
#       7
#     4   4   4   4   4   4   4
#     4  11  24  39  71 108 145 185 238 304 375 432
#     4  12  29  51  77 105 148 201 254 306 367 447
#     4  11  26  46  74 105 146 200 251 306 384 450
#     4  11  22  42  70 105 146 185 235 304 381 435
#     4  12  27  50  73 107 149 193 251 307 371 440
#     4  12  27  46  75 106 144 200 246 307 370 446
#     4  11  25  44  72 106 148 192 245 308 368 456
#
# _framework density 25.709114
#
# number of rings (size 3 to 8) (size 9 to 14) (size 15 to 20)
#    0.000    0.571    4.286    2.571   10.000    1.143 
#    0.000    0.000    0.000    0.000    0.000    0.000 
#    0.000    0.000    0.000    0.000    0.000    0.000 
#
# Total GULP energy -156633.416672 kJ/mol
# GULP energy per Si atom -5594.050595 kJ/mol
# Density = 2.565060 g / cm^3
# Si number density = 25.709114 Si / 1000 Ang^3
#
#
#
# Elastic Constant Matrix: (Units=GPa)
#
#
# Indices 1 2 3 4 5 6 
#
# 1 43.4950 4.7133 23.7009 0.0000 0.0000 0.0000
# 2 4.7133 116.4326 -0.6330 0.0000 0.0000 0.0000
# 3 23.7009 -0.6330 110.2196 0.0000 0.0000 0.0000
# 4 0.0000 0.0000 0.0000 19.6984 0.0000 0.0000
# 5 0.0000 0.0000 0.0000 0.0000 43.3172 0.0000
# 6 0.0000 0.0000 0.0000 0.0000 0.0000 43.1972
#
#
#
# Elastic Compliance Matrix: (Units=1/GPa)
#
#
# Indices 1 2 3 4 5 6 
#
# 1 0.026180 -0.001090 -0.005636 0.000000 0.000000 0.000000
# 2 -0.001090 0.008634 0.000284 0.000000 0.000000 0.000000
# 3 -0.005636 0.000284 0.010286 0.000000 0.000000 0.000000
# 4 0.000000 0.000000 0.000000 0.050766 0.000000 0.000000
# 5 0.000000 0.000000 0.000000 0.000000 0.023086 0.000000
# 6 0.000000 0.000000 0.000000 0.000000 0.000000 0.023150
#
#
# Mechanical properties :
#
#
# Convention : Reuss Voigt Hill
#
# Bulk Modulus (GPa) = 31.04003 36.18996 33.61500
# Shear Modulus (GPa) = 30.17045 37.40031 33.78538
#
# Velocity S-wave (km/s) = 3.42940 3.81826 3.62904
# Velocity P-wave (km/s) = 5.27075 5.79189 5.53746
#
# Compressibility (1/GPa) = 0.03221646
#
# Stress axis : x y z
#
# Youngs Moduli (GPa) = 38.19658 115.81654 97.21629
#
# Poissons Ratio (x) = 0.12629 0.54790
# Poissons Ratio (y) = 0.04165 -0.02762
# Poissons Ratio (z) = 0.21527 -0.03290
#
# Static dielectric constant tensor:
#      x y z
#    x 2.089790 0.000000 0.000000 
#    y 0.000000 2.035850 0.000000 
#    z 0.000000 0.000000 2.109110 
# 
# From -- ./inp_files/1421.got.cif
#   From: 2010.05.17/outbox.cif.g08.bks.cpg/sg33_1_cif.got.tgz:1421.got - 2010.06.03 17:15:25.
