data_PCOD9346369
_publ_section_title
;
Structure prediction by ZEFSAII (Michael W. Deem and Ramdas Pophale) SiO2 
 PCOD9346369
Probable space group: P N A 21
;
_chemical_formula_sum "Si O2"
_cell_formula_units_Z 20
_cell_length_a 8.987575
_cell_length_b 5.258241
_cell_length_c 16.285356
_cell_angle_alpha 90.000000
_cell_angle_beta 90.000000
_cell_angle_gamma 90.000000
_cell_volume 769.626958
_symmetry_space_group_name_H-M "P N A 21"
_symmetry_group_IT_number 33
_symmetry_cell_setting 'orthorhombic'
loop_
_space_group_symop_operation_xyz
x,y,z
-x,-y,1/2+z
1/2-x,1/2+y,1/2+z
1/2+x,1/2-y,z
loop_
_atom_site_type_symbol
_atom_site_label
_atom_site_fract_x
_atom_site_fract_y
_atom_site_fract_z
Si Si1 0.973985 0.963656 0.535900
Si Si2 0.649127 0.747858 0.389087
Si Si3 0.973987 0.536344 0.754976
Si Si4 0.149129 0.747860 0.901788
Si Si5 0.285994 0.250005 0.145438
O O1 0.749999 0.499999 0.395437
O O2 0.823765 0.869392 0.578477
O O3 0.033570 0.779868 0.463510
O O4 0.104647 0.954015 0.602841
O O5 0.562894 0.777911 0.302836
O O6 0.749999 0.999999 0.395438
O O7 0.437101 0.277911 0.488041
O O8 0.823766 0.630599 0.712398
O O9 0.033569 0.720134 0.827366
O O10 0.104650 0.545992 0.688035
#
# Coordination Sequence:
#
# PCOD9346369 Si02
#       5
#     4   4   4   4   4
#     4  11  24  50  85 123 176 222 300 348 453 510
#     4  12  26  49  85 120 165 230 287 355 423 534
#     4  11  24  50  85 123 176 222 300 348 453 510
#     4  12  26  49  85 120 165 230 287 355 423 534
#     4  10  24  48  86 128 176 226 278 388 440 520
#
# _framework density 25.986616000000001
#
# number of rings (size 3 to 8) (size 9 to 14) (size 15 to 20)
#    0.000    0.800    4.000    2.400    0.000    0.000 
#    0.000    6.000    0.000    0.000    0.000    0.000 
#    0.000    0.000    0.000    0.000    0.000    0.000 
#
# Total GULP energy -112215.703258 kJ/mol
# GULP energy per Si atom -5610.785163 kJ/mol
# Density = 2.592747 g / cm^3
# Si number density = 25.986616 Si / 1000 Ang^3
#
#
#
# Elastic Constant Matrix: (Units=GPa)
#
#
# Indices 1 2 3 4 5 6 
#
# 1 217.6484 93.8744 106.7965 0.0000 0.0000 0.0000
# 2 93.8744 185.5980 71.7435 0.0000 0.0000 0.0000
# 3 106.7965 71.7435 179.2738 0.0000 0.0000 0.0000
# 4 0.0000 0.0000 0.0000 41.0576 0.0000 0.0000
# 5 0.0000 0.0000 0.0000 0.0000 80.0946 0.0000
# 6 0.0000 0.0000 0.0000 0.0000 0.0000 50.7671
#
#
#
# Elastic Compliance Matrix: (Units=1/GPa)
#
#
# Indices 1 2 3 4 5 6 
#
# 1 0.007280 -0.002373 -0.003387 0.000000 0.000000 0.000000
# 2 -0.002373 0.007147 -0.001447 0.000000 0.000000 0.000000
# 3 -0.003387 -0.001447 0.008175 0.000000 0.000000 0.000000
# 4 0.000000 0.000000 0.000000 0.024356 0.000000 0.000000
# 5 0.000000 0.000000 0.000000 0.000000 0.012485 0.000000
# 6 0.000000 0.000000 0.000000 0.000000 0.000000 0.019698
#
#
# Mechanical properties :
#
#
# Convention : Reuss Voigt Hill
#
# Bulk Modulus (GPa) = 122.12112 125.26100 123.69106
# Shear Modulus (GPa) = 51.92926 55.05758 53.49342
#
# Velocity S-wave (km/s) = 4.47509 4.60792 4.54199
# Velocity P-wave (km/s) = 8.59057 8.75313 8.67223
#
# Compressibility (1/GPa) = 0.00818859
#
# Stress axis : x y z
#
# Youngs Moduli (GPa) = 137.36078 139.91063 122.32560
#
# Poissons Ratio (x) = 0.33199 0.41435
# Poissons Ratio (y) = 0.32594 0.17698
# Poissons Ratio (z) = 0.46528 0.20242
#
# Static dielectric constant tensor:
#      x y z
#    x 2.069020 0.000000 0.000000 
#    y 0.000000 2.050000 0.000000 
#    z 0.000000 0.000000 2.094680 
# 
# From -- ./inp_files/7511.got.cif
#   From: 2010.05.17/outbox.cif.g08.bks.cpg/sg33_4_cif.got.tgz:7511.got - 2010.06.03 17:15:25.
