data_PCOD9346217
_publ_section_title
;
Structure prediction by ZEFSAII (Michael W. Deem and Ramdas Pophale) SiO2 
 PCOD9346217
Probable space group: P N A 21
;
_chemical_formula_sum "Si O2"
_cell_formula_units_Z 12
_cell_length_a 8.747211
_cell_length_b 9.125979
_cell_length_c 5.240355
_cell_angle_alpha 90.000000
_cell_angle_beta 90.000000
_cell_angle_gamma 90.000000
_cell_volume 418.321105
_symmetry_space_group_name_H-M "P N A 21"
_symmetry_group_IT_number 33
_symmetry_cell_setting 'orthorhombic'
loop_
_space_group_symop_operation_xyz
x,y,z
-x,-y,1/2+z
1/2-x,1/2+y,1/2+z
1/2+x,1/2-y,z
loop_
_atom_site_type_symbol
_atom_site_label
_atom_site_fract_x
_atom_site_fract_y
_atom_site_fract_z
Si Si1 0.158968 0.442865 0.000000
Si Si2 0.657514 0.302267 0.344812
Si Si3 0.027564 0.799289 0.346982
O O1 0.179719 0.368938 0.279475
O O2 0.190388 0.608219 0.916978
O O3 0.002630 0.375062 0.889361
O O4 0.301072 0.354725 0.865137
O O5 0.550850 0.334407 0.582663
O O6 0.572659 0.357271 0.087697
#
# Coordination Sequence:
#
# PCOD9346217 Si02
#       3
#     4   4   4
#     4  10  24  44  64 104 129 187 221 297 342 437
#     4  10  24  39  72  91 139 176 234 275 361 413
#     4  10  24  39  70  89 142 169 237 276 363 408
#
# _framework density 28.686097
#
# number of rings (size 3 to 8) (size 9 to 14) (size 15 to 20)
#    2.000    0.000    0.000    2.000    9.333    0.000 
#    6.000    0.000    0.000    0.000    0.000    0.000 
#    0.000    0.000    0.000    0.000    0.000    0.000 
#
# Total GULP energy -67136.879061 kJ/mol
# GULP energy per Si atom -5594.739922 kJ/mol
# Density = 2.862081 g / cm^3
# Si number density = 28.686097 Si / 1000 Ang^3
#
#
#
# Elastic Constant Matrix: (Units=GPa)
#
#
# Indices 1 2 3 4 5 6 
#
# 1 99.2983 24.9752 48.7023 0.0000 0.0000 0.0000
# 2 24.9752 158.9983 25.5993 0.0000 0.0000 0.0000
# 3 48.7023 25.5993 225.4199 0.0000 0.0000 0.0000
# 4 0.0000 0.0000 0.0000 11.9179 0.0000 0.0000
# 5 0.0000 0.0000 0.0000 0.0000 -177.8571 0.0000
# 6 0.0000 0.0000 0.0000 0.0000 0.0000 74.0978
#
#
#
# Elastic Compliance Matrix: (Units=1/GPa)
#
#
# Indices 1 2 3 4 5 6 
#
# 1 0.011580 -0.001443 -0.002338 0.000000 0.000000 0.000000
# 2 -0.001443 0.006586 -0.000436 0.000000 0.000000 0.000000
# 3 -0.002338 -0.000436 0.004991 0.000000 0.000000 0.000000
# 4 0.000000 0.000000 0.000000 0.083907 0.000000 0.000000
# 5 0.000000 0.000000 0.000000 0.000000 -0.005622 0.000000
# 6 0.000000 0.000000 0.000000 0.000000 0.000000 0.013496
#
#
# Mechanical properties :
#
#
# Convention : Reuss Voigt Hill
#
# Bulk Modulus (GPa) = 67.91897 75.80778 71.86338
# Shear Modulus (GPa) = 38.97743 7.26105 23.11924
#
# Velocity S-wave (km/s) = 3.69013 1.59270 2.84199
# Velocity P-wave (km/s) = 6.47179 5.46501 5.98959
#
# Compressibility (1/GPa) = 0.01472343
#
# Stress axis : x y z
#
# Youngs Moduli (GPa) = 86.35386 151.83231 200.36617
#
# Poissons Ratio (x) = 0.21903 0.46848
# Poissons Ratio (y) = 0.12457 0.08742
# Poissons Ratio (z) = 0.20190 0.06624
#
# Static dielectric constant tensor:
#      x y z
#    x 2.296440 0.000000 0.000000 
#    y 0.000000 2.428150 0.000000 
#    z 0.000000 0.000000 2.260370 
# 
# From -- ./inp_files/245.got.cif
#   From: 2010.05.17/outbox.cif.g08.bks.cpg/sg33_1_cif.got.tgz:245.got - 2010.06.03 17:15:25.
