data_PCOD9346844
_publ_section_title
;
Structure prediction by ZEFSAII (Michael W. Deem and Ramdas Pophale) SiO2 
 PCOD9346844
Probable space group: P N A 21
;
_chemical_formula_sum "Si O2"
_cell_formula_units_Z 28
_cell_length_a 9.707894
_cell_length_b 14.019759
_cell_length_c 9.467269
_cell_angle_alpha 90.000000
_cell_angle_beta 90.000000
_cell_angle_gamma 90.000000
_cell_volume 1288.517410
_symmetry_space_group_name_H-M "P N A 21"
_symmetry_group_IT_number 33
_symmetry_cell_setting 'orthorhombic'
loop_
_space_group_symop_operation_xyz
x,y,z
-x,-y,1/2+z
1/2-x,1/2+y,1/2+z
1/2+x,1/2-y,z
loop_
_atom_site_type_symbol
_atom_site_label
_atom_site_fract_x
_atom_site_fract_y
_atom_site_fract_z
Si Si1 0.357888 0.534465 0.822560
Si Si2 0.989386 0.713843 0.465895
Si Si3 0.340107 0.035537 0.063948
Si Si4 0.206554 0.865689 0.524619
Si Si5 0.821754 0.993283 0.275846
Si Si6 0.273030 0.676829 0.056841
Si Si7 0.527370 0.160953 0.638408
O O1 0.284524 0.547343 0.673498
O O2 0.518145 0.508799 0.811955
O O3 0.284192 0.446782 0.904319
O O4 0.334596 0.626909 0.918844
O O5 0.067630 0.629299 0.547633
O O6 0.062585 0.811876 0.505606
O O7 0.002941 0.690991 0.299555
O O8 0.828918 0.709029 0.502837
O O9 0.435409 0.949351 0.119424
O O10 0.273499 0.010742 0.912810
O O11 0.218481 0.920443 0.671865
O O12 0.805331 0.895835 0.186241
O O13 0.344187 0.776758 0.087080
O O14 0.108897 0.684713 0.049594
#
# Coordination Sequence:
#
# PCOD9346844 Si02
#       7
#     4   4   4   4   4   4   4
#     4  11  25  46  73 103 140 181 235 291 350 412
#     4  12  26  45  73 103 142 187 234 284 354 419
#     4  12  26  44  72 102 142 188 228 294 352 414
#     4  11  26  46  73 101 140 184 237 285 346 423
#     4  11  25  46  73 103 140 181 235 291 350 412
#     4  11  26  46  73 101 140 184 237 285 346 423
#     4  12  26  45  73 103 142 187 234 284 354 419
#
# _framework density 21.730399999999999
#
# number of rings (size 3 to 8) (size 9 to 14) (size 15 to 20)
#    0.000    0.571    2.857    5.143    8.000    1.143 
#    0.000    0.000    0.000    0.000    0.000    0.000 
#    0.000    0.000    0.000    0.000    0.000    0.000 
#
# Total GULP energy -156909.611664 kJ/mol
# GULP energy per Si atom -5603.914702 kJ/mol
# Density = 2.168094 g / cm^3
# Si number density = 21.730400 Si / 1000 Ang^3
#
#
#
# Elastic Constant Matrix: (Units=GPa)
#
#
# Indices 1 2 3 4 5 6 
#
# 1 69.5946 -24.9472 -10.8638 0.0000 0.0000 0.0000
# 2 -24.9472 60.6941 4.5494 0.0000 0.0000 0.0000
# 3 -10.8638 4.5494 88.4558 0.0000 0.0000 0.0000
# 4 0.0000 0.0000 0.0000 10.6450 0.0000 0.0000
# 5 0.0000 0.0000 0.0000 0.0000 -91.1696 0.0000
# 6 0.0000 0.0000 0.0000 0.0000 0.0000 34.6552
#
#
#
# Elastic Compliance Matrix: (Units=1/GPa)
#
#
# Indices 1 2 3 4 5 6 
#
# 1 0.017117 0.006905 0.001747 0.000000 0.000000 0.000000
# 2 0.006905 0.019325 -0.000146 0.000000 0.000000 0.000000
# 3 0.001747 -0.000146 0.011527 0.000000 0.000000 0.000000
# 4 0.000000 0.000000 0.000000 0.093941 0.000000 0.000000
# 5 0.000000 0.000000 0.000000 0.000000 -0.010969 0.000000
# 6 0.000000 0.000000 0.000000 0.000000 0.000000 0.028856
#
#
# Mechanical properties :
#
#
# Convention : Reuss Voigt Hill
#
# Bulk Modulus (GPa) = 15.38927 17.35791 16.37359
# Shear Modulus (GPa) = 30.40519 7.49319 18.94919
#
# Velocity S-wave (km/s) = 3.74465 1.85896 2.95619
# Velocity P-wave (km/s) = 5.07876 3.55146 4.38216
#
# Compressibility (1/GPa) = 0.06498032
#
# Stress axis : x y z
#
# Youngs Moduli (GPa) = 58.42250 51.74647 86.75163
#
# Poissons Ratio (x) = -0.35729 -0.15156
# Poissons Ratio (y) = -0.40338 0.01266
# Poissons Ratio (z) = -0.10207 0.00755
#
# Static dielectric constant tensor:
#      x y z
#    x 1.813240 0.000000 0.000000 
#    y 0.000000 1.758620 0.000000 
#    z 0.000000 0.000000 1.765860 
# 
# From -- ./inp_files/3209.got.cif
#   From: 2010.05.17/outbox.cif.g08.bks.cpg/sg33_2_cif.got.tgz:3209.got - 2010.06.03 17:15:25.
