data_PCOD9346652
_publ_section_title
;
Structure prediction by ZEFSAII (Michael W. Deem and Ramdas Pophale) SiO2 
 PCOD9346652
Probable space group: P N A 21
;
_chemical_formula_sum "Si O2"
_cell_formula_units_Z 28
_cell_length_a 15.029026
_cell_length_b 14.677381
_cell_length_c 5.764958
_cell_angle_alpha 90.000000
_cell_angle_beta 90.000000
_cell_angle_gamma 90.000000
_cell_volume 1271.673295
_symmetry_space_group_name_H-M "P N A 21"
_symmetry_group_IT_number 33
_symmetry_cell_setting 'orthorhombic'
loop_
_space_group_symop_operation_xyz
x,y,z
-x,-y,1/2+z
1/2-x,1/2+y,1/2+z
1/2+x,1/2-y,z
loop_
_atom_site_type_symbol
_atom_site_label
_atom_site_fract_x
_atom_site_fract_y
_atom_site_fract_z
Si Si1 0.025547 0.277820 0.459090
Si Si2 0.785126 0.418135 0.139072
Si Si3 0.122606 0.725778 0.325711
Si Si4 0.965347 0.463549 0.288860
Si Si5 0.711170 0.288621 0.525252
Si Si6 0.626311 0.446346 0.846635
Si Si7 0.458523 0.375922 0.137524
O O1 0.131107 0.281377 0.488476
O O2 0.969872 0.289861 0.693379
O O3 0.991868 0.356862 0.290080
O O4 0.998757 0.179927 0.354088
O O5 0.858052 0.471763 0.287131
O O6 0.741019 0.338172 0.290696
O O7 0.842676 0.366665 0.942913
O O8 0.704451 0.472646 0.026215
O O9 0.200499 0.750267 0.144219
O O10 0.105986 0.806444 0.505036
O O11 0.000071 0.496926 0.542231
O O12 0.668556 0.367900 0.686228
O O13 0.592935 0.533764 0.709701
O O14 0.541766 0.404372 0.978635
#
# Coordination Sequence:
#
# PCOD9346652 Si02
#       7
#     4   4   4   4   4   4   4
#     4  12  24  47  77 103 144 197 253 307 387 460
#     4  11  24  49  72 102 150 191 245 317 378 448
#     4  11  23  45  73 102 147 195 248 309 382 461
#     4  12  28  51  76 109 154 204 259 322 386 451
#     4  11  23  46  73 106 141 195 247 311 377 452
#     4  11  26  41  73 110 151 187 250 316 385 455
#     4  12  24  45  72 108 147 195 240 314 391 459
#
# _framework density 22.018235000000001
#
# number of rings (size 3 to 8) (size 9 to 14) (size 15 to 20)
#    0.000    0.571    5.714    1.714    2.000    0.000 
#    7.714    0.000    0.000    0.000    0.000    0.000 
#    0.000    0.000    0.000    0.000    0.000    0.000 
#
# Total GULP energy -156639.782038 kJ/mol
# GULP energy per Si atom -5594.277930 kJ/mol
# Density = 2.196812 g / cm^3
# Si number density = 22.018235 Si / 1000 Ang^3
#
#
#
# Elastic Constant Matrix: (Units=GPa)
#
#
# Indices 1 2 3 4 5 6 
#
# 1 87.7461 3.0527 17.2165 0.0000 0.0000 0.0000
# 2 3.0527 50.2208 6.7114 0.0000 0.0000 0.0000
# 3 17.2165 6.7114 69.0664 0.0000 0.0000 0.0000
# 4 0.0000 0.0000 0.0000 43.5515 0.0000 0.0000
# 5 0.0000 0.0000 0.0000 0.0000 35.6142 0.0000
# 6 0.0000 0.0000 0.0000 0.0000 0.0000 29.5576
#
#
#
# Elastic Compliance Matrix: (Units=1/GPa)
#
#
# Indices 1 2 3 4 5 6 
#
# 1 0.011988 -0.000334 -0.002956 0.000000 0.000000 0.000000
# 2 -0.000334 0.020183 -0.001878 0.000000 0.000000 0.000000
# 3 -0.002956 -0.001878 0.015398 0.000000 0.000000 0.000000
# 4 0.000000 0.000000 0.000000 0.022961 0.000000 0.000000
# 5 0.000000 0.000000 0.000000 0.000000 0.028079 0.000000
# 6 0.000000 0.000000 0.000000 0.000000 0.000000 0.033832
#
#
# Mechanical properties :
#
#
# Convention : Reuss Voigt Hill
#
# Bulk Modulus (GPa) = 26.85702 28.99939 27.92820
# Shear Modulus (GPa) = 32.21886 33.74818 32.98352
#
# Velocity S-wave (km/s) = 3.82944 3.91927 3.87461
# Velocity P-wave (km/s) = 5.63710 5.80345 5.72088
#
# Compressibility (1/GPa) = 0.03723421
#
# Stress axis : x y z
#
# Youngs Moduli (GPa) = 83.41610 49.54585 64.94287
#
# Poissons Ratio (x) = 0.01653 0.19196
# Poissons Ratio (y) = 0.02783 0.12197
# Poissons Ratio (z) = 0.24657 0.09305
#
# Static dielectric constant tensor:
#      x y z
#    x 1.811050 0.000000 0.000000 
#    y 0.000000 1.811150 0.000000 
#    z 0.000000 0.000000 1.844020 
# 
# From -- ./inp_files/1403.got.cif
#   From: 2010.05.17/outbox.cif.g08.bks.cpg/sg33_1_cif.got.tgz:1403.got - 2010.06.03 17:15:25.
