data_PCOD9346345
_publ_section_title
;
Structure prediction by ZEFSAII (Michael W. Deem and Ramdas Pophale) SiO2 
 PCOD9346345
Probable space group: P N A 21
;
_chemical_formula_sum "Si O2"
_cell_formula_units_Z 24
_cell_length_a 8.153064
_cell_length_b 20.102767
_cell_length_c 5.605178
_cell_angle_alpha 90.000000
_cell_angle_beta 90.000000
_cell_angle_gamma 90.000000
_cell_volume 918.683887
_symmetry_space_group_name_H-M "P N A 21"
_symmetry_group_IT_number 33
_symmetry_cell_setting 'orthorhombic'
loop_
_space_group_symop_operation_xyz
x,y,z
-x,-y,1/2+z
1/2-x,1/2+y,1/2+z
1/2+x,1/2-y,z
loop_
_atom_site_type_symbol
_atom_site_label
_atom_site_fract_x
_atom_site_fract_y
_atom_site_fract_z
Si Si1 0.070554 0.608999 0.418930
Si Si2 0.539521 0.532737 0.278099
Si Si3 0.089620 0.744869 0.971155
Si Si4 0.310450 0.845052 0.740441
Si Si5 0.627150 0.039182 0.577861
Si Si6 0.865012 0.829634 0.235471
O O1 0.093393 0.538943 0.554052
O O2 0.229644 0.655809 0.441206
O O3 0.905379 0.647415 0.491962
O O4 0.035454 0.578374 0.157408
O O5 0.486703 0.514494 0.546734
O O6 0.733480 0.544044 0.278343
O O7 0.442128 0.598367 0.202529
O O8 0.145486 0.803294 0.787985
O O9 0.947179 0.697605 0.880425
O O10 0.244793 0.699490 0.033856
O O11 0.020299 0.780648 0.211827
O O12 0.299633 0.918433 0.858042
#
# Coordination Sequence:
#
# PCOD9346345 Si02
#       6
#     4   4   4   4   4   4
#     4  12  26  43  75 106 147 193 256 318 402 458
#     4  12  29  47  77 114 156 199 256 327 396 462
#     4  10  24  46  71  96 154 191 258 307 382 468
#     4  11  24  46  68 103 140 197 244 318 373 473
#     4  12  25  44  72 107 145 190 247 321 389 457
#     4  11  24  46  71 110 146 200 253 321 382 472
#
# _framework density 26.124327999999998
#
# number of rings (size 3 to 8) (size 9 to 14) (size 15 to 20)
#    0.000    0.667    6.667    0.000    7.000    1.333 
#    0.000    3.333    0.000    0.000    0.000    0.000 
#    0.000    0.000    0.000    0.000    0.000    0.000 
#
# Total GULP energy -133931.317334 kJ/mol
# GULP energy per Si atom -5580.471556 kJ/mol
# Density = 2.606487 g / cm^3
# Si number density = 26.124328 Si / 1000 Ang^3
#
#
#
# Elastic Constant Matrix: (Units=GPa)
#
#
# Indices 1 2 3 4 5 6 
#
# 1 91.6507 32.2508 16.5086 0.0000 0.0000 0.0000
# 2 32.2508 97.6598 41.3991 0.0000 0.0000 0.0000
# 3 16.5086 41.3991 64.6946 0.0000 0.0000 0.0000
# 4 0.0000 0.0000 0.0000 15.8630 0.0000 0.0000
# 5 0.0000 0.0000 0.0000 0.0000 32.4534 0.0000
# 6 0.0000 0.0000 0.0000 0.0000 0.0000 22.4257
#
#
#
# Elastic Compliance Matrix: (Units=1/GPa)
#
#
# Indices 1 2 3 4 5 6 
#
# 1 0.012372 -0.003770 -0.000744 0.000000 0.000000 0.000000
# 2 -0.003770 0.015200 -0.008765 0.000000 0.000000 0.000000
# 3 -0.000744 -0.008765 0.021256 0.000000 0.000000 0.000000
# 4 0.000000 0.000000 0.000000 0.063040 0.000000 0.000000
# 5 0.000000 0.000000 0.000000 0.000000 0.030813 0.000000
# 6 0.000000 0.000000 0.000000 0.000000 0.000000 0.044592
#
#
# Mechanical properties :
#
#
# Convention : Reuss Voigt Hill
#
# Bulk Modulus (GPa) = 44.90503 48.25802 46.58153
# Shear Modulus (GPa) = 22.59845 25.07153 23.83499
#
# Velocity S-wave (km/s) = 2.94434 3.10126 3.02382
# Velocity P-wave (km/s) = 5.36518 5.59789 5.48277
#
# Compressibility (1/GPa) = 0.02226922
#
# Stress axis : x y z
#
# Youngs Moduli (GPa) = 80.82958 65.78906 47.04573
#
# Poissons Ratio (x) = 0.24802 0.03503
# Poissons Ratio (y) = 0.30473 0.41234
# Poissons Ratio (z) = 0.06018 0.57663
#
# Static dielectric constant tensor:
#      x y z
#    x 2.085030 0.000000 0.000000 
#    y 0.000000 2.067460 0.000000 
#    z 0.000000 0.000000 2.172110 
# 
# From -- ./inp_files/402.got.cif
#   From: 2010.05.17/outbox.cif.g08.bks.cpg/sg33_1_cif.got.tgz:402.got - 2010.06.03 17:15:25.
