data_PCOD9346450
_publ_section_title
;
Structure prediction by ZEFSAII (Michael W. Deem and Ramdas Pophale) SiO2 
 PCOD9346450
Probable space group: P N A 21
;
_chemical_formula_sum "Si O2"
_cell_formula_units_Z 16
_cell_length_a 9.614891
_cell_length_b 13.709927
_cell_length_c 4.866543
_cell_angle_alpha 90.000000
_cell_angle_beta 90.000000
_cell_angle_gamma 90.000000
_cell_volume 641.505040
_symmetry_space_group_name_H-M "P N A 21"
_symmetry_group_IT_number 33
_symmetry_cell_setting 'orthorhombic'
loop_
_space_group_symop_operation_xyz
x,y,z
-x,-y,1/2+z
1/2-x,1/2+y,1/2+z
1/2+x,1/2-y,z
loop_
_atom_site_type_symbol
_atom_site_label
_atom_site_fract_x
_atom_site_fract_y
_atom_site_fract_z
Si Si1 0.270497 0.655518 0.880250
Si Si2 0.558444 0.948504 0.216018
Si Si3 0.519662 0.432457 0.013985
Si Si4 0.045235 0.765847 0.165373
O O1 0.200637 0.564598 0.042150
O O2 0.333383 0.619432 0.593048
O O3 0.153689 0.737848 0.925692
O O4 0.403460 0.699074 0.031231
O O5 0.450842 0.983158 0.979650
O O6 0.524928 0.838381 0.313074
O O7 0.468145 0.480610 0.295531
O O8 0.420248 0.351848 0.876113
#
# Coordination Sequence:
#
# PCOD9346450 Si02
#       4
#     4   4   4   4
#     4  10  26  50  81 119 165 220 272 341 434 484
#     4  10  26  48  78 115 161 212 268 334 410 498
#     4  12  26  50  80 124 168 218 277 348 418 511
#     4  10  26  50  81 118 174 210 283 341 428 501
#
# _framework density 24.941347
#
# number of rings (size 3 to 8) (size 9 to 14) (size 15 to 20)
#    1.500    0.000    2.500    0.000    7.000    4.000 
#    4.500    0.000    0.000    0.000    0.000    0.000 
#    0.000    0.000    0.000    0.000    0.000    0.000 
#
# Total GULP energy -89329.648535 kJ/mol
# GULP energy per Si atom -5583.103033 kJ/mol
# Density = 2.488458 g / cm^3
# Si number density = 24.941347 Si / 1000 Ang^3
#
#
#
# Elastic Constant Matrix: (Units=GPa)
#
#
# Indices 1 2 3 4 5 6 
#
# 1 105.7877 33.6330 42.3743 0.0000 0.0000 0.0000
# 2 33.6330 133.9047 53.5507 0.0000 0.0000 0.0000
# 3 42.3743 53.5507 150.5049 0.0000 0.0000 0.0000
# 4 0.0000 0.0000 0.0000 36.1654 0.0000 0.0000
# 5 0.0000 0.0000 0.0000 0.0000 40.4050 0.0000
# 6 0.0000 0.0000 0.0000 0.0000 0.0000 40.2430
#
#
#
# Elastic Compliance Matrix: (Units=1/GPa)
#
#
# Indices 1 2 3 4 5 6 
#
# 1 0.011006 -0.001778 -0.002466 0.000000 0.000000 0.000000
# 2 -0.001778 0.008994 -0.002700 0.000000 0.000000 0.000000
# 3 -0.002466 -0.002700 0.008299 0.000000 0.000000 0.000000
# 4 0.000000 0.000000 0.000000 0.027651 0.000000 0.000000
# 5 0.000000 0.000000 0.000000 0.000000 0.024749 0.000000
# 6 0.000000 0.000000 0.000000 0.000000 0.000000 0.024849
#
#
# Mechanical properties :
#
#
# Convention : Reuss Voigt Hill
#
# Bulk Modulus (GPa) = 69.38751 72.14594 70.76673
# Shear Modulus (GPa) = 40.24466 40.73863 40.49165
#
# Velocity S-wave (km/s) = 4.02129 4.04589 4.03361
# Velocity P-wave (km/s) = 7.03148 7.12844 7.08013
#
# Compressibility (1/GPa) = 0.01441182
#
# Stress axis : x y z
#
# Youngs Moduli (GPa) = 90.85926 111.18243 120.49460
#
# Poissons Ratio (x) = 0.19770 0.29714
# Poissons Ratio (y) = 0.16157 0.32528
# Poissons Ratio (z) = 0.22406 0.30014
#
# Static dielectric constant tensor:
#      x y z
#    x 2.003710 0.000000 0.000000 
#    y 0.000000 2.000310 0.000000 
#    z 0.000000 0.000000 1.989730 
# 
# From -- ./inp_files/331.got.cif
#   From: 2010.05.17/outbox.cif.g08.bks.cpg/sg33_1_cif.got.tgz:331.got - 2010.06.03 17:15:25.
