data_PCOD9346747
_publ_section_title
;
Structure prediction by ZEFSAII (Michael W. Deem and Ramdas Pophale) SiO2 
 PCOD9346747
Probable space group: P N A 21
;
_chemical_formula_sum "Si O2"
_cell_formula_units_Z 20
_cell_length_a 11.457799
_cell_length_b 14.591680
_cell_length_c 4.849243
_cell_angle_alpha 90.000000
_cell_angle_beta 90.000000
_cell_angle_gamma 90.000000
_cell_volume 810.737840
_symmetry_space_group_name_H-M "P N A 21"
_symmetry_group_IT_number 33
_symmetry_cell_setting 'orthorhombic'
loop_
_space_group_symop_operation_xyz
x,y,z
-x,-y,1/2+z
1/2-x,1/2+y,1/2+z
1/2+x,1/2-y,z
loop_
_atom_site_type_symbol
_atom_site_label
_atom_site_fract_x
_atom_site_fract_y
_atom_site_fract_z
Si Si1 0.435372 0.251003 0.320270
Si Si2 0.013814 0.057632 0.301321
Si Si3 0.240048 0.135999 0.594930
Si Si4 0.907310 0.713229 0.325312
Si Si5 0.918663 0.517639 0.553513
O O1 0.425026 0.360010 0.358870
O O2 0.319928 0.200100 0.405223
O O3 0.539909 0.213941 0.517728
O O4 0.481421 0.237597 0.013098
O O5 0.136142 0.093008 0.416982
O O6 0.980577 0.970005 0.483924
O O7 0.186246 0.204929 0.821936
O O8 0.322337 0.051061 0.677553
O O9 0.869136 0.614046 0.438146
O O10 0.017087 0.527572 0.788771
#
# Coordination Sequence:
#
# PCOD9346747 Si02
#       5
#     4   4   4   4   4
#     4  11  24  47  72 103 150 193 250 316 376 463
#     4  11  26  48  68 107 147 189 251 308 372 467
#     4  11  26  46  77 106 150 205 242 315 402 434
#     4  11  24  45  70 112 148 188 255 317 373 461
#     4  12  24  46  73 110 149 191 258 308 365 471
#
# _framework density 24.668886000000001
#
# number of rings (size 3 to 8) (size 9 to 14) (size 15 to 20)
#    0.000    0.800    4.000    2.400    2.800    9.600 
#    7.200    0.000    0.000    0.000    0.000    0.000 
#    0.000    0.000    0.000    0.000    0.000    0.000 
#
# Total GULP energy -112018.135419 kJ/mol
# GULP energy per Si atom -5600.906771 kJ/mol
# Density = 2.461274 g / cm^3
# Si number density = 24.668886 Si / 1000 Ang^3
#
#
#
# Elastic Constant Matrix: (Units=GPa)
#
#
# Indices 1 2 3 4 5 6 
#
# 1 76.2850 39.8560 -11.2535 0.0000 0.0000 0.0000
# 2 39.8560 168.3453 10.4715 0.0000 0.0000 0.0000
# 3 -11.2535 10.4715 51.7900 0.0000 0.0000 0.0000
# 4 0.0000 0.0000 0.0000 37.5770 0.0000 0.0000
# 5 0.0000 0.0000 0.0000 0.0000 26.3212 0.0000
# 6 0.0000 0.0000 0.0000 0.0000 0.0000 49.5015
#
#
#
# Elastic Compliance Matrix: (Units=1/GPa)
#
#
# Indices 1 2 3 4 5 6 
#
# 1 0.015832 -0.004013 0.004252 0.000000 0.000000 0.000000
# 2 -0.004013 0.007033 -0.002294 0.000000 0.000000 0.000000
# 3 0.004252 -0.002294 0.020696 0.000000 0.000000 0.000000
# 4 0.000000 0.000000 0.000000 0.026612 0.000000 0.000000
# 5 0.000000 0.000000 0.000000 0.000000 0.037992 0.000000
# 6 0.000000 0.000000 0.000000 0.000000 0.000000 0.020201
#
#
# Mechanical properties :
#
#
# Convention : Reuss Voigt Hill
#
# Bulk Modulus (GPa) = 25.34758 41.61869 33.48314
# Shear Modulus (GPa) = 34.33402 39.83637 37.08519
#
# Velocity S-wave (km/s) = 3.73472 4.02287 3.88147
# Velocity P-wave (km/s) = 5.37540 6.20367 5.80433
#
# Compressibility (1/GPa) = 0.03945150
#
# Stress axis : x y z
#
# Youngs Moduli (GPa) = 63.16124 142.18878 48.31758
#
# Poissons Ratio (x) = 0.57058 -0.20543
# Poissons Ratio (y) = 0.25346 0.11084
# Poissons Ratio (z) = -0.26854 0.32617
#
# Static dielectric constant tensor:
#      x y z
#    x 1.938070 0.000000 0.000000 
#    y 0.000000 2.023450 0.000000 
#    z 0.000000 0.000000 1.884280 
# 
# From -- ./inp_files/740.got.cif
#   From: 2010.05.17/outbox.cif.g08.bks.cpg/sg33_1_cif.got.tgz:740.got - 2010.06.03 17:15:25.
