data_PCOD9346448
_publ_section_title
;
Structure prediction by ZEFSAII (Michael W. Deem and Ramdas Pophale) SiO2 
 PCOD9346448
Probable space group: P N A 21
;
_chemical_formula_sum "Si O2"
_cell_formula_units_Z 28
_cell_length_a 9.104367
_cell_length_b 6.071907
_cell_length_c 21.798622
_cell_angle_alpha 90.000000
_cell_angle_beta 90.000000
_cell_angle_gamma 90.000000
_cell_volume 1205.046783
_symmetry_space_group_name_H-M "P N A 21"
_symmetry_group_IT_number 33
_symmetry_cell_setting 'orthorhombic'
loop_
_space_group_symop_operation_xyz
x,y,z
-x,-y,1/2+z
1/2-x,1/2+y,1/2+z
1/2+x,1/2-y,z
loop_
_atom_site_type_symbol
_atom_site_label
_atom_site_fract_x
_atom_site_fract_y
_atom_site_fract_z
Si Si1 0.109550 0.697081 0.941440
Si Si2 0.390962 0.542379 0.358479
Si Si3 0.157626 0.424876 0.619417
Si Si4 0.883430 0.922880 0.011978
Si Si5 0.593694 0.247393 0.155506
Si Si6 0.157288 0.049083 0.716316
Si Si7 0.386528 0.193919 0.937155
O O1 0.006390 0.490207 0.950929
O O2 0.091942 0.783608 0.872803
O O3 0.275750 0.657204 0.958011
O O4 0.047135 0.872117 0.990331
O O5 0.355543 0.584331 0.288661
O O6 0.535255 0.656935 0.385158
O O7 0.260077 0.613159 0.404340
O O8 0.153449 0.224549 0.570265
O O9 0.298361 0.587438 0.618271
O O10 0.161617 0.285277 0.682726
O O11 0.010825 0.576128 0.618698
O O12 0.859893 0.181953 0.002047
O O13 0.482120 0.406116 0.192469
O O14 0.700696 0.096010 0.197050
#
# Coordination Sequence:
#
# PCOD9346448 Si02
#       7
#     4   4   4   4   4   4   4
#     4  11  24  47  66 107 140 188 242 300 366 436
#     4  11  26  43  74 103 151 190 248 303 367 444
#     4  11  26  51  74 108 147 194 251 315 375 452
#     4  11  26  46  73 100 144 187 246 307 365 449
#     4  10  26  48  71 112 141 200 250 296 392 432
#     4  11  26  45  73 109 152 196 246 310 369 443
#     4  11  24  46  71 111 137 197 243 301 378 430
#
# _framework density 23.235614000000002
#
# number of rings (size 3 to 8) (size 9 to 14) (size 15 to 20)
#    0.000    1.143    2.857    0.857   10.000    3.429 
#    2.571    0.000    0.000    0.000    0.000    0.000 
#    0.000    0.000    0.000    0.000    0.000    0.000 
#
# Total GULP energy -156453.400226 kJ/mol
# GULP energy per Si atom -5587.621437 kJ/mol
# Density = 2.318273 g / cm^3
# Si number density = 23.235614 Si / 1000 Ang^3
#
#
#
# Elastic Constant Matrix: (Units=GPa)
#
#
# Indices 1 2 3 4 5 6 
#
# 1 129.3298 41.5249 28.7852 0.0000 0.0000 0.0000
# 2 41.5249 116.1073 68.2699 0.0000 0.0000 0.0000
# 3 28.7852 68.2699 126.4701 0.0000 0.0000 0.0000
# 4 0.0000 0.0000 0.0000 32.0850 0.0000 0.0000
# 5 0.0000 0.0000 0.0000 0.0000 17.8550 0.0000
# 6 0.0000 0.0000 0.0000 0.0000 0.0000 46.9969
#
#
#
# Elastic Compliance Matrix: (Units=1/GPa)
#
#
# Indices 1 2 3 4 5 6 
#
# 1 0.008752 -0.002870 -0.000443 0.000000 0.000000 0.000000
# 2 -0.002870 0.013559 -0.006666 0.000000 0.000000 0.000000
# 3 -0.000443 -0.006666 0.011606 0.000000 0.000000 0.000000
# 4 0.000000 0.000000 0.000000 0.031167 0.000000 0.000000
# 5 0.000000 0.000000 0.000000 0.000000 0.056007 0.000000
# 6 0.000000 0.000000 0.000000 0.000000 0.000000 0.021278
#
#
# Mechanical properties :
#
#
# Convention : Reuss Voigt Hill
#
# Bulk Modulus (GPa) = 71.63436 72.11857 71.87647
# Shear Modulus (GPa) = 29.94390 34.94252 32.44321
#
# Velocity S-wave (km/s) = 3.59375 3.88214 3.74072
# Velocity P-wave (km/s) = 6.93661 7.15542 7.04686
#
# Compressibility (1/GPa) = 0.01395978
#
# Stress axis : x y z
#
# Youngs Moduli (GPa) = 114.25757 73.75442 86.16136
#
# Poissons Ratio (x) = 0.21165 0.03816
# Poissons Ratio (y) = 0.32788 0.57434
# Poissons Ratio (z) = 0.05061 0.49164
#
# Static dielectric constant tensor:
#      x y z
#    x 1.823780 0.000000 0.000000 
#    y 0.000000 2.034690 0.000000 
#    z 0.000000 0.000000 1.844660 
# 
# From -- ./inp_files/9249.got.cif
#   From: 2010.05.17/outbox.cif.g08.bks.cpg/sg33_5_cif.got.tgz:9249.got - 2010.06.03 17:15:25.
