data_PCOD9346272
_publ_section_title
;
Structure prediction by ZEFSAII (Michael W. Deem and Ramdas Pophale) SiO2 
 PCOD9346272
Probable space group: P N A 21
;
_chemical_formula_sum "Si O2"
_cell_formula_units_Z 28
_cell_length_a 23.340515
_cell_length_b 5.697986
_cell_length_c 9.110016
_cell_angle_alpha 90.000000
_cell_angle_beta 90.000000
_cell_angle_gamma 90.000000
_cell_volume 1211.576809
_symmetry_space_group_name_H-M "P N A 21"
_symmetry_group_IT_number 33
_symmetry_cell_setting 'orthorhombic'
loop_
_space_group_symop_operation_xyz
x,y,z
-x,-y,1/2+z
1/2-x,1/2+y,1/2+z
1/2+x,1/2-y,z
loop_
_atom_site_type_symbol
_atom_site_label
_atom_site_fract_x
_atom_site_fract_y
_atom_site_fract_z
Si Si1 0.158919 0.297363 0.342770
Si Si2 0.081391 0.573155 0.130891
Si Si3 0.699815 0.062826 0.624194
Si Si4 0.483690 0.249024 0.153383
Si Si5 0.227433 0.926491 0.694729
Si Si6 0.935797 0.043102 0.866711
Si Si7 0.128344 0.692304 0.830662
O O1 0.127930 0.399314 0.200399
O O2 0.150394 0.416270 0.501203
O O3 0.225016 0.354725 0.313575
O O4 0.130272 0.044076 0.364872
O O5 0.062463 0.725128 0.269450
O O6 0.025120 0.438672 0.075980
O O7 0.111198 0.710814 0.999024
O O8 0.733250 0.311504 0.629840
O O9 0.729672 0.809459 0.593113
O O10 0.671672 0.016431 0.784240
O O11 0.524192 0.365632 0.276268
O O12 0.428993 0.154069 0.238497
O O13 0.460337 0.422104 0.028309
O O14 0.164211 0.911698 0.767380
#
# Coordination Sequence:
#
# PCOD9346272 Si02
#       7
#     4   4   4   4   4   4   4
#     4  11  26  43  72 101 142 185 247 295 368 436
#     4  11  25  41  67 104 140 187 239 304 361 443
#     4  10  25  46  70 104 138 191 235 297 360 427
#     4  11  23  44  66 104 139 192 241 305 369 436
#     4  10  26  43  73 103 143 187 239 301 361 436
#     4  11  25  42  71 102 145 190 245 306 369 444
#     4  10  24  43  67 102 145 188 240 300 366 430
#
# _framework density 23.110378000000001
#
# number of rings (size 3 to 8) (size 9 to 14) (size 15 to 20)
#    0.857    0.571    0.000    3.429    6.000   10.286 
#    0.000    0.000    0.000    0.000    0.000    0.000 
#    0.000    0.000    0.000    0.000    0.000    0.000 
#
# Total GULP energy -156029.273592 kJ/mol
# GULP energy per Si atom -5572.474057 kJ/mol
# Density = 2.305778 g / cm^3
# Si number density = 23.110378 Si / 1000 Ang^3
#
#
#
# Elastic Constant Matrix: (Units=GPa)
#
#
# Indices 1 2 3 4 5 6 
#
# 1 59.1005 8.2414 8.6707 0.0000 0.0000 0.0000
# 2 8.2414 93.4925 9.7000 0.0000 0.0000 0.0000
# 3 8.6707 9.7000 77.4751 0.0000 0.0000 0.0000
# 4 0.0000 0.0000 0.0000 27.8956 0.0000 0.0000
# 5 0.0000 0.0000 0.0000 0.0000 29.7634 0.0000
# 6 0.0000 0.0000 0.0000 0.0000 0.0000 19.7195
#
#
#
# Elastic Compliance Matrix: (Units=1/GPa)
#
#
# Indices 1 2 3 4 5 6 
#
# 1 0.017369 -0.001347 -0.001775 0.000000 0.000000 0.000000
# 2 -0.001347 0.010941 -0.001219 0.000000 0.000000 0.000000
# 3 -0.001775 -0.001219 0.013259 0.000000 0.000000 0.000000
# 4 0.000000 0.000000 0.000000 0.035848 0.000000 0.000000
# 5 0.000000 0.000000 0.000000 0.000000 0.033598 0.000000
# 6 0.000000 0.000000 0.000000 0.000000 0.000000 0.050711
#
#
# Mechanical properties :
#
#
# Convention : Reuss Voigt Hill
#
# Bulk Modulus (GPa) = 30.40795 31.47693 30.94244
# Shear Modulus (GPa) = 27.56787 29.03942 28.30364
#
# Velocity S-wave (km/s) = 3.45755 3.54863 3.50339
# Velocity P-wave (km/s) = 5.39684 5.51727 5.45738
#
# Compressibility (1/GPa) = 0.03288614
#
# Stress axis : x y z
#
# Youngs Moduli (GPa) = 57.57521 91.39712 75.42226
#
# Poissons Ratio (x) = 0.12310 0.13389
# Poissons Ratio (y) = 0.07755 0.09195
# Poissons Ratio (z) = 0.10221 0.11142
#
# Static dielectric constant tensor:
#      x y z
#    x 1.893170 0.000000 0.000000 
#    y 0.000000 1.928570 0.000000 
#    z 0.000000 0.000000 1.879420 
# 
# From -- ./inp_files/5172.got.cif
#   From: 2010.05.17/outbox.cif.g08.bks.cpg/sg33_3_cif.got.tgz:5172.got - 2010.06.03 17:15:25.
