data_PCOD9346046
_publ_section_title
;
Structure prediction by ZEFSAII (Michael W. Deem and Ramdas Pophale) SiO2 
 PCOD9346046
Probable space group: P N A 21
;
_chemical_formula_sum "Si O2"
_cell_formula_units_Z 28
_cell_length_a 7.482522
_cell_length_b 16.843207
_cell_length_c 7.917350
_cell_angle_alpha 90.000000
_cell_angle_beta 90.000000
_cell_angle_gamma 90.000000
_cell_volume 997.820983
_symmetry_space_group_name_H-M "P N A 21"
_symmetry_group_IT_number 33
_symmetry_cell_setting 'orthorhombic'
loop_
_space_group_symop_operation_xyz
x,y,z
-x,-y,1/2+z
1/2-x,1/2+y,1/2+z
1/2+x,1/2-y,z
loop_
_atom_site_type_symbol
_atom_site_label
_atom_site_fract_x
_atom_site_fract_y
_atom_site_fract_z
Si Si1 0.875906 0.827175 0.439260
Si Si2 0.882636 0.976996 0.639924
Si Si3 0.201337 0.723617 0.793092
Si Si4 0.357010 0.587904 0.003111
Si Si5 0.010576 0.666692 0.288244
Si Si6 0.136697 0.360457 0.412090
Si Si7 0.502317 0.014552 0.998418
O O1 0.954053 0.909722 0.509338
O O2 0.782074 0.792393 0.609322
O O3 0.724242 0.847111 0.300292
O O4 0.986746 0.755764 0.358478
O O5 0.920644 0.947844 0.824562
O O6 0.666001 0.973233 0.624013
O O7 0.974726 0.062465 0.616396
O O8 0.299639 0.675922 0.945362
O O9 0.007144 0.685575 0.798374
O O10 0.190014 0.814635 0.850787
O O11 0.178326 0.535644 0.045245
O O12 0.942812 0.597170 0.413451
O O13 0.915201 0.656059 0.107752
O O14 0.108234 0.452534 0.377743
#
# Coordination Sequence:
#
# PCOD9346046 Si02
#       7
#     4   4   4   4   4   4   4
#     4  10  23  42  62  93 132 172 215 268 335 396
#     4  10  23  42  66  97 131 172 218 269 332 397
#     4  10  23  42  62  93 132 172 215 268 335 396
#     4  10  23  42  66  97 131 172 218 269 332 397
#     4  11  23  41  67  97 128 172 223 272 326 396
#     4  11  23  41  67  97 128 172 223 272 326 396
#     4  10  24  44  66  96 134 172 220 278 336 390
#
# _framework density 28.061145
#
# number of rings (size 3 to 8) (size 9 to 14) (size 15 to 20)
#    0.000    1.714    0.000    2.571    4.000   10.286 
#    0.000    0.000    0.000    0.000    0.000    0.000 
#    0.000    0.000    0.000    0.000    0.000    0.000 
#
# Total GULP energy -156752.084637 kJ/mol
# GULP energy per Si atom -5598.288737 kJ/mol
# Density = 2.799728 g / cm^3
# Si number density = 28.061145 Si / 1000 Ang^3
#
#
#
# Elastic Constant Matrix: (Units=GPa)
#
#
# Indices 1 2 3 4 5 6 
#
# 1 77.8265 22.7829 6.2214 0.0000 0.0000 0.0000
# 2 22.7829 144.8871 12.4833 0.0000 0.0000 0.0000
# 3 6.2214 12.4833 85.1362 0.0000 0.0000 0.0000
# 4 0.0000 0.0000 0.0000 50.6921 0.0000 0.0000
# 5 0.0000 0.0000 0.0000 0.0000 32.3028 0.0000
# 6 0.0000 0.0000 0.0000 0.0000 0.0000 53.9890
#
#
#
# Elastic Compliance Matrix: (Units=1/GPa)
#
#
# Indices 1 2 3 4 5 6 
#
# 1 0.013508 -0.002065 -0.000684 0.000000 0.000000 0.000000
# 2 -0.002065 0.007306 -0.000920 0.000000 0.000000 0.000000
# 3 -0.000684 -0.000920 0.011931 0.000000 0.000000 0.000000
# 4 0.000000 0.000000 0.000000 0.019727 0.000000 0.000000
# 5 0.000000 0.000000 0.000000 0.000000 0.030957 0.000000
# 6 0.000000 0.000000 0.000000 0.000000 0.000000 0.018522
#
#
# Mechanical properties :
#
#
# Convention : Reuss Voigt Hill
#
# Bulk Modulus (GPa) = 39.36159 43.42501 41.39330
# Shear Modulus (GPa) = 42.45937 45.15425 43.80681
#
# Velocity S-wave (km/s) = 3.89408 4.01576 3.95539
# Velocity P-wave (km/s) = 5.85457 6.08362 5.97020
#
# Compressibility (1/GPa) = 0.02540548
#
# Stress axis : x y z
#
# Youngs Moduli (GPa) = 74.02827 136.87449 83.81643
#
# Poissons Ratio (x) = 0.28267 0.05736
# Poissons Ratio (y) = 0.15288 0.07714
# Poissons Ratio (z) = 0.05066 0.12597
#
# Static dielectric constant tensor:
#      x y z
#    x 2.232880 0.000000 0.000000 
#    y 0.000000 2.183690 0.000000 
#    z 0.000000 0.000000 2.245440 
# 
# From -- ./inp_files/3316.got.cif
#   From: 2010.05.17/outbox.cif.g08.bks.cpg/sg33_2_cif.got.tgz:3316.got - 2010.06.03 17:15:25.
