data_PCOD9346376
_publ_section_title
;
Structure prediction by ZEFSAII (Michael W. Deem and Ramdas Pophale) SiO2 
 PCOD9346376
Probable space group: P N A 21
;
_chemical_formula_sum "Si O2"
_cell_formula_units_Z 28
_cell_length_a 14.307210
_cell_length_b 14.189019
_cell_length_c 5.269722
_cell_angle_alpha 90.000000
_cell_angle_beta 90.000000
_cell_angle_gamma 90.000000
_cell_volume 1069.781361
_symmetry_space_group_name_H-M "P N A 21"
_symmetry_group_IT_number 33
_symmetry_cell_setting 'orthorhombic'
loop_
_space_group_symop_operation_xyz
x,y,z
-x,-y,1/2+z
1/2-x,1/2+y,1/2+z
1/2+x,1/2-y,z
loop_
_atom_site_type_symbol
_atom_site_label
_atom_site_fract_x
_atom_site_fract_y
_atom_site_fract_z
Si Si1 0.692223 0.155174 0.588240
Si Si2 0.523735 0.245678 0.345147
Si Si3 0.897608 0.126384 0.681083
Si Si4 0.777439 0.869966 0.189223
Si Si5 0.460871 0.950202 0.291350
Si Si6 0.596533 0.806770 0.447949
Si Si7 0.625663 0.419465 0.172158
O O1 0.611482 0.175032 0.379398
O O2 0.799337 0.131906 0.525428
O O3 0.694918 0.259509 0.708973
O O4 0.648774 0.070251 0.753985
O O5 0.482072 0.319698 0.547480
O O6 0.562924 0.326066 0.155670
O O7 0.434135 0.188071 0.240105
O O8 0.876907 0.197980 0.910967
O O9 0.919399 0.019201 0.744858
O O10 0.674606 0.869661 0.313480
O O11 0.835417 0.930083 0.389016
O O12 0.798945 0.897124 0.897869
O O13 0.503750 0.844729 0.308823
O O14 0.494934 0.999514 0.547195
#
# Coordination Sequence:
#
# PCOD9346376 Si02
#       7
#     4   4   4   4   4   4   4
#     4  10  24  51  72 107 150 199 248 309 387 452
#     4  11  25  46  80 106 159 199 255 314 384 462
#     4  11  27  46  77 112 151 201 255 311 390 461
#     4  10  26  47  76 106 150 199 245 309 373 462
#     4  12  27  45  75 104 145 193 250 312 372 438
#     4  11  26  47  74 107 152 200 255 305 393 453
#     4  11  27  46  76 112 155 191 256 314 379 450
#
# _framework density 26.173576000000001
#
# number of rings (size 3 to 8) (size 9 to 14) (size 15 to 20)
#    0.000    1.143    1.429    1.714   16.000    1.143 
#    2.571    0.000    0.000    0.000    0.000    0.000 
#    0.000    0.000    0.000    0.000    0.000    0.000 
#
# Total GULP energy -156240.908947 kJ/mol
# GULP energy per Si atom -5580.032462 kJ/mol
# Density = 2.611400 g / cm^3
# Si number density = 26.173576 Si / 1000 Ang^3
#
#
#
# Elastic Constant Matrix: (Units=GPa)
#
#
# Indices 1 2 3 4 5 6 
#
# 1 87.1959 10.3511 14.4940 0.0000 0.0000 0.0000
# 2 10.3511 127.0050 20.6659 0.0000 0.0000 0.0000
# 3 14.4940 20.6659 87.9411 0.0000 0.0000 0.0000
# 4 0.0000 0.0000 0.0000 25.8071 0.0000 0.0000
# 5 0.0000 0.0000 0.0000 0.0000 37.6137 0.0000
# 6 0.0000 0.0000 0.0000 0.0000 0.0000 32.5150
#
#
#
# Elastic Compliance Matrix: (Units=1/GPa)
#
#
# Indices 1 2 3 4 5 6 
#
# 1 0.011847 -0.000674 -0.001794 0.000000 0.000000 0.000000
# 2 -0.000674 0.008225 -0.001822 0.000000 0.000000 0.000000
# 3 -0.001794 -0.001822 0.012095 0.000000 0.000000 0.000000
# 4 0.000000 0.000000 0.000000 0.038749 0.000000 0.000000
# 5 0.000000 0.000000 0.000000 0.000000 0.026586 0.000000
# 6 0.000000 0.000000 0.000000 0.000000 0.000000 0.030755
#
#
# Mechanical properties :
#
#
# Convention : Reuss Voigt Hill
#
# Bulk Modulus (GPa) = 42.39532 43.68488 43.04010
# Shear Modulus (GPa) = 34.55457 36.29589 35.42523
#
# Velocity S-wave (km/s) = 3.63741 3.72793 3.68295
# Velocity P-wave (km/s) = 5.82013 5.93773 5.87922
#
# Compressibility (1/GPa) = 0.02358751
#
# Stress axis : x y z
#
# Youngs Moduli (GPa) = 84.41217 121.57986 82.67814
#
# Poissons Ratio (x) = 0.08189 0.14834
# Poissons Ratio (y) = 0.05686 0.15063
# Poissons Ratio (z) = 0.15145 0.22150
#
# Static dielectric constant tensor:
#      x y z
#    x 2.144540 0.000000 0.000000 
#    y 0.000000 2.064270 0.000000 
#    z 0.000000 0.000000 2.330610 
# 
# From -- ./inp_files/1426.got.cif
#   From: 2010.05.17/outbox.cif.g08.bks.cpg/sg33_1_cif.got.tgz:1426.got - 2010.06.03 17:15:25.
