data_PCOD9346905
_publ_section_title
;
Structure prediction by ZEFSAII (Michael W. Deem and Ramdas Pophale) SiO2 
 PCOD9346905
Probable space group: P N A 21
;
_chemical_formula_sum "Si O2"
_cell_formula_units_Z 24
_cell_length_a 6.061639
_cell_length_b 15.501622
_cell_length_c 9.339723
_cell_angle_alpha 90.000000
_cell_angle_beta 90.000000
_cell_angle_gamma 90.000000
_cell_volume 877.609280
_symmetry_space_group_name_H-M "P N A 21"
_symmetry_group_IT_number 33
_symmetry_cell_setting 'orthorhombic'
loop_
_space_group_symop_operation_xyz
x,y,z
-x,-y,1/2+z
1/2-x,1/2+y,1/2+z
1/2+x,1/2-y,z
loop_
_atom_site_type_symbol
_atom_site_label
_atom_site_fract_x
_atom_site_fract_y
_atom_site_fract_z
Si Si1 0.361234 0.559472 0.225220
Si Si2 0.306275 0.312294 0.557048
Si Si3 0.338167 0.460595 0.979098
Si Si4 0.847067 0.285451 0.109938
Si Si5 0.078604 0.631927 0.890369
Si Si6 0.523440 0.166503 0.822769
O O1 0.517653 0.624503 0.133953
O O2 0.446973 0.551059 0.385210
O O3 0.116733 0.595914 0.235636
O O4 0.377711 0.468271 0.146183
O O5 0.353484 0.225448 0.463401
O O6 0.170334 0.372343 0.447257
O O7 0.153859 0.286275 0.694914
O O8 0.216633 0.550131 0.941344
O O9 0.185351 0.383820 0.928345
O O10 0.586704 0.262769 0.140984
O O11 0.887100 0.363331 0.220692
O O12 0.859601 0.290922 0.937336
#
# Coordination Sequence:
#
# PCOD9346905 Si02
#       6
#     4   4   4   4   4   4
#     4  11  27  49  77 111 155 210 264 333 408 490
#     4  11  26  49  75 115 151 211 266 331 404 487
#     4  11  28  47  78 114 153 206 262 335 403 493
#     4  12  31  50  79 120 157 211 264 341 402 479
#     4  12  25  49  81 113 155 203 275 331 403 486
#     4  11  29  50  76 113 163 205 265 331 416 485
#
# _framework density 27.347021000000002
#
# number of rings (size 3 to 8) (size 9 to 14) (size 15 to 20)
#    0.000    0.667    3.333    1.000   14.000    0.000 
#    0.000    0.000    0.000    0.000    0.000    0.000 
#    0.000    0.000    0.000    0.000    0.000    0.000 
#
# Total GULP energy -134195.484754 kJ/mol
# GULP energy per Si atom -5591.478531 kJ/mol
# Density = 2.728478 g / cm^3
# Si number density = 27.347021 Si / 1000 Ang^3
#
#
#
# Elastic Constant Matrix: (Units=GPa)
#
#
# Indices 1 2 3 4 5 6 
#
# 1 72.6007 33.2800 8.6257 0.0000 0.0000 0.0000
# 2 33.2800 84.8925 19.2194 0.0000 0.0000 0.0000
# 3 8.6257 19.2194 117.2308 0.0000 0.0000 0.0000
# 4 0.0000 0.0000 0.0000 52.2128 0.0000 0.0000
# 5 0.0000 0.0000 0.0000 0.0000 36.5006 0.0000
# 6 0.0000 0.0000 0.0000 0.0000 0.0000 37.2380
#
#
#
# Elastic Compliance Matrix: (Units=1/GPa)
#
#
# Indices 1 2 3 4 5 6 
#
# 1 0.016794 -0.006547 -0.000162 0.000000 0.000000 0.000000
# 2 -0.006547 0.014786 -0.001942 0.000000 0.000000 0.000000
# 3 -0.000162 -0.001942 0.008861 0.000000 0.000000 0.000000
# 4 0.000000 0.000000 0.000000 0.019152 0.000000 0.000000
# 5 0.000000 0.000000 0.000000 0.000000 0.027397 0.000000
# 6 0.000000 0.000000 0.000000 0.000000 0.000000 0.026854
#
#
# Mechanical properties :
#
#
# Convention : Reuss Voigt Hill
#
# Bulk Modulus (GPa) = 43.22013 44.10826 43.66419
# Shear Modulus (GPa) = 36.00734 39.43020 37.71877
#
# Velocity S-wave (km/s) = 3.63255 3.80128 3.71787
# Velocity P-wave (km/s) = 5.78209 5.95235 5.86783
#
# Compressibility (1/GPa) = 0.02313737
#
# Stress axis : x y z
#
# Youngs Moduli (GPa) = 59.54355 67.63163 112.85960
#
# Poissons Ratio (x) = 0.44279 0.01832
# Poissons Ratio (y) = 0.38984 0.21921
# Poissons Ratio (z) = 0.00967 0.13137
#
# Static dielectric constant tensor:
#      x y z
#    x 2.281770 0.000000 0.000000 
#    y 0.000000 2.153840 0.000000 
#    z 0.000000 0.000000 2.119940 
# 
# From -- ./inp_files/2661.got.cif
#   From: 2010.05.17/outbox.cif.g08.bks.cpg/sg33_2_cif.got.tgz:2661.got - 2010.06.03 17:15:25.
