data_PCOD9346861
_publ_section_title
;
Structure prediction by ZEFSAII (Michael W. Deem and Ramdas Pophale) SiO2 
 PCOD9346861
Probable space group: P N A 21
;
_chemical_formula_sum "Si O2"
_cell_formula_units_Z 28
_cell_length_a 17.744937
_cell_length_b 5.386256
_cell_length_c 11.729852
_cell_angle_alpha 90.000000
_cell_angle_beta 90.000000
_cell_angle_gamma 90.000000
_cell_volume 1121.124866
_symmetry_space_group_name_H-M "P N A 21"
_symmetry_group_IT_number 33
_symmetry_cell_setting 'orthorhombic'
loop_
_space_group_symop_operation_xyz
x,y,z
-x,-y,1/2+z
1/2-x,1/2+y,1/2+z
1/2+x,1/2-y,z
loop_
_atom_site_type_symbol
_atom_site_label
_atom_site_fract_x
_atom_site_fract_y
_atom_site_fract_z
Si Si1 0.527196 0.473206 0.101910
Si Si2 0.168370 0.116903 0.215752
Si Si3 0.818759 0.597372 0.300509
Si Si4 0.387827 0.944982 0.880725
Si Si5 0.254583 0.201948 0.999734
Si Si6 0.861005 0.907171 0.084495
Si Si7 0.548831 0.974054 0.955645
O O1 0.584413 0.497225 0.209066
O O2 0.437362 0.453726 0.125729
O O3 0.539037 0.724609 0.029287
O O4 0.551598 0.219878 0.035927
O O5 0.148616 0.393309 0.258835
O O6 0.205412 0.065926 0.093889
O O7 0.237932 0.035177 0.293784
O O8 0.797793 0.812941 0.388948
O O9 0.847417 0.694691 0.179632
O O10 0.881116 0.448961 0.370668
O O11 0.474228 0.014200 0.879746
O O12 0.380925 0.697651 0.959331
O O13 0.335703 0.121704 0.954448
O O14 0.282116 0.448093 0.068567
#
# Coordination Sequence:
#
# PCOD9346861 Si02
#       7
#     4   4   4   4   4   4   4
#     4  11  27  51  77 111 157 204 259 318 386 468
#     4  12  27  45  78 112 150 200 254 324 381 461
#     4  12  27  45  78 112 150 200 254 324 381 461
#     4  11  25  47  74 106 149 201 249 308 382 463
#     4  12  24  46  76 108 152 190 254 306 394 436
#     4  11  25  47  74 106 149 201 249 308 382 463
#     4  11  27  51  77 111 157 204 259 318 386 468
#
# _framework density 24.974916
#
# number of rings (size 3 to 8) (size 9 to 14) (size 15 to 20)
#    0.000    0.571    5.714    0.857    4.000    9.143 
#    0.000    0.000    0.000    0.000    0.000    0.000 
#    0.000    0.000    0.000    0.000    0.000    0.000 
#
# Total GULP energy -156234.944968 kJ/mol
# GULP energy per Si atom -5579.819463 kJ/mol
# Density = 2.491807 g / cm^3
# Si number density = 24.974916 Si / 1000 Ang^3
#
#
#
# Elastic Constant Matrix: (Units=GPa)
#
#
# Indices 1 2 3 4 5 6 
#
# 1 125.2841 7.0487 54.5828 0.0000 0.0000 0.0000
# 2 7.0487 72.4373 15.9736 0.0000 0.0000 0.0000
# 3 54.5828 15.9736 72.1123 0.0000 0.0000 0.0000
# 4 0.0000 0.0000 0.0000 30.7067 0.0000 0.0000
# 5 0.0000 0.0000 0.0000 0.0000 44.3951 0.0000
# 6 0.0000 0.0000 0.0000 0.0000 0.0000 25.7394
#
#
#
# Elastic Compliance Matrix: (Units=1/GPa)
#
#
# Indices 1 2 3 4 5 6 
#
# 1 0.011962 0.000875 -0.009248 0.000000 0.000000 0.000000
# 2 0.000875 0.014578 -0.003892 0.000000 0.000000 0.000000
# 3 -0.009248 -0.003892 0.021729 0.000000 0.000000 0.000000
# 4 0.000000 0.000000 0.000000 0.032566 0.000000 0.000000
# 5 0.000000 0.000000 0.000000 0.000000 0.022525 0.000000
# 6 0.000000 0.000000 0.000000 0.000000 0.000000 0.038851
#
#
# Mechanical properties :
#
#
# Convention : Reuss Voigt Hill
#
# Bulk Modulus (GPa) = 42.12236 47.22712 44.67474
# Shear Modulus (GPa) = 28.62821 32.98348 30.80584
#
# Velocity S-wave (km/s) = 3.38935 3.63804 3.51589
# Velocity P-wave (km/s) = 5.67621 6.04962 5.86589
#
# Compressibility (1/GPa) = 0.02374036
#
# Stress axis : x y z
#
# Youngs Moduli (GPa) = 83.60061 68.59620 46.02116
#
# Poissons Ratio (x) = -0.06004 0.42560
# Poissons Ratio (y) = -0.07318 0.17910
# Poissons Ratio (z) = 0.77312 0.26696
#
# Static dielectric constant tensor:
#      x y z
#    x 1.969940 0.000000 0.000000 
#    y 0.000000 2.081370 0.000000 
#    z 0.000000 0.000000 2.016010 
# 
# From -- ./inp_files/6960.got.cif
#   From: 2010.05.17/outbox.cif.g08.bks.cpg/sg33_4_cif.got.tgz:6960.got - 2010.06.03 17:15:25.
