data_PCOD9346638
_publ_section_title
;
Structure prediction by ZEFSAII (Michael W. Deem and Ramdas Pophale) SiO2 
 PCOD9346638
Probable space group: P N A 21
;
_chemical_formula_sum "Si O2"
_cell_formula_units_Z 24
_cell_length_a 24.714876
_cell_length_b 5.155502
_cell_length_c 8.501771
_cell_angle_alpha 90.000000
_cell_angle_beta 90.000000
_cell_angle_gamma 90.000000
_cell_volume 1083.275194
_symmetry_space_group_name_H-M "P N A 21"
_symmetry_group_IT_number 33
_symmetry_cell_setting 'orthorhombic'
loop_
_space_group_symop_operation_xyz
x,y,z
-x,-y,1/2+z
1/2-x,1/2+y,1/2+z
1/2+x,1/2-y,z
loop_
_atom_site_type_symbol
_atom_site_label
_atom_site_fract_x
_atom_site_fract_y
_atom_site_fract_z
Si Si1 0.383591 0.076309 0.362400
Si Si2 0.716186 0.138366 0.355114
Si Si3 0.399015 0.851451 0.714992
Si Si4 0.447371 0.454502 0.516493
Si Si5 0.272397 0.871059 0.220144
Si Si6 0.004889 0.460149 0.880940
O O1 0.384074 0.960410 0.540807
O O2 0.397364 0.379807 0.397858
O O3 0.330517 0.979181 0.277915
O O4 0.439224 0.984530 0.279471
O O5 0.652869 0.108809 0.321470
O O6 0.726263 0.196943 0.537072
O O7 0.749706 0.881002 0.309612
O O8 0.733995 0.383759 0.251739
O O9 0.419599 0.559011 0.675107
O O10 0.449525 0.991946 0.794869
O O11 0.515979 0.800923 0.001365
O O12 0.486427 0.685764 0.462701
#
# Coordination Sequence:
#
# PCOD9346638 Si02
#       6
#     4   4   4   4   4   4
#     4   9  23  42  72  96 145 184 245 295 368 419
#     4  12  29  46  76 104 146 191 249 306 379 441
#     4  11  23  44  72 105 145 190 246 304 368 435
#     4   9  22  40  63 103 133 191 224 298 350 428
#     4  12  27  50  70 109 141 195 246 313 368 452
#     4   9  22  38  65 101 140 181 230 290 365 425
#
# _framework density 22.155034000000001
#
# number of rings (size 3 to 8) (size 9 to 14) (size 15 to 20)
#    1.000    0.667    0.000    3.000   11.667    2.667 
#    0.000    1.667    0.000    0.000    0.000    0.000 
#    0.000    0.000    0.000    0.000    0.000    0.000 
#
# Total GULP energy -133776.838701 kJ/mol
# GULP energy per Si atom -5574.034946 kJ/mol
# Density = 2.210461 g / cm^3
# Si number density = 22.155034 Si / 1000 Ang^3
#
#
#
# Elastic Constant Matrix: (Units=GPa)
#
#
# Indices 1 2 3 4 5 6 
#
# 1 94.5271 -12.2734 32.2564 0.0000 0.0000 0.0000
# 2 -12.2734 90.7494 20.0248 0.0000 0.0000 0.0000
# 3 32.2564 20.0248 54.9710 0.0000 0.0000 0.0000
# 4 0.0000 0.0000 0.0000 28.9612 0.0000 0.0000
# 5 0.0000 0.0000 0.0000 0.0000 39.0852 0.0000
# 6 0.0000 0.0000 0.0000 0.0000 0.0000 32.4633
#
#
#
# Elastic Compliance Matrix: (Units=1/GPa)
#
#
# Indices 1 2 3 4 5 6 
#
# 1 0.014559 0.004191 -0.010070 0.000000 0.000000 0.000000
# 2 0.004191 0.013189 -0.007264 0.000000 0.000000 0.000000
# 3 -0.010070 -0.007264 0.026747 0.000000 0.000000 0.000000
# 4 0.000000 0.000000 0.000000 0.034529 0.000000 0.000000
# 5 0.000000 0.000000 0.000000 0.000000 0.025585 0.000000
# 6 0.000000 0.000000 0.000000 0.000000 0.000000 0.030804
#
#
# Mechanical properties :
#
#
# Convention : Reuss Voigt Hill
#
# Bulk Modulus (GPa) = 35.44907 35.58479 35.51693
# Shear Modulus (GPa) = 27.60876 33.45124 30.53000
#
# Velocity S-wave (km/s) = 3.53393 3.88992 3.71619
# Velocity P-wave (km/s) = 5.71723 6.02262 5.87191
#
# Compressibility (1/GPa) = 0.02820949
#
# Stress axis : x y z
#
# Youngs Moduli (GPa) = 68.68376 75.82050 37.38800
#
# Poissons Ratio (x) = -0.31778 0.37650
# Poissons Ratio (y) = -0.28787 0.27158
# Poissons Ratio (z) = 0.69165 0.55075
#
# Static dielectric constant tensor:
#      x y z
#    x 1.831850 0.000000 0.000000 
#    y 0.000000 1.881500 0.000000 
#    z 0.000000 0.000000 1.840480 
# 
# From -- ./inp_files/5102.got.cif
#   From: 2010.05.17/outbox.cif.g08.bks.cpg/sg33_3_cif.got.tgz:5102.got - 2010.06.03 17:15:25.
