data_PCOD9346558
_publ_section_title
;
Structure prediction by ZEFSAII (Michael W. Deem and Ramdas Pophale) SiO2 
 PCOD9346558
Probable space group: P N A 21
;
_chemical_formula_sum "Si O2"
_cell_formula_units_Z 32
_cell_length_a 8.544287
_cell_length_b 14.353147
_cell_length_c 10.955697
_cell_angle_alpha 90.000000
_cell_angle_beta 90.000000
_cell_angle_gamma 90.000000
_cell_volume 1343.578275
_symmetry_space_group_name_H-M "P N A 21"
_symmetry_group_IT_number 33
_symmetry_cell_setting 'orthorhombic'
loop_
_space_group_symop_operation_xyz
x,y,z
-x,-y,1/2+z
1/2-x,1/2+y,1/2+z
1/2+x,1/2-y,z
loop_
_atom_site_type_symbol
_atom_site_label
_atom_site_fract_x
_atom_site_fract_y
_atom_site_fract_z
Si Si1 0.228945 0.106285 0.186410
Si Si2 0.582051 0.728888 0.736931
Si Si3 0.462461 0.163182 0.863269
Si Si4 0.213439 0.830095 0.494269
Si Si5 0.518380 0.306612 0.651817
Si Si6 0.765842 0.701650 0.986532
Si Si7 0.713401 0.006586 0.435846
Si Si8 0.027547 0.968093 0.332172
O O1 0.390033 0.161999 0.206672
O O2 0.087817 0.183332 0.207767
O O3 0.169818 0.026842 0.278051
O O4 0.247659 0.053666 0.057228
O O5 0.689154 0.675845 0.637548
O O6 0.658383 0.723926 0.870630
O O7 0.612846 0.153154 0.948948
O O8 0.342135 0.233473 0.930573
O O9 0.513000 0.216084 0.739766
O O10 0.385170 0.062441 0.850931
O O11 0.096309 0.906406 0.440581
O O12 0.347152 0.321724 0.598547
O O13 0.631422 0.286145 0.538402
O O14 0.547128 0.396542 0.734169
O O15 0.862151 0.607101 0.960711
O O16 0.883011 0.028330 0.378198
#
# Coordination Sequence:
#
# PCOD9346558 Si02
#       8
#     4   4   4   4   4   4   4   4
#     4  12  25  45  71 103 142 183 234 289 358 427
#     4  12  25  44  68  99 145 184 221 291 363 426
#     4  11  23  43  72 102 135 174 241 298 342 410
#     4  11  22  43  71 105 132 181 234 290 354 411
#     4  11  24  46  71  99 135 188 233 294 350 418
#     4  12  26  46  66 100 146 182 230 283 365 422
#     4  12  24  45  69 105 137 183 237 287 346 433
#     4  11  23  46  76  99 136 187 246 290 344 425
#
# _framework density 23.816997000000001
#
# number of rings (size 3 to 8) (size 9 to 14) (size 15 to 20)
#    0.000    0.500    5.000    5.250    0.000    0.000 
#    6.750    0.000    0.000    0.000    0.000    0.000 
#    0.000    0.000    0.000    0.000    0.000    0.000 
#
# Total GULP energy -178921.890112 kJ/mol
# GULP energy per Si atom -5591.309066 kJ/mol
# Density = 2.376279 g / cm^3
# Si number density = 23.816997 Si / 1000 Ang^3
#
#
#
# Elastic Constant Matrix: (Units=GPa)
#
#
# Indices 1 2 3 4 5 6 
#
# 1 47.5174 2.8690 2.9285 0.0000 0.0000 0.0000
# 2 2.8690 57.2349 14.2054 0.0000 0.0000 0.0000
# 3 2.9285 14.2054 94.3711 0.0000 0.0000 0.0000
# 4 0.0000 0.0000 0.0000 17.4766 0.0000 0.0000
# 5 0.0000 0.0000 0.0000 0.0000 34.6388 0.0000
# 6 0.0000 0.0000 0.0000 0.0000 0.0000 33.4323
#
#
#
# Elastic Compliance Matrix: (Units=1/GPa)
#
#
# Indices 1 2 3 4 5 6 
#
# 1 0.021133 -0.000931 -0.000516 0.000000 0.000000 0.000000
# 2 -0.000931 0.018191 -0.002709 0.000000 0.000000 0.000000
# 3 -0.000516 -0.002709 0.011020 0.000000 0.000000 0.000000
# 4 0.000000 0.000000 0.000000 0.057219 0.000000 0.000000
# 5 0.000000 0.000000 0.000000 0.000000 0.028869 0.000000
# 6 0.000000 0.000000 0.000000 0.000000 0.000000 0.029911
#
#
# Mechanical properties :
#
#
# Convention : Reuss Voigt Hill
#
# Bulk Modulus (GPa) = 23.79159 26.56990 25.18074
# Shear Modulus (GPa) = 26.50168 29.05091 27.77630
#
# Velocity S-wave (km/s) = 3.33937 3.49629 3.41873
# Velocity P-wave (km/s) = 4.98794 5.24202 5.11656
#
# Compressibility (1/GPa) = 0.04203166
#
# Stress axis : x y z
#
# Youngs Moduli (GPa) = 47.31952 54.97231 90.74173
#
# Poissons Ratio (x) = 0.05120 0.04679
# Poissons Ratio (y) = 0.04407 0.24585
# Poissons Ratio (z) = 0.02440 0.14894
#
# Static dielectric constant tensor:
#      x y z
#    x 1.965130 0.000000 0.000000 
#    y 0.000000 1.930920 0.000000 
#    z 0.000000 0.000000 1.920930 
# 
# From -- ./inp_files/5991.got.cif
#   From: 2010.05.17/outbox.cif.g08.bks.cpg/sg33_3_cif.got.tgz:5991.got - 2010.06.03 17:15:25.
