data_PCOD9346903
_publ_section_title
;
Structure prediction by ZEFSAII (Michael W. Deem and Ramdas Pophale) SiO2 
 PCOD9346903
Probable space group: P N A 21
;
_chemical_formula_sum "Si O2"
_cell_formula_units_Z 20
_cell_length_a 5.818753
_cell_length_b 12.470919
_cell_length_c 9.799194
_cell_angle_alpha 90.000000
_cell_angle_beta 90.000000
_cell_angle_gamma 90.000000
_cell_volume 711.080446
_symmetry_space_group_name_H-M "P N A 21"
_symmetry_group_IT_number 33
_symmetry_cell_setting 'orthorhombic'
loop_
_space_group_symop_operation_xyz
x,y,z
-x,-y,1/2+z
1/2-x,1/2+y,1/2+z
1/2+x,1/2-y,z
loop_
_atom_site_type_symbol
_atom_site_label
_atom_site_fract_x
_atom_site_fract_y
_atom_site_fract_z
Si Si1 0.106386 0.303984 0.914900
Si Si2 0.319620 0.610512 0.062724
Si Si3 0.118980 0.983133 0.292852
Si Si4 0.183214 0.289007 0.356013
Si Si5 0.010703 0.440896 0.166870
O O1 0.345421 0.237503 0.893669
O O2 0.162694 0.407210 0.824113
O O3 0.107256 0.348779 0.068060
O O4 0.449321 0.588389 0.203716
O O5 0.081385 0.549988 0.090394
O O6 0.429743 0.541577 0.936575
O O7 0.303842 0.731343 0.006649
O O8 0.238495 0.066416 0.189445
O O9 0.437360 0.258442 0.305465
O O10 0.140186 0.411232 0.308690
#
# Coordination Sequence:
#
# PCOD9346903 Si02
#       5
#     4   4   4   4   4
#     4  11  28  49  77 115 160 217 271 343 418 503
#     4  11  27  48  83 122 166 226 283 356 426 516
#     4  11  27  50  82 118 172 216 287 355 426 507
#     4  12  26  47  80 119 160 218 282 341 416 512
#     4  11  26  48  80 116 166 221 281 339 424 506
#
# _framework density 28.126211999999999
#
# number of rings (size 3 to 8) (size 9 to 14) (size 15 to 20)
#    0.000    0.800    2.000    2.400   11.200    3.200 
#    0.000    0.000    0.000    0.000    0.000    0.000 
#    0.000    0.000    0.000    0.000    0.000    0.000 
#
# Total GULP energy -111494.920860 kJ/mol
# GULP energy per Si atom -5574.746043 kJ/mol
# Density = 2.806220 g / cm^3
# Si number density = 28.126212 Si / 1000 Ang^3
#
#
#
# Elastic Constant Matrix: (Units=GPa)
#
#
# Indices 1 2 3 4 5 6 
#
# 1 136.5571 13.6061 33.8599 0.0000 0.0000 0.0000
# 2 13.6061 90.9175 36.5388 0.0000 0.0000 0.0000
# 3 33.8599 36.5388 138.7090 0.0000 0.0000 0.0000
# 4 0.0000 0.0000 0.0000 64.0018 0.0000 0.0000
# 5 0.0000 0.0000 0.0000 0.0000 60.2727 0.0000
# 6 0.0000 0.0000 0.0000 0.0000 0.0000 60.5272
#
#
#
# Elastic Compliance Matrix: (Units=1/GPa)
#
#
# Indices 1 2 3 4 5 6 
#
# 1 0.007811 -0.000450 -0.001788 0.000000 0.000000 0.000000
# 2 -0.000450 0.012327 -0.003137 0.000000 0.000000 0.000000
# 3 -0.001788 -0.003137 0.008472 0.000000 0.000000 0.000000
# 4 0.000000 0.000000 0.000000 0.015625 0.000000 0.000000
# 5 0.000000 0.000000 0.000000 0.000000 0.016591 0.000000
# 6 0.000000 0.000000 0.000000 0.000000 0.000000 0.016522
#
#
# Mechanical properties :
#
#
# Convention : Reuss Voigt Hill
#
# Bulk Modulus (GPa) = 55.99381 59.35477 57.67429
# Shear Modulus (GPa) = 53.16173 55.77226 54.46699
#
# Velocity S-wave (km/s) = 4.35226 4.45784 4.40537
# Velocity P-wave (km/s) = 6.72365 6.90255 6.81369
#
# Compressibility (1/GPa) = 0.01785912
#
# Stress axis : x y z
#
# Youngs Moduli (GPa) = 128.02144 81.12123 118.03218
#
# Poissons Ratio (x) = 0.03653 0.21106
# Poissons Ratio (y) = 0.05765 0.37030
# Poissons Ratio (z) = 0.22892 0.25450
#
# Static dielectric constant tensor:
#      x y z
#    x 2.273690 0.000000 0.000000 
#    y 0.000000 2.352990 0.000000 
#    z 0.000000 0.000000 2.211620 
# 
# From -- ./inp_files/5431.got.cif
#   From: 2010.05.17/outbox.cif.g08.bks.cpg/sg33_3_cif.got.tgz:5431.got - 2010.06.03 17:15:25.
