data_PCOD9346976
_publ_section_title
;
Structure prediction by ZEFSAII (Michael W. Deem and Ramdas Pophale) SiO2 
 PCOD9346976
Probable space group: P N A 21
;
_chemical_formula_sum "Si O2"
_cell_formula_units_Z 24
_cell_length_a 10.968051
_cell_length_b 13.252765
_cell_length_c 6.692351
_cell_angle_alpha 90.000000
_cell_angle_beta 90.000000
_cell_angle_gamma 90.000000
_cell_volume 972.780080
_symmetry_space_group_name_H-M "P N A 21"
_symmetry_group_IT_number 33
_symmetry_cell_setting 'orthorhombic'
loop_
_space_group_symop_operation_xyz
x,y,z
-x,-y,1/2+z
1/2-x,1/2+y,1/2+z
1/2+x,1/2-y,z
loop_
_atom_site_type_symbol
_atom_site_label
_atom_site_fract_x
_atom_site_fract_y
_atom_site_fract_z
Si Si1 0.256984 0.866169 0.769090
Si Si2 0.534086 0.141332 0.924291
Si Si3 0.512482 0.426436 0.213741
Si Si4 0.789190 0.851680 0.942683
Si Si5 0.578854 0.363333 0.807608
Si Si6 0.157272 0.509966 0.632095
O O1 0.126840 0.897037 0.677431
O O2 0.245280 0.755517 0.867250
O O3 0.286603 0.943022 0.951560
O O4 0.359140 0.861202 0.594886
O O5 0.525806 0.251873 0.827599
O O6 0.203011 0.137793 0.680043
O O7 0.564371 0.065442 0.744682
O O8 0.600831 0.395194 0.035578
O O9 0.511509 0.545757 0.246645
O O10 0.769557 0.443191 0.321371
O O11 0.585678 0.896919 0.534921
O O12 0.934347 0.862467 0.895957
#
# Coordination Sequence:
#
# PCOD9346976 Si02
#       6
#     4   4   4   4   4   4
#     4  12  27  48  78 113 157 209 261 323 397 474
#     4  12  26  50  78 114 156 208 261 320 394 476
#     4  12  26  48  74 113 156 199 263 327 386 467
#     4  12  27  48  76 112 155 206 262 326 390 468
#     4  12  25  49  77 111 151 202 261 313 395 461
#     4  12  27  51  77 117 161 204 264 325 392 468
#
# _framework density 24.671558999999998
#
# number of rings (size 3 to 8) (size 9 to 14) (size 15 to 20)
#    0.000    0.000    6.667    3.000    0.000    0.000 
#    0.000    0.000    0.000    0.000    0.000    0.000 
#    0.000    0.000    0.000    0.000    0.000    0.000 
#
# Total GULP energy -134283.503476 kJ/mol
# GULP energy per Si atom -5595.145978 kJ/mol
# Density = 2.461541 g / cm^3
# Si number density = 24.671559 Si / 1000 Ang^3
#
#
#
# Elastic Constant Matrix: (Units=GPa)
#
#
# Indices 1 2 3 4 5 6 
#
# 1 65.4425 37.8140 32.8180 0.0000 0.0000 0.0000
# 2 37.8140 188.3551 39.5945 0.0000 0.0000 0.0000
# 3 32.8180 39.5945 100.3274 0.0000 0.0000 0.0000
# 4 0.0000 0.0000 0.0000 66.0283 0.0000 0.0000
# 5 0.0000 0.0000 0.0000 0.0000 54.6321 0.0000
# 6 0.0000 0.0000 0.0000 0.0000 0.0000 22.1309
#
#
#
# Elastic Compliance Matrix: (Units=1/GPa)
#
#
# Indices 1 2 3 4 5 6 
#
# 1 0.019558 -0.002815 -0.005287 0.000000 0.000000 0.000000
# 2 -0.002815 0.006195 -0.001524 0.000000 0.000000 0.000000
# 3 -0.005287 -0.001524 0.012298 0.000000 0.000000 0.000000
# 4 0.000000 0.000000 0.000000 0.015145 0.000000 0.000000
# 5 0.000000 0.000000 0.000000 0.000000 0.018304 0.000000
# 6 0.000000 0.000000 0.000000 0.000000 0.000000 0.045186
#
#
# Mechanical properties :
#
#
# Convention : Reuss Voigt Hill
#
# Bulk Modulus (GPa) = 53.19253 63.84200 58.51727
# Shear Modulus (GPa) = 35.16071 44.81816 39.98944
#
# Velocity S-wave (km/s) = 3.77921 4.26677 4.03037
# Velocity P-wave (km/s) = 6.37576 7.08567 6.74007
#
# Compressibility (1/GPa) = 0.01879963
#
# Stress axis : x y z
#
# Youngs Moduli (GPa) = 51.12875 161.43014 81.31343
#
# Poissons Ratio (x) = 0.45446 0.42988
# Poissons Ratio (y) = 0.14394 0.12391
# Poissons Ratio (z) = 0.27030 0.24599
#
# Static dielectric constant tensor:
#      x y z
#    x 1.958050 0.000000 0.000000 
#    y 0.000000 1.892800 0.000000 
#    z 0.000000 0.000000 2.016770 
# 
# From -- ./inp_files/5822.got.cif
#   From: 2010.05.17/outbox.cif.g08.bks.cpg/sg33_3_cif.got.tgz:5822.got - 2010.06.03 17:15:25.
