data_PCOD9346043
_publ_section_title
;
Structure prediction by ZEFSAII (Michael W. Deem and Ramdas Pophale) SiO2 
 PCOD9346043
Probable space group: P N A 21
;
_chemical_formula_sum "Si O2"
_cell_formula_units_Z 16
_cell_length_a 20.294257
_cell_length_b 6.862578
_cell_length_c 5.082049
_cell_angle_alpha 90.000000
_cell_angle_beta 90.000000
_cell_angle_gamma 90.000000
_cell_volume 707.781648
_symmetry_space_group_name_H-M "P N A 21"
_symmetry_group_IT_number 33
_symmetry_cell_setting 'orthorhombic'
loop_
_space_group_symop_operation_xyz
x,y,z
-x,-y,1/2+z
1/2-x,1/2+y,1/2+z
1/2+x,1/2-y,z
loop_
_atom_site_type_symbol
_atom_site_label
_atom_site_fract_x
_atom_site_fract_y
_atom_site_fract_z
Si Si1 0.341633 0.748253 0.438700
Si Si2 0.959209 0.040529 0.460656
Si Si3 0.128475 0.645485 0.721120
Si Si4 0.795149 0.390748 0.715181
O O1 0.394962 0.590259 0.515696
O O2 0.278696 0.654346 0.297376
O O3 0.376436 0.912295 0.255266
O O4 0.313108 0.881869 0.674350
O O5 0.934602 0.240052 0.324138
O O6 0.997687 0.062599 0.733007
O O7 0.154889 0.693135 0.433355
O O8 0.186103 0.694680 0.931584
#
# Coordination Sequence:
#
# PCOD9346043 Si02
#       4
#     4   4   4   4
#     4  10  26  42  72 101 142 174 229 290 351 417
#     4  12  28  45  70  98 140 192 239 276 338 417
#     4  10  25  44  67 102 137 177 226 288 340 416
#     4  10  23  41  73 101 137 169 224 288 367 394
#
# _framework density 22.605841000000002
#
# number of rings (size 3 to 8) (size 9 to 14) (size 15 to 20)
#    1.500    0.000    0.000    3.000   10.500    2.000 
#    0.000    0.000    0.000    0.000    0.000    0.000 
#    0.000    0.000    0.000    0.000    0.000    0.000 
#
# Total GULP energy -89315.469029 kJ/mol
# GULP energy per Si atom -5582.216814 kJ/mol
# Density = 2.255439 g / cm^3
# Si number density = 22.605841 Si / 1000 Ang^3
#
#
#
# Elastic Constant Matrix: (Units=GPa)
#
#
# Indices 1 2 3 4 5 6 
#
# 1 62.7037 19.8683 5.8374 0.0000 0.0000 0.0000
# 2 19.8683 79.5886 5.4500 0.0000 0.0000 0.0000
# 3 5.8374 5.4500 98.0449 0.0000 0.0000 0.0000
# 4 0.0000 0.0000 0.0000 23.7122 0.0000 0.0000
# 5 0.0000 0.0000 0.0000 0.0000 35.9648 0.0000
# 6 0.0000 0.0000 0.0000 0.0000 0.0000 32.1764
#
#
#
# Elastic Compliance Matrix: (Units=1/GPa)
#
#
# Indices 1 2 3 4 5 6 
#
# 1 0.017380 -0.004284 -0.000797 0.000000 0.000000 0.000000
# 2 -0.004284 0.013669 -0.000505 0.000000 0.000000 0.000000
# 3 -0.000797 -0.000505 0.010275 0.000000 0.000000 0.000000
# 4 0.000000 0.000000 0.000000 0.042172 0.000000 0.000000
# 5 0.000000 0.000000 0.000000 0.000000 0.027805 0.000000
# 6 0.000000 0.000000 0.000000 0.000000 0.000000 0.031079
#
#
# Mechanical properties :
#
#
# Convention : Reuss Voigt Hill
#
# Bulk Modulus (GPa) = 33.16491 33.62763 33.39627
# Shear Modulus (GPa) = 30.56220 32.31612 31.43916
#
# Velocity S-wave (km/s) = 3.68089 3.78504 3.73333
# Velocity P-wave (km/s) = 5.72434 5.83180 5.77832
#
# Compressibility (1/GPa) = 0.03015235
#
# Stress axis : x y z
#
# Youngs Moduli (GPa) = 57.53860 73.16017 97.32463
#
# Poissons Ratio (x) = 0.31342 0.07753
# Poissons Ratio (y) = 0.24650 0.04912
# Poissons Ratio (z) = 0.04584 0.03693
#
# Static dielectric constant tensor:
#      x y z
#    x 1.795460 0.000000 0.000000 
#    y 0.000000 1.884580 0.000000 
#    z 0.000000 0.000000 1.816140 
# 
# From -- ./inp_files/1587.got.cif
#   From: 2010.05.17/outbox.cif.g08.bks.cpg/sg33_1_cif.got.tgz:1587.got - 2010.06.03 17:15:25.
