data_PCOD9346838
_publ_section_title
;
Structure prediction by ZEFSAII (Michael W. Deem and Ramdas Pophale) SiO2 
 PCOD9346838
Probable space group: P N A 21
;
_chemical_formula_sum "Si O2"
_cell_formula_units_Z 28
_cell_length_a 19.646877
_cell_length_b 11.669120
_cell_length_c 4.851058
_cell_angle_alpha 90.000000
_cell_angle_beta 90.000000
_cell_angle_gamma 90.000000
_cell_volume 1112.162121
_symmetry_space_group_name_H-M "P N A 21"
_symmetry_group_IT_number 33
_symmetry_cell_setting 'orthorhombic'
loop_
_space_group_symop_operation_xyz
x,y,z
-x,-y,1/2+z
1/2-x,1/2+y,1/2+z
1/2+x,1/2-y,z
loop_
_atom_site_type_symbol
_atom_site_label
_atom_site_fract_x
_atom_site_fract_y
_atom_site_fract_z
Si Si1 0.894007 0.227901 0.216370
Si Si2 0.842422 0.872396 0.701864
Si Si3 0.547890 0.980834 0.733510
Si Si4 0.304697 0.291875 0.690497
Si Si5 0.510357 0.431029 0.978100
Si Si6 0.243258 0.061319 0.669481
Si Si7 0.329248 0.877783 0.965368
O O1 0.920750 0.355181 0.281090
O O2 0.862585 0.163343 0.481965
O O3 0.955882 0.161453 0.075047
O O4 0.834818 0.228475 0.988632
O O5 0.915550 0.897250 0.578746
O O6 0.790311 0.892466 0.451654
O O7 0.817021 0.955773 0.949097
O O8 0.844351 0.744620 0.827936
O O9 0.487055 0.973121 0.510016
O O10 0.606289 0.063924 0.610844
O O11 0.286826 0.167932 0.558884
O O12 0.233799 0.357735 0.674047
O O13 0.491222 0.544547 0.154109
O O14 0.295205 0.961808 0.742431
#
# Coordination Sequence:
#
# PCOD9346838 Si02
#       7
#     4   4   4   4   4   4   4
#     4  12  26  49  72 109 150 188 256 295 368 441
#     4  11  27  48  69 111 145 187 246 297 354 446
#     4  12  28  48  79 110 148 198 244 311 379 437
#     4  11  25  45  73 110 144 194 240 306 360 443
#     4  12  28  49  74 105 147 201 240 296 364 433
#     4  11  25  46  74 107 144 184 239 299 371 424
#     4  11  27  47  79 106 150 190 245 304 374 426
#
# _framework density 25.176185
#
# number of rings (size 3 to 8) (size 9 to 14) (size 15 to 20)
#    0.000    0.571    1.429    5.143    6.000    9.143 
#    0.000    0.000    0.000    0.000    0.000    0.000 
#    0.000    0.000    0.000    0.000    0.000    0.000 
#
# Total GULP energy -157129.390357 kJ/mol
# GULP energy per Si atom -5611.763941 kJ/mol
# Density = 2.511888 g / cm^3
# Si number density = 25.176185 Si / 1000 Ang^3
#
#
#
# Elastic Constant Matrix: (Units=GPa)
#
#
# Indices 1 2 3 4 5 6 
#
# 1 116.6287 36.5254 15.1459 0.0000 0.0000 0.0000
# 2 36.5254 70.4547 -19.1524 0.0000 0.0000 0.0000
# 3 15.1459 -19.1524 97.3253 0.0000 0.0000 0.0000
# 4 0.0000 0.0000 0.0000 34.9569 0.0000 0.0000
# 5 0.0000 0.0000 0.0000 0.0000 47.3354 0.0000
# 6 0.0000 0.0000 0.0000 0.0000 0.0000 48.0138
#
#
#
# Elastic Compliance Matrix: (Units=1/GPa)
#
#
# Indices 1 2 3 4 5 6 
#
# 1 0.011005 -0.006520 -0.002996 0.000000 0.000000 0.000000
# 2 -0.006520 0.018858 0.004726 0.000000 0.000000 0.000000
# 3 -0.002996 0.004726 0.011671 0.000000 0.000000 0.000000
# 4 0.000000 0.000000 0.000000 0.028607 0.000000 0.000000
# 5 0.000000 0.000000 0.000000 0.000000 0.021126 0.000000
# 6 0.000000 0.000000 0.000000 0.000000 0.000000 0.020827
#
#
# Mechanical properties :
#
#
# Convention : Reuss Voigt Hill
#
# Bulk Modulus (GPa) = 31.29411 38.82739 35.06075
# Shear Modulus (GPa) = 37.78585 42.85387 40.31986
#
# Velocity S-wave (km/s) = 3.87829 4.13020 4.00623
# Velocity P-wave (km/s) = 5.70192 6.18065 5.94611
#
# Compressibility (1/GPa) = 0.03195489
#
# Stress axis : x y z
#
# Youngs Moduli (GPa) = 90.86752 53.02772 85.68287
#
# Poissons Ratio (x) = 0.34572 0.25667
# Poissons Ratio (y) = 0.59242 -0.40491
# Poissons Ratio (z) = 0.27220 -0.25059
#
# Static dielectric constant tensor:
#      x y z
#    x 1.946830 0.000000 0.000000 
#    y 0.000000 2.035290 0.000000 
#    z 0.000000 0.000000 1.956730 
# 
# From -- ./inp_files/1722.got.cif
#   From: 2010.05.17/outbox.cif.g08.bks.cpg/sg33_1_cif.got.tgz:1722.got - 2010.06.03 17:15:25.
