data_PCOD9346407
_publ_section_title
;
Structure prediction by ZEFSAII (Michael W. Deem and Ramdas Pophale) SiO2 
 PCOD9346407
Probable space group: P N A 21
;
_chemical_formula_sum "Si O2"
_cell_formula_units_Z 16
_cell_length_a 17.111152
_cell_length_b 6.937972
_cell_length_c 4.877674
_cell_angle_alpha 90.000000
_cell_angle_beta 90.000000
_cell_angle_gamma 90.000000
_cell_volume 579.061329
_symmetry_space_group_name_H-M "P N A 21"
_symmetry_group_IT_number 33
_symmetry_cell_setting 'orthorhombic'
loop_
_space_group_symop_operation_xyz
x,y,z
-x,-y,1/2+z
1/2-x,1/2+y,1/2+z
1/2+x,1/2-y,z
loop_
_atom_site_type_symbol
_atom_site_label
_atom_site_fract_x
_atom_site_fract_y
_atom_site_fract_z
Si Si1 0.052749 0.000005 0.913880
Si Si2 0.364848 0.820057 0.785820
Si Si3 0.635152 0.820034 0.541912
Si Si4 0.766533 0.999989 0.913865
O O1 0.095311 0.820436 0.763560
O O2 0.095311 0.179585 0.064178
O O3 0.999995 0.080847 0.663889
O O4 0.325285 0.671066 0.999236
O O5 0.291264 0.923663 0.642814
O O6 0.411320 0.000010 0.913868
O O7 0.708737 0.923640 0.684913
O O8 0.674715 0.671043 0.328496
#
# Coordination Sequence:
#
# PCOD9346407 Si02
#       4
#     4   4   4   4
#     4  12  31  56  78 114 171 230 286 330 388 502
#     4  11  26  48  84 116 163 205 264 349 420 486
#     4  11  26  48  84 116 163 205 264 349 420 486
#     4  10  25  44  82 130 149 196 268 346 438 490
#
# _framework density 27.630925000000001
#
# number of rings (size 3 to 8) (size 9 to 14) (size 15 to 20)
#    0.000    1.000    0.000    3.000   28.000    0.000 
#    4.500    0.000    0.000    0.000    0.000    0.000 
#    0.000    0.000    0.000    0.000    0.000    0.000 
#
# Total GULP energy -89534.652611 kJ/mol
# GULP energy per Si atom -5595.915788 kJ/mol
# Density = 2.756804 g / cm^3
# Si number density = 27.630925 Si / 1000 Ang^3
#
#
#
# Elastic Constant Matrix: (Units=GPa)
#
#
# Indices 1 2 3 4 5 6 
#
# 1 101.5605 83.3875 62.0515 0.0000 0.0000 0.0000
# 2 83.3875 287.0349 91.6653 0.0000 0.0000 0.0000
# 3 62.0515 91.6653 146.6439 0.0000 0.0000 0.0000
# 4 0.0000 0.0000 0.0000 59.2161 0.0000 0.0000
# 5 0.0000 0.0000 0.0000 0.0000 41.7979 0.0000
# 6 0.0000 0.0000 0.0000 0.0000 0.0000 6.1650
#
#
#
# Elastic Compliance Matrix: (Units=1/GPa)
#
#
# Indices 1 2 3 4 5 6 
#
# 1 0.015005 -0.002913 -0.004528 0.000000 0.000000 0.000000
# 2 -0.002913 0.004918 -0.001842 0.000000 0.000000 0.000000
# 3 -0.004528 -0.001842 0.009887 0.000000 0.000000 0.000000
# 4 0.000000 0.000000 0.000000 0.016887 0.000000 0.000000
# 5 0.000000 0.000000 0.000000 0.000000 0.023925 0.000000
# 6 0.000000 0.000000 0.000000 0.000000 0.000000 0.162205
#
#
# Mechanical properties :
#
#
# Convention : Reuss Voigt Hill
#
# Bulk Modulus (GPa) = 88.93934 112.16089 100.55012
# Shear Modulus (GPa) = 19.59702 41.31146 30.45424
#
# Velocity S-wave (km/s) = 2.66605 3.87087 3.32351
# Velocity P-wave (km/s) = 6.46029 7.78838 7.15521
#
# Compressibility (1/GPa) = 0.01124362
#
# Stress axis : x y z
#
# Youngs Moduli (GPa) = 66.64531 203.32097 101.14638
#
# Poissons Ratio (x) = 0.59227 0.45803
# Poissons Ratio (y) = 0.19414 0.18629
# Poissons Ratio (z) = 0.30179 0.37447
#
# Static dielectric constant tensor:
#      x y z
#    x 2.243040 0.000000 0.000000 
#    y 0.000000 2.317850 0.000000 
#    z 0.000000 0.000000 2.166110 
# 
# From -- ./inp_files/1919.got.cif
#   From: 2010.05.17/outbox.cif.g08.bks.cpg/sg33_1_cif.got.tgz:1919.got - 2010.06.03 17:15:25.
