data_PCOD9346519
_publ_section_title
;
Structure prediction by ZEFSAII (Michael W. Deem and Ramdas Pophale) SiO2 
 PCOD9346519
Probable space group: P N A 21
;
_chemical_formula_sum "Si O2"
_cell_formula_units_Z 20
_cell_length_a 15.933897
_cell_length_b 8.979575
_cell_length_c 5.484136
_cell_angle_alpha 90.000000
_cell_angle_beta 90.000000
_cell_angle_gamma 90.000000
_cell_volume 784.668112
_symmetry_space_group_name_H-M "P N A 21"
_symmetry_group_IT_number 33
_symmetry_cell_setting 'orthorhombic'
loop_
_space_group_symop_operation_xyz
x,y,z
-x,-y,1/2+z
1/2-x,1/2+y,1/2+z
1/2+x,1/2-y,z
loop_
_atom_site_type_symbol
_atom_site_label
_atom_site_fract_x
_atom_site_fract_y
_atom_site_fract_z
Si Si1 0.578717 0.123664 0.543220
Si Si2 0.178203 0.211973 0.915667
Si Si3 0.496991 0.591706 0.584710
Si Si4 0.299460 0.007602 0.670178
Si Si5 0.909018 0.328002 0.342259
O O1 0.644238 0.240804 0.649880
O O2 0.616132 0.043022 0.307835
O O3 0.488919 0.198312 0.515196
O O4 0.573857 0.991942 0.737940
O O5 0.236159 0.069302 0.872598
O O6 0.093597 0.173296 0.064147
O O7 0.224464 0.356660 0.027514
O O8 0.506915 0.510085 0.326344
O O9 0.574250 0.705429 0.636179
O O10 0.324015 0.144835 0.490847
#
# Coordination Sequence:
#
# PCOD9346519 Si02
#       5
#     4   4   4   4   4
#     4  11  21  44  80 104 147 202 270 327 390 495
#     4  11  27  50  72 119 159 210 265 343 415 495
#     4  12  28  49  82 116 167 212 274 340 407 492
#     4  11  26  47  81 108 162 205 273 333 420 485
#     4  11  22  46  77 111 143 213 270 331 394 483
#
# _framework density 25.488484
#
# number of rings (size 3 to 8) (size 9 to 14) (size 15 to 20)
#    0.000    0.800    4.000    2.400    2.800    6.400 
#    3.600    0.000    0.000    0.000    0.000    0.000 
#    0.000    0.000    0.000    0.000    0.000    0.000 
#
# Total GULP energy -111883.634330 kJ/mol
# GULP energy per Si atom -5594.181716 kJ/mol
# Density = 2.543047 g / cm^3
# Si number density = 25.488484 Si / 1000 Ang^3
#
#
#
# Elastic Constant Matrix: (Units=GPa)
#
#
# Indices 1 2 3 4 5 6 
#
# 1 97.6464 50.5289 28.6283 0.0000 0.0000 0.0000
# 2 50.5289 103.8559 44.3305 0.0000 0.0000 0.0000
# 3 28.6283 44.3305 95.5018 0.0000 0.0000 0.0000
# 4 0.0000 0.0000 0.0000 40.7787 0.0000 0.0000
# 5 0.0000 0.0000 0.0000 0.0000 33.2206 0.0000
# 6 0.0000 0.0000 0.0000 0.0000 0.0000 31.8066
#
#
#
# Elastic Compliance Matrix: (Units=1/GPa)
#
#
# Indices 1 2 3 4 5 6 
#
# 1 0.013810 -0.006175 -0.001273 0.000000 0.000000 0.000000
# 2 -0.006175 0.014769 -0.005005 0.000000 0.000000 0.000000
# 3 -0.001273 -0.005005 0.013176 0.000000 0.000000 0.000000
# 4 0.000000 0.000000 0.000000 0.024523 0.000000 0.000000
# 5 0.000000 0.000000 0.000000 0.000000 0.030102 0.000000
# 6 0.000000 0.000000 0.000000 0.000000 0.000000 0.031440
#
#
# Mechanical properties :
#
#
# Convention : Reuss Voigt Hill
#
# Bulk Modulus (GPa) = 59.35198 60.44216 59.89707
# Shear Modulus (GPa) = 31.57720 32.72895 32.15308
#
# Velocity S-wave (km/s) = 3.52359 3.58728 3.55558
# Velocity P-wave (km/s) = 6.31590 6.39711 6.35664
#
# Compressibility (1/GPa) = 0.01684864
#
# Stress axis : x y z
#
# Youngs Moduli (GPa) = 72.41174 67.70734 75.89724
#
# Poissons Ratio (x) = 0.41812 0.09663
# Poissons Ratio (y) = 0.44718 0.37983
# Poissons Ratio (z) = 0.09219 0.33885
#
# Static dielectric constant tensor:
#      x y z
#    x 2.047770 0.000000 0.000000 
#    y 0.000000 2.040050 0.000000 
#    z 0.000000 0.000000 2.041230 
# 
# From -- ./inp_files/1631.got.cif
#   From: 2010.05.17/outbox.cif.g08.bks.cpg/sg33_1_cif.got.tgz:1631.got - 2010.06.03 17:15:25.
