data_PCOD9346983
_publ_section_title
;
Structure prediction by ZEFSAII (Michael W. Deem and Ramdas Pophale) SiO2 
 PCOD9346983
Probable space group: P N A 21
;
_chemical_formula_sum "Si O2"
_cell_formula_units_Z 20
_cell_length_a 6.924492
_cell_length_b 12.323908
_cell_length_c 8.495228
_cell_angle_alpha 90.000000
_cell_angle_beta 90.000000
_cell_angle_gamma 90.000000
_cell_volume 724.955593
_symmetry_space_group_name_H-M "P N A 21"
_symmetry_group_IT_number 33
_symmetry_cell_setting 'orthorhombic'
loop_
_space_group_symop_operation_xyz
x,y,z
-x,-y,1/2+z
1/2-x,1/2+y,1/2+z
1/2+x,1/2-y,z
loop_
_atom_site_type_symbol
_atom_site_label
_atom_site_fract_x
_atom_site_fract_y
_atom_site_fract_z
Si Si1 0.313252 0.083089 0.269490
Si Si2 0.367003 0.457305 0.250577
Si Si3 0.856070 0.229712 0.020859
Si Si4 0.591850 0.107701 0.535721
Si Si5 0.119003 0.214922 0.776985
O O1 0.374394 0.185056 0.164135
O O2 0.397782 0.091722 0.440997
O O3 0.087367 0.072232 0.276995
O O4 0.391115 0.976828 0.178854
O O5 0.318661 0.390157 0.092361
O O6 0.248157 0.416893 0.401297
O O7 0.354484 0.586968 0.250199
O O8 0.611289 0.269359 0.976490
O O9 0.860840 0.237464 0.820994
O O10 0.607663 0.223904 0.611883
#
# Coordination Sequence:
#
# PCOD9346983 Si02
#       5
#     4   4   4   4   4
#     4  12  28  55  85 124 173 227 281 359 423 514
#     4  12  28  58  87 119 176 229 283 354 436 512
#     4  12  25  56  81 118 173 218 286 349 426 507
#     4  12  29  54  87 129 168 227 295 347 426 514
#     4  12  28  55  84 124 172 225 281 363 423 509
#
# _framework density 27.587897000000002
#
# number of rings (size 3 to 8) (size 9 to 14) (size 15 to 20)
#    0.000    0.000    4.000    3.600    0.000    8.000 
#    7.200    0.000    0.000    0.000    0.000    0.000 
#    0.000    0.000    0.000    0.000    0.000    0.000 
#
# Total GULP energy -112211.316364 kJ/mol
# GULP energy per Si atom -5610.565818 kJ/mol
# Density = 2.752511 g / cm^3
# Si number density = 27.587897 Si / 1000 Ang^3
#
#
#
# Elastic Constant Matrix: (Units=GPa)
#
#
# Indices 1 2 3 4 5 6 
#
# 1 157.7941 81.7866 92.0379 0.0000 0.0000 0.0000
# 2 81.7866 222.5073 109.6406 0.0000 0.0000 0.0000
# 3 92.0379 109.6406 150.1282 0.0000 0.0000 0.0000
# 4 0.0000 0.0000 0.0000 67.4059 0.0000 0.0000
# 5 0.0000 0.0000 0.0000 0.0000 47.3861 0.0000
# 6 0.0000 0.0000 0.0000 0.0000 0.0000 40.5881
#
#
#
# Elastic Compliance Matrix: (Units=1/GPa)
#
#
# Indices 1 2 3 4 5 6 
#
# 1 0.010012 -0.001024 -0.005390 0.000000 0.000000 0.000000
# 2 -0.001024 0.007125 -0.004576 0.000000 0.000000 0.000000
# 3 -0.005390 -0.004576 0.013307 0.000000 0.000000 0.000000
# 4 0.000000 0.000000 0.000000 0.014836 0.000000 0.000000
# 5 0.000000 0.000000 0.000000 0.000000 0.021103 0.000000
# 6 0.000000 0.000000 0.000000 0.000000 0.000000 0.024638
#
#
# Mechanical properties :
#
#
# Convention : Reuss Voigt Hill
#
# Bulk Modulus (GPa) = 118.14050 121.92886 120.03468
# Shear Modulus (GPa) = 43.16916 47.54031 45.35474
#
# Velocity S-wave (km/s) = 3.96003 4.15568 4.05904
# Velocity P-wave (km/s) = 7.98908 8.20480 8.09766
#
# Compressibility (1/GPa) = 0.00846450
#
# Stress axis : x y z
#
# Youngs Moduli (GPa) = 99.87874 140.34116 75.14661
#
# Poissons Ratio (x) = 0.14373 0.40505
# Poissons Ratio (y) = 0.10229 0.34387
# Poissons Ratio (z) = 0.53836 0.64220
#
# Static dielectric constant tensor:
#      x y z
#    x 3.012630 0.000000 0.000000 
#    y 0.000000 2.100290 0.000000 
#    z 0.000000 0.000000 1.948800 
# 
# From -- ./inp_files/2992.got.cif
#   From: 2010.05.17/outbox.cif.g08.bks.cpg/sg33_2_cif.got.tgz:2992.got - 2010.06.03 17:15:25.
