data_PCOD9346721
_publ_section_title
;
Structure prediction by ZEFSAII (Michael W. Deem and Ramdas Pophale) SiO2 
 PCOD9346721
Probable space group: P N A 21
;
_chemical_formula_sum "Si O2"
_cell_formula_units_Z 20
_cell_length_a 7.935516
_cell_length_b 18.176719
_cell_length_c 5.362908
_cell_angle_alpha 90.000000
_cell_angle_beta 90.000000
_cell_angle_gamma 90.000000
_cell_volume 773.554669
_symmetry_space_group_name_H-M "P N A 21"
_symmetry_group_IT_number 33
_symmetry_cell_setting 'orthorhombic'
loop_
_space_group_symop_operation_xyz
x,y,z
-x,-y,1/2+z
1/2-x,1/2+y,1/2+z
1/2+x,1/2-y,z
loop_
_atom_site_type_symbol
_atom_site_label
_atom_site_fract_x
_atom_site_fract_y
_atom_site_fract_z
Si Si1 0.147848 0.052860 0.997030
Si Si2 0.725162 0.328906 0.613959
Si Si3 0.608119 0.173966 0.586047
Si Si4 0.902887 0.518342 0.320206
Si Si5 0.595569 0.612984 0.804872
O O1 0.247689 0.108230 0.821954
O O2 0.122171 0.971473 0.892734
O O3 0.974391 0.097235 0.030910
O O4 0.245559 0.034149 0.253549
O O5 0.671556 0.248629 0.713383
O O6 0.563163 0.349746 0.445191
O O7 0.913326 0.321298 0.501176
O O8 0.629982 0.103362 0.763143
O O9 0.736139 0.157380 0.358582
O O10 0.969834 0.505887 0.596769
#
# Coordination Sequence:
#
# PCOD9346721 Si02
#       5
#     4   4   4   4   4
#     4  11  24  43  78 104 149 202 257 327 383 477
#     4  12  23  50  66 106 156 193 259 319 401 460
#     4  11  25  46  72 105 151 201 249 325 386 471
#     4  11  24  47  78 115 151 199 266 317 393 468
#     4  11  24  46  72 106 141 197 255 316 387 468
#
# _framework density 25.854668
#
# number of rings (size 3 to 8) (size 9 to 14) (size 15 to 20)
#    0.000    0.800    6.000    1.200    0.000    0.000 
#    7.200    0.000    0.000    0.000    0.000    0.000 
#    0.000    0.000    0.000    0.000    0.000    0.000 
#
# Total GULP energy -111899.371338 kJ/mol
# GULP energy per Si atom -5594.968567 kJ/mol
# Density = 2.579582 g / cm^3
# Si number density = 25.854668 Si / 1000 Ang^3
#
#
#
# Elastic Constant Matrix: (Units=GPa)
#
#
# Indices 1 2 3 4 5 6 
#
# 1 198.8006 57.7394 37.5685 0.0000 0.0000 0.0000
# 2 57.7394 173.5510 13.5737 0.0000 0.0000 0.0000
# 3 37.5685 13.5737 35.4330 0.0000 0.0000 0.0000
# 4 0.0000 0.0000 0.0000 21.6408 0.0000 0.0000
# 5 0.0000 0.0000 0.0000 0.0000 56.5644 0.0000
# 6 0.0000 0.0000 0.0000 0.0000 0.0000 45.5739
#
#
#
# Elastic Compliance Matrix: (Units=1/GPa)
#
#
# Indices 1 2 3 4 5 6 
#
# 1 0.006766 -0.001742 -0.006506 0.000000 0.000000 0.000000
# 2 -0.001742 0.006389 -0.000600 0.000000 0.000000 0.000000
# 3 -0.006506 -0.000600 0.035350 0.000000 0.000000 0.000000
# 4 0.000000 0.000000 0.000000 0.046209 0.000000 0.000000
# 5 0.000000 0.000000 0.000000 0.000000 0.017679 0.000000
# 6 0.000000 0.000000 0.000000 0.000000 0.000000 0.021942
#
#
# Mechanical properties :
#
#
# Convention : Reuss Voigt Hill
#
# Bulk Modulus (GPa) = 32.45934 69.50532 50.98233
# Shear Modulus (GPa) = 30.80698 44.68267 37.74482
#
# Velocity S-wave (km/s) = 3.45562 4.16170 3.82499
# Velocity P-wave (km/s) = 5.33887 7.07350 6.26650
#
# Compressibility (1/GPa) = 0.03080778
#
# Stress axis : x y z
#
# Youngs Moduli (GPa) = 147.80656 156.53108 28.28827
#
# Poissons Ratio (x) = 0.27268 0.18404
# Poissons Ratio (y) = 0.25748 0.01698
# Poissons Ratio (z) = 0.96163 0.09396
#
# Static dielectric constant tensor:
#      x y z
#    x 2.309110 0.000000 0.000000 
#    y 0.000000 1.974330 0.000000 
#    z 0.000000 0.000000 2.076810 
# 
# From -- ./inp_files/321.got.cif
#   From: 2010.05.17/outbox.cif.g08.bks.cpg/sg33_1_cif.got.tgz:321.got - 2010.06.03 17:15:25.
