data_PCOD9346215
_publ_section_title
;
Structure prediction by ZEFSAII (Michael W. Deem and Ramdas Pophale) SiO2 
 PCOD9346215
Probable space group: P N A 21
;
_chemical_formula_sum "Si O2"
_cell_formula_units_Z 24
_cell_length_a 27.473845
_cell_length_b 6.995650
_cell_length_c 4.930756
_cell_angle_alpha 90.000000
_cell_angle_beta 90.000000
_cell_angle_gamma 90.000000
_cell_volume 947.678502
_symmetry_space_group_name_H-M "P N A 21"
_symmetry_group_IT_number 33
_symmetry_cell_setting 'orthorhombic'
loop_
_space_group_symop_operation_xyz
x,y,z
-x,-y,1/2+z
1/2-x,1/2+y,1/2+z
1/2+x,1/2-y,z
loop_
_atom_site_type_symbol
_atom_site_label
_atom_site_fract_x
_atom_site_fract_y
_atom_site_fract_z
Si Si1 0.178528 0.322566 0.435510
Si Si2 0.085846 0.863887 0.828155
Si Si3 0.085846 0.136111 0.310744
Si Si4 0.178528 0.677433 0.703387
Si Si5 0.260953 0.499999 0.069448
Si Si6 0.469608 0.999999 0.069448
O O1 0.140363 0.214271 0.245510
O O2 0.151174 0.499999 0.569449
O O3 0.224247 0.420267 0.290860
O O4 0.202590 0.171917 0.641609
O O5 0.140363 0.785727 0.893388
O O6 0.056750 0.676550 0.726744
O O7 0.090578 0.999999 0.569450
O O8 0.067018 0.999999 0.069449
O O9 0.056750 0.323447 0.412153
O O10 0.202590 0.828082 0.497288
O O11 0.224247 0.579732 0.848035
O O12 0.500000 0.910121 0.319448
#
# Coordination Sequence:
#
# PCOD9346215 Si02
#       6
#     4   4   4   4   4   4
#     4  11  23  42  69 104 158 207 265 318 379 446
#     4  12  28  49  80 120 159 201 259 328 398 475
#     4  12  28  49  80 120 159 201 259 328 398 475
#     4  11  23  42  69 104 158 207 265 318 379 446
#     4  10  24  39  66 108 150 214 270 313 364 450
#     4  12  28  55  88 116 154 204 258 329 418 498
#
# _framework density 25.325046
#
# number of rings (size 3 to 8) (size 9 to 14) (size 15 to 20)
#    0.000    0.667    3.333    3.000    4.667    9.333 
#    0.000    0.000    0.000    0.000    0.000    0.000 
#    0.000    0.000    0.000    0.000    0.000    0.000 
#
# Total GULP energy -134029.225595 kJ/mol
# GULP energy per Si atom -5584.551066 kJ/mol
# Density = 2.526741 g / cm^3
# Si number density = 25.325046 Si / 1000 Ang^3
#
#
#
# Elastic Constant Matrix: (Units=GPa)
#
#
# Indices 1 2 3 4 5 6 
#
# 1 87.9307 63.2763 43.1878 0.0000 0.0000 0.0000
# 2 63.2763 194.6735 61.9789 0.0000 0.0000 0.0000
# 3 43.1878 61.9789 125.1936 0.0000 0.0000 0.0000
# 4 0.0000 0.0000 0.0000 49.2359 0.0000 0.0000
# 5 0.0000 0.0000 0.0000 0.0000 142.3637 0.0000
# 6 0.0000 0.0000 0.0000 0.0000 0.0000 36.7615
#
#
#
# Elastic Compliance Matrix: (Units=1/GPa)
#
#
# Indices 1 2 3 4 5 6 
#
# 1 0.016044 -0.004099 -0.003505 0.000000 0.000000 0.000000
# 2 -0.004099 0.007145 -0.002123 0.000000 0.000000 0.000000
# 3 -0.003505 -0.002123 0.010248 0.000000 0.000000 0.000000
# 4 0.000000 0.000000 0.000000 0.020310 0.000000 0.000000
# 5 0.000000 0.000000 0.000000 0.000000 0.007024 0.000000
# 6 0.000000 0.000000 0.000000 0.000000 0.000000 0.027202
#
#
# Mechanical properties :
#
#
# Convention : Reuss Voigt Hill
#
# Bulk Modulus (GPa) = 71.52116 82.74265 77.13191
# Shear Modulus (GPa) = 44.60702 61.62920 53.11811
#
# Velocity S-wave (km/s) = 4.20143 4.93843 4.58477
# Velocity P-wave (km/s) = 7.19991 8.07841 7.65177
#
# Compressibility (1/GPa) = 0.01398188
#
# Stress axis : x y z
#
# Youngs Moduli (GPa) = 62.32893 139.95620 97.57931
#
# Poissons Ratio (x) = 0.57366 0.34206
# Poissons Ratio (y) = 0.25548 0.20719
# Poissons Ratio (z) = 0.21849 0.29717
#
# Static dielectric constant tensor:
#      x y z
#    x 2.074430 0.000000 0.000000 
#    y 0.000000 2.088670 0.000000 
#    z 0.000000 0.000000 1.989110 
# 
# From -- ./inp_files/2503.got.cif
#   From: 2010.05.17/outbox.cif.g08.bks.cpg/sg33_2_cif.got.tgz:2503.got - 2010.06.03 17:15:25.
