data_PCOD9346863
_publ_section_title
;
Structure prediction by ZEFSAII (Michael W. Deem and Ramdas Pophale) SiO2 
 PCOD9346863
Probable space group: P N A 21
;
_chemical_formula_sum "Si O2"
_cell_formula_units_Z 28
_cell_length_a 25.984879
_cell_length_b 5.451803
_cell_length_c 8.357024
_cell_angle_alpha 90.000000
_cell_angle_beta 90.000000
_cell_angle_gamma 90.000000
_cell_volume 1183.893136
_symmetry_space_group_name_H-M "P N A 21"
_symmetry_group_IT_number 33
_symmetry_cell_setting 'orthorhombic'
loop_
_space_group_symop_operation_xyz
x,y,z
-x,-y,1/2+z
1/2-x,1/2+y,1/2+z
1/2+x,1/2-y,z
loop_
_atom_site_type_symbol
_atom_site_label
_atom_site_fract_x
_atom_site_fract_y
_atom_site_fract_z
Si Si1 0.924861 0.494868 0.770430
Si Si2 0.837929 0.182077 0.384692
Si Si3 0.703531 0.174349 0.739845
Si Si4 0.632036 0.310026 0.485769
Si Si5 0.510378 0.198529 0.015094
Si Si6 0.061731 0.959702 0.756695
Si Si7 0.824725 0.167062 0.744860
O O1 0.906127 0.754880 0.837328
O O2 0.953536 0.498800 0.601425
O O3 0.869513 0.366129 0.768394
O O4 0.963604 0.393409 0.904804
O O5 0.808040 0.438285 0.353473
O O6 0.838786 0.083212 0.565574
O O7 0.816325 0.943509 0.292739
O O8 0.895506 0.227912 0.320280
O O9 0.671202 0.123551 0.575744
O O10 0.764254 0.215200 0.725913
O O11 0.591826 0.387090 0.621940
O O12 0.669595 0.503048 0.402571
O O13 0.543542 0.373337 0.902380
O O14 0.485376 0.333801 0.167311
#
# Coordination Sequence:
#
# PCOD9346863 Si02
#       7
#     4   4   4   4   4   4   4
#     4  12  28  45  77 107 151 202 259 324 386 468
#     4  11  28  49  77 114 151 202 255 319 385 474
#     4  11  28  49  80 111 157 199 254 318 397 462
#     4  11  25  50  72 112 150 199 254 323 387 469
#     4  12  26  46  75 108 151 203 260 324 398 453
#     4  11  25  47  75 109 150 199 256 323 382 469
#     4  12  28  46  76 111 152 200 256 321 387 473
#
# _framework density 23.650786
#
# number of rings (size 3 to 8) (size 9 to 14) (size 15 to 20)
#    0.000    0.571    1.429    4.286   16.000    0.000 
#    0.000    0.000    0.000    0.000    0.000    0.000 
#    0.000    0.000    0.000    0.000    0.000    0.000 
#
# Total GULP energy -156280.348425 kJ/mol
# GULP energy per Si atom -5581.441015 kJ/mol
# Density = 2.359696 g / cm^3
# Si number density = 23.650786 Si / 1000 Ang^3
#
#
#
# Elastic Constant Matrix: (Units=GPa)
#
#
# Indices 1 2 3 4 5 6 
#
# 1 130.6381 27.7362 53.4574 0.0000 0.0000 0.0000
# 2 27.7362 53.2179 22.8060 0.0000 0.0000 0.0000
# 3 53.4574 22.8060 91.5659 0.0000 0.0000 0.0000
# 4 0.0000 0.0000 0.0000 33.5101 0.0000 0.0000
# 5 0.0000 0.0000 0.0000 0.0000 41.8518 0.0000
# 6 0.0000 0.0000 0.0000 0.0000 0.0000 18.4953
#
#
#
# Elastic Compliance Matrix: (Units=1/GPa)
#
#
# Indices 1 2 3 4 5 6 
#
# 1 0.010520 -0.003192 -0.005347 0.000000 0.000000 0.000000
# 2 -0.003192 0.022004 -0.003617 0.000000 0.000000 0.000000
# 3 -0.005347 -0.003617 0.014944 0.000000 0.000000 0.000000
# 4 0.000000 0.000000 0.000000 0.029842 0.000000 0.000000
# 5 0.000000 0.000000 0.000000 0.000000 0.023894 0.000000
# 6 0.000000 0.000000 0.000000 0.000000 0.000000 0.054068
#
#
# Mechanical properties :
#
#
# Convention : Reuss Voigt Hill
#
# Bulk Modulus (GPa) = 43.18425 53.71347 48.44886
# Shear Modulus (GPa) = 26.69485 30.19960 28.44723
#
# Velocity S-wave (km/s) = 3.36327 3.57725 3.47191
# Velocity P-wave (km/s) = 5.77762 6.31052 6.04994
#
# Compressibility (1/GPa) = 0.02315659
#
# Stress axis : x y z
#
# Youngs Moduli (GPa) = 95.05377 45.44586 66.91798
#
# Poissons Ratio (x) = 0.14505 0.35781
# Poissons Ratio (y) = 0.30338 0.24206
# Poissons Ratio (z) = 0.50825 0.16439
#
# Static dielectric constant tensor:
#      x y z
#    x 1.893470 0.000000 0.000000 
#    y 0.000000 2.038460 0.000000 
#    z 0.000000 0.000000 2.062950 
# 
# From -- ./inp_files/5150.got.cif
#   From: 2010.05.17/outbox.cif.g08.bks.cpg/sg33_3_cif.got.tgz:5150.got - 2010.06.03 17:15:25.
