data_PCOD9346543
_publ_section_title
;
Structure prediction by ZEFSAII (Michael W. Deem and Ramdas Pophale) SiO2 
 PCOD9346543
Probable space group: P N A 21
;
_chemical_formula_sum "Si O2"
_cell_formula_units_Z 24
_cell_length_a 6.098853
_cell_length_b 24.750641
_cell_length_c 6.764036
_cell_angle_alpha 90.000000
_cell_angle_beta 90.000000
_cell_angle_gamma 90.000000
_cell_volume 1021.034759
_symmetry_space_group_name_H-M "P N A 21"
_symmetry_group_IT_number 33
_symmetry_cell_setting 'orthorhombic'
loop_
_space_group_symop_operation_xyz
x,y,z
-x,-y,1/2+z
1/2-x,1/2+y,1/2+z
1/2+x,1/2-y,z
loop_
_atom_site_type_symbol
_atom_site_label
_atom_site_fract_x
_atom_site_fract_y
_atom_site_fract_z
Si Si1 0.935140 0.593139 0.436940
Si Si2 0.551114 0.449095 0.318947
Si Si3 0.806202 0.488975 0.656530
Si Si4 0.050682 0.776718 0.794054
Si Si5 0.848574 0.860963 0.508147
Si Si6 0.416273 0.364010 0.629611
O O1 0.863938 0.551504 0.609732
O O2 0.767047 0.623646 0.293488
O O3 0.050269 0.549690 0.289772
O O4 0.086668 0.639647 0.534626
O O5 0.766993 0.462075 0.443948
O O6 0.427564 0.503752 0.265494
O O7 0.596409 0.416320 0.121376
O O8 0.415886 0.411664 0.469297
O O9 0.801736 0.748405 0.787250
O O10 0.004884 0.817337 0.610227
O O11 0.069490 0.810511 0.998072
O O12 0.874557 0.863088 0.273510
#
# Coordination Sequence:
#
# PCOD9346543 Si02
#       6
#     4   4   4   4   4   4
#     4  12  24  40  69 106 138 202 243 296 360 430
#     4  11  22  42  62  98 148 196 242 300 362 419
#     4  12  22  38  66 102 150 192 258 290 338 436
#     4  11  30  52  81 112 142 188 247 320 392 471
#     4  11  25  47  72 102 148 187 242 310 382 446
#     4  11  25  47  72 102 148 187 242 310 382 446
#
# _framework density 23.505568
#
# number of rings (size 3 to 8) (size 9 to 14) (size 15 to 20)
#    0.000    0.667    3.333    4.000    4.667    1.333 
#    0.000    0.000    0.000    0.000    0.000    0.000 
#    0.000    0.000    0.000    0.000    0.000    0.000 
#
# Total GULP energy -133660.538405 kJ/mol
# GULP energy per Si atom -5569.189100 kJ/mol
# Density = 2.345207 g / cm^3
# Si number density = 23.505568 Si / 1000 Ang^3
#
#
#
# Elastic Constant Matrix: (Units=GPa)
#
#
# Indices 1 2 3 4 5 6 
#
# 1 97.4157 45.5650 17.4288 0.0000 0.0000 0.0000
# 2 45.5650 64.6462 36.8019 0.0000 0.0000 0.0000
# 3 17.4288 36.8019 115.6214 0.0000 0.0000 0.0000
# 4 0.0000 0.0000 0.0000 33.2386 0.0000 0.0000
# 5 0.0000 0.0000 0.0000 0.0000 49.5898 0.0000
# 6 0.0000 0.0000 0.0000 0.0000 0.0000 44.5226
#
#
#
# Elastic Compliance Matrix: (Units=1/GPa)
#
#
# Indices 1 2 3 4 5 6 
#
# 1 0.015496 -0.011715 0.001393 0.000000 0.000000 0.000000
# 2 -0.011715 0.027749 -0.007066 0.000000 0.000000 0.000000
# 3 0.001393 -0.007066 0.010688 0.000000 0.000000 0.000000
# 4 0.000000 0.000000 0.000000 0.030086 0.000000 0.000000
# 5 0.000000 0.000000 0.000000 0.000000 0.020165 0.000000
# 6 0.000000 0.000000 0.000000 0.000000 0.000000 0.022461
#
#
# Mechanical properties :
#
#
# Convention : Reuss Voigt Hill
#
# Bulk Modulus (GPa) = 52.20338 53.03051 52.61695
# Shear Modulus (GPa) = 29.79642 37.32938 33.56290
#
# Velocity S-wave (km/s) = 3.56424 3.98943 3.78282
# Velocity P-wave (km/s) = 6.26064 6.62046 6.44306
#
# Compressibility (1/GPa) = 0.01915585
#
# Stress axis : x y z
#
# Youngs Moduli (GPa) = 64.53481 36.03785 93.56163
#
# Poissons Ratio (x) = 0.42218 -0.13033
# Poissons Ratio (y) = 0.75601 0.66114
# Poissons Ratio (z) = -0.08990 0.25466
#
# Static dielectric constant tensor:
#      x y z
#    x 2.068490 0.000000 0.000000 
#    y 0.000000 1.916750 0.000000 
#    z 0.000000 0.000000 1.850230 
# 
# From -- ./inp_files/199.got.cif
#   From: 2010.05.17/outbox.cif.g08.bks.cpg/sg33_1_cif.got.tgz:199.got - 2010.06.03 17:15:25.
