data_PCOD9346856
_publ_section_title
;
Structure prediction by ZEFSAII (Michael W. Deem and Ramdas Pophale) SiO2 
 PCOD9346856
Probable space group: P N A 21
;
_chemical_formula_sum "Si O2"
_cell_formula_units_Z 24
_cell_length_a 14.604148
_cell_length_b 12.909505
_cell_length_c 4.965524
_cell_angle_alpha 90.000000
_cell_angle_beta 90.000000
_cell_angle_gamma 90.000000
_cell_volume 936.161768
_symmetry_space_group_name_H-M "P N A 21"
_symmetry_group_IT_number 33
_symmetry_cell_setting 'orthorhombic'
loop_
_space_group_symop_operation_xyz
x,y,z
-x,-y,1/2+z
1/2-x,1/2+y,1/2+z
1/2+x,1/2-y,z
loop_
_atom_site_type_symbol
_atom_site_label
_atom_site_fract_x
_atom_site_fract_y
_atom_site_fract_z
Si Si1 0.330346 0.323744 0.785340
Si Si2 0.119457 0.597132 0.763611
Si Si3 0.023706 0.666217 0.279267
Si Si4 0.698021 0.298071 0.389169
Si Si5 0.655747 0.121691 0.031977
Si Si6 0.562675 0.486092 0.266481
O O1 0.417426 0.261820 0.885722
O O2 0.262139 0.243838 0.633087
O O3 0.264602 0.370447 0.006371
O O4 0.369571 0.425730 0.642620
O O5 0.064471 0.577757 0.485089
O O6 0.217830 0.650840 0.713116
O O7 0.137782 0.495370 0.942668
O O8 0.053653 0.658082 0.970314
O O9 0.917756 0.677367 0.336878
O O10 0.621554 0.388439 0.378563
O O11 0.647655 0.193524 0.291821
O O12 0.507931 0.532404 0.522952
#
# Coordination Sequence:
#
# PCOD9346856 Si02
#       6
#     4   4   4   4   4   4
#     4  11  27  47  77 113 155 203 261 321 391 481
#     4  11  25  47  69 107 147 193 252 314 370 462
#     4  11  26  45  72 108 151 191 254 312 380 459
#     4  11  27  46  78 109 157 200 263 316 398 466
#     4  12  25  45  77 105 149 204 245 321 391 454
#     4  12  30  52  81 118 163 211 267 334 406 482
#
# _framework density 25.636593999999999
#
# number of rings (size 3 to 8) (size 9 to 14) (size 15 to 20)
#    0.000    0.667    3.333    2.000   11.667    1.333 
#    0.000    0.000    0.000    0.000    0.000    0.000 
#    0.000    0.000    0.000    0.000    0.000    0.000 
#
# Total GULP energy -133675.627647 kJ/mol
# GULP energy per Si atom -5569.817819 kJ/mol
# Density = 2.557824 g / cm^3
# Si number density = 25.636594 Si / 1000 Ang^3
#
#
#
# Elastic Constant Matrix: (Units=GPa)
#
#
# Indices 1 2 3 4 5 6 
#
# 1 107.0037 58.3767 36.6213 0.0000 0.0000 0.0000
# 2 58.3767 56.7398 21.4582 0.0000 0.0000 0.0000
# 3 36.6213 21.4582 116.9287 0.0000 0.0000 0.0000
# 4 0.0000 0.0000 0.0000 31.5426 0.0000 0.0000
# 5 0.0000 0.0000 0.0000 0.0000 45.5948 0.0000
# 6 0.0000 0.0000 0.0000 0.0000 0.0000 16.5550
#
#
#
# Elastic Compliance Matrix: (Units=1/GPa)
#
#
# Indices 1 2 3 4 5 6 
#
# 1 0.022223 -0.021741 -0.002970 0.000000 0.000000 0.000000
# 2 -0.021741 0.040208 -0.000570 0.000000 0.000000 0.000000
# 3 -0.002970 -0.000570 0.009587 0.000000 0.000000 0.000000
# 4 0.000000 0.000000 0.000000 0.031703 0.000000 0.000000
# 5 0.000000 0.000000 0.000000 0.000000 0.021932 0.000000
# 6 0.000000 0.000000 0.000000 0.000000 0.000000 0.060405
#
#
# Mechanical properties :
#
#
# Convention : Reuss Voigt Hill
#
# Bulk Modulus (GPa) = 46.60651 57.06496 51.83573
# Shear Modulus (GPa) = 20.51106 29.68619 25.09862
#
# Velocity S-wave (km/s) = 2.83162 3.40658 3.13232
# Velocity P-wave (km/s) = 5.37679 6.14659 5.77453
#
# Compressibility (1/GPa) = 0.02145623
#
# Stress axis : x y z
#
# Youngs Moduli (GPa) = 44.99890 24.87097 104.30738
#
# Poissons Ratio (x) = 0.54071 0.30982
# Poissons Ratio (y) = 0.97830 0.05942
# Poissons Ratio (z) = 0.13366 0.01417
#
# Static dielectric constant tensor:
#      x y z
#    x 1.989640 0.000000 0.000000 
#    y 0.000000 2.022920 0.000000 
#    z 0.000000 0.000000 2.152420 
# 
# From -- ./inp_files/1317.got.cif
#   From: 2010.05.17/outbox.cif.g08.bks.cpg/sg33_1_cif.got.tgz:1317.got - 2010.06.03 17:15:25.
