data_PCOD9346430
_publ_section_title
;
Structure prediction by ZEFSAII (Michael W. Deem and Ramdas Pophale) SiO2 
 PCOD9346430
Probable space group: P N A 21
;
_chemical_formula_sum "Si O2"
_cell_formula_units_Z 32
_cell_length_a 15.877644
_cell_length_b 18.461878
_cell_length_c 5.285708
_cell_angle_alpha 90.000000
_cell_angle_beta 90.000000
_cell_angle_gamma 90.000000
_cell_volume 1549.405540
_symmetry_space_group_name_H-M "P N A 21"
_symmetry_group_IT_number 33
_symmetry_cell_setting 'orthorhombic'
loop_
_space_group_symop_operation_xyz
x,y,z
-x,-y,1/2+z
1/2-x,1/2+y,1/2+z
1/2+x,1/2-y,z
loop_
_atom_site_type_symbol
_atom_site_label
_atom_site_fract_x
_atom_site_fract_y
_atom_site_fract_z
Si Si1 0.287183 0.014894 0.909460
Si Si2 0.588200 0.055713 0.821485
Si Si3 0.854755 0.221475 0.898015
Si Si4 0.778530 0.627097 0.676087
Si Si5 0.286761 0.664970 0.433288
Si Si6 0.930154 0.411624 0.563228
Si Si7 0.857133 0.760480 0.930669
Si Si8 0.555458 0.756376 0.894254
O O1 0.225173 0.079745 0.977973
O O2 0.352571 0.055181 0.719349
O O3 0.240900 0.947392 0.780301
O O4 0.342247 0.975407 0.126288
O O5 0.512560 0.105603 0.726521
O O6 0.636528 0.100081 0.037141
O O7 0.542793 0.980847 0.899519
O O8 0.783716 0.163783 0.976086
O O9 0.921785 0.222853 0.124443
O O10 0.805100 0.297635 0.916046
O O11 0.896711 0.216176 0.624318
O O12 0.804704 0.685388 0.890932
O O13 0.334116 0.697387 0.674317
O O14 0.329972 0.693122 0.174821
O O15 0.911361 0.339612 0.407683
O O16 0.955953 0.745177 0.936275
#
# Coordination Sequence:
#
# PCOD9346430 Si02
#       8
#     4   4   4   4   4   4   4   4
#     4  11  23  40  65  92 132 177 214 267 329 393
#     4  11  23  38  59  97 139 172 211 253 338 404
#     4  11  24  42  66  97 128 173 221 273 316 396
#     4  10  26  39  66  95 133 172 221 273 330 395
#     4  11  24  44  66  97 135 169 229 265 330 392
#     4  11  23  35  58  97 134 174 203 254 319 414
#     4  11  26  43  67  99 134 175 217 280 327 394
#     4  12  25  41  69  92 135 170 222 265 333 380
#
# _framework density 20.653082999999999
#
# number of rings (size 3 to 8) (size 9 to 14) (size 15 to 20)
#    0.000    1.000    2.500    3.750   15.750    0.000 
#    0.000    0.000    0.000    3.000    0.000    0.000 
#    0.000    0.000    0.000    0.000    0.000    0.000 
#
# Total GULP energy -178791.202922 kJ/mol
# GULP energy per Si atom -5587.225091 kJ/mol
# Density = 2.060608 g / cm^3
# Si number density = 20.653083 Si / 1000 Ang^3
#
#
#
# Elastic Constant Matrix: (Units=GPa)
#
#
# Indices 1 2 3 4 5 6 
#
# 1 57.7531 17.5826 12.5241 0.0000 0.0000 0.0000
# 2 17.5826 101.1599 8.3472 0.0000 0.0000 0.0000
# 3 12.5241 8.3472 71.0585 0.0000 0.0000 0.0000
# 4 0.0000 0.0000 0.0000 20.8296 0.0000 0.0000
# 5 0.0000 0.0000 0.0000 0.0000 26.1426 0.0000
# 6 0.0000 0.0000 0.0000 0.0000 0.0000 18.4022
#
#
#
# Elastic Compliance Matrix: (Units=1/GPa)
#
#
# Indices 1 2 3 4 5 6 
#
# 1 0.018884 -0.003037 -0.002972 0.000000 0.000000 0.000000
# 2 -0.003037 0.010471 -0.000695 0.000000 0.000000 0.000000
# 3 -0.002972 -0.000695 0.014678 0.000000 0.000000 0.000000
# 4 0.000000 0.000000 0.000000 0.048009 0.000000 0.000000
# 5 0.000000 0.000000 0.000000 0.000000 0.038252 0.000000
# 6 0.000000 0.000000 0.000000 0.000000 0.000000 0.054341
#
#
# Mechanical properties :
#
#
# Convention : Reuss Voigt Hill
#
# Bulk Modulus (GPa) = 32.65171 34.09771 33.37471
# Shear Modulus (GPa) = 24.00960 25.84271 24.92615
#
# Velocity S-wave (km/s) = 3.41327 3.54118 3.47781
# Velocity P-wave (km/s) = 5.60159 5.76762 5.68521
#
# Compressibility (1/GPa) = 0.03062627
#
# Stress axis : x y z
#
# Youngs Moduli (GPa) = 52.95462 95.50612 68.12802
#
# Poissons Ratio (x) = 0.29006 0.20245
# Poissons Ratio (y) = 0.16083 0.04733
# Poissons Ratio (z) = 0.15736 0.06635
#
# Static dielectric constant tensor:
#      x y z
#    x 1.740720 0.000000 0.000000 
#    y 0.000000 1.758280 0.000000 
#    z 0.000000 0.000000 1.838590 
# 
# From -- ./inp_files/1477.got.cif
#   From: 2010.05.17/outbox.cif.g08.bks.cpg/sg33_1_cif.got.tgz:1477.got - 2010.06.03 17:15:25.
