data_PCOD9346679
_publ_section_title
;
Structure prediction by ZEFSAII (Michael W. Deem and Ramdas Pophale) SiO2 
 PCOD9346679
Probable space group: P N A 21
;
_chemical_formula_sum "Si O2"
_cell_formula_units_Z 24
_cell_length_a 9.209415
_cell_length_b 11.550035
_cell_length_c 8.921369
_cell_angle_alpha 90.000000
_cell_angle_beta 90.000000
_cell_angle_gamma 90.000000
_cell_volume 948.957684
_symmetry_space_group_name_H-M "P N A 21"
_symmetry_group_IT_number 33
_symmetry_cell_setting 'orthorhombic'
loop_
_space_group_symop_operation_xyz
x,y,z
-x,-y,1/2+z
1/2-x,1/2+y,1/2+z
1/2+x,1/2-y,z
loop_
_atom_site_type_symbol
_atom_site_label
_atom_site_fract_x
_atom_site_fract_y
_atom_site_fract_z
Si Si1 0.401745 0.803350 0.614290
Si Si2 0.621938 0.516368 0.931460
Si Si3 0.216086 0.768413 0.079784
Si Si4 0.546475 0.294924 0.780227
Si Si5 0.709761 0.902933 0.695106
Si Si6 0.281290 0.510723 0.000332
O O1 0.438453 0.756649 0.446341
O O2 0.549210 0.851964 0.683856
O O3 0.330495 0.698976 0.707653
O O4 0.284184 0.904669 0.592223
O O5 0.612405 0.425640 0.794653
O O6 0.667672 0.650578 0.941929
O O7 0.742972 0.462348 0.040440
O O8 0.456694 0.511116 0.993897
O O9 0.376345 0.777850 0.148897
O O10 0.209840 0.633413 0.042512
O O11 0.115735 0.797831 0.221794
O O12 0.729581 0.993382 0.827461
#
# Coordination Sequence:
#
# PCOD9346679 Si02
#       6
#     4   4   4   4   4   4
#     4  11  25  47  74 108 145 201 243 303 380 430
#     4  11  24  48  73 101 147 201 239 307 380 429
#     4  12  26  44  72 110 144 187 254 299 376 441
#     4  11  23  47  74 101 145 192 245 308 362 456
#     4  11  26  48  76 105 150 192 254 304 367 458
#     4  12  28  44  73 111 149 197 245 311 367 454
#
# _framework density 25.290908000000002
#
# number of rings (size 3 to 8) (size 9 to 14) (size 15 to 20)
#    0.000    0.667    1.667    7.000    7.000    1.333 
#    0.000    0.000    0.000    0.000    0.000    0.000 
#    0.000    0.000    0.000    0.000    0.000    0.000 
#
# Total GULP energy -134323.429883 kJ/mol
# GULP energy per Si atom -5596.809578 kJ/mol
# Density = 2.523334 g / cm^3
# Si number density = 25.290908 Si / 1000 Ang^3
#
#
#
# Elastic Constant Matrix: (Units=GPa)
#
#
# Indices 1 2 3 4 5 6 
#
# 1 95.7743 33.3320 18.9991 0.0000 0.0000 0.0000
# 2 33.3320 128.8420 6.1887 0.0000 0.0000 0.0000
# 3 18.9991 6.1887 30.3482 0.0000 0.0000 0.0000
# 4 0.0000 0.0000 0.0000 24.3529 0.0000 0.0000
# 5 0.0000 0.0000 0.0000 0.0000 34.9477 0.0000
# 6 0.0000 0.0000 0.0000 0.0000 0.0000 50.1412
#
#
#
# Elastic Compliance Matrix: (Units=1/GPa)
#
#
# Indices 1 2 3 4 5 6 
#
# 1 0.012974 -0.002996 -0.007511 0.000000 0.000000 0.000000
# 2 -0.002996 0.008530 0.000136 0.000000 0.000000 0.000000
# 3 -0.007511 0.000136 0.037625 0.000000 0.000000 0.000000
# 4 0.000000 0.000000 0.000000 0.041063 0.000000 0.000000
# 5 0.000000 0.000000 0.000000 0.000000 0.028614 0.000000
# 6 0.000000 0.000000 0.000000 0.000000 0.000000 0.019944
#
#
# Mechanical properties :
#
#
# Convention : Reuss Voigt Hill
#
# Bulk Modulus (GPa) = 26.05026 41.33380 33.69203
# Shear Modulus (GPa) = 27.42921 34.98468 31.20694
#
# Velocity S-wave (km/s) = 3.29682 3.72330 3.51653
# Velocity P-wave (km/s) = 4.98143 5.90447 5.46248
#
# Compressibility (1/GPa) = 0.03838733
#
# Stress axis : x y z
#
# Youngs Moduli (GPa) = 77.07846 117.23481 26.57777
#
# Poissons Ratio (x) = 0.35119 0.19963
# Poissons Ratio (y) = 0.23090 -0.00361
# Poissons Ratio (z) = 0.57895 -0.01593
#
# Static dielectric constant tensor:
#      x y z
#    x 1.884210 0.000000 0.000000 
#    y 0.000000 2.051990 0.000000 
#    z 0.000000 0.000000 2.068250 
# 
# From -- ./inp_files/3065.got.cif
#   From: 2010.05.17/outbox.cif.g08.bks.cpg/sg33_2_cif.got.tgz:3065.got - 2010.06.03 17:15:25.
