data_PCOD9346094
_publ_section_title
;
Structure prediction by ZEFSAII (Michael W. Deem and Ramdas Pophale) SiO2 
 PCOD9346094
Probable space group: P N A 21
;
_chemical_formula_sum "Si O2"
_cell_formula_units_Z 24
_cell_length_a 14.058201
_cell_length_b 6.874627
_cell_length_c 11.292576
_cell_angle_alpha 90.000000
_cell_angle_beta 90.000000
_cell_angle_gamma 90.000000
_cell_volume 1091.369745
_symmetry_space_group_name_H-M "P N A 21"
_symmetry_group_IT_number 33
_symmetry_cell_setting 'orthorhombic'
loop_
_space_group_symop_operation_xyz
x,y,z
-x,-y,1/2+z
1/2-x,1/2+y,1/2+z
1/2+x,1/2-y,z
loop_
_atom_site_type_symbol
_atom_site_label
_atom_site_fract_x
_atom_site_fract_y
_atom_site_fract_z
Si Si1 0.401036 0.849955 0.119900
Si Si2 0.382802 0.561021 0.687134
Si Si3 0.209397 0.062258 0.443432
Si Si4 0.709476 0.749495 0.619874
Si Si5 0.914600 0.006420 0.278533
Si Si6 0.096155 0.739717 0.007442
O O1 0.412126 0.720565 0.240351
O O2 0.502584 0.869562 0.053943
O O3 0.347071 0.051186 0.138767
O O4 0.340233 0.720487 0.028131
O O5 0.332779 0.569769 0.813821
O O6 0.322147 0.716119 0.614851
O O7 0.494736 0.588272 0.704719
O O8 0.367299 0.355769 0.622645
O O9 0.321357 0.107734 0.452688
O O10 0.182885 0.854613 0.498467
O O11 0.679749 0.603259 0.724351
O O12 0.926668 0.088843 0.410997
#
# Coordination Sequence:
#
# PCOD9346094 Si02
#       6
#     4   4   4   4   4   4
#     4  10  23  45  65  98 136 176 225 278 343 402
#     4  11  23  43  67  99 132 178 224 276 341 401
#     4  11  23  44  64  98 136 173 225 283 334 407
#     4  11  24  43  67  97 133 178 228 272 344 402
#     4  10  23  43  68  93 138 170 226 285 330 411
#     4  11  22  44  71  99 135 181 224 282 344 401
#
# _framework density 21.990711999999998
#
# number of rings (size 3 to 8) (size 9 to 14) (size 15 to 20)
#    0.000    1.333    5.000    0.000    2.333    1.333 
#    9.000    0.000    0.000    0.000    0.000    0.000 
#    0.000    0.000    0.000    0.000    0.000    0.000 
#
# Total GULP energy -134008.227823 kJ/mol
# GULP energy per Si atom -5583.676159 kJ/mol
# Density = 2.194066 g / cm^3
# Si number density = 21.990712 Si / 1000 Ang^3
#
#
#
# Elastic Constant Matrix: (Units=GPa)
#
#
# Indices 1 2 3 4 5 6 
#
# 1 90.5533 13.9120 -18.6385 0.0000 0.0000 0.0000
# 2 13.9120 63.1453 7.6067 0.0000 0.0000 0.0000
# 3 -18.6385 7.6067 50.2482 0.0000 0.0000 0.0000
# 4 0.0000 0.0000 0.0000 18.4240 0.0000 0.0000
# 5 0.0000 0.0000 0.0000 0.0000 25.5518 0.0000
# 6 0.0000 0.0000 0.0000 0.0000 0.0000 27.1895
#
#
#
# Elastic Compliance Matrix: (Units=1/GPa)
#
#
# Indices 1 2 3 4 5 6 
#
# 1 0.012639 -0.003411 0.005204 0.000000 0.000000 0.000000
# 2 -0.003411 0.017051 -0.003847 0.000000 0.000000 0.000000
# 3 0.005204 -0.003847 0.022414 0.000000 0.000000 0.000000
# 4 0.000000 0.000000 0.000000 0.054277 0.000000 0.000000
# 5 0.000000 0.000000 0.000000 0.000000 0.039136 0.000000
# 6 0.000000 0.000000 0.000000 0.000000 0.000000 0.036779
#
#
# Mechanical properties :
#
#
# Convention : Reuss Voigt Hill
#
# Bulk Modulus (GPa) = 20.83477 23.30079 22.06778
# Shear Modulus (GPa) = 24.70325 27.63749 26.17037
#
# Velocity S-wave (km/s) = 3.35528 3.54896 3.45347
# Velocity P-wave (km/s) = 4.95030 5.23566 5.09498
#
# Compressibility (1/GPa) = 0.04799669
#
# Stress axis : x y z
#
# Youngs Moduli (GPa) = 79.12293 58.64595 44.61494
#
# Poissons Ratio (x) = 0.20007 -0.23220
# Poissons Ratio (y) = 0.26992 0.17162
# Poissons Ratio (z) = -0.41179 0.22559
#
# Static dielectric constant tensor:
#      x y z
#    x 1.844830 0.000000 0.000000 
#    y 0.000000 1.787910 0.000000 
#    z 0.000000 0.000000 1.795220 
# 
# From -- ./inp_files/6617.got.cif
#   From: 2010.05.17/outbox.cif.g08.bks.cpg/sg33_4_cif.got.tgz:6617.got - 2010.06.03 17:15:25.
