data_PCOD9346288
_publ_section_title
;
Structure prediction by ZEFSAII (Michael W. Deem and Ramdas Pophale) SiO2 
 PCOD9346288
Probable space group: P N A 21
;
_chemical_formula_sum "Si O2"
_cell_formula_units_Z 20
_cell_length_a 11.338659
_cell_length_b 4.865197
_cell_length_c 13.777861
_cell_angle_alpha 90.000000
_cell_angle_beta 90.000000
_cell_angle_gamma 90.000000
_cell_volume 760.053081
_symmetry_space_group_name_H-M "P N A 21"
_symmetry_group_IT_number 33
_symmetry_cell_setting 'orthorhombic'
loop_
_space_group_symop_operation_xyz
x,y,z
-x,-y,1/2+z
1/2-x,1/2+y,1/2+z
1/2+x,1/2-y,z
loop_
_atom_site_type_symbol
_atom_site_label
_atom_site_fract_x
_atom_site_fract_y
_atom_site_fract_z
Si Si1 0.930552 0.412625 0.207160
Si Si2 0.250000 0.000000 0.046622
Si Si3 0.415843 0.404907 0.933973
Si Si4 0.084157 0.595093 0.933973
Si Si5 0.569448 0.587376 0.207160
O O1 0.851380 0.548559 0.125982
O O2 0.891981 0.434568 0.318815
O O3 0.050307 0.588575 0.195656
O O4 0.949693 0.088575 0.195656
O O5 0.305275 0.246298 0.982430
O O6 0.148622 0.048559 0.125983
O O7 0.194725 0.753703 0.982430
O O8 0.472076 0.702243 0.956289
O O9 0.391982 0.434567 0.818815
O O10 0.527925 0.202243 0.956289
#
# Coordination Sequence:
#
# PCOD9346288 Si02
#       5
#     4   4   4   4   4
#     4  10  24  44  65  97 139 178 226 290 352 415
#     4  12  24  42  76 102 132 190 248 286 352 434
#     4  10  24  44  65  97 139 178 226 290 352 415
#     4  10  24  44  65  97 139 178 226 290 352 415
#     4  10  24  44  65  97 139 178 226 290 352 415
#
# _framework density 26.313953999999999
#
# number of rings (size 3 to 8) (size 9 to 14) (size 15 to 20)
#    0.000    1.600    0.000    2.400    0.000   16.000 
#    0.000    0.000    0.000    0.000    0.000    0.000 
#    0.000    0.000    0.000    0.000    0.000    0.000 
#
# Total GULP energy -111632.337623 kJ/mol
# GULP energy per Si atom -5581.616881 kJ/mol
# Density = 2.625406 g / cm^3
# Si number density = 26.313954 Si / 1000 Ang^3
#
#
#
# Elastic Constant Matrix: (Units=GPa)
#
#
# Indices 1 2 3 4 5 6 
#
# 1 73.1708 37.5777 87.3302 0.0000 0.0000 0.0000
# 2 37.5777 156.7720 60.7372 0.0000 0.0000 0.0000
# 3 87.3302 60.7372 187.8722 0.0000 0.0000 0.0000
# 4 0.0000 0.0000 0.0000 49.0450 0.0000 0.0000
# 5 0.0000 0.0000 0.0000 0.0000 35.7742 0.0000
# 6 0.0000 0.0000 0.0000 0.0000 0.0000 22.5025
#
#
#
# Elastic Compliance Matrix: (Units=1/GPa)
#
#
# Indices 1 2 3 4 5 6 
#
# 1 0.031309 -0.002133 -0.013864 0.000000 0.000000 0.000000
# 2 -0.002133 0.007437 -0.001413 0.000000 0.000000 0.000000
# 3 -0.013864 -0.001413 0.012224 0.000000 0.000000 0.000000
# 4 0.000000 0.000000 0.000000 0.020389 0.000000 0.000000
# 5 0.000000 0.000000 0.000000 0.000000 0.027953 0.000000
# 6 0.000000 0.000000 0.000000 0.000000 0.000000 0.044439
#
#
# Mechanical properties :
#
#
# Convention : Reuss Voigt Hill
#
# Bulk Modulus (GPa) = 61.91869 87.67836 74.79853
# Shear Modulus (GPa) = 27.18040 36.94233 32.06137
#
# Velocity S-wave (km/s) = 3.21741 3.75094 3.49437
# Velocity P-wave (km/s) = 6.11425 7.22162 6.69089
#
# Compressibility (1/GPa) = 0.01615021
#
# Stress axis : x y z
#
# Youngs Moduli (GPa) = 31.93964 134.45567 81.80649
#
# Poissons Ratio (x) = 0.28686 1.13416
# Poissons Ratio (y) = 0.06814 0.11557
# Poissons Ratio (z) = 0.44281 0.18995
#
# Static dielectric constant tensor:
#      x y z
#    x 2.186010 0.000000 0.000000 
#    y 0.000000 2.086940 0.000000 
#    z 0.000000 0.000000 2.021950 
# 
# From -- ./inp_files/7826.got.cif
#   From: 2010.05.17/outbox.cif.g08.bks.cpg/sg33_4_cif.got.tgz:7826.got - 2010.06.03 17:15:25.
