data_PCOD9346078
_publ_section_title
;
Structure prediction by ZEFSAII (Michael W. Deem and Ramdas Pophale) SiO2 
 PCOD9346078
Probable space group: P N A 21
;
_chemical_formula_sum "Si O2"
_cell_formula_units_Z 32
_cell_length_a 21.233280
_cell_length_b 8.821577
_cell_length_c 8.249500
_cell_angle_alpha 90.000000
_cell_angle_beta 90.000000
_cell_angle_gamma 90.000000
_cell_volume 1545.222214
_symmetry_space_group_name_H-M "P N A 21"
_symmetry_group_IT_number 33
_symmetry_cell_setting 'orthorhombic'
loop_
_space_group_symop_operation_xyz
x,y,z
-x,-y,1/2+z
1/2-x,1/2+y,1/2+z
1/2+x,1/2-y,z
loop_
_atom_site_type_symbol
_atom_site_label
_atom_site_fract_x
_atom_site_fract_y
_atom_site_fract_z
Si Si1 0.356714 0.951709 0.918300
Si Si2 0.836776 0.758896 0.608111
Si Si3 0.265618 0.999999 0.179440
Si Si4 0.163224 0.758895 0.250769
Si Si5 0.020843 0.838253 0.244893
Si Si6 0.000000 0.629659 0.929440
Si Si7 0.356714 0.048291 0.440580
Si Si8 0.520843 0.338253 0.113987
O O1 0.338762 0.835586 0.776148
O O2 0.432427 0.953235 0.936142
O O3 0.336485 0.123424 0.879646
O O4 0.313886 0.906350 0.068387
O O5 0.836485 0.623424 0.479235
O O6 0.903725 0.841518 0.601324
O O7 0.781378 0.879582 0.596898
O O8 0.218623 0.879580 0.261983
O O9 0.313886 0.093649 0.290493
O O10 0.096276 0.841518 0.257556
O O11 0.161238 0.664413 0.082733
O O12 0.000000 0.804853 0.429440
O O13 0.996748 1.000000 0.179440
O O14 0.003232 0.722471 0.099734
O O15 0.067573 0.546765 0.922738
O O16 0.996768 0.722472 0.759147
#
# Coordination Sequence:
#
# PCOD9346078 Si02
#       8
#     4   4   4   4   4   4   4   4
#     4  10  24  41  66  93 133 175 218 278 335 398
#     4  10  23  43  60  94 137 168 220 281 328 398
#     4  12  22  40  70  94 128 178 224 268 344 404
#     4  10  23  43  60  94 137 168 220 281 328 398
#     4  11  22  40  68  95 134 176 218 277 340 390
#     4  10  24  44  64 102 134 172 230 280 330 410
#     4  10  24  41  66  93 133 175 218 278 335 398
#     4  11  22  40  68  95 134 176 218 277 340 390
#
# _framework density 20.708995000000002
#
# number of rings (size 3 to 8) (size 9 to 14) (size 15 to 20)
#    0.000    1.500    2.500    1.500    5.250    2.000 
#    0.000    0.000    0.000    0.000    0.000    0.000 
#    0.000    0.000    0.000    0.000    0.000    0.000 
#
# Total GULP energy -178480.758548 kJ/mol
# GULP energy per Si atom -5577.523705 kJ/mol
# Density = 2.066186 g / cm^3
# Si number density = 20.708995 Si / 1000 Ang^3
#
#
#
# Elastic Constant Matrix: (Units=GPa)
#
#
# Indices 1 2 3 4 5 6 
#
# 1 143.3800 48.6604 52.4557 0.0000 0.0000 0.0000
# 2 48.6604 70.1700 22.1023 0.0000 0.0000 0.0000
# 3 52.4557 22.1023 115.7362 0.0000 0.0000 0.0000
# 4 0.0000 0.0000 0.0000 0.1871 0.0000 0.0000
# 5 0.0000 0.0000 0.0000 0.0000 33.2537 0.0000
# 6 0.0000 0.0000 0.0000 0.0000 0.0000 0.4105
#
#
#
# Elastic Compliance Matrix: (Units=1/GPa)
#
#
# Indices 1 2 3 4 5 6 
#
# 1 0.010313 -0.006043 -0.003520 0.000000 0.000000 0.000000
# 2 -0.006043 0.018704 -0.000833 0.000000 0.000000 0.000000
# 3 -0.003520 -0.000833 0.010395 0.000000 0.000000 0.000000
# 4 0.000000 0.000000 0.000000 5.345661 0.000000 0.000000
# 5 0.000000 0.000000 0.000000 0.000000 0.030072 0.000000
# 6 0.000000 0.000000 0.000000 0.000000 0.000000 2.436291
#
#
# Mechanical properties :
#
#
# Convention : Reuss Voigt Hill
#
# Bulk Modulus (GPa) = 53.70682 63.96922 58.83802
# Shear Modulus (GPa) = 0.63464 20.50811 10.57138
#
# Velocity S-wave (km/s) = 0.55419 3.15032 2.26182
# Velocity P-wave (km/s) = 5.13808 6.64750 5.94092
#
# Compressibility (1/GPa) = 0.01861961
#
# Stress axis : x y z
#
# Youngs Moduli (GPa) = 96.96252 53.46411 96.20071
#
# Poissons Ratio (x) = 0.32309 0.33865
# Poissons Ratio (y) = 0.58595 0.08014
# Poissons Ratio (z) = 0.34134 0.04454
#
# Static dielectric constant tensor:
#      x y z
#    x 1.698450 0.000000 0.000000 
#    y 0.000000 1.766950 0.000000 
#    z 0.000000 0.000000 1.804100 
# 
# From -- ./inp_files/4975.got.cif
#   From: 2010.05.17/outbox.cif.g08.bks.cpg/sg33_3_cif.got.tgz:4975.got - 2010.06.03 17:15:25.
