data_PCOD9346575
_publ_section_title
;
Structure prediction by ZEFSAII (Michael W. Deem and Ramdas Pophale) SiO2 
 PCOD9346575
Probable space group: P N A 21
;
_chemical_formula_sum "Si O2"
_cell_formula_units_Z 28
_cell_length_a 11.332278
_cell_length_b 12.051097
_cell_length_c 7.641641
_cell_angle_alpha 90.000000
_cell_angle_beta 90.000000
_cell_angle_gamma 90.000000
_cell_volume 1043.591259
_symmetry_space_group_name_H-M "P N A 21"
_symmetry_group_IT_number 33
_symmetry_cell_setting 'orthorhombic'
loop_
_space_group_symop_operation_xyz
x,y,z
-x,-y,1/2+z
1/2-x,1/2+y,1/2+z
1/2+x,1/2-y,z
loop_
_atom_site_type_symbol
_atom_site_label
_atom_site_fract_x
_atom_site_fract_y
_atom_site_fract_z
Si Si1 0.556038 0.291050 0.484790
Si Si2 0.270672 0.536269 0.175988
Si Si3 0.030440 0.568601 0.094719
Si Si4 0.161257 0.572627 0.731136
Si Si5 0.626704 0.529603 0.049831
Si Si6 0.272845 0.286541 0.040083
Si Si7 0.030353 0.199071 0.069752
O O1 0.658061 0.374776 0.555238
O O2 0.555409 0.173055 0.579509
O O3 0.434752 0.353084 0.537578
O O4 0.545142 0.265558 0.275421
O O5 0.332345 0.509604 0.359343
O O6 0.257851 0.413422 0.093955
O O7 0.138992 0.577139 0.227967
O O8 0.108139 0.562797 0.920716
O O9 0.951237 0.460684 0.115291
O O10 0.266257 0.488102 0.683513
O O11 0.209783 0.695035 0.694909
O O12 0.533523 0.434096 0.096102
O O13 0.146063 0.245121 0.968807
O O14 0.407465 0.280048 0.970339
#
# Coordination Sequence:
#
# PCOD9346575 Si02
#       7
#     4   4   4   4   4   4   4
#     4  12  25  46  74 100 146 191 240 295 379 441
#     4  12  25  45  73 108 142 184 243 308 364 448
#     4  12  27  47  71 108 145 193 245 300 378 444
#     4  11  25  47  72 104 145 193 241 302 370 449
#     4  11  23  45  71 108 142 185 245 299 369 445
#     4  11  22  45  74 100 143 194 240 294 373 442
#     4  11  23  43  73 102 139 200 240 294 363 453
#
# _framework density 26.83043
#
# number of rings (size 3 to 8) (size 9 to 14) (size 15 to 20)
#    0.000    0.571    4.286    3.429    4.000    0.000 
#   12.857    0.000    0.000    0.000    0.000    0.000 
#    0.000    0.000    0.000    0.000    0.000    0.000 
#
# Total GULP energy -156614.096489 kJ/mol
# GULP energy per Si atom -5593.360589 kJ/mol
# Density = 2.676936 g / cm^3
# Si number density = 26.830430 Si / 1000 Ang^3
#
#
#
# Elastic Constant Matrix: (Units=GPa)
#
#
# Indices 1 2 3 4 5 6 
#
# 1 146.3452 42.8874 14.6706 0.0000 0.0000 0.0000
# 2 42.8874 155.0649 29.5934 0.0000 0.0000 0.0000
# 3 14.6706 29.5934 76.8041 0.0000 0.0000 0.0000
# 4 0.0000 0.0000 0.0000 22.4821 0.0000 0.0000
# 5 0.0000 0.0000 0.0000 0.0000 22.6172 0.0000
# 6 0.0000 0.0000 0.0000 0.0000 0.0000 59.7228
#
#
#
# Elastic Compliance Matrix: (Units=1/GPa)
#
#
# Indices 1 2 3 4 5 6 
#
# 1 0.007469 -0.001936 -0.000681 0.000000 0.000000 0.000000
# 2 -0.001936 0.007462 -0.002506 0.000000 0.000000 0.000000
# 3 -0.000681 -0.002506 0.014116 0.000000 0.000000 0.000000
# 4 0.000000 0.000000 0.000000 0.044480 0.000000 0.000000
# 5 0.000000 0.000000 0.000000 0.000000 0.044214 0.000000
# 6 0.000000 0.000000 0.000000 0.000000 0.000000 0.016744
#
#
# Mechanical properties :
#
#
# Convention : Reuss Voigt Hill
#
# Bulk Modulus (GPa) = 53.18430 61.39078 57.28754
# Shear Modulus (GPa) = 33.11332 40.36860 36.74096
#
# Velocity S-wave (km/s) = 3.51689 3.88310 3.70452
# Velocity P-wave (km/s) = 6.02966 6.56013 6.30048
#
# Compressibility (1/GPa) = 0.01880254
#
# Stress axis : x y z
#
# Youngs Moduli (GPa) = 133.89233 134.00367 70.84357
#
# Poissons Ratio (x) = 0.25940 0.04823
# Poissons Ratio (y) = 0.25918 0.17751
# Poissons Ratio (z) = 0.09115 0.33576
#
# Static dielectric constant tensor:
#      x y z
#    x 2.301070 0.000000 0.000000 
#    y 0.000000 2.015950 0.000000 
#    z 0.000000 0.000000 2.179520 
# 
# From -- ./inp_files/3831.got.cif
#   From: 2010.05.17/outbox.cif.g08.bks.cpg/sg33_2_cif.got.tgz:3831.got - 2010.06.03 17:15:25.
