data_PCOD9346325
_publ_section_title
;
Structure prediction by ZEFSAII (Michael W. Deem and Ramdas Pophale) SiO2 
 PCOD9346325
Probable space group: P N A 21
;
_chemical_formula_sum "Si O2"
_cell_formula_units_Z 32
_cell_length_a 7.955208
_cell_length_b 8.214347
_cell_length_c 20.491533
_cell_angle_alpha 90.000000
_cell_angle_beta 90.000000
_cell_angle_gamma 90.000000
_cell_volume 1339.056907
_symmetry_space_group_name_H-M "P N A 21"
_symmetry_group_IT_number 33
_symmetry_cell_setting 'orthorhombic'
loop_
_space_group_symop_operation_xyz
x,y,z
-x,-y,1/2+z
1/2-x,1/2+y,1/2+z
1/2+x,1/2-y,z
loop_
_atom_site_type_symbol
_atom_site_label
_atom_site_fract_x
_atom_site_fract_y
_atom_site_fract_z
Si Si1 0.080398 0.403625 0.974890
Si Si2 0.044584 0.908140 0.524911
Si Si3 0.365397 0.759495 0.336438
Si Si4 0.993056 0.376480 0.703789
Si Si5 0.158659 0.586788 0.791862
Si Si6 0.734473 0.139599 0.489707
Si Si7 0.290591 0.896183 0.845945
Si Si8 0.689417 0.358918 0.616074
O O1 0.054879 0.304648 0.906675
O O2 0.949332 0.551365 0.985326
O O3 0.017442 0.274999 0.028316
O O4 0.781109 0.076158 0.983533
O O5 0.092857 0.982240 0.593987
O O6 0.887291 0.013494 0.499433
O O7 0.483349 0.777653 0.271850
O O8 0.289346 0.577290 0.340956
O O9 0.251165 0.924753 0.321903
O O10 0.099837 0.535396 0.719998
O O11 0.810179 0.404078 0.676017
O O12 0.070879 0.275333 0.646096
O O13 0.988762 0.591400 0.834879
O O14 0.236030 0.762911 0.793499
O O15 0.753152 0.191911 0.414425
O O16 0.747424 0.270486 0.548053
#
# Coordination Sequence:
#
# PCOD9346325 Si02
#       8
#     4   4   4   4   4   4   4   4
#     4  12  24  47  74 113 154 187 248 315 395 446
#     4  12  26  42  74 108 145 198 240 301 375 448
#     4  10  24  45  77 102 149 193 240 316 377 449
#     4  10  24  47  69  99 142 201 249 295 370 442
#     4  10  27  42  75 110 142 195 241 312 377 449
#     4  12  26  45  71 113 150 196 244 315 376 454
#     4  12  24  46  72 118 146 181 254 311 398 442
#     4  12  25  46  72 101 144 203 250 295 370 452
#
# _framework density 23.897414000000001
#
# number of rings (size 3 to 8) (size 9 to 14) (size 15 to 20)
#    0.750    0.000    5.000    1.500    3.500    2.000 
#    0.000    6.250    0.000    0.000    0.000    0.000 
#    0.000    0.000    0.000    0.000    0.000    0.000 
#
# Total GULP energy -178386.111680 kJ/mol
# GULP energy per Si atom -5574.565990 kJ/mol
# Density = 2.384302 g / cm^3
# Si number density = 23.897414 Si / 1000 Ang^3
#
#
#
# Elastic Constant Matrix: (Units=GPa)
#
#
# Indices 1 2 3 4 5 6 
#
# 1 80.3197 20.4287 9.8533 0.0000 0.0000 0.0000
# 2 20.4287 109.2179 10.7306 0.0000 0.0000 0.0000
# 3 9.8533 10.7306 81.2550 0.0000 0.0000 0.0000
# 4 0.0000 0.0000 0.0000 55.6709 0.0000 0.0000
# 5 0.0000 0.0000 0.0000 0.0000 12.2475 0.0000
# 6 0.0000 0.0000 0.0000 0.0000 0.0000 27.4241
#
#
#
# Elastic Compliance Matrix: (Units=1/GPa)
#
#
# Indices 1 2 3 4 5 6 
#
# 1 0.013205 -0.002343 -0.001292 0.000000 0.000000 0.000000
# 2 -0.002343 0.009692 -0.000996 0.000000 0.000000 0.000000
# 3 -0.001292 -0.000996 0.012595 0.000000 0.000000 0.000000
# 4 0.000000 0.000000 0.000000 0.017963 0.000000 0.000000
# 5 0.000000 0.000000 0.000000 0.000000 0.081649 0.000000
# 6 0.000000 0.000000 0.000000 0.000000 0.000000 0.036464
#
#
# Mechanical properties :
#
#
# Convention : Reuss Voigt Hill
#
# Bulk Modulus (GPa) = 38.12339 39.20196 38.66267
# Shear Modulus (GPa) = 26.37507 34.38715 30.38111
#
# Velocity S-wave (km/s) = 3.32577 3.79746 3.56942
# Velocity P-wave (km/s) = 5.54394 5.97223 5.76206
#
# Compressibility (1/GPa) = 0.02623062
#
# Stress axis : x y z
#
# Youngs Moduli (GPa) = 75.73094 103.17692 79.39595
#
# Poissons Ratio (x) = 0.24174 0.10257
# Poissons Ratio (y) = 0.17743 0.07906
# Poissons Ratio (z) = 0.09783 0.10275
#
# Static dielectric constant tensor:
#      x y z
#    x 3.516990 0.000000 0.000000 
#    y 0.000000 1.963880 0.000000 
#    z 0.000000 0.000000 1.965640 
# 
# From -- ./inp_files/8985.got.cif
#   From: 2010.05.17/outbox.cif.g08.bks.cpg/sg33_5_cif.got.tgz:8985.got - 2010.06.03 17:15:25.
