data_PCOD9346799
_publ_section_title
;
Structure prediction by ZEFSAII (Michael W. Deem and Ramdas Pophale) SiO2 
 PCOD9346799
Probable space group: P N A 21
;
_chemical_formula_sum "Si O2"
_cell_formula_units_Z 28
_cell_length_a 13.467285
_cell_length_b 15.909553
_cell_length_c 5.106221
_cell_angle_alpha 90.000000
_cell_angle_beta 90.000000
_cell_angle_gamma 90.000000
_cell_volume 1094.051173
_symmetry_space_group_name_H-M "P N A 21"
_symmetry_group_IT_number 33
_symmetry_cell_setting 'orthorhombic'
loop_
_space_group_symop_operation_xyz
x,y,z
-x,-y,1/2+z
1/2-x,1/2+y,1/2+z
1/2+x,1/2-y,z
loop_
_atom_site_type_symbol
_atom_site_label
_atom_site_fract_x
_atom_site_fract_y
_atom_site_fract_z
Si Si1 0.166736 0.156318 0.139420
Si Si2 0.361001 0.100287 0.836726
Si Si3 0.233779 0.878181 0.312972
Si Si4 0.138389 0.410306 0.315635
Si Si5 0.498835 0.225766 0.161098
Si Si6 0.063661 0.006608 0.444328
Si Si7 0.677204 0.765424 0.981977
O O1 0.073935 0.209096 0.022704
O O2 0.118280 0.090198 0.340527
O O3 0.228312 0.226489 0.299016
O O4 0.250200 0.110105 0.963867
O O5 0.347881 0.138055 0.547905
O O6 0.398858 0.005677 0.834272
O O7 0.438590 0.162628 0.975075
O O8 0.317395 0.893670 0.527793
O O9 0.140402 0.931398 0.402979
O O10 0.275598 0.905792 0.031708
O O11 0.202411 0.783041 0.247573
O O12 0.058728 0.337059 0.353370
O O13 0.416026 0.273879 0.333095
O O14 0.026755 0.009899 0.742059
#
# Coordination Sequence:
#
# PCOD9346799 Si02
#       7
#     4   4   4   4   4   4   4
#     4  11  24  49  71 107 155 196 254 319 388 449
#     4  11  27  45  76 107 150 204 256 318 385 469
#     4  12  26  50  76 110 150 203 251 315 386 460
#     4  12  27  49  78 107 155 200 254 313 389 455
#     4  11  27  45  74 113 152 201 257 321 386 465
#     4  12  27  45  76 108 147 198 255 319 380 459
#     4  11  26  45  75 110 151 204 255 315 386 467
#
# _framework density 25.592953000000001
#
# number of rings (size 3 to 8) (size 9 to 14) (size 15 to 20)
#    0.000    0.571    2.857    3.429   12.000    1.143 
#    0.000    0.000    0.000    0.000    0.000    0.000 
#    0.000    0.000    0.000    0.000    0.000    0.000 
#
# Total GULP energy -156915.181575 kJ/mol
# GULP energy per Si atom -5604.113628 kJ/mol
# Density = 2.553470 g / cm^3
# Si number density = 25.592953 Si / 1000 Ang^3
#
#
#
# Elastic Constant Matrix: (Units=GPa)
#
#
# Indices 1 2 3 4 5 6 
#
# 1 116.3919 24.1334 13.0308 0.0000 0.0000 0.0000
# 2 24.1334 97.1091 6.8411 0.0000 0.0000 0.0000
# 3 13.0308 6.8411 62.7213 0.0000 0.0000 0.0000
# 4 0.0000 0.0000 0.0000 31.3270 0.0000 0.0000
# 5 0.0000 0.0000 0.0000 0.0000 38.6459 0.0000
# 6 0.0000 0.0000 0.0000 0.0000 0.0000 17.8132
#
#
#
# Elastic Compliance Matrix: (Units=1/GPa)
#
#
# Indices 1 2 3 4 5 6 
#
# 1 0.009231 -0.002176 -0.001680 0.000000 0.000000 0.000000
# 2 -0.002176 0.010890 -0.000736 0.000000 0.000000 0.000000
# 3 -0.001680 -0.000736 0.016373 0.000000 0.000000 0.000000
# 4 0.000000 0.000000 0.000000 0.031921 0.000000 0.000000
# 5 0.000000 0.000000 0.000000 0.000000 0.025876 0.000000
# 6 0.000000 0.000000 0.000000 0.000000 0.000000 0.056138
#
#
# Mechanical properties :
#
#
# Convention : Reuss Voigt Hill
#
# Bulk Modulus (GPa) = 36.61637 40.47030 38.54334
# Shear Modulus (GPa) = 29.63547 33.03836 31.33692
#
# Velocity S-wave (km/s) = 3.40656 3.59683 3.50299
# Velocity P-wave (km/s) = 5.45996 5.75300 5.60839
#
# Compressibility (1/GPa) = 0.02731019
#
# Stress axis : x y z
#
# Youngs Moduli (GPa) = 108.33157 91.82550 61.07636
#
# Poissons Ratio (x) = 0.19978 0.10264
# Poissons Ratio (y) = 0.23569 0.04494
# Poissons Ratio (z) = 0.18205 0.06756
#
# Static dielectric constant tensor:
#      x y z
#    x 2.046980 0.000000 0.000000 
#    y 0.000000 2.069620 0.000000 
#    z 0.000000 0.000000 1.989250 
# 
# From -- ./inp_files/926.got.cif
#   From: 2010.05.17/outbox.cif.g08.bks.cpg/sg33_1_cif.got.tgz:926.got - 2010.06.03 17:15:25.
