data_PCOD9346391
_publ_section_title
;
Structure prediction by ZEFSAII (Michael W. Deem and Ramdas Pophale) SiO2 
 PCOD9346391
Probable space group: P N A 21
;
_chemical_formula_sum "Si O2"
_cell_formula_units_Z 24
_cell_length_a 20.741303
_cell_length_b 8.394651
_cell_length_c 5.241741
_cell_angle_alpha 90.000000
_cell_angle_beta 90.000000
_cell_angle_gamma 90.000000
_cell_volume 912.670976
_symmetry_space_group_name_H-M "P N A 21"
_symmetry_group_IT_number 33
_symmetry_cell_setting 'orthorhombic'
loop_
_space_group_symop_operation_xyz
x,y,z
-x,-y,1/2+z
1/2-x,1/2+y,1/2+z
1/2+x,1/2-y,z
loop_
_atom_site_type_symbol
_atom_site_label
_atom_site_fract_x
_atom_site_fract_y
_atom_site_fract_z
Si Si1 0.075936 0.162518 0.823950
Si Si2 0.109575 0.576167 0.247500
Si Si3 0.613395 0.688833 0.649011
Si Si4 0.485360 0.802652 0.808294
Si Si5 0.226596 0.634322 0.861493
Si Si6 0.816843 0.647959 0.143698
O O1 0.040657 0.239421 0.577818
O O2 0.140403 0.269341 0.859864
O O3 0.096699 0.986922 0.739342
O O4 0.036325 0.178673 0.084769
O O5 0.098504 0.752732 0.362297
O O6 0.044847 0.470341 0.210699
O O7 0.171129 0.586064 0.063339
O O8 0.138910 0.471193 0.483316
O O9 0.562824 0.799787 0.808943
O O10 0.687693 0.734591 0.697767
O O11 0.289067 0.710739 0.977482
O O12 0.240863 0.467849 0.725071
#
# Coordination Sequence:
#
# PCOD9346391 Si02
#       6
#     4   4   4   4   4   4
#     4  11  25  47  71 107 141 195 234 300 364 430
#     4  10  25  43  66 102 135 187 238 294 364 421
#     4  11  27  41  72 106 138 191 243 295 369 435
#     4  11  25  47  74 101 154 181 243 299 362 434
#     4  11  25  44  67 100 136 190 241 295 366 425
#     4  10  25  44  66  96 142 182 241 299 353 439
#
# _framework density 26.296443
#
# number of rings (size 3 to 8) (size 9 to 14) (size 15 to 20)
#    0.000    1.333    1.667    1.000   11.667    2.667 
#    0.000    0.000    0.000    0.000    0.000    0.000 
#    0.000    0.000    0.000    0.000    0.000    0.000 
#
# Total GULP energy -134289.309867 kJ/mol
# GULP energy per Si atom -5595.387911 kJ/mol
# Density = 2.623659 g / cm^3
# Si number density = 26.296443 Si / 1000 Ang^3
#
#
#
# Elastic Constant Matrix: (Units=GPa)
#
#
# Indices 1 2 3 4 5 6 
#
# 1 54.1873 7.3474 -11.5316 0.0000 0.0000 0.0000
# 2 7.3474 101.1568 4.5887 0.0000 0.0000 0.0000
# 3 -11.5316 4.5887 61.8714 0.0000 0.0000 0.0000
# 4 0.0000 0.0000 0.0000 42.0533 0.0000 0.0000
# 5 0.0000 0.0000 0.0000 0.0000 38.4677 0.0000
# 6 0.0000 0.0000 0.0000 0.0000 0.0000 40.1340
#
#
#
# Elastic Compliance Matrix: (Units=1/GPa)
#
#
# Indices 1 2 3 4 5 6 
#
# 1 0.019466 -0.001584 0.003746 0.000000 0.000000 0.000000
# 2 -0.001584 0.010048 -0.001040 0.000000 0.000000 0.000000
# 3 0.003746 -0.001040 0.016938 0.000000 0.000000 0.000000
# 4 0.000000 0.000000 0.000000 0.023779 0.000000 0.000000
# 5 0.000000 0.000000 0.000000 0.000000 0.025996 0.000000
# 6 0.000000 0.000000 0.000000 0.000000 0.000000 0.024917
#
#
# Mechanical properties :
#
#
# Convention : Reuss Voigt Hill
#
# Bulk Modulus (GPa) = 20.53605 24.22493 22.38049
# Shear Modulus (GPa) = 37.00068 38.58505 37.79287
#
# Velocity S-wave (km/s) = 3.75515 3.83470 3.79514
# Velocity P-wave (km/s) = 5.16023 5.37018 5.26625
#
# Compressibility (1/GPa) = 0.04869486
#
# Stress axis : x y z
#
# Youngs Moduli (GPa) = 51.37064 99.52347 59.03946
#
# Poissons Ratio (x) = 0.15763 -0.22114
# Poissons Ratio (y) = 0.08136 0.06142
# Poissons Ratio (z) = -0.19241 0.10354
#
# Static dielectric constant tensor:
#      x y z
#    x 2.056190 0.000000 0.000000 
#    y 0.000000 2.053960 0.000000 
#    z 0.000000 0.000000 2.229000 
# 
# From -- ./inp_files/2194.got.cif
#   From: 2010.05.17/outbox.cif.g08.bks.cpg/sg33_2_cif.got.tgz:2194.got - 2010.06.03 17:15:25.
