data_PCOD9346711
_publ_section_title
;
Structure prediction by ZEFSAII (Michael W. Deem and Ramdas Pophale) SiO2 
 PCOD9346711
Probable space group: P N A 21
;
_chemical_formula_sum "Si O2"
_cell_formula_units_Z 20
_cell_length_a 5.410349
_cell_length_b 29.152565
_cell_length_c 4.727916
_cell_angle_alpha 90.000000
_cell_angle_beta 90.000000
_cell_angle_gamma 90.000000
_cell_volume 745.713156
_symmetry_space_group_name_H-M "P N A 21"
_symmetry_group_IT_number 33
_symmetry_cell_setting 'orthorhombic'
loop_
_space_group_symop_operation_xyz
x,y,z
-x,-y,1/2+z
1/2-x,1/2+y,1/2+z
1/2+x,1/2-y,z
loop_
_atom_site_type_symbol
_atom_site_label
_atom_site_fract_x
_atom_site_fract_y
_atom_site_fract_z
Si Si1 0.400183 0.897772 0.324080
Si Si2 0.250827 0.115789 0.307984
Si Si3 0.046459 0.969664 0.543720
Si Si4 0.012476 0.824270 0.394009
Si Si5 0.793137 0.259334 0.583747
O O1 0.505321 0.877992 0.615743
O O2 0.284368 0.947122 0.394173
O O3 0.767156 0.807672 0.225165
O O4 0.166896 0.865302 0.249043
O O5 0.374045 0.103283 0.606288
O O6 0.076199 0.157850 0.198217
O O7 0.106118 0.071311 0.190319
O O8 0.102128 0.004679 0.796619
O O9 0.169928 0.778397 0.334162
O O10 0.050175 0.257713 0.423627
#
# Coordination Sequence:
#
# PCOD9346711 Si02
#       5
#     4   4   4   4   4
#     4  11  24  43  69 102 144 191 244 309 380 455
#     4  11  24  43  69 102 144 191 244 309 380 455
#     4  11  24  44  70 102 140 184 244 312 386 469
#     4   9  20  38  68 100 148 194 254 306 378 435
#     4   8  16  34  64  98 142 192 254 308 362 436
#
# _framework density 26.819962
#
# number of rings (size 3 to 8) (size 9 to 14) (size 15 to 20)
#    1.200    0.800    0.000    3.600    0.000    8.000 
#    0.000    2.000    0.000    0.000    0.000    0.000 
#    0.000    0.000    0.000    0.000    0.000    0.000 
#
# Total GULP energy -111752.552412 kJ/mol
# GULP energy per Si atom -5587.627621 kJ/mol
# Density = 2.675892 g / cm^3
# Si number density = 26.819962 Si / 1000 Ang^3
#
#
#
# Elastic Constant Matrix: (Units=GPa)
#
#
# Indices 1 2 3 4 5 6 
#
# 1 140.9053 26.3808 21.3390 0.0000 0.0000 0.0000
# 2 26.3808 115.6950 39.4363 0.0000 0.0000 0.0000
# 3 21.3390 39.4363 117.3637 0.0000 0.0000 0.0000
# 4 0.0000 0.0000 0.0000 26.1425 0.0000 0.0000
# 5 0.0000 0.0000 0.0000 0.0000 35.6759 0.0000
# 6 0.0000 0.0000 0.0000 0.0000 0.0000 39.8244
#
#
#
# Elastic Compliance Matrix: (Units=1/GPa)
#
#
# Indices 1 2 3 4 5 6 
#
# 1 0.007495 -0.001405 -0.000890 0.000000 0.000000 0.000000
# 2 -0.001405 0.010025 -0.003113 0.000000 0.000000 0.000000
# 3 -0.000890 -0.003113 0.009728 0.000000 0.000000 0.000000
# 4 0.000000 0.000000 0.000000 0.038252 0.000000 0.000000
# 5 0.000000 0.000000 0.000000 0.000000 0.028030 0.000000
# 6 0.000000 0.000000 0.000000 0.000000 0.000000 0.025110
#
#
# Mechanical properties :
#
#
# Convention : Reuss Voigt Hill
#
# Bulk Modulus (GPa) = 60.86249 60.91956 60.89103
# Shear Modulus (GPa) = 37.05473 39.44907 38.25190
#
# Velocity S-wave (km/s) = 3.72103 3.83937 3.78067
# Velocity P-wave (km/s) = 6.41901 6.51291 6.46613
#
# Compressibility (1/GPa) = 0.01643048
#
# Stress axis : x y z
#
# Youngs Moduli (GPa) = 133.42304 99.75041 102.79112
#
# Poissons Ratio (x) = 0.14020 0.09153
# Poissons Ratio (y) = 0.18752 0.31999
# Poissons Ratio (z) = 0.11881 0.31053
#
# Static dielectric constant tensor:
#      x y z
#    x 2.141930 0.000000 0.000000 
#    y 0.000000 2.123530 0.000000 
#    z 0.000000 0.000000 2.123020 
# 
# From -- ./inp_files/177.got.cif
#   From: 2010.05.17/outbox.cif.g08.bks.cpg/sg33_1_cif.got.tgz:177.got - 2010.06.03 17:15:25.
