data_PCOD9346547
_publ_section_title
;
Structure prediction by ZEFSAII (Michael W. Deem and Ramdas Pophale) SiO2 
 PCOD9346547
Probable space group: P N A 21
;
_chemical_formula_sum "Si O2"
_cell_formula_units_Z 28
_cell_length_a 17.139602
_cell_length_b 13.042647
_cell_length_c 5.303046
_cell_angle_alpha 90.000000
_cell_angle_beta 90.000000
_cell_angle_gamma 90.000000
_cell_volume 1185.473547
_symmetry_space_group_name_H-M "P N A 21"
_symmetry_group_IT_number 33
_symmetry_cell_setting 'orthorhombic'
loop_
_space_group_symop_operation_xyz
x,y,z
-x,-y,1/2+z
1/2-x,1/2+y,1/2+z
1/2+x,1/2-y,z
loop_
_atom_site_type_symbol
_atom_site_label
_atom_site_fract_x
_atom_site_fract_y
_atom_site_fract_z
Si Si1 0.075195 0.356463 0.558240
Si Si2 0.758979 0.585147 0.906506
Si Si3 0.444485 0.247219 0.839842
Si Si4 0.717452 0.470030 0.429362
Si Si5 0.542479 0.537537 0.569538
Si Si6 0.317232 0.220721 0.469275
Si Si7 0.945072 0.419650 0.210391
O O1 0.165708 0.351481 0.498813
O O2 0.068944 0.460822 0.722002
O O3 0.023650 0.264423 0.672863
O O4 0.029793 0.388605 0.305651
O O5 0.734242 0.514693 0.147382
O O6 0.698658 0.673832 0.826983
O O7 0.769616 0.521030 0.652271
O O8 0.458822 0.339115 0.033823
O O9 0.359875 0.265689 0.716808
O O10 0.434063 0.132127 0.942015
O O11 0.628098 0.492942 0.504728
O O12 0.741534 0.351134 0.454691
O O13 0.514266 0.506313 0.848398
O O14 0.383429 0.144369 0.370708
#
# Coordination Sequence:
#
# PCOD9346547 Si02
#       7
#     4   4   4   4   4   4   4
#     4  11  24  39  69 111 143 189 236 303 364 447
#     4  12  27  46  72 107 148 191 244 305 368 435
#     4  11  25  45  72 102 148 197 240 302 377 430
#     4  12  27  49  74 107 147 191 248 307 366 435
#     4  12  29  52  76 104 147 200 253 301 361 445
#     4  11  26  45  73 103 146 197 244 302 373 430
#     4  11  22  42  70 104 147 187 235 302 373 432
#
# _framework density 23.619250999999998
#
# number of rings (size 3 to 8) (size 9 to 14) (size 15 to 20)
#    0.000    0.571    4.286    2.571   10.000    0.000 
#    0.000    0.000    0.000    0.000    0.000    0.000 
#    0.000    0.000    0.000    0.000    0.000    0.000 
#
# Total GULP energy -156238.901804 kJ/mol
# GULP energy per Si atom -5579.960779 kJ/mol
# Density = 2.356549 g / cm^3
# Si number density = 23.619251 Si / 1000 Ang^3
#
#
#
# Elastic Constant Matrix: (Units=GPa)
#
#
# Indices 1 2 3 4 5 6 
#
# 1 69.4140 2.1002 -0.6705 0.0000 0.0000 0.0000
# 2 2.1002 114.5037 16.1335 0.0000 0.0000 0.0000
# 3 -0.6705 16.1335 68.7975 0.0000 0.0000 0.0000
# 4 0.0000 0.0000 0.0000 19.7914 0.0000 0.0000
# 5 0.0000 0.0000 0.0000 0.0000 19.3176 0.0000
# 6 0.0000 0.0000 0.0000 0.0000 0.0000 22.2447
#
#
#
# Elastic Compliance Matrix: (Units=1/GPa)
#
#
# Indices 1 2 3 4 5 6 
#
# 1 0.014417 -0.000294 0.000209 0.000000 0.000000 0.000000
# 2 -0.000294 0.009038 -0.002122 0.000000 0.000000 0.000000
# 3 0.000209 -0.002122 0.015035 0.000000 0.000000 0.000000
# 4 0.000000 0.000000 0.000000 0.050527 0.000000 0.000000
# 5 0.000000 0.000000 0.000000 0.000000 0.051766 0.000000
# 6 0.000000 0.000000 0.000000 0.000000 0.000000 0.044954
#
#
# Mechanical properties :
#
#
# Convention : Reuss Voigt Hill
#
# Bulk Modulus (GPa) = 29.34567 31.98239 30.66403
# Shear Modulus (GPa) = 24.81263 27.94755 26.38009
#
# Velocity S-wave (km/s) = 3.24470 3.44358 3.34562
# Velocity P-wave (km/s) = 5.14673 5.42044 5.28536
#
# Compressibility (1/GPa) = 0.03407658
#
# Stress axis : x y z
#
# Youngs Moduli (GPa) = 69.36146 110.64690 66.51081
#
# Poissons Ratio (x) = 0.03252 -0.01393
# Poissons Ratio (y) = 0.02039 0.14115
# Poissons Ratio (z) = -0.01453 0.23482
#
# Static dielectric constant tensor:
#      x y z
#    x 2.027680 0.000000 0.000000 
#    y 0.000000 1.855140 0.000000 
#    z 0.000000 0.000000 1.990740 
# 
# From -- ./inp_files/1763.got.cif
#   From: 2010.05.17/outbox.cif.g08.bks.cpg/sg33_1_cif.got.tgz:1763.got - 2010.06.03 17:15:25.
