data_PCOD9346182
_publ_section_title
;
Structure prediction by ZEFSAII (Michael W. Deem and Ramdas Pophale) SiO2 
 PCOD9346182
Probable space group: P N A 21
;
_chemical_formula_sum "Si O2"
_cell_formula_units_Z 28
_cell_length_a 22.806662
_cell_length_b 7.765895
_cell_length_c 6.575271
_cell_angle_alpha 90.000000
_cell_angle_beta 90.000000
_cell_angle_gamma 90.000000
_cell_volume 1164.573484
_symmetry_space_group_name_H-M "P N A 21"
_symmetry_group_IT_number 33
_symmetry_cell_setting 'orthorhombic'
loop_
_space_group_symop_operation_xyz
x,y,z
-x,-y,1/2+z
1/2-x,1/2+y,1/2+z
1/2+x,1/2-y,z
loop_
_atom_site_type_symbol
_atom_site_label
_atom_site_fract_x
_atom_site_fract_y
_atom_site_fract_z
Si Si1 0.735484 0.605766 0.571820
Si Si2 0.517893 0.742871 0.431205
Si Si3 0.557668 0.940657 0.069459
Si Si4 0.120159 0.760008 0.742073
Si Si5 0.190695 0.263111 0.725850
Si Si6 0.396952 0.576835 0.520848
Si Si7 0.354018 0.824797 0.812011
O O1 0.682654 0.732647 0.633096
O O2 0.758186 0.634897 0.342323
O O3 0.716167 0.411409 0.623237
O O4 0.790484 0.650316 0.713401
O O5 0.533790 0.776231 0.195382
O O6 0.572646 0.692037 0.570458
O O7 0.464424 0.612876 0.469053
O O8 0.493518 0.927538 0.510245
O O9 0.600977 0.037794 0.222852
O O10 0.594230 0.899001 0.867176
O O11 0.123274 0.898117 0.927106
O O12 0.142521 0.209544 0.890964
O O13 0.156084 0.354971 0.547563
O O14 0.380818 0.637220 0.749125
#
# Coordination Sequence:
#
# PCOD9346182 Si02
#       7
#     4   4   4   4   4   4   4
#     4  10  25  44  69 107 134 188 232 298 353 423
#     4  11  24  42  68 102 137 185 236 285 360 413
#     4  11  25  43  70 101 138 188 232 294 348 431
#     4  11  25  44  70 104 143 177 245 288 355 429
#     4  10  23  46  72  98 145 181 238 290 355 430
#     4   9  24  45  65 103 136 188 227 292 353 411
#     4  10  24  44  72  97 141 183 232 289 358 411
#
# _framework density 24.043137000000002
#
# number of rings (size 3 to 8) (size 9 to 14) (size 15 to 20)
#    0.000    1.714    1.429    0.000    8.000    6.857 
#    2.571    0.000    0.000    0.000    0.000    0.000 
#    0.000    0.000    0.000    0.000    0.000    0.000 
#
# Total GULP energy -156680.907118 kJ/mol
# GULP energy per Si atom -5595.746683 kJ/mol
# Density = 2.398841 g / cm^3
# Si number density = 24.043137 Si / 1000 Ang^3
#
#
#
# Elastic Constant Matrix: (Units=GPa)
#
#
# Indices 1 2 3 4 5 6 
#
# 1 128.6789 4.8699 38.5920 0.0000 0.0000 0.0000
# 2 4.8699 46.0063 13.0606 0.0000 0.0000 0.0000
# 3 38.5920 13.0606 119.0644 0.0000 0.0000 0.0000
# 4 0.0000 0.0000 0.0000 21.4180 0.0000 0.0000
# 5 0.0000 0.0000 0.0000 0.0000 51.1171 0.0000
# 6 0.0000 0.0000 0.0000 0.0000 0.0000 23.9917
#
#
#
# Elastic Compliance Matrix: (Units=1/GPa)
#
#
# Indices 1 2 3 4 5 6 
#
# 1 0.008609 -0.000123 -0.002777 0.000000 0.000000 0.000000
# 2 -0.000123 0.022437 -0.002421 0.000000 0.000000 0.000000
# 3 -0.002777 -0.002421 0.009564 0.000000 0.000000 0.000000
# 4 0.000000 0.000000 0.000000 0.046690 0.000000 0.000000
# 5 0.000000 0.000000 0.000000 0.000000 0.019563 0.000000
# 6 0.000000 0.000000 0.000000 0.000000 0.000000 0.041681
#
#
# Mechanical properties :
#
#
# Convention : Reuss Voigt Hill
#
# Bulk Modulus (GPa) = 33.36939 45.19939 39.28439
# Shear Modulus (GPa) = 29.55524 35.12050 32.33787
#
# Velocity S-wave (km/s) = 3.50988 3.82609 3.67139
# Velocity P-wave (km/s) = 5.50770 6.19345 5.86061
#
# Compressibility (1/GPa) = 0.02996758
#
# Stress axis : x y z
#
# Youngs Moduli (GPa) = 116.16109 44.57013 104.55363
#
# Poissons Ratio (x) = 0.00548 0.29033
# Poissons Ratio (y) = 0.01428 0.25316
# Poissons Ratio (z) = 0.32256 0.10792
#
# Static dielectric constant tensor:
#      x y z
#    x 1.853900 0.000000 0.000000 
#    y 0.000000 2.008580 0.000000 
#    z 0.000000 0.000000 1.941410 
# 
# From -- ./inp_files/2247.got.cif
#   From: 2010.05.17/outbox.cif.g08.bks.cpg/sg33_2_cif.got.tgz:2247.got - 2010.06.03 17:15:25.
