data_PCOD9346355
_publ_section_title
;
Structure prediction by ZEFSAII (Michael W. Deem and Ramdas Pophale) SiO2 
 PCOD9346355
Probable space group: P N A 21
;
_chemical_formula_sum "Si O2"
_cell_formula_units_Z 32
_cell_length_a 11.739996
_cell_length_b 23.229778
_cell_length_c 5.372923
_cell_angle_alpha 90.000000
_cell_angle_beta 90.000000
_cell_angle_gamma 90.000000
_cell_volume 1465.290133
_symmetry_space_group_name_H-M "P N A 21"
_symmetry_group_IT_number 33
_symmetry_cell_setting 'orthorhombic'
loop_
_space_group_symop_operation_xyz
x,y,z
-x,-y,1/2+z
1/2-x,1/2+y,1/2+z
1/2+x,1/2-y,z
loop_
_atom_site_type_symbol
_atom_site_label
_atom_site_fract_x
_atom_site_fract_y
_atom_site_fract_z
Si Si1 0.329339 0.130136 0.937900
Si Si2 0.499890 0.037311 0.149549
Si Si3 0.122140 0.949409 0.085709
Si Si4 0.965115 0.272960 0.143079
Si Si5 0.527061 0.173115 0.643140
Si Si6 0.089703 0.075702 0.892350
Si Si7 0.702461 0.099772 0.915926
Si Si8 0.602014 0.644400 0.692630
O O1 0.406085 0.141478 0.692413
O O2 0.393823 0.079285 0.088469
O O3 0.351405 0.188502 0.095525
O O4 0.201813 0.114022 0.870962
O O5 0.495157 0.007711 0.418279
O O6 0.615499 0.074250 0.116792
O O7 0.211628 0.948248 0.311587
O O8 0.991613 0.936417 0.158998
O O9 0.127519 0.012167 0.972050
O O10 0.149444 0.894788 0.914446
O O11 0.939697 0.208748 0.229349
O O12 0.033095 0.301985 0.369285
O O13 0.026878 0.280534 0.873700
O O14 0.622531 0.127013 0.707326
O O15 0.002227 0.107424 0.079051
O O16 0.790910 0.147479 0.007656
#
# Coordination Sequence:
#
# PCOD9346355 Si02
#       8
#     4   4   4   4   4   4   4   4
#     4   9  24  41  71  93 147 172 235 278 352 406
#     4  11  25  41  70 107 136 178 222 285 354 411
#     4  11  24  41  69  97 141 181 239 283 348 423
#     4  10  24  47  68 104 139 179 234 288 348 423
#     4   9  23  46  69 103 137 175 231 290 344 415
#     4  11  23  46  62 105 131 189 225 290 343 413
#     4  10  25  42  71  97 140 178 233 284 355 414
#     4  11  26  44  68  98 139 186 233 286 350 413
#
# _framework density 21.838677000000001
#
# number of rings (size 3 to 8) (size 9 to 14) (size 15 to 20)
#    0.750    1.000    1.250    0.750   12.250    2.000 
#    0.000    0.000    0.000    0.000    0.000    0.000 
#    0.000    0.000    0.000    0.000    0.000    0.000 
#
# Total GULP energy -178544.868170 kJ/mol
# GULP energy per Si atom -5579.527130 kJ/mol
# Density = 2.178897 g / cm^3
# Si number density = 21.838677 Si / 1000 Ang^3
#
#
#
# Elastic Constant Matrix: (Units=GPa)
#
#
# Indices 1 2 3 4 5 6 
#
# 1 93.3178 2.6394 3.7402 0.0000 0.0000 0.0000
# 2 2.6394 96.9842 10.7206 0.0000 0.0000 0.0000
# 3 3.7402 10.7206 49.6226 0.0000 0.0000 0.0000
# 4 0.0000 0.0000 0.0000 27.3922 0.0000 0.0000
# 5 0.0000 0.0000 0.0000 0.0000 14.9997 0.0000
# 6 0.0000 0.0000 0.0000 0.0000 0.0000 37.9608
#
#
#
# Elastic Compliance Matrix: (Units=1/GPa)
#
#
# Indices 1 2 3 4 5 6 
#
# 1 0.010753 -0.000208 -0.000766 0.000000 0.000000 0.000000
# 2 -0.000208 0.010567 -0.002267 0.000000 0.000000 0.000000
# 3 -0.000766 -0.002267 0.020700 0.000000 0.000000 0.000000
# 4 0.000000 0.000000 0.000000 0.036507 0.000000 0.000000
# 5 0.000000 0.000000 0.000000 0.000000 0.066668 0.000000
# 6 0.000000 0.000000 0.000000 0.000000 0.000000 0.026343
#
#
# Mechanical properties :
#
#
# Convention : Reuss Voigt Hill
#
# Bulk Modulus (GPa) = 28.13898 30.45832 29.29865
# Shear Modulus (GPa) = 26.33454 30.92551 28.63002
#
# Velocity S-wave (km/s) = 3.47633 3.76718 3.62467
# Velocity P-wave (km/s) = 5.38758 5.73580 5.56442
#
# Compressibility (1/GPa) = 0.03553789
#
# Stress axis : x y z
#
# Youngs Moduli (GPa) = 93.00049 94.63209 48.31001
#
# Poissons Ratio (x) = 0.01968 0.03698
# Poissons Ratio (y) = 0.01935 0.10953
# Poissons Ratio (z) = 0.07119 0.21456
#
# Static dielectric constant tensor:
#      x y z
#    x 1.787730 0.000000 0.000000 
#    y 0.000000 1.757480 0.000000 
#    z 0.000000 0.000000 1.875760 
# 
# From -- ./inp_files/1135.got.cif
#   From: 2010.05.17/outbox.cif.g08.bks.cpg/sg33_1_cif.got.tgz:1135.got - 2010.06.03 17:15:25.
