data_PCOD9346058
_publ_section_title
;
Structure prediction by ZEFSAII (Michael W. Deem and Ramdas Pophale) SiO2 
 PCOD9346058
Probable space group: P N A 21
;
_chemical_formula_sum "Si O2"
_cell_formula_units_Z 32
_cell_length_a 14.307013
_cell_length_b 17.471180
_cell_length_c 5.448020
_cell_angle_alpha 90.000000
_cell_angle_beta 90.000000
_cell_angle_gamma 90.000000
_cell_volume 1361.789255
_symmetry_space_group_name_H-M "P N A 21"
_symmetry_group_IT_number 33
_symmetry_cell_setting 'orthorhombic'
loop_
_space_group_symop_operation_xyz
x,y,z
-x,-y,1/2+z
1/2-x,1/2+y,1/2+z
1/2+x,1/2-y,z
loop_
_atom_site_type_symbol
_atom_site_label
_atom_site_fract_x
_atom_site_fract_y
_atom_site_fract_z
Si Si1 0.033145 0.039568 0.246950
Si Si2 0.230524 0.193701 0.790782
Si Si3 0.106338 0.487917 0.611565
Si Si4 0.838735 0.284508 0.312312
Si Si5 0.691018 0.141648 0.898329
Si Si6 0.474967 0.874223 0.756463
Si Si7 0.636214 0.621452 0.698761
Si Si8 0.699956 0.463410 0.940746
O O1 0.143105 0.041125 0.196805
O O2 0.975317 0.116338 0.186246
O O3 0.006861 0.013429 0.521492
O O4 0.296557 0.179136 0.556725
O O5 0.282346 0.198843 0.058873
O O6 0.182765 0.277096 0.755059
O O7 0.171548 0.115720 0.810212
O O8 0.027128 0.551375 0.640434
O O9 0.188598 0.528495 0.459273
O O10 0.058904 0.411308 0.507974
O O11 0.163836 0.445399 0.824554
O O12 0.944407 0.312211 0.276071
O O13 0.837032 0.194021 0.359174
O O14 0.618096 0.153361 0.121341
O O15 0.801425 0.134968 0.958790
O O16 0.669378 0.541629 0.811591
#
# Coordination Sequence:
#
# PCOD9346058 Si02
#       8
#     4   4   4   4   4   4   4   4
#     4  10  23  42  68 101 133 178 241 293 348 413
#     4  11  27  46  70 104 145 189 239 295 368 423
#     4  12  24  43  71 107 145 190 242 300 363 440
#     4  11  27  47  68 103 149 185 236 305 358 427
#     4  11  25  44  72 103 145 195 241 298 374 438
#     4  12  26  41  72 108 149 187 247 301 372 430
#     4  10  23  47  73  99 141 190 245 293 361 430
#     4  11  23  44  74 101 143 190 243 299 356 441
#
# _framework density 23.498495999999999
#
# number of rings (size 3 to 8) (size 9 to 14) (size 15 to 20)
#    0.000    1.000    3.750    1.500    8.750    5.000 
#    0.000    5.000    0.000    0.000    0.000    0.000 
#    0.000    0.000    0.000    0.000    0.000    0.000 
#
# Total GULP energy -178306.782854 kJ/mol
# GULP energy per Si atom -5572.086964 kJ/mol
# Density = 2.344501 g / cm^3
# Si number density = 23.498496 Si / 1000 Ang^3
#
#
#
# Elastic Constant Matrix: (Units=GPa)
#
#
# Indices 1 2 3 4 5 6 
#
# 1 42.8784 13.3767 16.5481 0.0000 0.0000 0.0000
# 2 13.3767 127.2293 12.2172 0.0000 0.0000 0.0000
# 3 16.5481 12.2172 66.6810 0.0000 0.0000 0.0000
# 4 0.0000 0.0000 0.0000 25.4149 0.0000 0.0000
# 5 0.0000 0.0000 0.0000 0.0000 14.4866 0.0000
# 6 0.0000 0.0000 0.0000 0.0000 0.0000 39.4854
#
#
#
# Elastic Compliance Matrix: (Units=1/GPa)
#
#
# Indices 1 2 3 4 5 6 
#
# 1 0.026374 -0.002183 -0.006145 0.000000 0.000000 0.000000
# 2 -0.002183 0.008181 -0.000957 0.000000 0.000000 0.000000
# 3 -0.006145 -0.000957 0.016697 0.000000 0.000000 0.000000
# 4 0.000000 0.000000 0.000000 0.039347 0.000000 0.000000
# 5 0.000000 0.000000 0.000000 0.000000 0.069029 0.000000
# 6 0.000000 0.000000 0.000000 0.000000 0.000000 0.025326
#
#
# Mechanical properties :
#
#
# Convention : Reuss Voigt Hill
#
# Bulk Modulus (GPa) = 30.59787 35.67475 33.13631
# Shear Modulus (GPa) = 23.31874 28.85384 26.08629
#
# Velocity S-wave (km/s) = 3.15358 3.50794 3.33547
# Velocity P-wave (km/s) = 5.12928 5.62337 5.38200
#
# Compressibility (1/GPa) = 0.03268201
#
# Stress axis : x y z
#
# Youngs Moduli (GPa) = 37.91550 122.23079 59.89008
#
# Poissons Ratio (x) = 0.26681 0.36805
# Poissons Ratio (y) = 0.08276 0.05733
# Poissons Ratio (z) = 0.23300 0.11700
#
# Static dielectric constant tensor:
#      x y z
#    x 1.983810 0.000000 0.000000 
#    y 0.000000 1.963650 0.000000 
#    z 0.000000 0.000000 1.994130 
# 
# From -- ./inp_files/1489.got.cif
#   From: 2010.05.17/outbox.cif.g08.bks.cpg/sg33_1_cif.got.tgz:1489.got - 2010.06.03 17:15:25.
