data_PCOD9346304
_publ_section_title
;
Structure prediction by ZEFSAII (Michael W. Deem and Ramdas Pophale) SiO2 
 PCOD9346304
Probable space group: P N A 21
;
_chemical_formula_sum "Si O2"
_cell_formula_units_Z 28
_cell_length_a 14.159577
_cell_length_b 6.612099
_cell_length_c 11.949987
_cell_angle_alpha 90.000000
_cell_angle_beta 90.000000
_cell_angle_gamma 90.000000
_cell_volume 1118.811856
_symmetry_space_group_name_H-M "P N A 21"
_symmetry_group_IT_number 33
_symmetry_cell_setting 'orthorhombic'
loop_
_space_group_symop_operation_xyz
x,y,z
-x,-y,1/2+z
1/2-x,1/2+y,1/2+z
1/2+x,1/2-y,z
loop_
_atom_site_type_symbol
_atom_site_label
_atom_site_fract_x
_atom_site_fract_y
_atom_site_fract_z
Si Si1 0.438676 0.437166 0.661440
Si Si2 0.887774 0.779153 0.301500
Si Si3 0.188305 0.691344 0.041572
Si Si4 0.519445 0.723555 0.506777
Si Si5 0.159877 0.066254 0.376922
Si Si6 0.174852 0.539710 0.626544
Si Si7 0.772825 0.583307 0.748722
O O1 0.535536 0.379609 0.719594
O O2 0.412649 0.299988 0.553378
O O3 0.457143 0.657147 0.612128
O O4 0.361402 0.442405 0.761848
O O5 0.857947 0.583383 0.234197
O O6 0.944655 0.725258 0.412008
O O7 0.802281 0.939809 0.313938
O O8 0.185087 0.554253 0.151962
O O9 0.256480 0.884759 0.062966
O O10 0.238953 0.569344 0.941656
O O11 0.585011 0.535289 0.461918
O O12 0.591031 0.894935 0.544816
O O13 0.156705 0.297244 0.331155
O O14 0.219233 0.742958 0.677746
#
# Coordination Sequence:
#
# PCOD9346304 Si02
#       7
#     4   4   4   4   4   4   4
#     4  11  23  44  69 108 145 182 249 299 361 450
#     4  10  24  44  70 105 141 192 237 306 369 432
#     4  11  24  44  71 102 139 191 245 295 365 439
#     4  11  23  46  70 104 149 187 242 305 375 432
#     4  11  24  44  75 100 140 197 232 300 370 430
#     4  11  22  46  69  97 143 186 239 297 354 446
#     4  11  22  48  70 100 145 185 250 296 354 455
#
# _framework density 25.026551000000001
#
# number of rings (size 3 to 8) (size 9 to 14) (size 15 to 20)
#    0.000    1.143    4.286    1.714    0.000    4.571 
#   10.286    0.000    0.000    0.000    0.000    0.000 
#    0.000    0.000    0.000    0.000    0.000    0.000 
#
# Total GULP energy -156473.848362 kJ/mol
# GULP energy per Si atom -5588.351727 kJ/mol
# Density = 2.496959 g / cm^3
# Si number density = 25.026551 Si / 1000 Ang^3
#
#
#
# Elastic Constant Matrix: (Units=GPa)
#
#
# Indices 1 2 3 4 5 6 
#
# 1 71.3542 40.3194 34.5077 0.0000 0.0000 0.0000
# 2 40.3194 116.1897 26.6476 0.0000 0.0000 0.0000
# 3 34.5077 26.6476 104.3440 0.0000 0.0000 0.0000
# 4 0.0000 0.0000 0.0000 32.8731 0.0000 0.0000
# 5 0.0000 0.0000 0.0000 0.0000 26.0994 0.0000
# 6 0.0000 0.0000 0.0000 0.0000 0.0000 42.1667
#
#
#
# Elastic Compliance Matrix: (Units=1/GPa)
#
#
# Indices 1 2 3 4 5 6 
#
# 1 0.019659 -0.005663 -0.005055 0.000000 0.000000 0.000000
# 2 -0.005663 0.010773 -0.000879 0.000000 0.000000 0.000000
# 3 -0.005055 -0.000879 0.011480 0.000000 0.000000 0.000000
# 4 0.000000 0.000000 0.000000 0.030420 0.000000 0.000000
# 5 0.000000 0.000000 0.000000 0.000000 0.038315 0.000000
# 6 0.000000 0.000000 0.000000 0.000000 0.000000 0.023715
#
#
# Mechanical properties :
#
#
# Convention : Reuss Voigt Hill
#
# Bulk Modulus (GPa) = 53.42130 54.98190 54.20160
# Shear Modulus (GPa) = 30.52592 32.92206 31.72399
#
# Velocity S-wave (km/s) = 3.49627 3.63090 3.56422
# Velocity P-wave (km/s) = 6.13928 6.29246 6.21634
#
# Compressibility (1/GPa) = 0.01871912
#
# Stress axis : x y z
#
# Youngs Moduli (GPa) = 50.86700 92.82387 87.10863
#
# Poissons Ratio (x) = 0.52562 0.44037
# Poissons Ratio (y) = 0.28804 0.07653
# Poissons Ratio (z) = 0.25715 0.08155
#
# Static dielectric constant tensor:
#      x y z
#    x 2.056210 0.000000 0.000000 
#    y 0.000000 2.031260 0.000000 
#    z 0.000000 0.000000 1.975260 
# 
# From -- ./inp_files/6928.got.cif
#   From: 2010.05.17/outbox.cif.g08.bks.cpg/sg33_4_cif.got.tgz:6928.got - 2010.06.03 17:15:25.
