data_PCOD9346402
_publ_section_title
;
Structure prediction by ZEFSAII (Michael W. Deem and Ramdas Pophale) SiO2 
 PCOD9346402
Probable space group: P N A 21
;
_chemical_formula_sum "Si O2"
_cell_formula_units_Z 32
_cell_length_a 14.508268
_cell_length_b 5.164142
_cell_length_c 16.948450
_cell_angle_alpha 90.000000
_cell_angle_beta 90.000000
_cell_angle_gamma 90.000000
_cell_volume 1269.824586
_symmetry_space_group_name_H-M "P N A 21"
_symmetry_group_IT_number 33
_symmetry_cell_setting 'orthorhombic'
loop_
_space_group_symop_operation_xyz
x,y,z
-x,-y,1/2+z
1/2-x,1/2+y,1/2+z
1/2+x,1/2-y,z
loop_
_atom_site_type_symbol
_atom_site_label
_atom_site_fract_x
_atom_site_fract_y
_atom_site_fract_z
Si Si1 0.514759 0.232106 0.345470
Si Si2 0.834244 0.659567 0.583500
Si Si3 0.356772 0.582219 0.067740
Si Si4 0.792092 0.782163 0.910553
Si Si5 0.436122 0.349228 0.513889
Si Si6 0.216067 0.241086 0.835956
Si Si7 0.880026 0.385498 0.737329
Si Si8 0.940775 0.878310 0.230715
O O1 0.611540 0.368955 0.369577
O O2 0.452399 0.275755 0.421815
O O3 0.463170 0.342707 0.268607
O O4 0.564230 0.969690 0.316559
O O5 0.724402 0.629689 0.570588
O O6 0.870753 0.916469 0.541380
O O7 0.853073 0.618716 0.678156
O O8 0.891982 0.413436 0.549414
O O9 0.462205 0.545836 0.039896
O O10 0.371990 0.651350 0.158183
O O11 0.317456 0.774694 0.001008
O O12 0.743227 0.539002 0.870507
O O13 0.731051 0.035531 0.898764
O O14 0.289205 0.264022 0.763971
O O15 0.113758 0.256660 0.802255
O O16 0.960824 0.217185 0.699678
#
# Coordination Sequence:
#
# PCOD9346402 Si02
#       8
#     4   4   4   4   4   4   4   4
#     4  10  25  44  73 102 142 193 243 299 371 430
#     4  12  27  48  74 108 150 198 247 311 383 448
#     4  11  26  48  74 111 149 200 252 309 381 450
#     4  10  25  48  70 101 147 186 244 304 356 440
#     4  11  28  49  75 107 153 196 251 313 370 457
#     4  11  25  45  71 103 139 189 240 298 365 431
#     4  11  24  47  70 104 150 184 244 309 366 443
#     4  12  24  45  71 108 140 194 243 303 370 445
#
# _framework density 25.200333000000001
#
# number of rings (size 3 to 8) (size 9 to 14) (size 15 to 20)
#    0.000    1.000    3.750    0.750    7.000    4.000 
#    4.500    0.000    0.000    0.000    0.000    0.000 
#    0.000    0.000    0.000    0.000    0.000    0.000 
#
# Total GULP energy -178541.162494 kJ/mol
# GULP energy per Si atom -5579.411328 kJ/mol
# Density = 2.514298 g / cm^3
# Si number density = 25.200333 Si / 1000 Ang^3
#
#
#
# Elastic Constant Matrix: (Units=GPa)
#
#
# Indices 1 2 3 4 5 6 
#
# 1 155.8316 19.1555 26.9721 0.0000 0.0000 0.0000
# 2 19.1555 81.9164 12.4583 0.0000 0.0000 0.0000
# 3 26.9721 12.4583 100.3108 0.0000 0.0000 0.0000
# 4 0.0000 0.0000 0.0000 24.9533 0.0000 0.0000
# 5 0.0000 0.0000 0.0000 0.0000 38.6511 0.0000
# 6 0.0000 0.0000 0.0000 0.0000 0.0000 31.7328
#
#
#
# Elastic Compliance Matrix: (Units=1/GPa)
#
#
# Indices 1 2 3 4 5 6 
#
# 1 0.006874 -0.001352 -0.001680 0.000000 0.000000 0.000000
# 2 -0.001352 0.012708 -0.001215 0.000000 0.000000 0.000000
# 3 -0.001680 -0.001215 0.010572 0.000000 0.000000 0.000000
# 4 0.000000 0.000000 0.000000 0.040075 0.000000 0.000000
# 5 0.000000 0.000000 0.000000 0.000000 0.025872 0.000000
# 6 0.000000 0.000000 0.000000 0.000000 0.000000 0.031513
#
#
# Mechanical properties :
#
#
# Convention : Reuss Voigt Hill
#
# Bulk Modulus (GPa) = 46.16810 50.58119 48.37465
# Shear Modulus (GPa) = 34.88469 37.69897 36.29183
#
# Velocity S-wave (km/s) = 3.72465 3.87197 3.79903
# Velocity P-wave (km/s) = 6.07104 6.33283 6.20332
#
# Compressibility (1/GPa) = 0.02165998
#
# Stress axis : x y z
#
# Youngs Moduli (GPa) = 145.47084 78.68776 94.59167
#
# Poissons Ratio (x) = 0.10638 0.15896
# Poissons Ratio (y) = 0.19666 0.11491
# Poissons Ratio (z) = 0.24446 0.09559
#
# Static dielectric constant tensor:
#      x y z
#    x 2.002420 0.000000 0.000000 
#    y 0.000000 1.981270 0.000000 
#    z 0.000000 0.000000 2.108190 
# 
# From -- ./inp_files/8801.got.cif
#   From: 2010.05.17/outbox.cif.g08.bks.cpg/sg33_5_cif.got.tgz:8801.got - 2010.06.03 17:15:25.
