data_PCOD9346367
_publ_section_title
;
Structure prediction by ZEFSAII (Michael W. Deem and Ramdas Pophale) SiO2 
 PCOD9346367
Probable space group: P N A 21
;
_chemical_formula_sum "Si O2"
_cell_formula_units_Z 28
_cell_length_a 19.365848
_cell_length_b 5.540348
_cell_length_c 9.017831
_cell_angle_alpha 90.000000
_cell_angle_beta 90.000000
_cell_angle_gamma 90.000000
_cell_volume 967.554986
_symmetry_space_group_name_H-M "P N A 21"
_symmetry_group_IT_number 33
_symmetry_cell_setting 'orthorhombic'
loop_
_space_group_symop_operation_xyz
x,y,z
-x,-y,1/2+z
1/2-x,1/2+y,1/2+z
1/2+x,1/2-y,z
loop_
_atom_site_type_symbol
_atom_site_label
_atom_site_fract_x
_atom_site_fract_y
_atom_site_fract_z
Si Si1 0.630565 0.786263 0.356190
Si Si2 0.293349 0.416227 0.463556
Si Si3 0.055879 0.955557 0.106572
Si Si4 0.911553 0.586404 0.304544
Si Si5 0.873066 0.083354 0.174426
Si Si6 0.256356 0.904046 0.425915
Si Si7 0.536494 0.188976 0.375839
O O1 0.574055 0.744720 0.229800
O O2 0.703775 0.679788 0.295081
O O3 0.632718 0.608978 0.498272
O O4 0.610384 0.057293 0.404108
O O5 0.371873 0.448800 0.517625
O O6 0.306027 0.420517 0.282929
O O7 0.252627 0.652362 0.517272
O O8 0.251826 0.171175 0.490742
O O9 0.998453 0.887752 0.985118
O O10 0.045352 0.186785 0.213351
O O11 0.908304 0.338923 0.212363
O O12 0.979095 0.525503 0.399702
O O13 0.837716 0.589291 0.384248
O O14 0.913713 0.840755 0.221060
#
# Coordination Sequence:
#
# PCOD9346367 Si02
#       7
#     4   4   4   4   4   4   4
#     4  12  32  46  85 131 179 225 310 374 452 558
#     4  10  24  51  85 115 169 232 294 361 459 530
#     4  12  31  52  86 126 183 239 309 376 465 551
#     4  10  24  52  84 109 170 230 286 356 463 522
#     4  10  24  48  77 117 160 226 278 359 439 532
#     4  10  24  51  85 125 169 231 298 370 450 542
#     4  12  31  54  84 131 184 243 309 386 462 559
#
# _framework density 28.938924
#
# number of rings (size 3 to 8) (size 9 to 14) (size 15 to 20)
#    0.000    1.143    2.857    0.000   12.000    4.571 
#    2.571    0.000    0.000    0.000    0.000    0.000 
#    0.000    0.000    0.000    0.000    0.000    0.000 
#
# Total GULP energy -156234.567890 kJ/mol
# GULP energy per Si atom -5579.805996 kJ/mol
# Density = 2.887306 g / cm^3
# Si number density = 28.938924 Si / 1000 Ang^3
#
#
#
# Elastic Constant Matrix: (Units=GPa)
#
#
# Indices 1 2 3 4 5 6 
#
# 1 148.4556 75.1431 40.1642 0.0000 0.0000 0.0000
# 2 75.1431 261.6866 65.7670 0.0000 0.0000 0.0000
# 3 40.1642 65.7670 136.2787 0.0000 0.0000 0.0000
# 4 0.0000 0.0000 0.0000 47.6726 0.0000 0.0000
# 5 0.0000 0.0000 0.0000 0.0000 46.9983 0.0000
# 6 0.0000 0.0000 0.0000 0.0000 0.0000 66.3040
#
#
#
# Elastic Compliance Matrix: (Units=1/GPa)
#
#
# Indices 1 2 3 4 5 6 
#
# 1 0.008124 -0.001970 -0.001444 0.000000 0.000000 0.000000
# 2 -0.001970 0.004826 -0.001749 0.000000 0.000000 0.000000
# 3 -0.001444 -0.001749 0.008607 0.000000 0.000000 0.000000
# 4 0.000000 0.000000 0.000000 0.020976 0.000000 0.000000
# 5 0.000000 0.000000 0.000000 0.000000 0.021277 0.000000
# 6 0.000000 0.000000 0.000000 0.000000 0.000000 0.015082
#
#
# Mechanical properties :
#
#
# Convention : Reuss Voigt Hill
#
# Bulk Modulus (GPa) = 89.02213 100.95219 94.98716
# Shear Modulus (GPa) = 53.78550 56.55141 55.16846
#
# Velocity S-wave (km/s) = 4.31581 4.42539 4.37094
# Velocity P-wave (km/s) = 7.46082 7.81488 7.63990
#
# Compressibility (1/GPa) = 0.01123316
#
# Stress axis : x y z
#
# Youngs Moduli (GPa) = 123.09702 207.18969 116.18136
#
# Poissons Ratio (x) = 0.40815 0.16771
# Poissons Ratio (y) = 0.24249 0.20316
# Poissons Ratio (z) = 0.17770 0.36230
#
# Static dielectric constant tensor:
#      x y z
#    x 2.612230 0.000000 0.000000 
#    y 0.000000 2.251480 0.000000 
#    z 0.000000 0.000000 2.343710 
# 
# From -- ./inp_files/8304.got.cif
#   From: 2010.05.17/outbox.cif.g08.bks.cpg/sg33_5_cif.got.tgz:8304.got - 2010.06.03 17:15:25.
