data_PCOD9346755
_publ_section_title
;
Structure prediction by ZEFSAII (Michael W. Deem and Ramdas Pophale) SiO2 
 PCOD9346755
Probable space group: P N A 21
;
_chemical_formula_sum "Si O2"
_cell_formula_units_Z 20
_cell_length_a 16.996851
_cell_length_b 7.368093
_cell_length_c 6.812909
_cell_angle_alpha 90.000000
_cell_angle_beta 90.000000
_cell_angle_gamma 90.000000
_cell_volume 853.210427
_symmetry_space_group_name_H-M "P N A 21"
_symmetry_group_IT_number 33
_symmetry_cell_setting 'orthorhombic'
loop_
_space_group_symop_operation_xyz
x,y,z
-x,-y,1/2+z
1/2-x,1/2+y,1/2+z
1/2+x,1/2-y,z
loop_
_atom_site_type_symbol
_atom_site_label
_atom_site_fract_x
_atom_site_fract_y
_atom_site_fract_z
Si Si1 0.101044 0.459505 0.132180
Si Si2 0.754576 0.490486 0.368566
Si Si3 0.900309 0.124512 0.691894
Si Si4 0.341146 0.833107 0.034073
Si Si5 0.560482 0.351847 0.873204
O O1 0.083945 0.671834 0.120564
O O2 0.105937 0.402727 0.357202
O O3 0.187514 0.433844 0.035019
O O4 0.046422 0.327686 0.005706
O O5 0.676527 0.607664 0.326403
O O6 0.725981 0.293644 0.437917
O O7 0.803779 0.507840 0.166616
O O8 0.977756 0.064597 0.809767
O O9 0.891750 0.990409 0.508563
O O10 0.390451 0.709456 0.184399
#
# Coordination Sequence:
#
# PCOD9346755 Si02
#       5
#     4   4   4   4   4
#     4  11  27  47  75 108 145 198 245 308 365 443
#     4  11  24  45  73 109 143 188 247 299 367 434
#     4  12  26  48  76 105 149 196 241 312 373 432
#     4  11  25  47  72 107 147 189 249 300 368 441
#     4  11  28  49  70 111 148 193 250 303 373 450
#
# _framework density 23.440877
#
# number of rings (size 3 to 8) (size 9 to 14) (size 15 to 20)
#    0.000    0.800    4.000    1.200    8.400    0.000 
#    7.200    0.000    0.000    0.000    0.000    0.000 
#    0.000    0.000    0.000    0.000    0.000    0.000 
#
# Total GULP energy -111987.751777 kJ/mol
# GULP energy per Si atom -5599.387589 kJ/mol
# Density = 2.338752 g / cm^3
# Si number density = 23.440877 Si / 1000 Ang^3
#
#
#
# Elastic Constant Matrix: (Units=GPa)
#
#
# Indices 1 2 3 4 5 6 
#
# 1 66.5622 -11.3599 22.3750 0.0000 0.0000 0.0000
# 2 -11.3599 92.3337 51.6121 0.0000 0.0000 0.0000
# 3 22.3750 51.6121 127.2839 0.0000 0.0000 0.0000
# 4 0.0000 0.0000 0.0000 30.0519 0.0000 0.0000
# 5 0.0000 0.0000 0.0000 0.0000 26.3858 0.0000
# 6 0.0000 0.0000 0.0000 0.0000 0.0000 27.5154
#
#
#
# Elastic Compliance Matrix: (Units=1/GPa)
#
#
# Indices 1 2 3 4 5 6 
#
# 1 0.017611 0.005039 -0.005139 0.000000 0.000000 0.000000
# 2 0.005039 0.015447 -0.007149 0.000000 0.000000 0.000000
# 3 -0.005139 -0.007149 0.011659 0.000000 0.000000 0.000000
# 4 0.000000 0.000000 0.000000 0.033276 0.000000 0.000000
# 5 0.000000 0.000000 0.000000 0.000000 0.037899 0.000000
# 6 0.000000 0.000000 0.000000 0.000000 0.000000 0.036343
#
#
# Mechanical properties :
#
#
# Convention : Reuss Voigt Hill
#
# Bulk Modulus (GPa) = 33.09249 45.71492 39.40370
# Shear Modulus (GPa) = 28.27964 31.69413 29.98689
#
# Velocity S-wave (km/s) = 3.47713 3.68106 3.58055
# Velocity P-wave (km/s) = 5.50170 6.13282 5.82581
#
# Compressibility (1/GPa) = 0.03021834
#
# Stress axis : x y z
#
# Youngs Moduli (GPa) = 56.78213 64.73945 85.77205
#
# Poissons Ratio (x) = -0.32625 0.44081
# Poissons Ratio (y) = -0.28615 0.61321
# Poissons Ratio (z) = 0.29182 0.46284
#
# Static dielectric constant tensor:
#      x y z
#    x 1.882990 0.000000 0.000000 
#    y 0.000000 1.878770 0.000000 
#    z 0.000000 0.000000 1.866280 
# 
# From -- ./inp_files/1645.got.cif
#   From: 2010.05.17/outbox.cif.g08.bks.cpg/sg33_1_cif.got.tgz:1645.got - 2010.06.03 17:15:25.
