data_PCOD9346980
_publ_section_title
;
Structure prediction by ZEFSAII (Michael W. Deem and Ramdas Pophale) SiO2 
 PCOD9346980
Probable space group: P N A 21
;
_chemical_formula_sum "Si O2"
_cell_formula_units_Z 24
_cell_length_a 14.076619
_cell_length_b 5.926897
_cell_length_c 12.129901
_cell_angle_alpha 90.000000
_cell_angle_beta 90.000000
_cell_angle_gamma 90.000000
_cell_volume 1012.005779
_symmetry_space_group_name_H-M "P N A 21"
_symmetry_group_IT_number 33
_symmetry_cell_setting 'orthorhombic'
loop_
_space_group_symop_operation_xyz
x,y,z
-x,-y,1/2+z
1/2-x,1/2+y,1/2+z
1/2+x,1/2-y,z
loop_
_atom_site_type_symbol
_atom_site_label
_atom_site_fract_x
_atom_site_fract_y
_atom_site_fract_z
Si Si1 0.969689 0.508610 0.246510
Si Si2 0.390465 0.649181 0.410601
Si Si3 0.630496 0.342860 0.279980
Si Si4 0.818617 0.160251 0.212269
Si Si5 0.407648 0.304507 0.594813
Si Si6 0.261509 0.505146 0.996468
O O1 0.960360 0.675771 0.350125
O O2 0.866456 0.404946 0.221649
O O3 0.033656 0.295754 0.281338
O O4 0.014361 0.627638 0.138874
O O5 0.354285 0.491704 0.311677
O O6 0.435863 0.495632 0.505928
O O7 0.300973 0.788504 0.459111
O O8 0.705873 0.181770 0.219927
O O9 0.620553 0.563540 0.205704
O O10 0.678728 0.400154 0.395097
O O11 0.834481 0.053491 0.093699
O O12 0.317091 0.182679 0.539740
#
# Coordination Sequence:
#
# PCOD9346980 Si02
#       6
#     4   4   4   4   4   4
#     4  12  28  52  74 122 162 202 270 320 392 472
#     4  12  25  51  79 112 156 205 263 324 391 470
#     4  12  26  53  78 114 155 211 259 325 391 468
#     4  12  26  53  78 114 155 211 259 325 391 468
#     4  12  25  51  79 112 156 205 263 324 391 470
#     4  12  26  50  84 108 152 206 262 330 392 460
#
# _framework density 23.715278999999999
#
# number of rings (size 3 to 8) (size 9 to 14) (size 15 to 20)
#    0.000    0.000    6.667    2.000    0.000    0.000 
#   30.000    0.000    0.000    0.000    0.000    0.000 
#    0.000    0.000    0.000    0.000    0.000    0.000 
#
# Total GULP energy -134530.702390 kJ/mol
# GULP energy per Si atom -5605.445933 kJ/mol
# Density = 2.366130 g / cm^3
# Si number density = 23.715279 Si / 1000 Ang^3
#
#
#
# Elastic Constant Matrix: (Units=GPa)
#
#
# Indices 1 2 3 4 5 6 
#
# 1 60.4002 12.8524 11.6425 0.0000 0.0000 0.0000
# 2 12.8524 84.8251 34.5634 0.0000 0.0000 0.0000
# 3 11.6425 34.5634 123.2743 0.0000 0.0000 0.0000
# 4 0.0000 0.0000 0.0000 56.9264 0.0000 0.0000
# 5 0.0000 0.0000 0.0000 0.0000 24.3080 0.0000
# 6 0.0000 0.0000 0.0000 0.0000 0.0000 20.1973
#
#
#
# Elastic Compliance Matrix: (Units=1/GPa)
#
#
# Indices 1 2 3 4 5 6 
#
# 1 0.017219 -0.002197 -0.001010 0.000000 0.000000 0.000000
# 2 -0.002197 0.013590 -0.003603 0.000000 0.000000 0.000000
# 3 -0.001010 -0.003603 0.009218 0.000000 0.000000 0.000000
# 4 0.000000 0.000000 0.000000 0.017567 0.000000 0.000000
# 5 0.000000 0.000000 0.000000 0.000000 0.041139 0.000000
# 6 0.000000 0.000000 0.000000 0.000000 0.000000 0.049512
#
#
# Mechanical properties :
#
#
# Convention : Reuss Voigt Hill
#
# Bulk Modulus (GPa) = 37.87084 42.95737 40.41410
# Shear Modulus (GPa) = 29.29714 34.24908 31.77311
#
# Velocity S-wave (km/s) = 3.51860 3.80436 3.66426
# Velocity P-wave (km/s) = 5.70184 6.11969 5.91446
#
# Compressibility (1/GPa) = 0.02640554
#
# Stress axis : x y z
#
# Youngs Moduli (GPa) = 58.07701 73.58403 108.48888
#
# Poissons Ratio (x) = 0.16169 0.10959
# Poissons Ratio (y) = 0.12761 0.39086
# Poissons Ratio (z) = 0.05866 0.26511
#
# Static dielectric constant tensor:
#      x y z
#    x 1.860120 0.000000 0.000000 
#    y 0.000000 1.920390 0.000000 
#    z 0.000000 0.000000 1.872660 
# 
# From -- ./inp_files/6619.got.cif
#   From: 2010.05.17/outbox.cif.g08.bks.cpg/sg33_4_cif.got.tgz:6619.got - 2010.06.03 17:15:25.
