data_PCOD9346235
_publ_section_title
;
Structure prediction by ZEFSAII (Michael W. Deem and Ramdas Pophale) SiO2 
 PCOD9346235
Probable space group: P N A 21
;
_chemical_formula_sum "Si O2"
_cell_formula_units_Z 28
_cell_length_a 5.148022
_cell_length_b 20.420403
_cell_length_c 9.910111
_cell_angle_alpha 90.000000
_cell_angle_beta 90.000000
_cell_angle_gamma 90.000000
_cell_volume 1041.797286
_symmetry_space_group_name_H-M "P N A 21"
_symmetry_group_IT_number 33
_symmetry_cell_setting 'orthorhombic'
loop_
_space_group_symop_operation_xyz
x,y,z
-x,-y,1/2+z
1/2-x,1/2+y,1/2+z
1/2+x,1/2-y,z
loop_
_atom_site_type_symbol
_atom_site_label
_atom_site_fract_x
_atom_site_fract_y
_atom_site_fract_z
Si Si1 0.986633 0.771993 0.268330
Si Si2 0.033743 0.119205 0.343541
Si Si3 0.210389 0.402727 0.068848
Si Si4 0.388213 0.202684 0.182597
Si Si5 0.495954 0.965907 0.169266
Si Si6 0.996630 0.972358 0.348871
Si Si7 0.789112 0.663151 0.078197
O O1 0.724680 0.760442 0.345864
O O2 0.949562 0.724433 0.135990
O O3 0.374736 0.745615 0.684322
O O4 0.310994 0.151349 0.304710
O O5 0.879189 0.110341 0.203049
O O6 0.927746 0.161095 0.699889
O O7 0.017235 0.046617 0.410300
O O8 0.991638 0.347094 0.067179
O O9 0.065791 0.471640 0.081948
O O10 0.411763 0.415292 0.949285
O O11 0.867872 0.165899 0.441061
O O12 0.215844 0.977570 0.234105
O O13 0.472807 0.899208 0.086911
O O14 0.714300 0.961639 0.285226
#
# Coordination Sequence:
#
# PCOD9346235 Si02
#       7
#     4   4   4   4   4   4   4
#     4   8  20  38  62  98 139 183 227 299 371 448
#     4  11  26  45  74 115 147 204 246 333 391 471
#     4  11  27  50  76 108 157 192 268 316 405 467
#     4  12  26  46  77 110 157 205 260 324 394 478
#     4  11  27  45  77 110 143 202 252 326 391 468
#     4  11  28  47  75 106 149 197 259 318 391 471
#     4  10  24  41  73 103 154 183 254 306 399 457
#
# _framework density 26.876632000000001
#
# number of rings (size 3 to 8) (size 9 to 14) (size 15 to 20)
#    0.857    0.571    2.857    0.000   14.000    1.143 
#    0.000    0.000    9.429    0.000    0.000    0.000 
#    0.000    0.000    0.000    0.000    0.000    0.000 
#
# Total GULP energy -156564.841287 kJ/mol
# GULP energy per Si atom -5591.601475 kJ/mol
# Density = 2.681546 g / cm^3
# Si number density = 26.876632 Si / 1000 Ang^3
#
#
#
# Elastic Constant Matrix: (Units=GPa)
#
#
# Indices 1 2 3 4 5 6 
#
# 1 171.9554 48.9228 33.2264 0.0000 0.0000 0.0000
# 2 48.9228 135.8193 44.7052 0.0000 0.0000 0.0000
# 3 33.2264 44.7052 91.2358 0.0000 0.0000 0.0000
# 4 0.0000 0.0000 0.0000 38.3257 0.0000 0.0000
# 5 0.0000 0.0000 0.0000 0.0000 37.6986 0.0000
# 6 0.0000 0.0000 0.0000 0.0000 0.0000 54.8256
#
#
#
# Elastic Compliance Matrix: (Units=1/GPa)
#
#
# Indices 1 2 3 4 5 6 
#
# 1 0.006644 -0.001904 -0.001487 0.000000 0.000000 0.000000
# 2 -0.001904 0.009324 -0.003875 0.000000 0.000000 0.000000
# 3 -0.001487 -0.003875 0.013401 0.000000 0.000000 0.000000
# 4 0.000000 0.000000 0.000000 0.026092 0.000000 0.000000
# 5 0.000000 0.000000 0.000000 0.000000 0.026526 0.000000
# 6 0.000000 0.000000 0.000000 0.000000 0.000000 0.018240
#
#
# Mechanical properties :
#
#
# Convention : Reuss Voigt Hill
#
# Bulk Modulus (GPa) = 67.39828 72.52438 69.96133
# Shear Modulus (GPa) = 41.76910 44.31374 43.04142
#
# Velocity S-wave (km/s) = 3.94649 4.06493 4.00615
# Velocity P-wave (km/s) = 6.77479 7.00530 6.89101
#
# Compressibility (1/GPa) = 0.01483717
#
# Stress axis : x y z
#
# Youngs Moduli (GPa) = 150.50143 107.24855 74.62117
#
# Poissons Ratio (x) = 0.20420 0.11095
# Poissons Ratio (y) = 0.28655 0.28919
# Poissons Ratio (z) = 0.22377 0.41563
#
# Static dielectric constant tensor:
#      x y z
#    x 2.173840 0.000000 0.000000 
#    y 0.000000 2.151970 0.000000 
#    z 0.000000 0.000000 2.081260 
# 
# From -- ./inp_files/5529.got.cif
#   From: 2010.05.17/outbox.cif.g08.bks.cpg/sg33_3_cif.got.tgz:5529.got - 2010.06.03 17:15:25.
