data_PCOD9346196
_publ_section_title
;
Structure prediction by ZEFSAII (Michael W. Deem and Ramdas Pophale) SiO2 
 PCOD9346196
Probable space group: P N A 21
;
_chemical_formula_sum "Si O2"
_cell_formula_units_Z 32
_cell_length_a 18.271328
_cell_length_b 12.608984
_cell_length_c 5.248743
_cell_angle_alpha 90.000000
_cell_angle_beta 90.000000
_cell_angle_gamma 90.000000
_cell_volume 1209.220541
_symmetry_space_group_name_H-M "P N A 21"
_symmetry_group_IT_number 33
_symmetry_cell_setting 'orthorhombic'
loop_
_space_group_symop_operation_xyz
x,y,z
-x,-y,1/2+z
1/2-x,1/2+y,1/2+z
1/2+x,1/2-y,z
loop_
_atom_site_type_symbol
_atom_site_label
_atom_site_fract_x
_atom_site_fract_y
_atom_site_fract_z
Si Si1 0.086171 0.581669 0.107210
Si Si2 0.037779 0.952370 0.127381
Si Si3 0.305243 0.523479 0.509269
Si Si4 0.458031 0.265521 0.262072
Si Si5 0.313661 0.344458 0.086841
Si Si6 0.186147 0.247306 0.762871
Si Si7 0.773389 0.363120 0.396489
Si Si8 0.449733 0.852371 0.437415
O O1 0.027134 0.620155 0.308866
O O2 0.065721 0.646960 0.850803
O O3 0.171860 0.609004 0.129680
O O4 0.077346 0.457177 0.078441
O O5 0.033224 0.833171 0.018744
O O6 0.124122 0.977473 0.155167
O O7 0.007983 0.016553 0.876325
O O8 0.296079 0.448705 0.258722
O O9 0.321614 0.645825 0.445698
O O10 0.237655 0.540000 0.703928
O O11 0.401875 0.328532 0.075476
O O12 0.533766 0.245145 0.122415
O O13 0.302554 0.242587 0.267313
O O14 0.257263 0.316108 0.857956
O O15 0.198719 0.182565 0.506178
O O16 0.115021 0.318830 0.751722
#
# Coordination Sequence:
#
# PCOD9346196 Si02
#       8
#     4   4   4   4   4   4   4   4
#     4  11  25  45  70 104 149 200 248 321 391 475
#     4  11  26  45  75 111 154 204 254 330 399 469
#     4  10  24  45  69 105 146 199 265 318 402 475
#     4  10  23  47  70  99 150 193 256 313 393 474
#     4   9  22  46  67  99 143 199 248 323 393 470
#     4  11  25  41  71 107 143 192 256 330 383 481
#     4  10  24  45  70 106 146 196 255 322 391 476
#     4  12  25  44  70 111 145 203 256 321 396 474
#
# _framework density 26.463331
#
# number of rings (size 3 to 8) (size 9 to 14) (size 15 to 20)
#    0.000    1.500    1.250    1.500    8.750    2.000 
#    4.500    0.000    0.000    0.000    0.000    0.000 
#    0.000    0.000    0.000    0.000    0.000    0.000 
#
# Total GULP energy -178921.622205 kJ/mol
# GULP energy per Si atom -5591.300694 kJ/mol
# Density = 2.640310 g / cm^3
# Si number density = 26.463331 Si / 1000 Ang^3
#
#
#
# Elastic Constant Matrix: (Units=GPa)
#
#
# Indices 1 2 3 4 5 6 
#
# 1 79.8248 49.1646 21.9982 0.0000 0.0000 0.0000
# 2 49.1646 150.0209 26.7533 0.0000 0.0000 0.0000
# 3 21.9982 26.7533 76.5911 0.0000 0.0000 0.0000
# 4 0.0000 0.0000 0.0000 38.0422 0.0000 0.0000
# 5 0.0000 0.0000 0.0000 0.0000 32.1221 0.0000
# 6 0.0000 0.0000 0.0000 0.0000 0.0000 45.5737
#
#
#
# Elastic Compliance Matrix: (Units=1/GPa)
#
#
# Indices 1 2 3 4 5 6 
#
# 1 0.016320 -0.004812 -0.003006 0.000000 0.000000 0.000000
# 2 -0.004812 0.008527 -0.001597 0.000000 0.000000 0.000000
# 3 -0.003006 -0.001597 0.014478 0.000000 0.000000 0.000000
# 4 0.000000 0.000000 0.000000 0.026287 0.000000 0.000000
# 5 0.000000 0.000000 0.000000 0.000000 0.031131 0.000000
# 6 0.000000 0.000000 0.000000 0.000000 0.000000 0.021942
#
#
# Mechanical properties :
#
#
# Convention : Reuss Voigt Hill
#
# Bulk Modulus (GPa) = 48.79339 55.80766 52.30053
# Shear Modulus (GPa) = 34.63880 37.04897 35.84389
#
# Velocity S-wave (km/s) = 3.62185 3.74573 3.68431
# Velocity P-wave (km/s) = 5.99737 6.31204 6.15672
#
# Compressibility (1/GPa) = 0.02049458
#
# Stress axis : x y z
#
# Youngs Moduli (GPa) = 61.27539 117.26803 69.07264
#
# Poissons Ratio (x) = 0.56431 0.20766
# Poissons Ratio (y) = 0.29487 0.11028
# Poissons Ratio (z) = 0.18422 0.18722
#
# Static dielectric constant tensor:
#      x y z
#    x 2.230100 0.000000 0.000000 
#    y 0.000000 2.053330 0.000000 
#    z 0.000000 0.000000 2.112810 
# 
# From -- ./inp_files/2089.got.cif
#   From: 2010.05.17/outbox.cif.g08.bks.cpg/sg33_2_cif.got.tgz:2089.got - 2010.06.03 17:15:25.
