data_PCOD9346101
_publ_section_title
;
Structure prediction by ZEFSAII (Michael W. Deem and Ramdas Pophale) SiO2 
 PCOD9346101
Probable space group: P N A 21
;
_chemical_formula_sum "Si O2"
_cell_formula_units_Z 28
_cell_length_a 13.638446
_cell_length_b 11.239646
_cell_length_c 8.417043
_cell_angle_alpha 90.000000
_cell_angle_beta 90.000000
_cell_angle_gamma 90.000000
_cell_volume 1290.259506
_symmetry_space_group_name_H-M "P N A 21"
_symmetry_group_IT_number 33
_symmetry_cell_setting 'orthorhombic'
loop_
_space_group_symop_operation_xyz
x,y,z
-x,-y,1/2+z
1/2-x,1/2+y,1/2+z
1/2+x,1/2-y,z
loop_
_atom_site_type_symbol
_atom_site_label
_atom_site_fract_x
_atom_site_fract_y
_atom_site_fract_z
Si Si1 0.599153 0.474241 0.652960
Si Si2 0.309390 0.021720 0.572041
Si Si3 0.146151 0.446501 0.711628
Si Si4 0.510909 0.131682 0.155724
Si Si5 0.497743 0.349734 0.363946
Si Si6 0.518187 0.263061 0.823996
Si Si7 0.833819 0.198165 0.612685
O O1 0.706966 0.526599 0.638300
O O2 0.572705 0.411328 0.485735
O O3 0.520680 0.571686 0.707661
O O4 0.588995 0.373952 0.788869
O O5 0.304785 0.164112 0.589138
O O6 0.323650 0.984083 0.389774
O O7 0.401867 0.963930 0.659821
O O8 0.091835 0.561686 0.642060
O O9 0.063156 0.344083 0.719707
O O10 0.241510 0.387495 0.634867
O O11 0.519826 0.216367 0.308310
O O12 0.520079 0.213653 0.000592
O O13 0.397272 0.343766 0.462967
O O14 0.411077 0.300622 0.760222
#
# Coordination Sequence:
#
# PCOD9346101 Si02
#       7
#     4   4   4   4   4   4   4
#     4  11  25  46  68 101 143 185 233 290 357 417
#     4  11  24  43  71 103 141 180 236 286 353 416
#     4  11  23  43  71 106 135 183 232 294 344 420
#     4  11  24  46  73 102 138 186 239 289 351 414
#     4  11  26  45  70 100 144 187 232 292 356 414
#     4  10  23  43  70  96 142 182 231 284 353 410
#     4  11  23  44  69 102 139 185 229 289 354 413
#
# _framework density 21.701060999999999
#
# number of rings (size 3 to 8) (size 9 to 14) (size 15 to 20)
#    0.000    1.143    4.286    0.857    6.000    2.286 
#    0.000    0.000    0.000    0.000    0.000    0.000 
#    0.000    0.000    0.000    0.000    0.000    0.000 
#
# Total GULP energy -156519.708762 kJ/mol
# GULP energy per Si atom -5589.989599 kJ/mol
# Density = 2.165167 g / cm^3
# Si number density = 21.701061 Si / 1000 Ang^3
#
#
#
# Elastic Constant Matrix: (Units=GPa)
#
#
# Indices 1 2 3 4 5 6 
#
# 1 118.2004 37.9226 50.4006 0.0000 0.0000 0.0000
# 2 37.9226 85.3013 25.7360 0.0000 0.0000 0.0000
# 3 50.4006 25.7360 49.6619 0.0000 0.0000 0.0000
# 4 0.0000 0.0000 0.0000 34.8721 0.0000 0.0000
# 5 0.0000 0.0000 0.0000 0.0000 26.5663 0.0000
# 6 0.0000 0.0000 0.0000 0.0000 0.0000 11.6344
#
#
#
# Elastic Compliance Matrix: (Units=1/GPa)
#
#
# Indices 1 2 3 4 5 6 
#
# 1 0.015358 -0.002519 -0.014281 0.000000 0.000000 0.000000
# 2 -0.002519 0.014309 -0.004859 0.000000 0.000000 0.000000
# 3 -0.014281 -0.004859 0.037147 0.000000 0.000000 0.000000
# 4 0.000000 0.000000 0.000000 0.028676 0.000000 0.000000
# 5 0.000000 0.000000 0.000000 0.000000 0.037642 0.000000
# 6 0.000000 0.000000 0.000000 0.000000 0.000000 0.085952
#
#
# Mechanical properties :
#
#
# Convention : Reuss Voigt Hill
#
# Bulk Modulus (GPa) = 42.55882 53.47577 48.01730
# Shear Modulus (GPa) = 18.50253 23.88818 21.19536
#
# Velocity S-wave (km/s) = 2.92312 3.32141 3.12861
# Velocity P-wave (km/s) = 5.57196 6.27730 5.93512
#
# Compressibility (1/GPa) = 0.02349689
#
# Stress axis : x y z
#
# Youngs Moduli (GPa) = 65.11394 69.88630 26.91989
#
# Poissons Ratio (x) = 0.17604 0.38444
# Poissons Ratio (y) = 0.16402 0.13080
# Poissons Ratio (z) = 0.92987 0.33956
#
# Static dielectric constant tensor:
#      x y z
#    x 1.784820 0.000000 0.000000 
#    y 0.000000 1.823840 0.000000 
#    z 0.000000 0.000000 1.792660 
# 
# From -- ./inp_files/3863.got.cif
#   From: 2010.05.17/outbox.cif.g08.bks.cpg/sg33_2_cif.got.tgz:3863.got - 2010.06.03 17:15:25.
