data_PCOD9346103
_publ_section_title
;
Structure prediction by ZEFSAII (Michael W. Deem and Ramdas Pophale) SiO2 
 PCOD9346103
Probable space group: P N A 21
;
_chemical_formula_sum "Si O2"
_cell_formula_units_Z 32
_cell_length_a 14.715476
_cell_length_b 14.864660
_cell_length_c 5.858432
_cell_angle_alpha 90.000000
_cell_angle_beta 90.000000
_cell_angle_gamma 90.000000
_cell_volume 1281.476623
_symmetry_space_group_name_H-M "P N A 21"
_symmetry_group_IT_number 33
_symmetry_cell_setting 'orthorhombic'
loop_
_space_group_symop_operation_xyz
x,y,z
-x,-y,1/2+z
1/2-x,1/2+y,1/2+z
1/2+x,1/2-y,z
loop_
_atom_site_type_symbol
_atom_site_label
_atom_site_fract_x
_atom_site_fract_y
_atom_site_fract_z
Si Si1 0.142628 0.930646 0.881200
Si Si2 0.305550 0.622784 0.915249
Si Si3 0.964083 0.938718 0.622645
Si Si4 0.483438 0.950869 0.703782
Si Si5 0.229186 0.772724 0.621387
Si Si6 0.194503 0.521934 0.230856
Si Si7 0.607397 0.274077 0.819832
Si Si8 0.927033 0.314949 0.898526
O O1 0.196675 0.840705 0.819223
O O2 0.069986 0.941234 0.675608
O O3 0.223050 0.004073 0.900878
O O4 0.075775 0.961324 0.081382
O O5 0.404752 0.598195 0.830146
O O6 0.245790 0.675660 0.733967
O O7 0.247933 0.537691 0.997687
O O8 0.327624 0.691000 0.120715
O O9 0.935390 0.864378 0.434417
O O10 0.536265 0.860677 0.634638
O O11 0.488098 0.006032 0.453182
O O12 0.376146 0.941491 0.738287
O O13 0.323810 0.781480 0.483761
O O14 0.143202 0.763943 0.453005
O O15 0.133331 0.608935 0.277564
O O16 0.518033 0.214735 0.766340
#
# Coordination Sequence:
#
# PCOD9346103 Si02
#       8
#     4   4   4   4   4   4   4   4
#     4  12  24  46  70 104 143 190 243 305 371 450
#     4  11  23  46  70 102 141 190 244 301 373 442
#     4  11  25  45  69 101 147 185 243 302 368 447
#     4  10  23  43  71 106 144 194 244 305 386 453
#     4  11  24  44  73 106 140 184 247 302 359 455
#     4  11  22  44  70  99 139 186 240 302 373 446
#     4  11  23  48  70 104 140 190 240 305 370 448
#     4  11  22  46  73 100 146 187 245 310 378 445
#
# _framework density 24.971195000000002
#
# number of rings (size 3 to 8) (size 9 to 14) (size 15 to 20)
#    0.000    1.000    3.750    3.000    0.000    2.000 
#   24.750    0.000    0.000    0.000    0.000    0.000 
#    0.000    0.000    0.000    0.000    0.000    0.000 
#
# Total GULP energy -178383.003201 kJ/mol
# GULP energy per Si atom -5574.468850 kJ/mol
# Density = 2.491436 g / cm^3
# Si number density = 24.971195 Si / 1000 Ang^3
#
#
#
# Elastic Constant Matrix: (Units=GPa)
#
#
# Indices 1 2 3 4 5 6 
#
# 1 180.1982 32.1234 13.4583 0.0000 0.0000 0.0000
# 2 32.1234 57.2332 6.2495 0.0000 0.0000 0.0000
# 3 13.4583 6.2495 44.4226 0.0000 0.0000 0.0000
# 4 0.0000 0.0000 0.0000 36.3408 0.0000 0.0000
# 5 0.0000 0.0000 0.0000 0.0000 28.1677 0.0000
# 6 0.0000 0.0000 0.0000 0.0000 0.0000 49.0716
#
#
#
# Elastic Compliance Matrix: (Units=1/GPa)
#
#
# Indices 1 2 3 4 5 6 
#
# 1 0.006254 -0.003355 -0.001423 0.000000 0.000000 0.000000
# 2 -0.003355 0.019545 -0.001733 0.000000 0.000000 0.000000
# 3 -0.001423 -0.001733 0.023186 0.000000 0.000000 0.000000
# 4 0.000000 0.000000 0.000000 0.027517 0.000000 0.000000
# 5 0.000000 0.000000 0.000000 0.000000 0.035502 0.000000
# 6 0.000000 0.000000 0.000000 0.000000 0.000000 0.020378
#
#
# Mechanical properties :
#
#
# Convention : Reuss Voigt Hill
#
# Bulk Modulus (GPa) = 27.80642 42.83515 35.32078
# Shear Modulus (GPa) = 31.76814 38.05087 34.90950
#
# Velocity S-wave (km/s) = 3.57065 3.90781 3.74303
# Velocity P-wave (km/s) = 5.30650 6.12800 5.73199
#
# Compressibility (1/GPa) = 0.03596292
#
# Stress axis : x y z
#
# Youngs Moduli (GPa) = 159.90449 51.16518 43.12961
#
# Poissons Ratio (x) = 0.17164 0.06136
# Poissons Ratio (y) = 0.53643 0.07475
# Poissons Ratio (z) = 0.22749 0.08868
#
# Static dielectric constant tensor:
#      x y z
#    x 1.937150 0.000000 0.000000 
#    y 0.000000 2.058700 0.000000 
#    z 0.000000 0.000000 2.059530 
# 
# From -- ./inp_files/1528.got.cif
#   From: 2010.05.17/outbox.cif.g08.bks.cpg/sg33_1_cif.got.tgz:1528.got - 2010.06.03 17:15:25.
