data_PCOD9346392
_publ_section_title
;
Structure prediction by ZEFSAII (Michael W. Deem and Ramdas Pophale) SiO2 
 PCOD9346392
Probable space group: P N A 21
;
_chemical_formula_sum "Si O2"
_cell_formula_units_Z 28
_cell_length_a 19.416630
_cell_length_b 10.595698
_cell_length_c 5.216502
_cell_angle_alpha 90.000000
_cell_angle_beta 90.000000
_cell_angle_gamma 90.000000
_cell_volume 1073.205290
_symmetry_space_group_name_H-M "P N A 21"
_symmetry_group_IT_number 33
_symmetry_cell_setting 'orthorhombic'
loop_
_space_group_symop_operation_xyz
x,y,z
-x,-y,1/2+z
1/2-x,1/2+y,1/2+z
1/2+x,1/2-y,z
loop_
_atom_site_type_symbol
_atom_site_label
_atom_site_fract_x
_atom_site_fract_y
_atom_site_fract_z
Si Si1 0.242621 0.637826 0.576440
Si Si2 0.452237 0.497543 0.952494
Si Si3 0.016066 0.355973 0.050268
Si Si4 0.383247 0.239634 0.843321
Si Si5 0.086337 0.261218 0.568390
Si Si6 0.793252 0.608550 0.864140
Si Si7 0.121410 0.558667 0.951675
O O1 0.197287 0.713266 0.367728
O O2 0.263628 0.498554 0.454433
O O3 0.278315 0.756738 0.721402
O O4 0.184094 0.587181 0.766764
O O5 0.499651 0.518110 0.702236
O O6 0.404354 0.378180 0.911136
O O7 0.403111 0.616966 0.994744
O O8 0.045254 0.259009 0.834926
O O9 0.050195 0.481347 0.929707
O O10 0.933958 0.348935 0.016099
O O11 0.044702 0.317964 0.326421
O O12 0.400356 0.195592 0.559663
O O13 0.156034 0.341959 0.591262
O O14 0.841364 0.526001 0.674868
#
# Coordination Sequence:
#
# PCOD9346392 Si02
#       7
#     4   4   4   4   4   4   4
#     4  11  25  48  70 105 140 195 255 314 384 451
#     4  12  24  43  66 107 153 191 241 299 376 464
#     4  11  23  43  72 102 147 181 239 296 375 448
#     4  11  26  41  69 106 144 188 243 308 379 461
#     4  11  22  45  71 101 141 198 229 301 371 444
#     4  10  25  47  69 101 142 189 259 306 378 458
#     4  10  25  43  69 102 137 186 244 304 375 446
#
# _framework density 26.090067999999999
#
# number of rings (size 3 to 8) (size 9 to 14) (size 15 to 20)
#    0.000    1.143    4.286    0.000    6.000    4.571 
#    5.143    0.000    0.000    0.000    0.000    0.000 
#    0.000    0.000    0.000    0.000    0.000    0.000 
#
# Total GULP energy -156251.864104 kJ/mol
# GULP energy per Si atom -5580.423718 kJ/mol
# Density = 2.603069 g / cm^3
# Si number density = 26.090068 Si / 1000 Ang^3
#
#
#
# Elastic Constant Matrix: (Units=GPa)
#
#
# Indices 1 2 3 4 5 6 
#
# 1 46.2427 26.6002 4.4780 0.0000 0.0000 0.0000
# 2 26.6002 182.2868 4.1738 0.0000 0.0000 0.0000
# 3 4.4780 4.1738 75.6637 0.0000 0.0000 0.0000
# 4 0.0000 0.0000 0.0000 42.7722 0.0000 0.0000
# 5 0.0000 0.0000 0.0000 0.0000 34.2847 0.0000
# 6 0.0000 0.0000 0.0000 0.0000 0.0000 36.9674
#
#
#
# Elastic Compliance Matrix: (Units=1/GPa)
#
#
# Indices 1 2 3 4 5 6 
#
# 1 0.023717 -0.003433 -0.001214 0.000000 0.000000 0.000000
# 2 -0.003433 0.005990 -0.000127 0.000000 0.000000 0.000000
# 3 -0.001214 -0.000127 0.013295 0.000000 0.000000 0.000000
# 4 0.000000 0.000000 0.000000 0.023380 0.000000 0.000000
# 5 0.000000 0.000000 0.000000 0.000000 0.029168 0.000000
# 6 0.000000 0.000000 0.000000 0.000000 0.000000 0.027051
#
#
# Mechanical properties :
#
#
# Convention : Reuss Voigt Hill
#
# Bulk Modulus (GPa) = 29.89257 41.63304 35.76280
# Shear Modulus (GPa) = 34.89160 40.73427 37.81294
#
# Velocity S-wave (km/s) = 3.66095 3.95561 3.81113
# Velocity P-wave (km/s) = 5.41779 6.07079 5.75356
#
# Compressibility (1/GPa) = 0.03345313
#
# Stress axis : x y z
#
# Youngs Moduli (GPa) = 42.16303 166.95164 75.21478
#
# Poissons Ratio (x) = 0.57317 0.09133
# Poissons Ratio (y) = 0.14475 0.00957
# Poissons Ratio (z) = 0.05120 0.02124
#
# Static dielectric constant tensor:
#      x y z
#    x 2.092020 0.000000 0.000000 
#    y 0.000000 2.136430 0.000000 
#    z 0.000000 0.000000 2.296050 
# 
# From -- ./inp_files/1758.got.cif
#   From: 2010.05.17/outbox.cif.g08.bks.cpg/sg33_1_cif.got.tgz:1758.got - 2010.06.03 17:15:25.
