data_PCOD9346609
_publ_section_title
;
Structure prediction by ZEFSAII (Michael W. Deem and Ramdas Pophale) SiO2 
 PCOD9346609
Probable space group: P N A 21
;
_chemical_formula_sum "Si O2"
_cell_formula_units_Z 20
_cell_length_a 12.092685
_cell_length_b 15.208277
_cell_length_c 4.731937
_cell_angle_alpha 90.000000
_cell_angle_beta 90.000000
_cell_angle_gamma 90.000000
_cell_volume 870.245343
_symmetry_space_group_name_H-M "P N A 21"
_symmetry_group_IT_number 33
_symmetry_cell_setting 'orthorhombic'
loop_
_space_group_symop_operation_xyz
x,y,z
-x,-y,1/2+z
1/2-x,1/2+y,1/2+z
1/2+x,1/2-y,z
loop_
_atom_site_type_symbol
_atom_site_label
_atom_site_fract_x
_atom_site_fract_y
_atom_site_fract_z
Si Si1 0.436937 0.311273 0.315190
Si Si2 0.305625 0.480767 0.479602
Si Si3 0.840140 0.892474 0.994115
Si Si4 0.929788 0.481135 0.011579
Si Si5 0.141134 0.705654 0.289895
O O1 0.367791 0.388958 0.465988
O O2 0.562080 0.345577 0.321885
O O3 0.435813 0.229942 0.528625
O O4 0.377036 0.281804 0.025624
O O5 0.295699 0.536019 0.769099
O O6 0.177062 0.465167 0.407212
O O7 0.369211 0.544589 0.258809
O O8 0.756948 0.821220 0.136410
O O9 0.898340 0.381561 0.944761
O O10 0.037700 0.505847 0.833606
#
# Coordination Sequence:
#
# PCOD9346609 Si02
#       5
#     4   4   4   4   4
#     4  12  24  41  68  99 131 173 225 280 346 410
#     4  11  23  42  67  95 126 177 230 269 337 427
#     4  11  23  44  65  92 138 175 215 283 343 408
#     4  11  23  42  64  88 127 174 216 264 330 409
#     4  11  25  41  62 100 134 169 222 286 342 402
#
# _framework density 22.982023999999999
#
# number of rings (size 3 to 8) (size 9 to 14) (size 15 to 20)
#    0.000    0.800    0.000    9.600    0.000    4.800 
#    0.000    0.000    0.000    0.000    0.000    0.000 
#    0.000    0.000    0.000    0.000    0.000    0.000 
#
# Total GULP energy -111614.364731 kJ/mol
# GULP energy per Si atom -5580.718237 kJ/mol
# Density = 2.292972 g / cm^3
# Si number density = 22.982024 Si / 1000 Ang^3
#
#
#
# Elastic Constant Matrix: (Units=GPa)
#
#
# Indices 1 2 3 4 5 6 
#
# 1 102.9939 52.0135 27.2631 0.0000 0.0000 0.0000
# 2 52.0135 44.9016 28.9800 0.0000 0.0000 0.0000
# 3 27.2631 28.9800 139.1625 0.0000 0.0000 0.0000
# 4 0.0000 0.0000 0.0000 46.5777 0.0000 0.0000
# 5 0.0000 0.0000 0.0000 0.0000 21.3638 0.0000
# 6 0.0000 0.0000 0.0000 0.0000 0.0000 19.8092
#
#
#
# Elastic Compliance Matrix: (Units=1/GPa)
#
#
# Indices 1 2 3 4 5 6 
#
# 1 0.023578 -0.028110 0.001235 0.000000 0.000000 0.000000
# 2 -0.028110 0.059241 -0.006830 0.000000 0.000000 0.000000
# 3 0.001235 -0.006830 0.008366 0.000000 0.000000 0.000000
# 4 0.000000 0.000000 0.000000 0.021470 0.000000 0.000000
# 5 0.000000 0.000000 0.000000 0.000000 0.046808 0.000000
# 6 0.000000 0.000000 0.000000 0.000000 0.000000 0.050482
#
#
# Mechanical properties :
#
#
# Convention : Reuss Voigt Hill
#
# Bulk Modulus (GPa) = 42.05979 55.95235 49.00607
# Shear Modulus (GPa) = 17.52668 29.47022 23.49845
#
# Velocity S-wave (km/s) = 2.76456 3.58483 3.20108
# Velocity P-wave (km/s) = 5.34147 6.44466 5.91882
#
# Compressibility (1/GPa) = 0.02377568
#
# Stress axis : x y z
#
# Youngs Moduli (GPa) = 42.41186 16.88028 119.52786
#
# Poissons Ratio (x) = 0.47450 -0.14756
# Poissons Ratio (y) = 1.19218 0.81634
# Poissons Ratio (z) = -0.05236 0.11529
#
# Static dielectric constant tensor:
#      x y z
#    x 1.917880 0.000000 0.000000 
#    y 0.000000 1.873940 0.000000 
#    z 0.000000 0.000000 1.873110 
# 
# From -- ./inp_files/804.got.cif
#   From: 2010.05.17/outbox.cif.g08.bks.cpg/sg33_1_cif.got.tgz:804.got - 2010.06.03 17:15:25.
