data_PCOD9346438
_publ_section_title
;
Structure prediction by ZEFSAII (Michael W. Deem and Ramdas Pophale) SiO2 
 PCOD9346438
Probable space group: P N A 21
;
_chemical_formula_sum "Si O2"
_cell_formula_units_Z 28
_cell_length_a 13.491362
_cell_length_b 7.225789
_cell_length_c 12.088015
_cell_angle_alpha 90.000000
_cell_angle_beta 90.000000
_cell_angle_gamma 90.000000
_cell_volume 1178.409029
_symmetry_space_group_name_H-M "P N A 21"
_symmetry_group_IT_number 33
_symmetry_cell_setting 'orthorhombic'
loop_
_space_group_symop_operation_xyz
x,y,z
-x,-y,1/2+z
1/2-x,1/2+y,1/2+z
1/2+x,1/2-y,z
loop_
_atom_site_type_symbol
_atom_site_label
_atom_site_fract_x
_atom_site_fract_y
_atom_site_fract_z
Si Si1 0.878872 0.482626 0.412800
Si Si2 0.191052 0.540293 0.372039
Si Si3 0.019018 0.735649 0.266114
Si Si4 0.555697 0.553153 0.625533
Si Si5 0.733419 0.782645 0.726313
Si Si6 0.549729 0.179625 0.530306
Si Si7 0.854167 0.820121 0.526462
O O1 0.946037 0.638151 0.352561
O O2 0.800897 0.408941 0.326891
O O3 0.836171 0.599643 0.514338
O O4 0.952497 0.321512 0.452757
O O5 0.203939 0.382230 0.280850
O O6 0.125956 0.457526 0.472752
O O7 0.297386 0.592807 0.421963
O O8 0.128229 0.703269 0.314415
O O9 0.991917 0.944435 0.231270
O O10 0.993920 0.627914 0.150964
O O11 0.637236 0.694685 0.666716
O O12 0.596205 0.381116 0.552209
O O13 0.468164 0.639780 0.552599
O O14 0.796359 0.887880 0.634930
#
# Coordination Sequence:
#
# PCOD9346438 Si02
#       7
#     4   4   4   4   4   4   4
#     4  11  24  42  71 100 142 188 237 286 363 414
#     4  11  24  44  71 106 144 188 241 292 363 426
#     4   9  22  44  72  97 143 186 239 294 352 426
#     4  10  26  46  70  92 148 188 234 294 364 404
#     4  12  28  44  72 107 143 185 247 294 358 435
#     4   9  22  44  72  97 143 186 239 294 352 426
#     4  12  28  44  72 107 143 185 247 294 358 435
#
# _framework density 23.760850000000001
#
# number of rings (size 3 to 8) (size 9 to 14) (size 15 to 20)
#    0.857    0.571    0.000    3.429   14.000    1.143 
#    0.000    0.000    0.000    0.000    0.000    0.000 
#    0.000    0.000    0.000    0.000    0.000    0.000 
#
# Total GULP energy -156454.328852 kJ/mol
# GULP energy per Si atom -5587.654602 kJ/mol
# Density = 2.370677 g / cm^3
# Si number density = 23.760850 Si / 1000 Ang^3
#
#
#
# Elastic Constant Matrix: (Units=GPa)
#
#
# Indices 1 2 3 4 5 6 
#
# 1 53.3190 2.2754 25.0869 0.0000 0.0000 0.0000
# 2 2.2754 41.0299 7.2863 0.0000 0.0000 0.0000
# 3 25.0869 7.2863 86.9380 0.0000 0.0000 0.0000
# 4 0.0000 0.0000 0.0000 50.0623 0.0000 0.0000
# 5 0.0000 0.0000 0.0000 0.0000 44.4553 0.0000
# 6 0.0000 0.0000 0.0000 0.0000 0.0000 31.1694
#
#
#
# Elastic Compliance Matrix: (Units=1/GPa)
#
#
# Indices 1 2 3 4 5 6 
#
# 1 0.021702 -0.000093 -0.006255 0.000000 0.000000 0.000000
# 2 -0.000093 0.024741 -0.002047 0.000000 0.000000 0.000000
# 3 -0.006255 -0.002047 0.013479 0.000000 0.000000 0.000000
# 4 0.000000 0.000000 0.000000 0.019975 0.000000 0.000000
# 5 0.000000 0.000000 0.000000 0.000000 0.022495 0.000000
# 6 0.000000 0.000000 0.000000 0.000000 0.000000 0.032083
#
#
# Mechanical properties :
#
#
# Convention : Reuss Voigt Hill
#
# Bulk Modulus (GPa) = 23.18386 27.84268 25.51327
# Shear Modulus (GPa) = 30.18592 34.91326 32.54959
#
# Velocity S-wave (km/s) = 3.56814 3.83738 3.70521
# Velocity P-wave (km/s) = 5.17241 5.60155 5.39125
#
# Compressibility (1/GPa) = 0.04313346
#
# Stress axis : x y z
#
# Youngs Moduli (GPa) = 46.07914 40.41857 74.19058
#
# Poissons Ratio (x) = 0.00375 0.46403
# Poissons Ratio (y) = 0.00428 0.15185
# Poissons Ratio (z) = 0.28820 0.08273
#
# Static dielectric constant tensor:
#      x y z
#    x 1.895020 0.000000 0.000000 
#    y 0.000000 1.939470 0.000000 
#    z 0.000000 0.000000 1.919830 
# 
# From -- ./inp_files/6359.got.cif
#   From: 2010.05.17/outbox.cif.g08.bks.cpg/sg33_4_cif.got.tgz:6359.got - 2010.06.03 17:15:25.
