data_PCOD9346972
_publ_section_title
;
Structure prediction by ZEFSAII (Michael W. Deem and Ramdas Pophale) SiO2 
 PCOD9346972
Probable space group: P N A 21
;
_chemical_formula_sum "Si O2"
_cell_formula_units_Z 28
_cell_length_a 10.809540
_cell_length_b 16.689252
_cell_length_c 6.895503
_cell_angle_alpha 90.000000
_cell_angle_beta 90.000000
_cell_angle_gamma 90.000000
_cell_volume 1243.970373
_symmetry_space_group_name_H-M "P N A 21"
_symmetry_group_IT_number 33
_symmetry_cell_setting 'orthorhombic'
loop_
_space_group_symop_operation_xyz
x,y,z
-x,-y,1/2+z
1/2-x,1/2+y,1/2+z
1/2+x,1/2-y,z
loop_
_atom_site_type_symbol
_atom_site_label
_atom_site_fract_x
_atom_site_fract_y
_atom_site_fract_z
Si Si1 0.001645 0.887006 0.469260
Si Si2 0.852742 0.969053 0.794451
Si Si3 0.782177 0.864857 0.166557
Si Si4 0.653362 0.057322 0.563390
Si Si5 0.456536 0.228333 0.170814
Si Si6 0.034602 0.585469 0.381873
Si Si7 0.212038 0.276852 0.406040
O O1 0.959478 0.923972 0.675256
O O2 0.886489 0.884339 0.323335
O O3 0.045242 0.797189 0.507562
O O4 0.100534 0.946800 0.378676
O O5 0.748424 0.991148 0.639555
O O6 0.807223 0.914840 0.970761
O O7 0.650379 0.887950 0.251925
O O8 0.789436 0.772259 0.105878
O O9 0.586362 0.094079 0.750812
O O10 0.717994 0.128141 0.444446
O O11 0.553377 0.007239 0.440560
O O12 0.331044 0.242888 0.291558
O O13 0.581825 0.238481 0.296606
O O14 0.465034 0.142418 0.068583
#
# Coordination Sequence:
#
# PCOD9346972 Si02
#       7
#     4   4   4   4   4   4   4
#     4  12  26  45  76 108 148 192 246 309 372 441
#     4  12  26  45  73 112 145 190 250 309 371 446
#     4  12  25  48  74 105 153 192 241 311 377 436
#     4  12  27  45  76 106 148 196 252 308 377 455
#     4  12  28  49  76 111 154 199 252 311 375 455
#     4  12  26  49  73 108 152 196 251 312 383 451
#     4  12  28  47  76 110 152 199 252 306 379 450
#
# _framework density 22.508575
#
# number of rings (size 3 to 8) (size 9 to 14) (size 15 to 20)
#    0.000    0.000    4.286    5.143   10.000    0.000 
#    0.000    0.000    0.000    0.000    0.000    0.000 
#    0.000    0.000    0.000    0.000    0.000    0.000 
#
# Total GULP energy -156868.308703 kJ/mol
# GULP energy per Si atom -5602.439597 kJ/mol
# Density = 2.245734 g / cm^3
# Si number density = 22.508575 Si / 1000 Ang^3
#
#
#
# Elastic Constant Matrix: (Units=GPa)
#
#
# Indices 1 2 3 4 5 6 
#
# 1 84.8039 1.7767 22.2889 0.0000 0.0000 0.0000
# 2 1.7767 96.3137 22.1526 0.0000 0.0000 0.0000
# 3 22.2889 22.1526 73.4375 0.0000 0.0000 0.0000
# 4 0.0000 0.0000 0.0000 51.9739 0.0000 0.0000
# 5 0.0000 0.0000 0.0000 0.0000 48.1921 0.0000
# 6 0.0000 0.0000 0.0000 0.0000 0.0000 29.2848
#
#
#
# Elastic Compliance Matrix: (Units=1/GPa)
#
#
# Indices 1 2 3 4 5 6 
#
# 1 0.012859 0.000710 -0.004117 0.000000 0.000000 0.000000
# 2 0.000710 0.011196 -0.003593 0.000000 0.000000 0.000000
# 3 -0.004117 -0.003593 0.015950 0.000000 0.000000 0.000000
# 4 0.000000 0.000000 0.000000 0.019240 0.000000 0.000000
# 5 0.000000 0.000000 0.000000 0.000000 0.020750 0.000000
# 6 0.000000 0.000000 0.000000 0.000000 0.000000 0.034147
#
#
# Mechanical properties :
#
#
# Convention : Reuss Voigt Hill
#
# Bulk Modulus (GPa) = 38.45338 38.55462 38.50400
# Shear Modulus (GPa) = 36.54653 39.77927 38.16290
#
# Velocity S-wave (km/s) = 4.03385 4.20848 4.12209
# Velocity P-wave (km/s) = 6.23032 6.38601 6.30865
#
# Compressibility (1/GPa) = 0.02600552
#
# Stress axis : x y z
#
# Youngs Moduli (GPa) = 77.76604 89.31773 62.69481
#
# Poissons Ratio (x) = -0.06339 0.25811
# Poissons Ratio (y) = -0.05519 0.22524
# Poissons Ratio (z) = 0.32016 0.32089
#
# Static dielectric constant tensor:
#      x y z
#    x 1.781650 0.000000 0.000000 
#    y 0.000000 1.820590 0.000000 
#    z 0.000000 0.000000 1.811720 
# 
# From -- ./inp_files/933.got.cif
#   From: 2010.05.17/outbox.cif.g08.bks.cpg/sg33_1_cif.got.tgz:933.got - 2010.06.03 17:15:25.
