data_PCOD9346915
_publ_section_title
;
Structure prediction by ZEFSAII (Michael W. Deem and Ramdas Pophale) SiO2 
 PCOD9346915
Probable space group: P N A 21
;
_chemical_formula_sum "Si O2"
_cell_formula_units_Z 20
_cell_length_a 12.217128
_cell_length_b 4.889895
_cell_length_c 10.746442
_cell_angle_alpha 90.000000
_cell_angle_beta 90.000000
_cell_angle_gamma 90.000000
_cell_volume 641.997529
_symmetry_space_group_name_H-M "P N A 21"
_symmetry_group_IT_number 33
_symmetry_cell_setting 'orthorhombic'
loop_
_space_group_symop_operation_xyz
x,y,z
-x,-y,1/2+z
1/2-x,1/2+y,1/2+z
1/2+x,1/2-y,z
loop_
_atom_site_type_symbol
_atom_site_label
_atom_site_fract_x
_atom_site_fract_y
_atom_site_fract_z
Si Si1 0.078488 0.638823 0.099530
Si Si2 0.908499 0.000471 0.239766
Si Si3 0.754051 0.374283 0.087715
Si Si4 0.578586 0.138081 0.380084
Si Si5 0.745638 0.124999 0.891226
O O1 0.979593 0.874484 0.132242
O O2 0.178167 0.873007 0.101881
O O3 0.186919 0.392083 0.030534
O O4 0.999475 0.509791 0.990333
O O5 0.831936 0.758284 0.292907
O O6 0.831285 0.240989 0.186359
O O7 0.978892 0.127958 0.347582
O O8 0.581953 0.999637 0.239810
O O9 0.812593 0.391667 0.948361
O O10 0.677858 0.373243 0.377498
#
# Coordination Sequence:
#
# PCOD9346915 Si02
#       5
#     4   4   4   4   4
#     4  11  27  51  82 124 174 222 286 356 420 515
#     4  12  28  52  96 120 172 246 266 356 458 492
#     4  11  27  53  80 129 173 218 302 351 413 535
#     4  11  27  51  82 124 174 222 286 356 420 515
#     4  11  27  53  80 129 173 218 302 351 413 535
#
# _framework density 31.152768999999999
#
# number of rings (size 3 to 8) (size 9 to 14) (size 15 to 20)
#    0.000    0.800    4.000    0.000   11.200    1.600 
#    0.000    0.000    0.000    0.000    0.000    0.000 
#    0.000    0.000    0.000    0.000    0.000    0.000 
#
# Total GULP energy -111651.411284 kJ/mol
# GULP energy per Si atom -5582.570564 kJ/mol
# Density = 3.108186 g / cm^3
# Si number density = 31.152769 Si / 1000 Ang^3
#
#
#
# Elastic Constant Matrix: (Units=GPa)
#
#
# Indices 1 2 3 4 5 6 
#
# 1 251.0623 140.2327 148.8210 0.0000 0.0000 0.0000
# 2 140.2327 294.0601 78.6288 0.0000 0.0000 0.0000
# 3 148.8210 78.6288 213.3868 0.0000 0.0000 0.0000
# 4 0.0000 0.0000 0.0000 61.4463 0.0000 0.0000
# 5 0.0000 0.0000 0.0000 0.0000 29.4510 0.0000
# 6 0.0000 0.0000 0.0000 0.0000 0.0000 66.0330
#
#
#
# Elastic Compliance Matrix: (Units=1/GPa)
#
#
# Indices 1 2 3 4 5 6 
#
# 1 0.008350 -0.002690 -0.004832 0.000000 0.000000 0.000000
# 2 -0.002690 0.004639 0.000167 0.000000 0.000000 0.000000
# 3 -0.004832 0.000167 0.007995 0.000000 0.000000 0.000000
# 4 0.000000 0.000000 0.000000 0.016274 0.000000 0.000000
# 5 0.000000 0.000000 0.000000 0.000000 0.033955 0.000000
# 6 0.000000 0.000000 0.000000 0.000000 0.000000 0.015144
#
#
# Mechanical properties :
#
#
# Convention : Reuss Voigt Hill
#
# Bulk Modulus (GPa) = 159.41669 165.98603 162.70136
# Shear Modulus (GPa) = 48.46894 57.44114 52.95504
#
# Velocity S-wave (km/s) = 3.94870 4.29867 4.12740
# Velocity P-wave (km/s) = 8.48960 8.83375 8.66338
#
# Compressibility (1/GPa) = 0.00627287
#
# Stress axis : x y z
#
# Youngs Moduli (GPa) = 119.76173 215.57052 125.07715
#
# Poissons Ratio (x) = 0.57985 0.60441
# Poissons Ratio (y) = 0.32214 -0.02084
# Poissons Ratio (z) = 0.57872 -0.03592
#
# Static dielectric constant tensor:
#      x y z
#    x 2.617240 0.000000 0.000000 
#    y 0.000000 2.403250 0.000000 
#    z 0.000000 0.000000 -40.412740 
# 
# From -- ./inp_files/6208.got.cif
#   From: 2010.05.17/outbox.cif.g08.bks.cpg/sg33_4_cif.got.tgz:6208.got - 2010.06.03 17:15:25.
