data_PCOD9346862
_publ_section_title
;
Structure prediction by ZEFSAII (Michael W. Deem and Ramdas Pophale) SiO2 
 PCOD9346862
Probable space group: P N A 21
;
_chemical_formula_sum "Si O2"
_cell_formula_units_Z 32
_cell_length_a 14.520729
_cell_length_b 11.516516
_cell_length_c 8.246850
_cell_angle_alpha 90.000000
_cell_angle_beta 90.000000
_cell_angle_gamma 90.000000
_cell_volume 1379.105946
_symmetry_space_group_name_H-M "P N A 21"
_symmetry_group_IT_number 33
_symmetry_cell_setting 'orthorhombic'
loop_
_space_group_symop_operation_xyz
x,y,z
-x,-y,1/2+z
1/2-x,1/2+y,1/2+z
1/2+x,1/2-y,z
loop_
_atom_site_type_symbol
_atom_site_label
_atom_site_fract_x
_atom_site_fract_y
_atom_site_fract_z
Si Si1 0.411665 0.243491 0.276360
Si Si2 0.965249 0.296644 0.912901
Si Si3 0.190096 0.850678 0.281585
Si Si4 0.770443 0.420359 0.449675
Si Si5 0.655833 0.308275 0.938082
Si Si6 0.678836 0.556428 0.926017
Si Si7 0.117303 0.227652 0.308589
Si Si8 0.355241 0.998777 0.786117
O O1 0.360511 0.142383 0.375055
O O2 0.340550 0.351618 0.284025
O O3 0.509136 0.298259 0.337665
O O4 0.434824 0.196254 0.099530
O O5 0.908932 0.186027 0.849035
O O6 0.934552 0.410179 0.817384
O O7 0.072792 0.278191 0.899983
O O8 0.256980 0.746086 0.343687
O O9 0.232830 0.968459 0.352275
O O10 0.172781 0.871658 0.091283
O O11 0.686211 0.327040 0.440798
O O12 0.800974 0.466081 0.624525
O O13 0.622812 0.438870 0.896871
O O14 0.659718 0.312515 0.135082
O O15 0.779974 0.499590 0.928316
O O16 0.114833 0.366260 0.291513
#
# Coordination Sequence:
#
# PCOD9346862 Si02
#       8
#     4   4   4   4   4   4   4   4
#     4  11  26  46  68 106 145 186 241 297 354 430
#     4  11  26  46  68 106 145 186 241 297 354 430
#     4  12  24  46  73 103 143 189 236 296 360 426
#     4  12  24  46  73 103 143 189 236 296 360 426
#     4  11  25  47  74 107 142 189 237 295 365 425
#     4  12  25  46  72 102 143 189 239 290 359 425
#     4  11  25  47  74 107 142 189 237 295 365 425
#     4  12  25  46  72 102 143 189 239 290 359 425
#
# _framework density 23.203437000000001
#
# number of rings (size 3 to 8) (size 9 to 14) (size 15 to 20)
#    0.000    0.500    5.000    3.000    3.500    0.000 
#    9.000    0.000    0.000    0.000    0.000    0.000 
#    0.000    0.000    0.000    0.000    0.000    0.000 
#
# Total GULP energy -178827.546580 kJ/mol
# GULP energy per Si atom -5588.360831 kJ/mol
# Density = 2.315062 g / cm^3
# Si number density = 23.203437 Si / 1000 Ang^3
#
#
#
# Elastic Constant Matrix: (Units=GPa)
#
#
# Indices 1 2 3 4 5 6 
#
# 1 66.3310 -0.5604 5.1484 0.0000 0.0000 0.0000
# 2 -0.5604 119.0626 10.2708 0.0000 0.0000 0.0000
# 3 5.1484 10.2708 25.6449 0.0000 0.0000 0.0000
# 4 0.0000 0.0000 0.0000 34.3426 0.0000 0.0000
# 5 0.0000 0.0000 0.0000 0.0000 26.4709 0.0000
# 6 0.0000 0.0000 0.0000 0.0000 0.0000 32.2020
#
#
#
# Elastic Compliance Matrix: (Units=1/GPa)
#
#
# Indices 1 2 3 4 5 6 
#
# 1 0.015329 0.000350 -0.003217 0.000000 0.000000 0.000000
# 2 0.000350 0.008707 -0.003558 0.000000 0.000000 0.000000
# 3 -0.003217 -0.003558 0.041065 0.000000 0.000000 0.000000
# 4 0.000000 0.000000 0.000000 0.029118 0.000000 0.000000
# 5 0.000000 0.000000 0.000000 0.000000 0.037777 0.000000
# 6 0.000000 0.000000 0.000000 0.000000 0.000000 0.031054
#
#
# Mechanical properties :
#
#
# Convention : Reuss Voigt Hill
#
# Bulk Modulus (GPa) = 19.13857 26.75065 22.94461
# Shear Modulus (GPa) = 25.86414 31.68175 28.77295
#
# Velocity S-wave (km/s) = 3.34229 3.69913 3.52523
# Velocity P-wave (km/s) = 4.81254 5.45880 5.14583
#
# Compressibility (1/GPa) = 0.05225050
#
# Stress axis : x y z
#
# Youngs Moduli (GPa) = 65.23758 114.84381 24.35171
#
# Poissons Ratio (x) = -0.04016 0.07835
# Poissons Ratio (y) = -0.02281 0.08663
# Poissons Ratio (z) = 0.20989 0.40856
#
# Static dielectric constant tensor:
#      x y z
#    x 1.931980 0.000000 0.000000 
#    y 0.000000 1.975090 0.000000 
#    z 0.000000 0.000000 1.871480 
# 
# From -- ./inp_files/4458.got.cif
#   From: 2010.05.17/outbox.cif.g08.bks.cpg/sg33_3_cif.got.tgz:4458.got - 2010.06.03 17:15:25.
