data_PCOD9346451
_publ_section_title
;
Structure prediction by ZEFSAII (Michael W. Deem and Ramdas Pophale) SiO2 
 PCOD9346451
Probable space group: P N A 21
;
_chemical_formula_sum "Si O2"
_cell_formula_units_Z 20
_cell_length_a 10.187797
_cell_length_b 4.939971
_cell_length_c 15.657584
_cell_angle_alpha 90.000000
_cell_angle_beta 90.000000
_cell_angle_gamma 90.000000
_cell_volume 788.005833
_symmetry_space_group_name_H-M "P N A 21"
_symmetry_group_IT_number 33
_symmetry_cell_setting 'orthorhombic'
loop_
_space_group_symop_operation_xyz
x,y,z
-x,-y,1/2+z
1/2-x,1/2+y,1/2+z
1/2+x,1/2-y,z
loop_
_atom_site_type_symbol
_atom_site_label
_atom_site_fract_x
_atom_site_fract_y
_atom_site_fract_z
Si Si1 0.865252 0.047883 0.863330
Si Si2 0.576499 0.050392 0.884730
Si Si3 0.242428 0.834492 0.986088
Si Si4 0.029674 0.262213 0.217157
Si Si5 0.278472 0.347573 0.103934
O O1 0.720747 0.179939 0.865696
O O2 0.972146 0.225655 0.912583
O O3 0.919983 0.002351 0.768733
O O4 0.834374 0.752818 0.905459
O O5 0.531383 0.935097 0.794036
O O6 0.608487 0.810565 0.952134
O O7 0.293625 0.633838 0.059059
O O8 0.240160 0.122581 0.032193
O O9 0.158788 0.367933 0.170271
O O10 0.913482 0.221682 0.150453
#
# Coordination Sequence:
#
# PCOD9346451 Si02
#       5
#     4   4   4   4   4
#     4  10  26  48  80 111 159 217 270 320 389 490
#     4  10  26  48  80 111 159 217 270 320 389 490
#     4  10  29  51  78 112 164 206 271 319 397 470
#     4  12  28  46  76 116 164 206 262 326 396 476
#     4  12  29  49  76 118 164 208 257 341 399 456
#
# _framework density 25.380521999999999
#
# number of rings (size 3 to 8) (size 9 to 14) (size 15 to 20)
#    1.200    0.000    2.000    0.000   16.800    0.000 
#    0.000    0.000    0.000    0.000    0.000    0.000 
#    0.000    0.000    0.000    0.000    0.000    0.000 
#
# Total GULP energy -111831.878389 kJ/mol
# GULP energy per Si atom -5591.593919 kJ/mol
# Density = 2.532275 g / cm^3
# Si number density = 25.380522 Si / 1000 Ang^3
#
#
#
# Elastic Constant Matrix: (Units=GPa)
#
#
# Indices 1 2 3 4 5 6 
#
# 1 161.5032 19.6318 14.4485 0.0000 0.0000 0.0000
# 2 19.6318 68.5488 8.2854 0.0000 0.0000 0.0000
# 3 14.4485 8.2854 83.8754 0.0000 0.0000 0.0000
# 4 0.0000 0.0000 0.0000 13.7944 0.0000 0.0000
# 5 0.0000 0.0000 0.0000 0.0000 61.2548 0.0000
# 6 0.0000 0.0000 0.0000 0.0000 0.0000 31.0457
#
#
#
# Elastic Compliance Matrix: (Units=1/GPa)
#
#
# Indices 1 2 3 4 5 6 
#
# 1 0.006488 -0.001744 -0.000945 0.000000 0.000000 0.000000
# 2 -0.001744 0.015233 -0.001204 0.000000 0.000000 0.000000
# 3 -0.000945 -0.001204 0.012204 0.000000 0.000000 0.000000
# 4 0.000000 0.000000 0.000000 0.072493 0.000000 0.000000
# 5 0.000000 0.000000 0.000000 0.000000 0.016325 0.000000
# 6 0.000000 0.000000 0.000000 0.000000 0.000000 0.032211
#
#
# Mechanical properties :
#
#
# Convention : Reuss Voigt Hill
#
# Bulk Modulus (GPa) = 38.25792 44.29542 41.27667
# Shear Modulus (GPa) = 29.16212 39.32309 34.24261
#
# Velocity S-wave (km/s) = 3.39336 3.94044 3.67709
# Velocity P-wave (km/s) = 5.51903 6.18006 5.85887
#
# Compressibility (1/GPa) = 0.02613838
#
# Stress axis : x y z
#
# Youngs Moduli (GPa) = 154.12127 65.64625 81.93852
#
# Poissons Ratio (x) = 0.11448 0.07747
# Poissons Ratio (y) = 0.26878 0.09868
# Poissons Ratio (z) = 0.14571 0.07906
#
# Static dielectric constant tensor:
#      x y z
#    x 2.075840 0.000000 0.000000 
#    y 0.000000 2.051410 0.000000 
#    z 0.000000 0.000000 1.977870 
# 
# From -- ./inp_files/8402.got.cif
#   From: 2010.05.17/outbox.cif.g08.bks.cpg/sg33_5_cif.got.tgz:8402.got - 2010.06.03 17:15:25.
