data_PCOD9346565
_publ_section_title
;
Structure prediction by ZEFSAII (Michael W. Deem and Ramdas Pophale) SiO2 
 PCOD9346565
Probable space group: P N A 21
;
_chemical_formula_sum "Si O2"
_cell_formula_units_Z 32
_cell_length_a 9.549096
_cell_length_b 9.764905
_cell_length_c 14.301617
_cell_angle_alpha 90.000000
_cell_angle_beta 90.000000
_cell_angle_gamma 90.000000
_cell_volume 1333.568797
_symmetry_space_group_name_H-M "P N A 21"
_symmetry_group_IT_number 33
_symmetry_cell_setting 'orthorhombic'
loop_
_space_group_symop_operation_xyz
x,y,z
-x,-y,1/2+z
1/2-x,1/2+y,1/2+z
1/2+x,1/2-y,z
loop_
_atom_site_type_symbol
_atom_site_label
_atom_site_fract_x
_atom_site_fract_y
_atom_site_fract_z
Si Si1 0.237428 0.825772 0.366690
Si Si2 0.668943 0.097856 0.054314
Si Si3 0.342439 0.334895 0.486672
Si Si4 0.545137 0.500544 0.583767
Si Si5 0.525953 0.279928 0.747653
Si Si6 0.546309 0.111094 0.574737
Si Si7 0.474193 0.751959 0.703694
Si Si8 0.732944 0.856017 0.818797
O O1 0.279973 0.800266 0.473783
O O2 0.325013 0.733216 0.295722
O O3 0.081641 0.799832 0.331680
O O4 0.275913 0.987496 0.354212
O O5 0.647987 0.158024 0.157033
O O6 0.792271 0.984595 0.057508
O O7 0.516436 0.031311 0.038655
O O8 0.441669 0.467601 0.498180
O O9 0.453172 0.221445 0.520344
O O10 0.285217 0.269270 0.391926
O O11 0.208608 0.364353 0.552687
O O12 0.513558 0.400886 0.671400
O O13 0.525751 0.652949 0.621211
O O14 0.512582 0.143602 0.683113
O O15 0.604482 0.832450 0.746873
O O16 0.388923 0.662368 0.778309
#
# Coordination Sequence:
#
# PCOD9346565 Si02
#       8
#     4   4   4   4   4   4   4   4
#     4  12  27  46  72 105 146 181 247 303 357 431
#     4  12  27  46  69 103 149 191 238 299 370 435
#     4  11  24  43  77 106 141 184 251 300 358 433
#     4  11  25  47  73 103 145 198 235 297 368 445
#     4  11  24  45  72 104 137 188 235 298 356 432
#     4  11  22  44  73 102 139 189 238 294 367 432
#     4  12  27  47  72 104 151 193 241 300 374 434
#     4  12  26  48  72 109 142 194 245 307 356 440
#
# _framework density 23.995761999999999
#
# number of rings (size 3 to 8) (size 9 to 14) (size 15 to 20)
#    0.000    0.500    3.750    5.250    5.250    0.000 
#    0.000    0.000    0.000    0.000    0.000    0.000 
#    0.000    0.000    0.000    0.000    0.000    0.000 
#
# Total GULP energy -178789.432598 kJ/mol
# GULP energy per Si atom -5587.169769 kJ/mol
# Density = 2.394115 g / cm^3
# Si number density = 23.995762 Si / 1000 Ang^3
#
#
#
# Elastic Constant Matrix: (Units=GPa)
#
#
# Indices 1 2 3 4 5 6 
#
# 1 105.8247 20.6929 -0.3174 0.0000 0.0000 0.0000
# 2 20.6929 45.8116 7.5686 0.0000 0.0000 0.0000
# 3 -0.3174 7.5686 53.9804 0.0000 0.0000 0.0000
# 4 0.0000 0.0000 0.0000 22.8683 0.0000 0.0000
# 5 0.0000 0.0000 0.0000 0.0000 36.9200 0.0000
# 6 0.0000 0.0000 0.0000 0.0000 0.0000 22.1957
#
#
#
# Elastic Compliance Matrix: (Units=1/GPa)
#
#
# Indices 1 2 3 4 5 6 
#
# 1 0.010394 -0.004816 0.000736 0.000000 0.000000 0.000000
# 2 -0.004816 0.024578 -0.003474 0.000000 0.000000 0.000000
# 3 0.000736 -0.003474 0.019017 0.000000 0.000000 0.000000
# 4 0.000000 0.000000 0.000000 0.043729 0.000000 0.000000
# 5 0.000000 0.000000 0.000000 0.000000 0.027086 0.000000
# 6 0.000000 0.000000 0.000000 0.000000 0.000000 0.045054
#
#
# Mechanical properties :
#
#
# Convention : Reuss Voigt Hill
#
# Bulk Modulus (GPa) = 25.72043 29.05610 27.38827
# Shear Modulus (GPa) = 25.26209 28.24166 26.75187
#
# Velocity S-wave (km/s) = 3.24817 3.43438 3.34257
# Velocity P-wave (km/s) = 4.98091 5.27843 5.13182
#
# Compressibility (1/GPa) = 0.03887960
#
# Stress axis : x y z
#
# Youngs Moduli (GPa) = 96.21307 40.68663 52.58525
#
# Poissons Ratio (x) = 0.19596 -0.03873
# Poissons Ratio (y) = 0.46340 0.18270
# Poissons Ratio (z) = -0.07085 0.14136
#
# Static dielectric constant tensor:
#      x y z
#    x 1.890630 0.000000 0.000000 
#    y 0.000000 2.029470 0.000000 
#    z 0.000000 0.000000 1.945240 
# 
# From -- ./inp_files/7673.got.cif
#   From: 2010.05.17/outbox.cif.g08.bks.cpg/sg33_4_cif.got.tgz:7673.got - 2010.06.03 17:15:25.
