data_PCOD9346618
_publ_section_title
;
Structure prediction by ZEFSAII (Michael W. Deem and Ramdas Pophale) SiO2 
 PCOD9346618
Probable space group: P N A 21
;
_chemical_formula_sum "Si O2"
_cell_formula_units_Z 20
_cell_length_a 9.083554
_cell_length_b 16.338155
_cell_length_c 5.984665
_cell_angle_alpha 90.000000
_cell_angle_beta 90.000000
_cell_angle_gamma 90.000000
_cell_volume 888.175235
_symmetry_space_group_name_H-M "P N A 21"
_symmetry_group_IT_number 33
_symmetry_cell_setting 'orthorhombic'
loop_
_space_group_symop_operation_xyz
x,y,z
-x,-y,1/2+z
1/2-x,1/2+y,1/2+z
1/2+x,1/2-y,z
loop_
_atom_site_type_symbol
_atom_site_label
_atom_site_fract_x
_atom_site_fract_y
_atom_site_fract_z
Si Si1 0.778314 0.315729 0.109720
Si Si2 0.987332 0.540745 0.653913
Si Si3 0.655976 0.543940 0.632115
Si Si4 0.035891 0.823043 0.376685
Si Si5 0.926337 0.870567 0.967577
O O1 0.701875 0.319367 0.351027
O O2 0.888382 0.392093 0.107258
O O3 0.871524 0.239256 0.024481
O O4 0.633260 0.322913 0.956105
O O5 0.820151 0.569787 0.693272
O O6 0.976009 0.497324 0.403446
O O7 0.613173 0.588897 0.402432
O O8 0.643463 0.446628 0.605284
O O9 0.535348 0.582718 0.797458
O O10 0.023464 0.809162 0.114598
#
# Coordination Sequence:
#
# PCOD9346618 Si02
#       5
#     4   4   4   4   4
#     4  11  26  48  69 113 150 200 259 316 396 461
#     4  12  27  46  76 111 153 200 254 319 387 465
#     4  11  23  42  73 106 146 198 250 315 378 461
#     4  11  25  46  73 102 154 196 253 317 391 463
#     4  11  23  44  77 104 149 202 256 317 388 472
#
# _framework density 22.518076000000001
#
# number of rings (size 3 to 8) (size 9 to 14) (size 15 to 20)
#    0.000    0.800    4.000    2.400    5.600    3.200 
#    3.600    0.000    0.000    0.000    0.000    0.000 
#    0.000    0.000    0.000    0.000    0.000    0.000 
#
# Total GULP energy -111457.255038 kJ/mol
# GULP energy per Si atom -5572.862752 kJ/mol
# Density = 2.246682 g / cm^3
# Si number density = 22.518076 Si / 1000 Ang^3
#
#
#
# Elastic Constant Matrix: (Units=GPa)
#
#
# Indices 1 2 3 4 5 6 
#
# 1 145.0223 41.9410 34.8139 0.0000 0.0000 0.0000
# 2 41.9410 88.2788 59.1956 0.0000 0.0000 0.0000
# 3 34.8139 59.1956 104.1131 0.0000 0.0000 0.0000
# 4 0.0000 0.0000 0.0000 19.7581 0.0000 0.0000
# 5 0.0000 0.0000 0.0000 0.0000 33.8111 0.0000
# 6 0.0000 0.0000 0.0000 0.0000 0.0000 33.7983
#
#
#
# Elastic Compliance Matrix: (Units=1/GPa)
#
#
# Indices 1 2 3 4 5 6 
#
# 1 0.008038 -0.003259 -0.000835 0.000000 0.000000 0.000000
# 2 -0.003259 0.019629 -0.010071 0.000000 0.000000 0.000000
# 3 -0.000835 -0.010071 0.015610 0.000000 0.000000 0.000000
# 4 0.000000 0.000000 0.000000 0.050612 0.000000 0.000000
# 5 0.000000 0.000000 0.000000 0.000000 0.029576 0.000000
# 6 0.000000 0.000000 0.000000 0.000000 0.000000 0.029587
#
#
# Mechanical properties :
#
#
# Convention : Reuss Voigt Hill
#
# Bulk Modulus (GPa) = 66.89839 67.70169 67.30004
# Shear Modulus (GPa) = 26.82900 30.90440 28.86670
#
# Velocity S-wave (km/s) = 3.45547 3.70865 3.58430
# Velocity P-wave (km/s) = 6.75971 6.96200 6.86160
#
# Compressibility (1/GPa) = 0.01494804
#
# Stress axis : x y z
#
# Youngs Moduli (GPa) = 124.40140 50.94470 64.06155
#
# Poissons Ratio (x) = 0.16604 0.05348
# Poissons Ratio (y) = 0.40546 0.64514
# Poissons Ratio (z) = 0.10386 0.51305
#
# Static dielectric constant tensor:
#      x y z
#    x 1.793560 0.000000 0.000000 
#    y 0.000000 1.863930 0.000000 
#    z 0.000000 0.000000 2.020930 
# 
# From -- ./inp_files/318.got.cif
#   From: 2010.05.17/outbox.cif.g08.bks.cpg/sg33_1_cif.got.tgz:318.got - 2010.06.03 17:15:25.
