data_PCOD9346111
_publ_section_title
;
Structure prediction by ZEFSAII (Michael W. Deem and Ramdas Pophale) SiO2 
 PCOD9346111
Probable space group: P N A 21
;
_chemical_formula_sum "Si O2"
_cell_formula_units_Z 24
_cell_length_a 11.218491
_cell_length_b 13.675591
_cell_length_c 6.302087
_cell_angle_alpha 90.000000
_cell_angle_beta 90.000000
_cell_angle_gamma 90.000000
_cell_volume 966.863002
_symmetry_space_group_name_H-M "P N A 21"
_symmetry_group_IT_number 33
_symmetry_cell_setting 'orthorhombic'
loop_
_space_group_symop_operation_xyz
x,y,z
-x,-y,1/2+z
1/2-x,1/2+y,1/2+z
1/2+x,1/2-y,z
loop_
_atom_site_type_symbol
_atom_site_label
_atom_site_fract_x
_atom_site_fract_y
_atom_site_fract_z
Si Si1 0.762530 0.476144 0.726810
Si Si2 0.937910 0.383800 0.984877
Si Si3 0.188937 0.321164 0.461291
Si Si4 0.680292 0.034292 0.811807
Si Si5 0.067518 0.757097 0.839646
Si Si6 0.966039 0.013684 0.408666
O O1 0.801099 0.584431 0.806418
O O2 0.728134 0.490834 0.481852
O O3 0.652905 0.448613 0.873519
O O4 0.865239 0.397857 0.768179
O O5 0.867822 0.452302 0.152681
O O6 0.944216 0.279442 0.096008
O O7 0.064246 0.432781 0.943105
O O8 0.219253 0.369483 0.687756
O O9 0.291997 0.243744 0.402448
O O10 0.050355 0.289181 0.451269
O O11 0.053481 0.871167 0.875885
O O12 0.981183 0.007143 0.666903
#
# Coordination Sequence:
#
# PCOD9346111 Si02
#       6
#     4   4   4   4   4   4
#     4  10  23  43  74 102 145 195 239 320 383 460
#     4  11  21  39  71 107 137 179 249 308 385 444
#     4  10  24  44  67 104 151 191 248 317 375 458
#     4  11  20  41  69 104 146 181 233 313 399 444
#     4  11  25  47  71 109 146 198 260 315 378 461
#     4  11  29  52  72 102 155 212 257 307 392 477
#
# _framework density 24.822541999999999
#
# number of rings (size 3 to 8) (size 9 to 14) (size 15 to 20)
#    0.000    1.333    3.333    1.000    9.333    1.333 
#    3.000    0.000    0.000    0.000    0.000    0.000 
#    0.000    0.000    0.000    0.000    0.000    0.000 
#
# Total GULP energy -133641.648484 kJ/mol
# GULP energy per Si atom -5568.402020 kJ/mol
# Density = 2.476604 g / cm^3
# Si number density = 24.822542 Si / 1000 Ang^3
#
#
#
# Elastic Constant Matrix: (Units=GPa)
#
#
# Indices 1 2 3 4 5 6 
#
# 1 85.5163 8.6282 50.0579 0.0000 0.0000 0.0000
# 2 8.6282 51.0029 33.9857 0.0000 0.0000 0.0000
# 3 50.0579 33.9857 145.3813 0.0000 0.0000 0.0000
# 4 0.0000 0.0000 0.0000 33.9190 0.0000 0.0000
# 5 0.0000 0.0000 0.0000 0.0000 44.3380 0.0000
# 6 0.0000 0.0000 0.0000 0.0000 0.0000 25.7160
#
#
#
# Elastic Compliance Matrix: (Units=1/GPa)
#
#
# Indices 1 2 3 4 5 6 
#
# 1 0.014693 0.001049 -0.005304 0.000000 0.000000 0.000000
# 2 0.001049 0.023299 -0.005808 0.000000 0.000000 0.000000
# 3 -0.005304 -0.005808 0.010063 0.000000 0.000000 0.000000
# 4 0.000000 0.000000 0.000000 0.029482 0.000000 0.000000
# 5 0.000000 0.000000 0.000000 0.000000 0.022554 0.000000
# 6 0.000000 0.000000 0.000000 0.000000 0.000000 0.038886
#
#
# Mechanical properties :
#
#
# Convention : Reuss Voigt Hill
#
# Bulk Modulus (GPa) = 35.80605 51.91600 43.86103
# Shear Modulus (GPa) = 29.68900 33.40986 31.54943
#
# Velocity S-wave (km/s) = 3.46215 3.67270 3.56898
# Velocity P-wave (km/s) = 5.51707 6.24061 5.88996
#
# Compressibility (1/GPa) = 0.02792824
#
# Stress axis : x y z
#
# Youngs Moduli (GPa) = 68.06083 42.91971 99.37879
#
# Poissons Ratio (x) = -0.04502 0.52713
# Poissons Ratio (y) = -0.07139 0.57717
# Poissons Ratio (z) = 0.36101 0.24927
#
# Static dielectric constant tensor:
#      x y z
#    x 2.098000 0.000000 0.000000 
#    y 0.000000 1.900920 0.000000 
#    z 0.000000 0.000000 2.080810 
# 
# From -- ./inp_files/854.got.cif
#   From: 2010.05.17/outbox.cif.g08.bks.cpg/sg33_1_cif.got.tgz:854.got - 2010.06.03 17:15:25.
