data_PCOD9346584
_publ_section_title
;
Structure prediction by ZEFSAII (Michael W. Deem and Ramdas Pophale) SiO2 
 PCOD9346584
Probable space group: P N A 21
;
_chemical_formula_sum "Si O2"
_cell_formula_units_Z 16
_cell_length_a 10.162803
_cell_length_b 5.154680
_cell_length_c 12.246446
_cell_angle_alpha 90.000000
_cell_angle_beta 90.000000
_cell_angle_gamma 90.000000
_cell_volume 641.542288
_symmetry_space_group_name_H-M "P N A 21"
_symmetry_group_IT_number 33
_symmetry_cell_setting 'orthorhombic'
loop_
_space_group_symop_operation_xyz
x,y,z
-x,-y,1/2+z
1/2-x,1/2+y,1/2+z
1/2+x,1/2-y,z
loop_
_atom_site_type_symbol
_atom_site_label
_atom_site_fract_x
_atom_site_fract_y
_atom_site_fract_z
Si Si1 0.957003 0.184736 0.001080
Si Si2 0.929411 0.324121 0.409848
Si Si3 0.595373 0.822795 0.277353
Si Si4 0.651960 0.539255 0.718923
O O1 0.880398 0.207969 0.113241
O O2 0.862423 0.208851 0.895522
O O3 0.064296 0.411185 0.979167
O O4 0.022535 0.904575 0.987947
O O5 0.032405 0.402731 0.312991
O O6 0.820443 0.200552 0.330529
O O7 0.474242 0.645325 0.239350
O O8 0.719681 0.861915 0.201552
#
# Coordination Sequence:
#
# PCOD9346584 Si02
#       4
#     4   4   4   4
#     4   9  22  45  66 108 142 198 234 303 369 438
#     4   9  22  45  64 106 142 183 248 292 357 446
#     4   9  24  45  73 109 148 192 255 301 370 451
#     4  11  22  49  77 107 154 195 247 314 376 439
#
# _framework density 24.939899
#
# number of rings (size 3 to 8) (size 9 to 14) (size 15 to 20)
#    1.500    1.000    0.000    0.000    3.500    4.000 
#   22.500    0.000    0.000    0.000    0.000    0.000 
#    0.000    0.000    0.000    0.000    0.000    0.000 
#
# Total GULP energy -89160.990933 kJ/mol
# GULP energy per Si atom -5572.561933 kJ/mol
# Density = 2.488313 g / cm^3
# Si number density = 24.939899 Si / 1000 Ang^3
#
#
#
# Elastic Constant Matrix: (Units=GPa)
#
#
# Indices 1 2 3 4 5 6 
#
# 1 97.6356 25.2269 19.6259 0.0000 0.0000 0.0000
# 2 25.2269 148.6756 14.4745 0.0000 0.0000 0.0000
# 3 19.6259 14.4745 77.7956 0.0000 0.0000 0.0000
# 4 0.0000 0.0000 0.0000 31.7266 0.0000 0.0000
# 5 0.0000 0.0000 0.0000 0.0000 20.5504 0.0000
# 6 0.0000 0.0000 0.0000 0.0000 0.0000 25.0289
#
#
#
# Elastic Compliance Matrix: (Units=1/GPa)
#
#
# Indices 1 2 3 4 5 6 
#
# 1 0.011174 -0.001651 -0.002512 0.000000 0.000000 0.000000
# 2 -0.001651 0.007094 -0.000903 0.000000 0.000000 0.000000
# 3 -0.002512 -0.000903 0.013656 0.000000 0.000000 0.000000
# 4 0.000000 0.000000 0.000000 0.031519 0.000000 0.000000
# 5 0.000000 0.000000 0.000000 0.000000 0.048661 0.000000
# 6 0.000000 0.000000 0.000000 0.000000 0.000000 0.039954
#
#
# Mechanical properties :
#
#
# Convention : Reuss Voigt Hill
#
# Bulk Modulus (GPa) = 45.89017 49.19570 47.54294
# Shear Modulus (GPa) = 29.50653 33.11316 31.30984
#
# Velocity S-wave (km/s) = 3.44336 3.64774 3.54702
# Velocity P-wave (km/s) = 5.85228 6.12453 5.98995
#
# Compressibility (1/GPa) = 0.02179116
#
# Stress axis : x y z
#
# Youngs Moduli (GPa) = 89.49575 140.96009 73.22849
#
# Poissons Ratio (x) = 0.23278 0.18392
# Poissons Ratio (y) = 0.14779 0.06615
# Poissons Ratio (z) = 0.22478 0.12733
#
# Static dielectric constant tensor:
#      x y z
#    x 1.988970 0.000000 0.000000 
#    y 0.000000 2.020880 0.000000 
#    z 0.000000 0.000000 2.021770 
# 
# From -- ./inp_files/6205.got.cif
#   From: 2010.05.17/outbox.cif.g08.bks.cpg/sg33_4_cif.got.tgz:6205.got - 2010.06.03 17:15:25.
