data_PCOD9346315
_publ_section_title
;
Structure prediction by ZEFSAII (Michael W. Deem and Ramdas Pophale) SiO2 
 PCOD9346315
Probable space group: P N A 21
;
_chemical_formula_sum "Si O2"
_cell_formula_units_Z 24
_cell_length_a 12.173816
_cell_length_b 14.507243
_cell_length_c 5.604159
_cell_angle_alpha 90.000000
_cell_angle_beta 90.000000
_cell_angle_gamma 90.000000
_cell_volume 989.742154
_symmetry_space_group_name_H-M "P N A 21"
_symmetry_group_IT_number 33
_symmetry_cell_setting 'orthorhombic'
loop_
_space_group_symop_operation_xyz
x,y,z
-x,-y,1/2+z
1/2-x,1/2+y,1/2+z
1/2+x,1/2-y,z
loop_
_atom_site_type_symbol
_atom_site_label
_atom_site_fract_x
_atom_site_fract_y
_atom_site_fract_z
Si Si1 0.442579 0.612274 0.934480
Si Si2 0.804857 0.156718 0.390852
Si Si3 0.619632 0.202551 0.699751
Si Si4 0.031569 0.544458 0.995171
Si Si5 0.244619 0.034933 0.692732
Si Si6 0.291257 0.683655 0.578021
O O1 0.570947 0.624602 0.921516
O O2 0.374697 0.609155 0.691694
O O3 0.399599 0.708396 0.040300
O O4 0.381594 0.540044 0.103681
O O5 0.743329 0.170594 0.641934
O O6 0.788542 0.251034 0.236870
O O7 0.742047 0.068595 0.283284
O O8 0.529843 0.132048 0.608317
O O9 0.624945 0.240395 0.965382
O O10 0.163752 0.551186 0.990500
O O11 0.005946 0.475218 0.222184
O O12 0.266126 0.118861 0.879099
#
# Coordination Sequence:
#
# PCOD9346315 Si02
#       6
#     4   4   4   4   4   4
#     4  10  26  43  70 101 142 191 248 308 381 453
#     4  11  24  47  69 103 146 188 247 316 379 455
#     4  10  24  45  68 102 139 188 245 304 382 441
#     4  12  27  46  75 109 147 193 252 311 377 451
#     4  11  26  45  68 108 141 194 249 312 379 464
#     4  10  25  44  70 103 139 194 245 313 384 454
#
# _framework density 24.248742
#
# number of rings (size 3 to 8) (size 9 to 14) (size 15 to 20)
#    0.000    1.333    1.667    1.000   16.333    2.667 
#    0.000    0.000    0.000    0.000    0.000    0.000 
#    0.000    0.000    0.000    0.000    0.000    0.000 
#
# Total GULP energy -133806.990916 kJ/mol
# GULP energy per Si atom -5575.291288 kJ/mol
# Density = 2.419355 g / cm^3
# Si number density = 24.248742 Si / 1000 Ang^3
#
#
#
# Elastic Constant Matrix: (Units=GPa)
#
#
# Indices 1 2 3 4 5 6 
#
# 1 121.5660 -7.1987 -7.4868 0.0000 0.0000 0.0000
# 2 -7.1987 74.6185 1.3651 0.0000 0.0000 0.0000
# 3 -7.4868 1.3651 29.5729 0.0000 0.0000 0.0000
# 4 0.0000 0.0000 0.0000 7.5317 0.0000 0.0000
# 5 0.0000 0.0000 0.0000 0.0000 24.2255 0.0000
# 6 0.0000 0.0000 0.0000 0.0000 0.0000 32.2384
#
#
#
# Elastic Compliance Matrix: (Units=1/GPa)
#
#
# Indices 1 2 3 4 5 6 
#
# 1 0.008400 0.000772 0.002091 0.000000 0.000000 0.000000
# 2 0.000772 0.013484 -0.000427 0.000000 0.000000 0.000000
# 3 0.002091 -0.000427 0.034364 0.000000 0.000000 0.000000
# 4 0.000000 0.000000 0.000000 0.132773 0.000000 0.000000
# 5 0.000000 0.000000 0.000000 0.000000 0.041279 0.000000
# 6 0.000000 0.000000 0.000000 0.000000 0.000000 0.031019
#
#
# Mechanical properties :
#
#
# Convention : Reuss Voigt Hill
#
# Bulk Modulus (GPa) = 16.36108 22.12407 19.24258
# Shear Modulus (GPa) = 18.06230 28.73763 23.39996
#
# Velocity S-wave (km/s) = 2.73220 3.44629 3.10981
# Velocity P-wave (km/s) = 4.08841 4.99795 4.56588
#
# Compressibility (1/GPa) = 0.06112065
#
# Stress axis : x y z
#
# Youngs Moduli (GPa) = 119.04067 74.16308 29.10041
#
# Poissons Ratio (x) = -0.05727 -0.06085
# Poissons Ratio (y) = -0.09192 0.01242
# Poissons Ratio (z) = -0.24892 0.03166
#
# Static dielectric constant tensor:
#      x y z
#    x 1.942380 0.000000 0.000000 
#    y 0.000000 1.962350 0.000000 
#    z 0.000000 0.000000 2.275710 
# 
# From -- ./inp_files/782.got.cif
#   From: 2010.05.17/outbox.cif.g08.bks.cpg/sg33_1_cif.got.tgz:782.got - 2010.06.03 17:15:25.
