data_PCOD9346606
_publ_section_title
;
Structure prediction by ZEFSAII (Michael W. Deem and Ramdas Pophale) SiO2 
 PCOD9346606
Probable space group: P N A 21
;
_chemical_formula_sum "Si O2"
_cell_formula_units_Z 28
_cell_length_a 10.160789
_cell_length_b 6.159672
_cell_length_c 17.892741
_cell_angle_alpha 90.000000
_cell_angle_beta 90.000000
_cell_angle_gamma 90.000000
_cell_volume 1119.855262
_symmetry_space_group_name_H-M "P N A 21"
_symmetry_group_IT_number 33
_symmetry_cell_setting 'orthorhombic'
loop_
_space_group_symop_operation_xyz
x,y,z
-x,-y,1/2+z
1/2-x,1/2+y,1/2+z
1/2+x,1/2-y,z
loop_
_atom_site_type_symbol
_atom_site_label
_atom_site_fract_x
_atom_site_fract_y
_atom_site_fract_z
Si Si1 0.250491 0.708936 0.546740
Si Si2 0.903421 0.650513 0.875400
Si Si3 0.493712 0.917851 0.611621
Si Si4 0.043475 0.841221 0.738257
Si Si5 0.684338 0.987319 0.910118
Si Si6 0.244936 0.688692 0.284458
Si Si7 0.613239 0.649197 0.131358
O O1 0.340460 0.845058 0.605491
O O2 0.287991 0.824054 0.470058
O O3 0.299176 0.467747 0.568733
O O4 0.093845 0.703432 0.556472
O O5 0.943193 0.796272 0.804111
O O6 0.038563 0.609345 0.919020
O O7 0.860967 0.418672 0.840851
O O8 0.789563 0.790757 0.914538
O O9 0.561310 0.882471 0.692857
O O10 0.480586 0.170491 0.596876
O O11 0.980606 0.977806 0.671637
O O12 0.159482 0.983208 0.771194
O O13 0.694181 0.108706 0.829593
O O14 0.191378 0.754917 0.203064
#
# Coordination Sequence:
#
# PCOD9346606 Si02
#       7
#     4   4   4   4   4   4   4
#     4  11  29  50  77 110 163 213 267 327 407 496
#     4  12  26  48  80 114 161 207 263 336 397 485
#     4  11  25  49  77 112 157 207 270 332 403 478
#     4  11  23  41  73 121 147 196 261 329 396 464
#     4  12  30  52  77 116 162 216 270 330 414 491
#     4  12  24  43  82 120 161 200 274 333 405 476
#     4  11  23  45  80 115 155 203 267 339 398 470
#
# _framework density 25.003232000000001
#
# number of rings (size 3 to 8) (size 9 to 14) (size 15 to 20)
#    0.000    0.571    4.286    2.571    6.000    2.286 
#    5.143    0.000    0.000    0.000    0.000    0.000 
#    0.000    0.000    0.000    0.000    0.000    0.000 
#
# Total GULP energy -156561.396353 kJ/mol
# GULP energy per Si atom -5591.478441 kJ/mol
# Density = 2.494632 g / cm^3
# Si number density = 25.003232 Si / 1000 Ang^3
#
#
#
# Elastic Constant Matrix: (Units=GPa)
#
#
# Indices 1 2 3 4 5 6 
#
# 1 112.7272 47.4130 43.3588 0.0000 0.0000 0.0000
# 2 47.4130 89.4845 52.1412 0.0000 0.0000 0.0000
# 3 43.3588 52.1412 114.1098 0.0000 0.0000 0.0000
# 4 0.0000 0.0000 0.0000 44.9652 0.0000 0.0000
# 5 0.0000 0.0000 0.0000 0.0000 31.6868 0.0000
# 6 0.0000 0.0000 0.0000 0.0000 0.0000 47.4456
#
#
#
# Elastic Compliance Matrix: (Units=1/GPa)
#
#
# Indices 1 2 3 4 5 6 
#
# 1 0.011813 -0.004966 -0.002220 0.000000 0.000000 0.000000
# 2 -0.004966 0.017318 -0.006026 0.000000 0.000000 0.000000
# 3 -0.002220 -0.006026 0.012361 0.000000 0.000000 0.000000
# 4 0.000000 0.000000 0.000000 0.022239 0.000000 0.000000
# 5 0.000000 0.000000 0.000000 0.000000 0.031559 0.000000
# 6 0.000000 0.000000 0.000000 0.000000 0.000000 0.021077
#
#
# Mechanical properties :
#
#
# Convention : Reuss Voigt Hill
#
# Bulk Modulus (GPa) = 66.36574 66.90527 66.63550
# Shear Modulus (GPa) = 33.82656 36.38009 35.10332
#
# Velocity S-wave (km/s) = 3.68215 3.81860 3.75100
# Velocity P-wave (km/s) = 6.68417 6.80140 6.74304
#
# Compressibility (1/GPa) = 0.01506802
#
# Stress axis : x y z
#
# Youngs Moduli (GPa) = 84.64972 57.74456 80.90282
#
# Poissons Ratio (x) = 0.28675 0.17958
# Poissons Ratio (y) = 0.42036 0.48754
# Poissons Ratio (z) = 0.18789 0.34798
#
# Static dielectric constant tensor:
#      x y z
#    x 1.978960 0.000000 0.000000 
#    y 0.000000 2.110500 0.000000 
#    z 0.000000 0.000000 2.025490 
# 
# From -- ./inp_files/8649.got.cif
#   From: 2010.05.17/outbox.cif.g08.bks.cpg/sg33_5_cif.got.tgz:8649.got - 2010.06.03 17:15:25.
