data_PCOD9346203
_publ_section_title
;
Structure prediction by ZEFSAII (Michael W. Deem and Ramdas Pophale) SiO2 
 PCOD9346203
Probable space group: P N A 21
;
_chemical_formula_sum "Si O2"
_cell_formula_units_Z 32
_cell_length_a 31.895267
_cell_length_b 5.480676
_cell_length_c 7.127077
_cell_angle_alpha 90.000000
_cell_angle_beta 90.000000
_cell_angle_gamma 90.000000
_cell_volume 1245.867399
_symmetry_space_group_name_H-M "P N A 21"
_symmetry_group_IT_number 33
_symmetry_cell_setting 'orthorhombic'
loop_
_space_group_symop_operation_xyz
x,y,z
-x,-y,1/2+z
1/2-x,1/2+y,1/2+z
1/2+x,1/2-y,z
loop_
_atom_site_type_symbol
_atom_site_label
_atom_site_fract_x
_atom_site_fract_y
_atom_site_fract_z
Si Si1 0.207693 0.838922 0.625000
Si Si2 0.222433 0.339253 0.836244
Si Si3 0.053742 0.897218 0.494593
Si Si4 0.381783 0.283155 0.271556
Si Si5 0.065781 0.390973 0.917358
Si Si6 0.489042 0.872953 0.075299
Si Si7 0.869878 0.181258 0.721272
Si Si8 0.648186 0.196324 0.142555
O O1 0.222333 0.612260 0.755729
O O2 0.233827 0.799133 0.439235
O O3 0.157994 0.811314 0.642223
O O4 0.217341 0.112303 0.696280
O O5 0.183082 0.321639 0.980908
O O6 0.082283 0.947734 0.680855
O O7 0.030684 0.641535 0.539530
O O8 0.026578 0.140203 0.455265
O O9 0.086698 0.849062 0.329865
O O10 0.401650 0.015057 0.272628
O O11 0.371973 0.320637 0.490951
O O12 0.028011 0.301975 0.781886
O O13 0.099806 0.279672 0.061945
O O14 0.038339 0.585385 0.040372
O O15 0.851606 0.447811 0.759126
O O16 0.843759 0.937865 0.761428
#
# Coordination Sequence:
#
# PCOD9346203 Si02
#       8
#     4   4   4   4   4   4   4   4
#     4  12  26  47  76 108 149 187 251 298 379 448
#     4  12  25  48  75 108 146 190 243 305 369 455
#     4  11  26  43  66 107 141 181 248 290 353 426
#     4  10  23  48  71 101 139 197 223 296 368 427
#     4  10  24  45  71  96 144 185 238 294 361 427
#     4  11  26  43  66 104 139 186 240 301 347 424
#     4  11  22  41  75  95 139 183 234 287 348 430
#     4  11  22  43  72  97 135 193 227 281 373 421
#
# _framework density 25.684916999999999
#
# number of rings (size 3 to 8) (size 9 to 14) (size 15 to 20)
#    0.000    1.000    3.750    2.250    5.250    6.000 
#    0.000    0.000    0.000    0.000    0.000    0.000 
#    0.000    0.000    0.000    0.000    0.000    0.000 
#
# Total GULP energy -178673.831165 kJ/mol
# GULP energy per Si atom -5583.557224 kJ/mol
# Density = 2.562646 g / cm^3
# Si number density = 25.684917 Si / 1000 Ang^3
#
#
#
# Elastic Constant Matrix: (Units=GPa)
#
#
# Indices 1 2 3 4 5 6 
#
# 1 115.0053 20.7850 28.0672 0.0000 0.0000 0.0000
# 2 20.7850 114.2799 7.1153 0.0000 0.0000 0.0000
# 3 28.0672 7.1153 55.9293 0.0000 0.0000 0.0000
# 4 0.0000 0.0000 0.0000 28.9582 0.0000 0.0000
# 5 0.0000 0.0000 0.0000 0.0000 33.1877 0.0000
# 6 0.0000 0.0000 0.0000 0.0000 0.0000 28.8276
#
#
#
# Elastic Compliance Matrix: (Units=1/GPa)
#
#
# Indices 1 2 3 4 5 6 
#
# 1 0.010172 -0.001545 -0.004908 0.000000 0.000000 0.000000
# 2 -0.001545 0.009055 -0.000377 0.000000 0.000000 0.000000
# 3 -0.004908 -0.000377 0.020391 0.000000 0.000000 0.000000
# 4 0.000000 0.000000 0.000000 0.034533 0.000000 0.000000
# 5 0.000000 0.000000 0.000000 0.000000 0.030132 0.000000
# 6 0.000000 0.000000 0.000000 0.000000 0.000000 0.034689
#
#
# Mechanical properties :
#
#
# Convention : Reuss Voigt Hill
#
# Bulk Modulus (GPa) = 38.52294 44.12774 41.32534
# Shear Modulus (GPa) = 31.00136 33.47784 32.23960
#
# Velocity S-wave (km/s) = 3.47794 3.61419 3.54672
# Velocity P-wave (km/s) = 5.58202 5.88508 5.73555
#
# Compressibility (1/GPa) = 0.02595856
#
# Stress axis : x y z
#
# Youngs Moduli (GPa) = 98.30644 110.43840 49.04167
#
# Poissons Ratio (x) = 0.17057 0.24071
# Poissons Ratio (y) = 0.15184 0.01848
# Poissons Ratio (z) = 0.48252 0.04162
#
# Static dielectric constant tensor:
#      x y z
#    x 2.028250 0.000000 0.000000 
#    y 0.000000 2.085580 0.000000 
#    z 0.000000 0.000000 2.090400 
# 
# From -- ./inp_files/5337.got.cif
#   From: 2010.05.17/outbox.cif.g08.bks.cpg/sg33_3_cif.got.tgz:5337.got - 2010.06.03 17:15:25.
