data_PCOD9346250
_publ_section_title
;
Structure prediction by ZEFSAII (Michael W. Deem and Ramdas Pophale) SiO2 
 PCOD9346250
Probable space group: P N A 21
;
_chemical_formula_sum "Si O2"
_cell_formula_units_Z 20
_cell_length_a 22.219886
_cell_length_b 5.062227
_cell_length_c 7.583212
_cell_angle_alpha 90.000000
_cell_angle_beta 90.000000
_cell_angle_gamma 90.000000
_cell_volume 852.975662
_symmetry_space_group_name_H-M "P N A 21"
_symmetry_group_IT_number 33
_symmetry_cell_setting 'orthorhombic'
loop_
_space_group_symop_operation_xyz
x,y,z
-x,-y,1/2+z
1/2-x,1/2+y,1/2+z
1/2+x,1/2-y,z
loop_
_atom_site_type_symbol
_atom_site_label
_atom_site_fract_x
_atom_site_fract_y
_atom_site_fract_z
Si Si1 0.930302 0.137523 0.722300
Si Si2 0.623123 0.844138 0.557957
Si Si3 0.190446 0.943857 0.064725
Si Si4 0.756533 0.083162 0.189336
Si Si5 0.557988 0.347805 0.574065
O O1 0.943293 0.902732 0.863165
O O2 0.881424 0.069662 0.575501
O O3 0.993150 0.233018 0.644949
O O4 0.895330 0.337997 0.852339
O O5 0.688105 0.718699 0.584188
O O6 0.577024 0.635538 0.644633
O O7 0.609126 0.136225 0.621932
O O8 0.214911 0.012265 0.872092
O O9 0.222216 0.664173 0.105842
O O10 0.210709 0.170236 0.202071
#
# Coordination Sequence:
#
# PCOD9346250 Si02
#       5
#     4   4   4   4   4
#     4  10  26  42  70  98 142 180 239 278 357 406
#     4  10  24  42  69  94 142 172 237 279 351 406
#     4  12  27  44  74  99 144 182 236 290 358 416
#     4  12  26  47  69 107 136 187 233 294 352 428
#     4  10  25  41  68  98 138 181 229 291 332 422
#
# _framework density 23.447330000000001
#
# number of rings (size 3 to 8) (size 9 to 14) (size 15 to 20)
#    1.200    0.000    0.000    4.800   11.200    0.000 
#    0.000    0.000    0.000    0.000    0.000    0.000 
#    0.000    0.000    0.000    0.000    0.000    0.000 
#
# Total GULP energy -111642.436647 kJ/mol
# GULP energy per Si atom -5582.121832 kJ/mol
# Density = 2.339396 g / cm^3
# Si number density = 23.447330 Si / 1000 Ang^3
#
#
#
# Elastic Constant Matrix: (Units=GPa)
#
#
# Indices 1 2 3 4 5 6 
#
# 1 110.7594 10.5601 25.2173 0.0000 0.0000 0.0000
# 2 10.5601 56.4231 6.1892 0.0000 0.0000 0.0000
# 3 25.2173 6.1892 59.6062 0.0000 0.0000 0.0000
# 4 0.0000 0.0000 0.0000 8.7084 0.0000 0.0000
# 5 0.0000 0.0000 0.0000 0.0000 33.8552 0.0000
# 6 0.0000 0.0000 0.0000 0.0000 0.0000 25.3776
#
#
#
# Elastic Compliance Matrix: (Units=1/GPa)
#
#
# Indices 1 2 3 4 5 6 
#
# 1 0.010105 -0.001439 -0.004126 0.000000 0.000000 0.000000
# 2 -0.001439 0.018132 -0.001274 0.000000 0.000000 0.000000
# 3 -0.004126 -0.001274 0.018655 0.000000 0.000000 0.000000
# 4 0.000000 0.000000 0.000000 0.114832 0.000000 0.000000
# 5 0.000000 0.000000 0.000000 0.000000 0.029538 0.000000
# 6 0.000000 0.000000 0.000000 0.000000 0.000000 0.039405
#
#
# Mechanical properties :
#
#
# Convention : Reuss Voigt Hill
#
# Bulk Modulus (GPa) = 30.10701 34.52463 32.31582
# Shear Modulus (GPa) = 19.57599 25.90971 22.74285
#
# Velocity S-wave (km/s) = 2.89258 3.32779 3.11779
# Velocity P-wave (km/s) = 4.90145 5.43340 5.17427
#
# Compressibility (1/GPa) = 0.03321486
#
# Stress axis : x y z
#
# Youngs Moduli (GPa) = 98.96013 55.15031 53.60629
#
# Poissons Ratio (x) = 0.07934 0.22116
# Poissons Ratio (y) = 0.14237 0.06830
# Poissons Ratio (z) = 0.40828 0.07027
#
# Static dielectric constant tensor:
#      x y z
#    x 1.868730 0.000000 0.000000 
#    y 0.000000 1.913840 0.000000 
#    z 0.000000 0.000000 1.929820 
# 
# From -- ./inp_files/4619.got.cif
#   From: 2010.05.17/outbox.cif.g08.bks.cpg/sg33_3_cif.got.tgz:4619.got - 2010.06.03 17:15:25.
