data_PCOD9346368
_publ_section_title
;
Structure prediction by ZEFSAII (Michael W. Deem and Ramdas Pophale) SiO2 
 PCOD9346368
Probable space group: P N A 21
;
_chemical_formula_sum "Si O2"
_cell_formula_units_Z 12
_cell_length_a 10.128239
_cell_length_b 7.864854
_cell_length_c 5.189740
_cell_angle_alpha 90.000000
_cell_angle_beta 90.000000
_cell_angle_gamma 90.000000
_cell_volume 413.399747
_symmetry_space_group_name_H-M "P N A 21"
_symmetry_group_IT_number 33
_symmetry_cell_setting 'orthorhombic'
loop_
_space_group_symop_operation_xyz
x,y,z
-x,-y,1/2+z
1/2-x,1/2+y,1/2+z
1/2+x,1/2-y,z
loop_
_atom_site_type_symbol
_atom_site_label
_atom_site_fract_x
_atom_site_fract_y
_atom_site_fract_z
Si Si1 0.099801 0.653882 0.760600
Si Si2 0.327216 0.814286 0.461591
Si Si3 0.928719 0.035801 0.504404
O O1 0.192101 0.790455 0.614364
O O2 0.096954 0.760897 0.027590
O O3 0.955937 0.634767 0.634644
O O4 0.169378 0.470688 0.764592
O O5 0.348551 0.620773 0.371708
O O6 0.955074 0.965061 0.789420
#
# Coordination Sequence:
#
# PCOD9346368 Si02
#       3
#     4   4   4
#     4  11  27  47  78 114 159 210 271 335 406 488
#     4  11  27  47  78 114 159 210 271 335 406 488
#     4  10  24  48  78 110 158 204 264 332 406 476
#
# _framework density 29.027593
#
# number of rings (size 3 to 8) (size 9 to 14) (size 15 to 20)
#    0.000    1.333    0.000    2.000   23.333    2.667 
#    0.000    0.000    0.000    0.000    0.000    0.000 
#    0.000    0.000    0.000    0.000    0.000    0.000 
#
# Total GULP energy -66969.638167 kJ/mol
# GULP energy per Si atom -5580.803181 kJ/mol
# Density = 2.896152 g / cm^3
# Si number density = 29.027593 Si / 1000 Ang^3
#
#
#
# Elastic Constant Matrix: (Units=GPa)
#
#
# Indices 1 2 3 4 5 6 
#
# 1 124.7384 19.2440 21.8628 0.0000 0.0000 0.0000
# 2 19.2440 250.7562 32.9918 0.0000 0.0000 0.0000
# 3 21.8628 32.9918 68.3269 0.0000 0.0000 0.0000
# 4 0.0000 0.0000 0.0000 61.6235 0.0000 0.0000
# 5 0.0000 0.0000 0.0000 0.0000 31.6868 0.0000
# 6 0.0000 0.0000 0.0000 0.0000 0.0000 38.1206
#
#
#
# Elastic Compliance Matrix: (Units=1/GPa)
#
#
# Indices 1 2 3 4 5 6 
#
# 1 0.008516 -0.000315 -0.002573 0.000000 0.000000 0.000000
# 2 -0.000315 0.004270 -0.001961 0.000000 0.000000 0.000000
# 3 -0.002573 -0.001961 0.016406 0.000000 0.000000 0.000000
# 4 0.000000 0.000000 0.000000 0.016228 0.000000 0.000000
# 5 0.000000 0.000000 0.000000 0.000000 0.031559 0.000000
# 6 0.000000 0.000000 0.000000 0.000000 0.000000 0.026233
#
#
# Mechanical properties :
#
#
# Convention : Reuss Voigt Hill
#
# Bulk Modulus (GPa) = 51.29734 65.77986 58.53860
# Shear Modulus (GPa) = 41.87357 50.93438 46.40397
#
# Velocity S-wave (km/s) = 3.80220 4.19344 4.00261
# Velocity P-wave (km/s) = 6.08161 6.79389 6.44759
#
# Compressibility (1/GPa) = 0.01949419
#
# Stress axis : x y z
#
# Youngs Moduli (GPa) = 117.42150 234.18503 60.95460
#
# Poissons Ratio (x) = 0.07378 0.15683
# Poissons Ratio (y) = 0.03700 0.11953
# Poissons Ratio (z) = 0.30211 0.45924
#
# Static dielectric constant tensor:
#      x y z
#    x 2.486230 0.000000 0.000000 
#    y 0.000000 2.393740 0.000000 
#    z 0.000000 0.000000 2.639550 
# 
# From -- ./inp_files/241.got.cif
#   From: 2010.05.17/outbox.cif.g08.bks.cpg/sg33_1_cif.got.tgz:241.got - 2010.06.03 17:15:25.
