data_PCOD9346524
_publ_section_title
;
Structure prediction by ZEFSAII (Michael W. Deem and Ramdas Pophale) SiO2 
 PCOD9346524
Probable space group: P N A 21
;
_chemical_formula_sum "Si O2"
_cell_formula_units_Z 32
_cell_length_a 10.450953
_cell_length_b 9.546076
_cell_length_c 12.930348
_cell_angle_alpha 90.000000
_cell_angle_beta 90.000000
_cell_angle_gamma 90.000000
_cell_volume 1290.003818
_symmetry_space_group_name_H-M "P N A 21"
_symmetry_group_IT_number 33
_symmetry_cell_setting 'orthorhombic'
loop_
_space_group_symop_operation_xyz
x,y,z
-x,-y,1/2+z
1/2-x,1/2+y,1/2+z
1/2+x,1/2-y,z
loop_
_atom_site_type_symbol
_atom_site_label
_atom_site_fract_x
_atom_site_fract_y
_atom_site_fract_z
Si Si1 0.507335 0.604102 0.402190
Si Si2 0.913328 0.610785 0.931968
Si Si3 0.566521 0.424993 0.231570
Si Si4 0.864438 0.298602 0.576041
Si Si5 0.326430 0.370584 0.314229
Si Si6 0.843925 0.024351 0.100732
Si Si7 0.219940 0.484813 0.619969
Si Si8 0.984278 0.616188 0.278896
O O1 0.606066 0.520930 0.327298
O O2 0.381928 0.503195 0.382677
O O3 0.580296 0.608614 0.511651
O O4 0.470859 0.753798 0.356883
O O5 0.789457 0.689304 0.881622
O O6 0.967021 0.514426 0.842923
O O7 0.869849 0.499258 0.021575
O O8 0.022168 0.698665 0.991323
O O9 0.466031 0.310256 0.276013
O O10 0.467108 0.526379 0.167719
O O11 0.684124 0.394599 0.157706
O O12 0.751091 0.410350 0.554783
O O13 0.803645 0.147742 0.586469
O O14 0.919774 0.339463 0.687706
O O15 0.272550 0.405173 0.199176
O O16 0.139988 0.431863 0.717134
#
# Coordination Sequence:
#
# PCOD9346524 Si02
#       8
#     4   4   4   4   4   4   4   4
#     4   9  18  33  63  89 116 169 213 264 316 381
#     4  11  24  37  63  94 136 162 209 282 331 369
#     4   8  18  33  61  88 120 153 213 266 298 379
#     4  11  22  38  62  91 124 170 213 268 321 388
#     4   8  18  36  56  87 125 163 201 268 316 382
#     4   9  18  34  61  89 123 159 214 255 320 378
#     4  11  22  40  64  94 124 169 225 258 325 400
#     4  11  22  39  62  96 128 161 216 277 321 381
#
# _framework density 24.80613
#
# number of rings (size 3 to 8) (size 9 to 14) (size 15 to 20)
#    1.500    0.500    2.500    2.250    3.500    0.000 
#    0.000    0.000    5.500    0.000    0.000    0.000 
#    0.000    0.000    0.000    0.000    0.000    0.000 
#
# Total GULP energy -178186.829690 kJ/mol
# GULP energy per Si atom -5568.338428 kJ/mol
# Density = 2.474967 g / cm^3
# Si number density = 24.806130 Si / 1000 Ang^3
#
#
#
# Elastic Constant Matrix: (Units=GPa)
#
#
# Indices 1 2 3 4 5 6 
#
# 1 98.4185 58.3652 80.6951 0.0000 0.0000 0.0000
# 2 58.3652 68.9841 31.4027 0.0000 0.0000 0.0000
# 3 80.6951 31.4027 171.4204 0.0000 0.0000 0.0000
# 4 0.0000 0.0000 0.0000 25.7982 0.0000 0.0000
# 5 0.0000 0.0000 0.0000 0.0000 61.4875 0.0000
# 6 0.0000 0.0000 0.0000 0.0000 0.0000 -75.5449
#
#
#
# Elastic Compliance Matrix: (Units=1/GPa)
#
#
# Indices 1 2 3 4 5 6 
#
# 1 0.032903 -0.022679 -0.011334 0.000000 0.000000 0.000000
# 2 -0.022679 0.031446 0.004915 0.000000 0.000000 0.000000
# 3 -0.011334 0.004915 0.010269 0.000000 0.000000 0.000000
# 4 0.000000 0.000000 0.000000 0.038762 0.000000 0.000000
# 5 0.000000 0.000000 0.000000 0.000000 0.016263 0.000000
# 6 0.000000 0.000000 0.000000 0.000000 0.000000 -0.013237
#
#
# Mechanical properties :
#
#
# Convention : Reuss Voigt Hill
#
# Bulk Modulus (GPa) = 60.89239 75.52767 68.21003
# Shear Modulus (GPa) = 27.76586 13.57215 20.66901
#
# Velocity S-wave (km/s) = 3.34925 2.34162 2.88969
# Velocity P-wave (km/s) = 6.28945 6.15014 6.22018
#
# Compressibility (1/GPa) = 0.01642241
#
# Stress axis : x y z
#
# Youngs Moduli (GPa) = 30.39218 31.80018 97.38215
#
# Poissons Ratio (x) = 0.72119 1.10377
# Poissons Ratio (y) = 0.68926 -0.47865
# Poissons Ratio (z) = 0.34448 -0.15630
#
# Static dielectric constant tensor:
#      x y z
#    x 2.074800 0.000000 0.000000 
#    y 0.000000 1.950450 0.000000 
#    z 0.000000 0.000000 2.063460 
# 
# From -- ./inp_files/6444.got.cif
#   From: 2010.05.17/outbox.cif.g08.bks.cpg/sg33_4_cif.got.tgz:6444.got - 2010.06.03 17:15:25.
