data_PCOD9346241
_publ_section_title
;
Structure prediction by ZEFSAII (Michael W. Deem and Ramdas Pophale) SiO2 
 PCOD9346241
Probable space group: P N A 21
;
_chemical_formula_sum "Si O2"
_cell_formula_units_Z 24
_cell_length_a 27.122706
_cell_length_b 7.360903
_cell_length_c 5.077005
_cell_angle_alpha 90.000000
_cell_angle_beta 90.000000
_cell_angle_gamma 90.000000
_cell_volume 1013.611904
_symmetry_space_group_name_H-M "P N A 21"
_symmetry_group_IT_number 33
_symmetry_cell_setting 'orthorhombic'
loop_
_space_group_symop_operation_xyz
x,y,z
-x,-y,1/2+z
1/2-x,1/2+y,1/2+z
1/2+x,1/2-y,z
loop_
_atom_site_type_symbol
_atom_site_label
_atom_site_fract_x
_atom_site_fract_y
_atom_site_fract_z
Si Si1 0.681436 0.678568 0.145970
Si Si2 0.411561 0.882102 0.957861
Si Si3 0.738743 0.006338 0.275867
Si Si4 0.092175 0.621887 0.945987
Si Si5 0.002003 0.881457 0.072280
Si Si6 0.180776 0.167034 0.389690
O O1 0.645326 0.781059 0.948399
O O2 0.653517 0.506913 0.267644
O O3 0.702162 0.838427 0.332528
O O4 0.728039 0.579499 0.012843
O O5 0.360259 0.784474 0.036886
O O6 0.419918 0.045205 0.160537
O O7 0.455952 0.742680 0.988910
O O8 0.407246 0.961194 0.663385
O O9 0.706934 0.184410 0.199591
O O10 0.776888 0.928347 0.063369
O O11 0.051052 0.763442 0.037012
O O12 0.003894 0.048701 0.868981
#
# Coordination Sequence:
#
# PCOD9346241 Si02
#       6
#     4   4   4   4   4   4
#     4  11  24  42  70 100 146 193 250 295 364 424
#     4  12  27  47  73 106 147 189 241 302 370 434
#     4  10  24  42  66 104 146 192 250 300 356 418
#     4  12  27  47  73 106 147 189 241 302 370 434
#     4  12  26  48  78 108 142 186 244 300 368 442
#     4  11  24  42  70 100 146 193 250 295 364 424
#
# _framework density 23.677700000000002
#
# number of rings (size 3 to 8) (size 9 to 14) (size 15 to 20)
#    0.000    0.667    1.667    5.000    7.000    5.333 
#    0.000    0.000    0.000    0.000    0.000    0.000 
#    0.000    0.000    0.000    0.000    0.000    0.000 
#
# Total GULP energy -134285.972749 kJ/mol
# GULP energy per Si atom -5595.248865 kJ/mol
# Density = 2.362381 g / cm^3
# Si number density = 23.677700 Si / 1000 Ang^3
#
#
#
# Elastic Constant Matrix: (Units=GPa)
#
#
# Indices 1 2 3 4 5 6 
#
# 1 93.1434 34.5455 -1.2352 0.0000 0.0000 0.0000
# 2 34.5455 126.5113 3.3823 0.0000 0.0000 0.0000
# 3 -1.2352 3.3823 45.2244 0.0000 0.0000 0.0000
# 4 0.0000 0.0000 0.0000 39.0720 0.0000 0.0000
# 5 0.0000 0.0000 0.0000 0.0000 16.2113 0.0000
# 6 0.0000 0.0000 0.0000 0.0000 0.0000 153.9612
#
#
#
# Elastic Compliance Matrix: (Units=1/GPa)
#
#
# Indices 1 2 3 4 5 6 
#
# 1 0.011961 -0.003281 0.000572 0.000000 0.000000 0.000000
# 2 -0.003281 0.008820 -0.000749 0.000000 0.000000 0.000000
# 3 0.000572 -0.000749 0.022184 0.000000 0.000000 0.000000
# 4 0.000000 0.000000 0.000000 0.025594 0.000000 0.000000
# 5 0.000000 0.000000 0.000000 0.000000 0.061685 0.000000
# 6 0.000000 0.000000 0.000000 0.000000 0.000000 0.006495
#
#
# Mechanical properties :
#
#
# Convention : Reuss Voigt Hill
#
# Bulk Modulus (GPa) = 27.74100 37.58493 32.66297
# Shear Modulus (GPa) = 32.11882 57.06132 44.59007
#
# Velocity S-wave (km/s) = 3.68707 4.91442 4.34430
# Velocity P-wave (km/s) = 5.46511 6.93614 6.24410
#
# Compressibility (1/GPa) = 0.03604773
#
# Stress axis : x y z
#
# Youngs Moduli (GPa) = 83.60701 113.37266 45.07831
#
# Poissons Ratio (x) = 0.37201 -0.02579
# Poissons Ratio (y) = 0.27434 0.03378
# Poissons Ratio (z) = -0.04783 0.08495
#
# Static dielectric constant tensor:
#      x y z
#    x 1.880570 0.000000 0.000000 
#    y 0.000000 1.924630 0.000000 
#    z 0.000000 0.000000 1.918250 
# 
# From -- ./inp_files/2496.got.cif
#   From: 2010.05.17/outbox.cif.g08.bks.cpg/sg33_2_cif.got.tgz:2496.got - 2010.06.03 17:15:25.
