data_PCOD9346088
_publ_section_title
;
Structure prediction by ZEFSAII (Michael W. Deem and Ramdas Pophale) SiO2 
 PCOD9346088
Probable space group: P N A 21
;
_chemical_formula_sum "Si O2"
_cell_formula_units_Z 32
_cell_length_a 11.189382
_cell_length_b 14.997166
_cell_length_c 8.528772
_cell_angle_alpha 90.000000
_cell_angle_beta 90.000000
_cell_angle_gamma 90.000000
_cell_volume 1431.204865
_symmetry_space_group_name_H-M "P N A 21"
_symmetry_group_IT_number 33
_symmetry_cell_setting 'orthorhombic'
loop_
_space_group_symop_operation_xyz
x,y,z
-x,-y,1/2+z
1/2-x,1/2+y,1/2+z
1/2+x,1/2-y,z
loop_
_atom_site_type_symbol
_atom_site_label
_atom_site_fract_x
_atom_site_fract_y
_atom_site_fract_z
Si Si1 0.857352 0.572985 0.798600
Si Si2 0.048678 0.614297 0.308955
Si Si3 0.645302 0.187950 0.028850
Si Si4 0.318691 0.675244 0.298563
Si Si5 0.655227 0.483264 0.999937
Si Si6 0.450927 0.181858 0.460530
Si Si7 0.780153 0.857347 0.750697
Si Si8 0.474064 0.631039 0.005535
O O1 0.952399 0.492561 0.817468
O O2 0.820816 0.598488 0.621081
O O3 0.739771 0.545013 0.892447
O O4 0.932495 0.657685 0.858400
O O5 0.187898 0.636380 0.306178
O O6 0.987014 0.663583 0.457251
O O7 0.016305 0.642876 0.131882
O O8 0.688776 0.269433 0.144142
O O9 0.695276 0.225257 0.864580
O O10 0.391170 0.605243 0.408340
O O11 0.380078 0.666385 0.132985
O O12 0.736734 0.440955 0.135235
O O13 0.544906 0.543160 0.053604
O O14 0.332554 0.151809 0.366834
O O15 0.436019 0.287327 0.481175
O O16 0.898474 0.880788 0.848524
#
# Coordination Sequence:
#
# PCOD9346088 Si02
#       8
#     4   4   4   4   4   4   4   4
#     4  11  25  43  68 104 140 185 242 297 362 424
#     4  11  24  44  68  99 140 187 238 302 356 435
#     4  11  23  43  68 101 137 188 231 294 357 426
#     4  10  23  43  66  99 142 180 241 294 360 434
#     4  10  25  43  70  98 141 187 239 298 359 441
#     4  12  25  42  71 100 141 185 239 299 363 432
#     4  11  25  44  71 104 144 190 239 303 365 437
#     4  12  22  44  70  99 143 184 239 293 370 435
#
# _framework density 22.358784
#
# number of rings (size 3 to 8) (size 9 to 14) (size 15 to 20)
#    0.000    1.000    3.750    2.250    7.000    1.000 
#    0.000    1.250    0.000    0.000    0.000    0.000 
#    0.000    0.000    0.000    0.000    0.000    0.000 
#
# Total GULP energy -178236.522724 kJ/mol
# GULP energy per Si atom -5569.891335 kJ/mol
# Density = 2.230789 g / cm^3
# Si number density = 22.358784 Si / 1000 Ang^3
#
#
#
# Elastic Constant Matrix: (Units=GPa)
#
#
# Indices 1 2 3 4 5 6 
#
# 1 39.8032 4.3258 29.1297 0.0000 0.0000 0.0000
# 2 4.3258 49.4513 16.2044 0.0000 0.0000 0.0000
# 3 29.1297 16.2044 88.1773 0.0000 0.0000 0.0000
# 4 0.0000 0.0000 0.0000 32.1004 0.0000 0.0000
# 5 0.0000 0.0000 0.0000 0.0000 27.5934 0.0000
# 6 0.0000 0.0000 0.0000 0.0000 0.0000 23.8698
#
#
#
# Elastic Compliance Matrix: (Units=1/GPa)
#
#
# Indices 1 2 3 4 5 6 
#
# 1 0.033159 0.000733 -0.011089 0.000000 0.000000 0.000000
# 2 0.000733 0.021534 -0.004199 0.000000 0.000000 0.000000
# 3 -0.011089 -0.004199 0.015776 0.000000 0.000000 0.000000
# 4 0.000000 0.000000 0.000000 0.031152 0.000000 0.000000
# 5 0.000000 0.000000 0.000000 0.000000 0.036241 0.000000
# 6 0.000000 0.000000 0.000000 0.000000 0.000000 0.041894
#
#
# Mechanical properties :
#
#
# Convention : Reuss Voigt Hill
#
# Bulk Modulus (GPa) = 24.17901 30.75019 27.46460
# Shear Modulus (GPa) = 22.45648 25.23083 23.84366
#
# Velocity S-wave (km/s) = 3.17262 3.36289 3.26914
# Velocity P-wave (km/s) = 4.92527 5.37230 5.15363
#
# Compressibility (1/GPa) = 0.04135818
#
# Stress axis : x y z
#
# Youngs Moduli (GPa) = 30.15740 46.43847 63.38807
#
# Poissons Ratio (x) = -0.03404 0.70291
# Poissons Ratio (y) = -0.02211 0.26620
# Poissons Ratio (z) = 0.33442 0.19502
#
# Static dielectric constant tensor:
#      x y z
#    x 1.812990 0.000000 0.000000 
#    y 0.000000 1.987010 0.000000 
#    z 0.000000 0.000000 1.931400 
# 
# From -- ./inp_files/3983.got.cif
#   From: 2010.05.17/outbox.cif.g08.bks.cpg/sg33_2_cif.got.tgz:3983.got - 2010.06.03 17:15:25.
