data_PCOD9346943
_publ_section_title
;
Structure prediction by ZEFSAII (Michael W. Deem and Ramdas Pophale) SiO2 
 PCOD9346943
Probable space group: P N A 21
;
_chemical_formula_sum "Si O2"
_cell_formula_units_Z 24
_cell_length_a 8.109305
_cell_length_b 5.296707
_cell_length_c 22.380042
_cell_angle_alpha 90.000000
_cell_angle_beta 90.000000
_cell_angle_gamma 90.000000
_cell_volume 961.281273
_symmetry_space_group_name_H-M "P N A 21"
_symmetry_group_IT_number 33
_symmetry_cell_setting 'orthorhombic'
loop_
_space_group_symop_operation_xyz
x,y,z
-x,-y,1/2+z
1/2-x,1/2+y,1/2+z
1/2+x,1/2-y,z
loop_
_atom_site_type_symbol
_atom_site_label
_atom_site_fract_x
_atom_site_fract_y
_atom_site_fract_z
Si Si1 0.787508 0.012356 0.303550
Si Si2 0.227687 0.979045 0.464422
Si Si3 0.871658 0.009451 0.761247
Si Si4 0.937667 0.962978 0.135987
Si Si5 0.593033 0.036218 0.090977
Si Si6 0.930734 0.523109 0.922300
O O1 0.734368 0.758929 0.269773
O O2 0.741310 0.265135 0.267829
O O3 0.984187 0.003676 0.311533
O O4 0.677959 0.018520 0.362843
O O5 0.323685 0.001586 0.526726
O O6 0.133884 0.715464 0.459971
O O7 0.106994 0.212983 0.454588
O O8 0.373315 0.992547 0.414609
O O9 0.986810 0.810772 0.596452
O O10 0.969744 0.019589 0.699082
O O11 0.968738 0.688799 0.107205
O O12 0.743552 0.012127 0.137611
#
# Coordination Sequence:
#
# PCOD9346943 Si02
#       6
#     4   4   4   4   4   4
#     4  12  25  43  66  96 129 169 214 264 319 380
#     4  12  24  43  67  96 130 169 213 264 319 380
#     4  12  24  42  64  92 127 168 213 264 319 380
#     4  12  24  42  64  92 127 168 213 264 319 380
#     4  12  25  43  66  96 129 169 214 264 319 380
#     4  12  24  43  67  96 130 169 213 264 319 380
#
# _framework density 24.966677000000001
#
# number of rings (size 3 to 8) (size 9 to 14) (size 15 to 20)
#    0.000    0.000    0.000   12.000    0.000    0.000 
#    0.000    0.000    0.000    0.000    0.000    0.000 
#    0.000    0.000    0.000    0.000    0.000    0.000 
#
# Total GULP energy -134793.885903 kJ/mol
# GULP energy per Si atom -5616.411913 kJ/mol
# Density = 2.490985 g / cm^3
# Si number density = 24.966677 Si / 1000 Ang^3
#
#
#
# Elastic Constant Matrix: (Units=GPa)
#
#
# Indices 1 2 3 4 5 6 
#
# 1 90.2284 21.8085 -28.9252 0.0000 0.0000 0.0000
# 2 21.8085 138.8380 24.8110 0.0000 0.0000 0.0000
# 3 -28.9252 24.8110 63.8759 0.0000 0.0000 0.0000
# 4 0.0000 0.0000 0.0000 21.3376 0.0000 0.0000
# 5 0.0000 0.0000 0.0000 0.0000 40.9220 0.0000
# 6 0.0000 0.0000 0.0000 0.0000 0.0000 36.6741
#
#
#
# Elastic Compliance Matrix: (Units=1/GPa)
#
#
# Indices 1 2 3 4 5 6 
#
# 1 0.014561 -0.003724 0.008040 0.000000 0.000000 0.000000
# 2 -0.003724 0.008692 -0.005063 0.000000 0.000000 0.000000
# 3 0.008040 -0.005063 0.021263 0.000000 0.000000 0.000000
# 4 0.000000 0.000000 0.000000 0.046866 0.000000 0.000000
# 5 0.000000 0.000000 0.000000 0.000000 0.024437 0.000000
# 6 0.000000 0.000000 0.000000 0.000000 0.000000 0.027267
#
#
# Mechanical properties :
#
#
# Convention : Reuss Voigt Hill
#
# Bulk Modulus (GPa) = 23.24380 36.48122 29.86251
# Shear Modulus (GPa) = 31.46260 38.13660 34.79960
#
# Velocity S-wave (km/s) = 3.55376 3.91256 3.73747
# Velocity P-wave (km/s) = 5.11557 5.92069 5.53279
#
# Compressibility (1/GPa) = 0.04302222
#
# Stress axis : x y z
#
# Youngs Moduli (GPa) = 68.67891 115.04426 47.03095
#
# Poissons Ratio (x) = 0.42842 -0.37813
# Poissons Ratio (y) = 0.25576 0.23810
# Poissons Ratio (z) = -0.55218 0.58243
#
# Static dielectric constant tensor:
#      x y z
#    x 1.914680 0.000000 0.000000 
#    y 0.000000 1.895640 0.000000 
#    z 0.000000 0.000000 2.054850 
# 
# From -- ./inp_files/9223.got.cif
#   From: 2010.05.17/outbox.cif.g08.bks.cpg/sg33_5_cif.got.tgz:9223.got - 2010.06.03 17:15:25.
