data_PCOD9346708
_publ_section_title
;
Structure prediction by ZEFSAII (Michael W. Deem and Ramdas Pophale) SiO2 
 PCOD9346708
Probable space group: P N A 21
;
_chemical_formula_sum "Si O2"
_cell_formula_units_Z 16
_cell_length_a 10.967537
_cell_length_b 11.540258
_cell_length_c 4.744449
_cell_angle_alpha 90.000000
_cell_angle_beta 90.000000
_cell_angle_gamma 90.000000
_cell_volume 600.496401
_symmetry_space_group_name_H-M "P N A 21"
_symmetry_group_IT_number 33
_symmetry_cell_setting 'orthorhombic'
loop_
_space_group_symop_operation_xyz
x,y,z
-x,-y,1/2+z
1/2-x,1/2+y,1/2+z
1/2+x,1/2-y,z
loop_
_atom_site_type_symbol
_atom_site_label
_atom_site_fract_x
_atom_site_fract_y
_atom_site_fract_z
Si Si1 0.826400 0.075066 0.208540
Si Si2 0.326397 0.575115 0.752868
Si Si3 0.584208 0.817787 0.957618
Si Si4 0.584228 0.182184 0.003614
O O1 0.884486 0.190656 0.336942
O O2 0.714281 0.119951 0.011916
O O3 0.790238 0.999985 0.480716
O O4 0.714280 0.879991 0.949489
O O5 0.402840 0.500029 0.980709
O O6 0.384471 0.690696 0.624382
O O7 0.499953 0.808996 0.230561
O O8 0.500034 0.882111 0.730555
#
# Coordination Sequence:
#
# PCOD9346708 Si02
#       4
#     4   4   4   4
#     4  11  24  43  68 100 140 181 226 285 342 402
#     4  11  24  43  68 100 140 181 226 285 342 402
#     4  11  24  43  68 100 137 179 229 281 340 410
#     4  11  24  43  68 100 137 179 229 281 340 410
#
# _framework density 26.644622999999999
#
# number of rings (size 3 to 8) (size 9 to 14) (size 15 to 20)
#    0.000    1.000    0.000    6.000    0.000   16.000 
#    0.000    0.000    0.000    0.000    0.000    0.000 
#    0.000    0.000    0.000    0.000    0.000    0.000 
#
# Total GULP energy -89585.584684 kJ/mol
# GULP energy per Si atom -5599.099043 kJ/mol
# Density = 2.658398 g / cm^3
# Si number density = 26.644623 Si / 1000 Ang^3
#
#
#
# Elastic Constant Matrix: (Units=GPa)
#
#
# Indices 1 2 3 4 5 6 
#
# 1 117.3581 26.6142 59.7281 0.0000 0.0000 0.0000
# 2 26.6142 143.6471 49.9353 0.0000 0.0000 0.0000
# 3 59.7281 49.9353 222.4266 0.0000 0.0000 0.0000
# 4 0.0000 0.0000 0.0000 35.4430 0.0000 0.0000
# 5 0.0000 0.0000 0.0000 0.0000 66.2916 0.0000
# 6 0.0000 0.0000 0.0000 0.0000 0.0000 16.3427
#
#
#
# Elastic Compliance Matrix: (Units=1/GPa)
#
#
# Indices 1 2 3 4 5 6 
#
# 1 0.010000 -0.000997 -0.002461 0.000000 0.000000 0.000000
# 2 -0.000997 0.007650 -0.001450 0.000000 0.000000 0.000000
# 3 -0.002461 -0.001450 0.005482 0.000000 0.000000 0.000000
# 4 0.000000 0.000000 0.000000 0.028214 0.000000 0.000000
# 5 0.000000 0.000000 0.000000 0.000000 0.015085 0.000000
# 6 0.000000 0.000000 0.000000 0.000000 0.000000 0.061189
#
#
# Mechanical properties :
#
#
# Convention : Reuss Voigt Hill
#
# Bulk Modulus (GPa) = 75.09848 83.99853 79.54850
# Shear Modulus (GPa) = 35.24213 46.75909 41.00061
#
# Velocity S-wave (km/s) = 3.64080 4.19372 3.92700
# Velocity P-wave (km/s) = 6.77645 7.41914 7.10507
#
# Compressibility (1/GPa) = 0.01331585
#
# Stress axis : x y z
#
# Youngs Moduli (GPa) = 100.00265 130.71545 182.40561
#
# Poissons Ratio (x) = 0.13033 0.44897
# Poissons Ratio (y) = 0.09971 0.26444
# Poissons Ratio (z) = 0.24614 0.18950
#
# Static dielectric constant tensor:
#      x y z
#    x 2.167490 0.000000 0.000000 
#    y 0.000000 2.063180 0.000000 
#    z 0.000000 0.000000 2.171150 
# 
# From -- ./inp_files/700.got.cif
#   From: 2010.05.17/outbox.cif.g08.bks.cpg/sg33_1_cif.got.tgz:700.got - 2010.06.03 17:15:25.
