data_PCOD9346120
_publ_section_title
;
Structure prediction by ZEFSAII (Michael W. Deem and Ramdas Pophale) SiO2 
 PCOD9346120
Probable space group: P N A 21
;
_chemical_formula_sum "Si O2"
_cell_formula_units_Z 32
_cell_length_a 20.902217
_cell_length_b 12.409573
_cell_length_c 5.394182
_cell_angle_alpha 90.000000
_cell_angle_beta 90.000000
_cell_angle_gamma 90.000000
_cell_volume 1399.183857
_symmetry_space_group_name_H-M "P N A 21"
_symmetry_group_IT_number 33
_symmetry_cell_setting 'orthorhombic'
loop_
_space_group_symop_operation_xyz
x,y,z
-x,-y,1/2+z
1/2-x,1/2+y,1/2+z
1/2+x,1/2-y,z
loop_
_atom_site_type_symbol
_atom_site_label
_atom_site_fract_x
_atom_site_fract_y
_atom_site_fract_z
Si Si1 0.323754 0.506504 0.086080
Si Si2 0.544912 0.560249 0.359745
Si Si3 0.526641 0.133700 0.545359
Si Si4 0.081220 0.469281 0.046958
Si Si5 0.774973 0.756398 0.977863
Si Si6 0.708217 0.132559 0.964776
Si Si7 0.983982 0.166694 0.268847
Si Si8 0.642284 0.652097 0.962732
O O1 0.325437 0.459298 0.366141
O O2 0.396296 0.500120 0.998795
O O3 0.294977 0.621941 0.029557
O O4 0.278801 0.418395 0.952453
O O5 0.501850 0.656542 0.476930
O O6 0.497962 0.459540 0.320097
O O7 0.588206 0.621689 0.159225
O O8 0.552881 0.102860 0.817477
O O9 0.522499 0.254846 0.442785
O O10 0.455028 0.082855 0.529932
O O11 0.564782 0.074766 0.321363
O O12 0.156939 0.461198 0.013896
O O13 0.793444 0.712701 0.703456
O O14 0.698786 0.735102 0.006301
O O15 0.805890 0.688465 0.203069
O O16 0.908185 0.194533 0.257059
#
# Coordination Sequence:
#
# PCOD9346120 Si02
#       8
#     4   4   4   4   4   4   4   4
#     4  10  25  42  66  94 133 175 218 281 331 393
#     4  11  22  42  61  96 134 168 225 274 332 393
#     4  10  24  43  66  96 130 173 216 268 332 385
#     4  10  23  44  64  96 132 165 221 274 318 401
#     4  11  25  43  68  97 129 178 219 271 340 392
#     4  11  24  43  65  98 129 169 223 270 329 401
#     4  11  24  38  67  94 129 181 211 276 334 393
#     4  10  23  45  61  97 136 165 231 274 324 408
#
# _framework density 22.870477000000001
#
# number of rings (size 3 to 8) (size 9 to 14) (size 15 to 20)
#    0.000    1.500    2.500    0.750    8.750    0.000 
#    0.000    2.500    0.000    0.000    0.000    0.000 
#    0.000    0.000    0.000    0.000    0.000    0.000 
#
# Total GULP energy -178158.176601 kJ/mol
# GULP energy per Si atom -5567.443019 kJ/mol
# Density = 2.281842 g / cm^3
# Si number density = 22.870477 Si / 1000 Ang^3
#
#
#
# Elastic Constant Matrix: (Units=GPa)
#
#
# Indices 1 2 3 4 5 6 
#
# 1 65.7701 2.2147 -6.0226 0.0000 0.0000 0.0000
# 2 2.2147 44.9574 2.5016 0.0000 0.0000 0.0000
# 3 -6.0226 2.5016 67.0605 0.0000 0.0000 0.0000
# 4 0.0000 0.0000 0.0000 22.3430 0.0000 0.0000
# 5 0.0000 0.0000 0.0000 0.0000 30.0808 0.0000
# 6 0.0000 0.0000 0.0000 0.0000 0.0000 18.9411
#
#
#
# Elastic Compliance Matrix: (Units=1/GPa)
#
#
# Indices 1 2 3 4 5 6 
#
# 1 0.015362 -0.000835 0.001411 0.000000 0.000000 0.000000
# 2 -0.000835 0.022335 -0.000908 0.000000 0.000000 0.000000
# 3 0.001411 -0.000908 0.015072 0.000000 0.000000 0.000000
# 4 0.000000 0.000000 0.000000 0.044757 0.000000 0.000000
# 5 0.000000 0.000000 0.000000 0.000000 0.033244 0.000000
# 6 0.000000 0.000000 0.000000 0.000000 0.000000 0.052795
#
#
# Mechanical properties :
#
#
# Convention : Reuss Voigt Hill
#
# Bulk Modulus (GPa) = 19.19244 19.46395 19.32819
# Shear Modulus (GPa) = 24.80181 26.21261 25.50721
#
# Velocity S-wave (km/s) = 3.29667 3.38913 3.34322
# Velocity P-wave (km/s) = 4.78547 4.88303 4.83449
#
# Compressibility (1/GPa) = 0.05210386
#
# Stress axis : x y z
#
# Youngs Moduli (GPa) = 65.09660 44.77289 66.34607
#
# Poissons Ratio (x) = 0.03740 -0.09360
# Poissons Ratio (y) = 0.05437 0.06025
# Poissons Ratio (z) = -0.09184 0.04066
#
# Static dielectric constant tensor:
#      x y z
#    x 1.844140 0.000000 0.000000 
#    y 0.000000 1.852120 0.000000 
#    z 0.000000 0.000000 2.311670 
# 
# From -- ./inp_files/2039.got.cif
#   From: 2010.05.17/outbox.cif.g08.bks.cpg/sg33_2_cif.got.tgz:2039.got - 2010.06.03 17:15:25.
