data_PCOD9346522
_publ_section_title
;
Structure prediction by ZEFSAII (Michael W. Deem and Ramdas Pophale) SiO2 
 PCOD9346522
Probable space group: P N A 21
;
_chemical_formula_sum "Si O2"
_cell_formula_units_Z 32
_cell_length_a 10.583566
_cell_length_b 6.464742
_cell_length_c 21.602183
_cell_angle_alpha 90.000000
_cell_angle_beta 90.000000
_cell_angle_gamma 90.000000
_cell_volume 1478.021871
_symmetry_space_group_name_H-M "P N A 21"
_symmetry_group_IT_number 33
_symmetry_cell_setting 'orthorhombic'
loop_
_space_group_symop_operation_xyz
x,y,z
-x,-y,1/2+z
1/2-x,1/2+y,1/2+z
1/2+x,1/2-y,z
loop_
_atom_site_type_symbol
_atom_site_label
_atom_site_fract_x
_atom_site_fract_y
_atom_site_fract_z
Si Si1 0.830647 0.662652 0.212130
Si Si2 0.123193 0.866054 0.041080
Si Si3 0.669352 0.162653 0.857775
Si Si4 0.098604 0.586629 0.418587
Si Si5 0.098604 0.586630 0.151318
Si Si6 0.229666 0.188420 0.432948
Si Si7 0.270332 0.688421 0.636958
Si Si8 0.876811 0.133948 0.028825
O O1 0.842275 0.695953 0.284953
O O2 0.721836 0.814864 0.185134
O O3 0.783736 0.429946 0.195811
O O4 0.969236 0.674073 0.180666
O O5 0.099111 0.658281 0.079812
O O6 0.205686 0.005034 0.087658
O O7 0.178137 0.831420 0.973340
O O8 0.000003 0.000005 0.034953
O O9 0.778163 0.314866 0.884771
O O10 0.530763 0.174074 0.889239
O O11 0.716265 0.929948 0.874095
O O12 0.113450 0.338519 0.416445
O O13 0.099111 0.658277 0.490093
O O14 0.113451 0.338520 0.153459
O O15 0.205682 0.005035 0.482247
O O16 0.178134 0.831421 0.596566
#
# Coordination Sequence:
#
# PCOD9346522 Si02
#       8
#     4   4   4   4   4   4   4   4
#     4  11  26  45  67  96 132 182 233 277 334 401
#     4  11  22  37  64  98 132 169 210 267 340 403
#     4  11  26  45  67  96 132 182 233 277 334 401
#     4  11  24  44  69  99 135 176 224 284 339 398
#     4  11  24  44  69  99 135 176 224 284 339 398
#     4  11  23  40  64  99 132 171 215 272 339 402
#     4  11  23  40  64  99 132 171 215 272 339 402
#     4  11  22  37  64  98 132 169 210 267 340 403
#
# _framework density 21.650561
#
# number of rings (size 3 to 8) (size 9 to 14) (size 15 to 20)
#    0.000    1.000    2.500    3.750    3.500    6.000 
#    0.000    0.000    0.000    0.000    0.000    0.000 
#    0.000    0.000    0.000    0.000    0.000    0.000 
#
# Total GULP energy -178663.187798 kJ/mol
# GULP energy per Si atom -5583.224619 kJ/mol
# Density = 2.160128 g / cm^3
# Si number density = 21.650561 Si / 1000 Ang^3
#
#
#
# Elastic Constant Matrix: (Units=GPa)
#
#
# Indices 1 2 3 4 5 6 
#
# 1 82.4793 11.6066 14.2494 0.0000 0.0000 0.0000
# 2 11.6066 70.0679 4.8470 0.0000 0.0000 0.0000
# 3 14.2494 4.8470 66.0291 0.0000 0.0000 0.0000
# 4 0.0000 0.0000 0.0000 27.7867 0.0000 0.0000
# 5 0.0000 0.0000 0.0000 0.0000 29.8947 0.0000
# 6 0.0000 0.0000 0.0000 0.0000 0.0000 34.3558
#
#
#
# Elastic Compliance Matrix: (Units=1/GPa)
#
#
# Indices 1 2 3 4 5 6 
#
# 1 0.012853 -0.001947 -0.002631 0.000000 0.000000 0.000000
# 2 -0.001947 0.014640 -0.000654 0.000000 0.000000 0.000000
# 3 -0.002631 -0.000654 0.015761 0.000000 0.000000 0.000000
# 4 0.000000 0.000000 0.000000 0.035988 0.000000 0.000000
# 5 0.000000 0.000000 0.000000 0.000000 0.033451 0.000000
# 6 0.000000 0.000000 0.000000 0.000000 0.000000 0.029107
#
#
# Mechanical properties :
#
#
# Convention : Reuss Voigt Hill
#
# Bulk Modulus (GPa) = 30.49852 31.10914 30.80383
# Shear Modulus (GPa) = 30.63848 30.93231 30.78540
#
# Velocity S-wave (km/s) = 3.76591 3.78393 3.77493
# Velocity P-wave (km/s) = 5.74689 5.78712 5.76704
#
# Compressibility (1/GPa) = 0.03278848
#
# Stress axis : x y z
#
# Youngs Moduli (GPa) = 77.80445 68.30758 63.44929
#
# Poissons Ratio (x) = 0.13300 0.16692
# Poissons Ratio (y) = 0.15149 0.04153
# Poissons Ratio (z) = 0.20468 0.04471
#
# Static dielectric constant tensor:
#      x y z
#    x 1.765190 0.000000 0.000000 
#    y 0.000000 1.791460 0.000000 
#    z 0.000000 0.000000 1.742280 
# 
# From -- ./inp_files/9082.got.cif
#   From: 2010.05.17/outbox.cif.g08.bks.cpg/sg33_5_cif.got.tgz:9082.got - 2010.06.03 17:15:25.
