data_PCOD9346927
_publ_section_title
;
Structure prediction by ZEFSAII (Michael W. Deem and Ramdas Pophale) SiO2 
 PCOD9346927
Probable space group: P N A 21
;
_chemical_formula_sum "Si O2"
_cell_formula_units_Z 32
_cell_length_a 8.412741
_cell_length_b 12.035225
_cell_length_c 14.272960
_cell_angle_alpha 90.000000
_cell_angle_beta 90.000000
_cell_angle_gamma 90.000000
_cell_volume 1445.126221
_symmetry_space_group_name_H-M "P N A 21"
_symmetry_group_IT_number 33
_symmetry_cell_setting 'orthorhombic'
loop_
_space_group_symop_operation_xyz
x,y,z
-x,-y,1/2+z
1/2-x,1/2+y,1/2+z
1/2+x,1/2-y,z
loop_
_atom_site_type_symbol
_atom_site_label
_atom_site_fract_x
_atom_site_fract_y
_atom_site_fract_z
Si Si1 0.082988 0.908662 0.273580
Si Si2 0.596871 0.004660 0.237316
Si Si3 0.878511 0.351612 0.140693
Si Si4 0.079943 0.205104 0.027849
Si Si5 0.246544 0.781281 0.819661
Si Si6 0.959912 0.897810 0.915983
Si Si7 0.424378 0.805138 0.319751
Si Si8 0.409073 0.498539 0.108520
O O1 0.255581 0.858743 0.294488
O O2 0.968991 0.802630 0.259085
O O3 0.050308 0.986430 0.184296
O O4 0.034357 0.984325 0.362180
O O5 0.432773 0.031461 0.182931
O O6 0.636665 0.116515 0.295414
O O7 0.559291 0.898709 0.302098
O O8 0.746067 0.990669 0.166978
O O9 0.744885 0.349641 0.060523
O O10 0.828005 0.267402 0.223764
O O11 0.040927 0.306992 0.095661
O O12 0.078888 0.254692 0.924389
O O13 0.940316 0.118400 0.055679
O O14 0.119314 0.833571 0.889685
O O15 0.325898 0.676041 0.867581
O O16 0.926466 0.914076 0.024827
#
# Coordination Sequence:
#
# PCOD9346927 Si02
#       8
#     4   4   4   4   4   4   4   4
#     4  12  26  50  75 109 159 202 248 324 391 461
#     4  12  25  47  75 111 151 207 249 322 402 459
#     4  12  22  42  75 108 145 194 260 320 374 452
#     4  12  23  44  73 114 146 198 266 318 370 471
#     4  12  23  46  74 107 147 195 250 318 383 448
#     4  12  27  46  75 108 148 195 255 318 376 455
#     4  12  28  46  75 112 161 203 248 317 405 468
#     4  12  26  49  76 109 153 202 260 317 387 466
#
# _framework density 22.143394000000001
#
# number of rings (size 3 to 8) (size 9 to 14) (size 15 to 20)
#    0.000    0.000    6.250    3.750    1.750    3.000 
#    0.000    2.500    0.000    0.000    0.000    0.000 
#    0.000    0.000    0.000    0.000    0.000    0.000 
#
# Total GULP energy -178939.619802 kJ/mol
# GULP energy per Si atom -5591.863119 kJ/mol
# Density = 2.209299 g / cm^3
# Si number density = 22.143394 Si / 1000 Ang^3
#
#
#
# Elastic Constant Matrix: (Units=GPa)
#
#
# Indices 1 2 3 4 5 6 
#
# 1 87.4477 14.2940 35.8224 0.0000 0.0000 0.0000
# 2 14.2940 78.8490 35.9972 0.0000 0.0000 0.0000
# 3 35.8224 35.9972 133.8584 0.0000 0.0000 0.0000
# 4 0.0000 0.0000 0.0000 34.9154 0.0000 0.0000
# 5 0.0000 0.0000 0.0000 0.0000 21.5347 0.0000
# 6 0.0000 0.0000 0.0000 0.0000 0.0000 43.2637
#
#
#
# Elastic Compliance Matrix: (Units=1/GPa)
#
#
# Indices 1 2 3 4 5 6 
#
# 1 0.012895 -0.000869 -0.003217 0.000000 0.000000 0.000000
# 2 -0.000869 0.014516 -0.003671 0.000000 0.000000 0.000000
# 3 -0.003217 -0.003671 0.009319 0.000000 0.000000 0.000000
# 4 0.000000 0.000000 0.000000 0.028641 0.000000 0.000000
# 5 0.000000 0.000000 0.000000 0.000000 0.046437 0.000000
# 6 0.000000 0.000000 0.000000 0.000000 0.000000 0.023114
#
#
# Mechanical properties :
#
#
# Convention : Reuss Voigt Hill
#
# Bulk Modulus (GPa) = 47.13531 52.48692 49.81111
# Shear Modulus (GPa) = 31.74438 34.21218 32.97828
#
# Velocity S-wave (km/s) = 3.79038 3.93495 3.86334
# Velocity P-wave (km/s) = 6.36306 6.66331 6.51492
#
# Compressibility (1/GPa) = 0.02121552
#
# Stress axis : x y z
#
# Youngs Moduli (GPa) = 77.54705 68.88964 107.30977
#
# Poissons Ratio (x) = 0.05986 0.34525
# Poissons Ratio (y) = 0.06738 0.39395
# Poissons Ratio (z) = 0.24949 0.25290
#
# Static dielectric constant tensor:
#      x y z
#    x 1.867650 0.000000 0.000000 
#    y 0.000000 1.850720 0.000000 
#    z 0.000000 0.000000 1.819830 
# 
# From -- ./inp_files/7678.got.cif
#   From: 2010.05.17/outbox.cif.g08.bks.cpg/sg33_4_cif.got.tgz:7678.got - 2010.06.03 17:15:25.
