data_PCOD9346640
_publ_section_title
;
Structure prediction by ZEFSAII (Michael W. Deem and Ramdas Pophale) SiO2 
 PCOD9346640
Probable space group: P N A 21
;
_chemical_formula_sum "Si O2"
_cell_formula_units_Z 24
_cell_length_a 9.202797
_cell_length_b 11.212957
_cell_length_c 8.877760
_cell_angle_alpha 90.000000
_cell_angle_beta 90.000000
_cell_angle_gamma 90.000000
_cell_volume 916.101088
_symmetry_space_group_name_H-M "P N A 21"
_symmetry_group_IT_number 33
_symmetry_cell_setting 'orthorhombic'
loop_
_space_group_symop_operation_xyz
x,y,z
-x,-y,1/2+z
1/2-x,1/2+y,1/2+z
1/2+x,1/2-y,z
loop_
_atom_site_type_symbol
_atom_site_label
_atom_site_fract_x
_atom_site_fract_y
_atom_site_fract_z
Si Si1 0.913000 0.705874 0.886830
Si Si2 0.610931 0.765143 0.356811
Si Si3 0.845735 0.659158 0.551162
Si Si4 0.305934 0.510098 0.373117
Si Si5 0.283034 0.092422 0.453279
Si Si6 0.906752 0.019834 0.699548
O O1 0.896691 0.718710 0.705975
O O2 0.808450 0.592880 0.911517
O O3 0.849881 0.816912 0.980316
O O4 0.076113 0.672296 0.925467
O O5 0.690345 0.706577 0.500341
O O6 0.458084 0.813921 0.416267
O O7 0.717544 0.874202 0.320096
O O8 0.596813 0.662803 0.231418
O O9 0.829176 0.516106 0.561121
O O10 0.437658 0.477984 0.263113
O O11 0.385806 0.527889 0.532677
O O12 0.226652 0.028302 0.300740
#
# Coordination Sequence:
#
# PCOD9346640 Si02
#       6
#     4   4   4   4   4   4
#     4  12  25  44  74 104 156 197 248 319 377 459
#     4  11  23  47  77 105 148 202 248 318 386 463
#     4  11  23  44  75 105 147 198 250 301 393 454
#     4  12  26  48  76 109 156 203 257 323 389 460
#     4  11  26  45  71 109 145 196 254 310 383 456
#     4  11  27  48  75 112 150 200 265 317 392 468
#
# _framework density 26.197982
#
# number of rings (size 3 to 8) (size 9 to 14) (size 15 to 20)
#    0.000    0.667    3.333    4.000    4.667    1.333 
#    3.000    0.000    0.000    0.000    0.000    0.000 
#    0.000    0.000    0.000    0.000    0.000    0.000 
#
# Total GULP energy -134646.743495 kJ/mol
# GULP energy per Si atom -5610.280979 kJ/mol
# Density = 2.613835 g / cm^3
# Si number density = 26.197982 Si / 1000 Ang^3
#
#
#
# Elastic Constant Matrix: (Units=GPa)
#
#
# Indices 1 2 3 4 5 6 
#
# 1 165.0557 53.1708 33.3133 0.0000 0.0000 0.0000
# 2 53.1708 149.5387 22.5762 0.0000 0.0000 0.0000
# 3 33.3133 22.5762 63.2515 0.0000 0.0000 0.0000
# 4 0.0000 0.0000 0.0000 31.9328 0.0000 0.0000
# 5 0.0000 0.0000 0.0000 0.0000 40.5831 0.0000
# 6 0.0000 0.0000 0.0000 0.0000 0.0000 62.1794
#
#
#
# Elastic Compliance Matrix: (Units=1/GPa)
#
#
# Indices 1 2 3 4 5 6 
#
# 1 0.007382 -0.002154 -0.003119 0.000000 0.000000 0.000000
# 2 -0.002154 0.007697 -0.001613 0.000000 0.000000 0.000000
# 3 -0.003119 -0.001613 0.018028 0.000000 0.000000 0.000000
# 4 0.000000 0.000000 0.000000 0.031316 0.000000 0.000000
# 5 0.000000 0.000000 0.000000 0.000000 0.024641 0.000000
# 6 0.000000 0.000000 0.000000 0.000000 0.000000 0.016082
#
#
# Mechanical properties :
#
#
# Convention : Reuss Voigt Hill
#
# Bulk Modulus (GPa) = 51.71870 66.21850 58.96860
# Shear Modulus (GPa) = 39.88434 44.85809 42.37121
#
# Velocity S-wave (km/s) = 3.90605 4.14245 4.02599
# Velocity P-wave (km/s) = 6.33461 6.94341 6.64599
#
# Compressibility (1/GPa) = 0.01933537
#
# Stress axis : x y z
#
# Youngs Moduli (GPa) = 135.46563 129.92836 55.46824
#
# Poissons Ratio (x) = 0.27985 0.17301
# Poissons Ratio (y) = 0.29177 0.08945
# Poissons Ratio (z) = 0.42254 0.20954
#
# Static dielectric constant tensor:
#      x y z
#    x 1.939070 0.000000 0.000000 
#    y 0.000000 2.108160 0.000000 
#    z 0.000000 0.000000 2.088660 
# 
# From -- ./inp_files/3051.got.cif
#   From: 2010.05.17/outbox.cif.g08.bks.cpg/sg33_2_cif.got.tgz:3051.got - 2010.06.03 17:15:25.
