data_PCOD9346940
_publ_section_title
;
Structure prediction by ZEFSAII (Michael W. Deem and Ramdas Pophale) SiO2 
 PCOD9346940
Probable space group: P N A 21
;
_chemical_formula_sum "Si O2"
_cell_formula_units_Z 32
_cell_length_a 14.063963
_cell_length_b 12.666353
_cell_length_c 8.320474
_cell_angle_alpha 90.000000
_cell_angle_beta 90.000000
_cell_angle_gamma 90.000000
_cell_volume 1482.201916
_symmetry_space_group_name_H-M "P N A 21"
_symmetry_group_IT_number 33
_symmetry_cell_setting 'orthorhombic'
loop_
_space_group_symop_operation_xyz
x,y,z
-x,-y,1/2+z
1/2-x,1/2+y,1/2+z
1/2+x,1/2-y,z
loop_
_atom_site_type_symbol
_atom_site_label
_atom_site_fract_x
_atom_site_fract_y
_atom_site_fract_z
Si Si1 0.231533 0.860288 0.696660
Si Si2 0.301912 0.152005 0.999071
Si Si3 0.132801 0.502876 0.009663
Si Si4 0.613783 0.466958 0.896015
Si Si5 0.668831 0.775397 0.138183
Si Si6 0.560147 0.018881 0.655965
Si Si7 0.994042 0.882454 0.092498
Si Si8 0.139009 0.284658 0.479885
O O1 0.192905 0.757096 0.607029
O O2 0.275894 0.937763 0.563748
O O3 0.161582 0.931177 0.806475
O O4 0.315268 0.819973 0.813450
O O5 0.196860 0.100033 0.981896
O O6 0.331706 0.178846 0.817367
O O7 0.371354 0.065822 0.073896
O O8 0.156662 0.626897 0.015748
O O9 0.048773 0.485270 0.138424
O O10 0.092687 0.468586 0.838452
O O11 0.562566 0.400615 0.757058
O O12 0.535292 0.510302 0.018809
O O13 0.585140 0.691882 0.119314
O O14 0.771228 0.726496 0.099640
O O15 0.572057 0.126479 0.556428
O O16 0.920906 0.822698 0.974669
#
# Coordination Sequence:
#
# PCOD9346940 Si02
#       8
#     4   4   4   4   4   4   4   4
#     4  12  26  46  74 104 146 191 246 304 371 434
#     4  12  26  46  74 104 146 191 246 304 371 434
#     4  12  25  43  71 105 142 184 240 301 360 436
#     4  12  28  50  68 110 146 194 248 310 358 468
#     4  12  23  47  72 103 143 189 242 300 362 437
#     4  12  25  43  71 105 142 184 240 301 360 436
#     4  12  28  46  74 100 150 190 242 294 384 428
#     4  12  23  47  72 103 143 189 242 300 362 437
#
# _framework density 21.589500000000001
#
# number of rings (size 3 to 8) (size 9 to 14) (size 15 to 20)
#    0.000    0.000    6.250    3.000    3.500    0.000 
#    2.250    0.000    0.000    0.000    0.000    0.000 
#    0.000    0.000    0.000    0.000    0.000    0.000 
#
# Total GULP energy -179188.964191 kJ/mol
# GULP energy per Si atom -5599.655131 kJ/mol
# Density = 2.154036 g / cm^3
# Si number density = 21.589500 Si / 1000 Ang^3
#
#
#
# Elastic Constant Matrix: (Units=GPa)
#
#
# Indices 1 2 3 4 5 6 
#
# 1 69.0563 6.7957 -17.6225 0.0000 0.0000 0.0000
# 2 6.7957 51.6926 -6.0628 0.0000 0.0000 0.0000
# 3 -17.6225 -6.0628 37.5168 0.0000 0.0000 0.0000
# 4 0.0000 0.0000 0.0000 36.7664 0.0000 0.0000
# 5 0.0000 0.0000 0.0000 0.0000 30.8759 0.0000
# 6 0.0000 0.0000 0.0000 0.0000 0.0000 31.1866
#
#
#
# Elastic Compliance Matrix: (Units=1/GPa)
#
#
# Indices 1 2 3 4 5 6 
#
# 1 0.016537 -0.001287 0.007560 0.000000 0.000000 0.000000
# 2 -0.001287 0.019819 0.002598 0.000000 0.000000 0.000000
# 3 0.007560 0.002598 0.030625 0.000000 0.000000 0.000000
# 4 0.000000 0.000000 0.000000 0.027199 0.000000 0.000000
# 5 0.000000 0.000000 0.000000 0.000000 0.032388 0.000000
# 6 0.000000 0.000000 0.000000 0.000000 0.000000 0.032065
#
#
# Mechanical properties :
#
#
# Convention : Reuss Voigt Hill
#
# Bulk Modulus (GPa) = 11.80329 13.83184 12.81756
# Shear Modulus (GPa) = 29.56257 31.44279 30.50268
#
# Velocity S-wave (km/s) = 3.70442 3.82041 3.76286
# Velocity P-wave (km/s) = 4.87607 5.08737 4.98284
#
# Compressibility (1/GPa) = 0.08472215
#
# Stress axis : x y z
#
# Youngs Moduli (GPa) = 60.47127 50.45642 32.65255
#
# Poissons Ratio (x) = 0.06495 -0.24684
# Poissons Ratio (y) = 0.07785 -0.08483
# Poissons Ratio (z) = -0.45714 -0.13109
#
# Static dielectric constant tensor:
#      x y z
#    x 1.752620 0.000000 0.000000 
#    y 0.000000 1.784380 0.000000 
#    z 0.000000 0.000000 1.747290 
# 
# From -- ./inp_files/4431.got.cif
#   From: 2010.05.17/outbox.cif.g08.bks.cpg/sg33_3_cif.got.tgz:4431.got - 2010.06.03 17:15:25.
