data_PCOD9346332
_publ_section_title
;
Structure prediction by ZEFSAII (Michael W. Deem and Ramdas Pophale) SiO2 
 PCOD9346332
Probable space group: P N A 21
;
_chemical_formula_sum "Si O2"
_cell_formula_units_Z 24
_cell_length_a 23.466639
_cell_length_b 6.555761
_cell_length_c 6.839623
_cell_angle_alpha 90.000000
_cell_angle_beta 90.000000
_cell_angle_gamma 90.000000
_cell_volume 1052.219071
_symmetry_space_group_name_H-M "P N A 21"
_symmetry_group_IT_number 33
_symmetry_cell_setting 'orthorhombic'
loop_
_space_group_symop_operation_xyz
x,y,z
-x,-y,1/2+z
1/2-x,1/2+y,1/2+z
1/2+x,1/2-y,z
loop_
_atom_site_type_symbol
_atom_site_label
_atom_site_fract_x
_atom_site_fract_y
_atom_site_fract_z
Si Si1 0.508672 0.800537 0.786310
Si Si2 0.828147 0.923880 0.242070
Si Si3 0.568383 0.534373 0.467925
Si Si4 0.248903 0.710557 0.909880
Si Si5 0.827223 0.649208 0.572408
Si Si6 0.925950 0.363473 0.651790
O O1 0.525481 0.668756 0.598612
O O2 0.462379 0.674693 0.911278
O O3 0.481363 0.013589 0.724762
O O4 0.563731 0.826403 0.923126
O O5 0.792462 0.101317 0.352651
O O6 0.856633 0.790960 0.412023
O O7 0.874900 0.007237 0.093769
O O8 0.786331 0.783681 0.108474
O O9 0.581126 0.658082 0.271379
O O10 0.291837 0.715385 0.725738
O O11 0.213325 0.506064 0.952774
O O12 0.872218 0.509165 0.683480
#
# Coordination Sequence:
#
# PCOD9346332 Si02
#       6
#     4   4   4   4   4   4
#     4  12  26  44  68  94 140 176 234 292 348 410
#     4  11  25  43  74 102 140 182 233 279 345 409
#     4  12  27  45  68 101 136 183 231 289 347 410
#     4  10  24  46  68 106 146 178 222 288 342 404
#     4  11  25  43  74 102 140 182 233 279 345 409
#     4  12  27  45  68 101 136 183 231 289 347 410
#
# _framework density 22.808938999999999
#
# number of rings (size 3 to 8) (size 9 to 14) (size 15 to 20)
#    0.000    0.667    3.333    3.000    4.667   13.333 
#    0.000    0.000    0.000    0.000    0.000    0.000 
#    0.000    0.000    0.000    0.000    0.000    0.000 
#
# Total GULP energy -134285.999582 kJ/mol
# GULP energy per Si atom -5595.249983 kJ/mol
# Density = 2.275702 g / cm^3
# Si number density = 22.808939 Si / 1000 Ang^3
#
#
#
# Elastic Constant Matrix: (Units=GPa)
#
#
# Indices 1 2 3 4 5 6 
#
# 1 58.8237 9.2868 10.3031 0.0000 0.0000 0.0000
# 2 9.2868 45.4524 33.1591 0.0000 0.0000 0.0000
# 3 10.3031 33.1591 73.0042 0.0000 0.0000 0.0000
# 4 0.0000 0.0000 0.0000 57.6509 0.0000 0.0000
# 5 0.0000 0.0000 0.0000 0.0000 32.5607 0.0000
# 6 0.0000 0.0000 0.0000 0.0000 0.0000 24.9863
#
#
#
# Elastic Compliance Matrix: (Units=1/GPa)
#
#
# Indices 1 2 3 4 5 6 
#
# 1 0.017646 -0.002675 -0.001275 0.000000 0.000000 0.000000
# 2 -0.002675 0.033310 -0.014752 0.000000 0.000000 0.000000
# 3 -0.001275 -0.014752 0.020578 0.000000 0.000000 0.000000
# 4 0.000000 0.000000 0.000000 0.017346 0.000000 0.000000
# 5 0.000000 0.000000 0.000000 0.000000 0.030712 0.000000
# 6 0.000000 0.000000 0.000000 0.000000 0.000000 0.040022
#
#
# Mechanical properties :
#
#
# Convention : Reuss Voigt Hill
#
# Bulk Modulus (GPa) = 29.30057 31.41982 30.36019
# Shear Modulus (GPa) = 23.99298 31.34166 27.66732
#
# Velocity S-wave (km/s) = 3.24684 3.71090 3.48660
# Velocity P-wave (km/s) = 5.18940 5.67152 5.43581
#
# Compressibility (1/GPa) = 0.03412903
#
# Stress axis : x y z
#
# Youngs Moduli (GPa) = 56.67118 30.02125 48.59484
#
# Poissons Ratio (x) = 0.08031 0.06197
# Poissons Ratio (y) = 0.15159 0.71687
# Poissons Ratio (z) = 0.07228 0.44287
#
# Static dielectric constant tensor:
#      x y z
#    x 1.840500 0.000000 0.000000 
#    y 0.000000 1.796060 0.000000 
#    z 0.000000 0.000000 1.814390 
# 
# From -- ./inp_files/2373.got.cif
#   From: 2010.05.17/outbox.cif.g08.bks.cpg/sg33_2_cif.got.tgz:2373.got - 2010.06.03 17:15:25.
