data_PCOD9346577
_publ_section_title
;
Structure prediction by ZEFSAII (Michael W. Deem and Ramdas Pophale) SiO2 
 PCOD9346577
Probable space group: P N A 21
;
_chemical_formula_sum "Si O2"
_cell_formula_units_Z 16
_cell_length_a 9.910561
_cell_length_b 5.095287
_cell_length_c 11.852464
_cell_angle_alpha 90.000000
_cell_angle_beta 90.000000
_cell_angle_gamma 90.000000
_cell_volume 598.515684
_symmetry_space_group_name_H-M "P N A 21"
_symmetry_group_IT_number 33
_symmetry_cell_setting 'orthorhombic'
loop_
_space_group_symop_operation_xyz
x,y,z
-x,-y,1/2+z
1/2-x,1/2+y,1/2+z
1/2+x,1/2-y,z
loop_
_atom_site_type_symbol
_atom_site_label
_atom_site_fract_x
_atom_site_fract_y
_atom_site_fract_z
Si Si1 0.894531 0.928398 0.285270
Si Si2 0.859271 0.784573 0.730822
Si Si3 0.314782 0.867814 0.088408
Si Si4 0.691448 0.137590 0.997976
O O1 0.755632 0.090315 0.274183
O O2 0.014367 0.136994 0.304990
O O3 0.922759 0.790820 0.163578
O O4 0.883806 0.724166 0.386402
O O5 0.783186 0.050441 0.693319
O O6 0.902196 0.668973 0.608823
O O7 0.309195 0.144466 0.022615
O O8 0.251421 0.651443 0.005444
#
# Coordination Sequence:
#
# PCOD9346577 Si02
#       4
#     4   4   4   4
#     4  11  22  46  74 104 145 192 235 301 366 421
#     4   9  24  44  70 106 142 181 246 300 344 446
#     4   9  22  43  61 103 138 176 236 287 339 436
#     4   9  22  43  65 103 137 187 231 290 359 419
#
# _framework density 26.732800999999998
#
# number of rings (size 3 to 8) (size 9 to 14) (size 15 to 20)
#    1.500    1.000    0.000    0.000    3.500    6.000 
#    4.500    0.000    0.000    0.000    0.000    0.000 
#    0.000    0.000    0.000    0.000    0.000    0.000 
#
# Total GULP energy -89303.282555 kJ/mol
# GULP energy per Si atom -5581.455160 kJ/mol
# Density = 2.667196 g / cm^3
# Si number density = 26.732801 Si / 1000 Ang^3
#
#
#
# Elastic Constant Matrix: (Units=GPa)
#
#
# Indices 1 2 3 4 5 6 
#
# 1 49.5864 19.3916 13.3612 0.0000 0.0000 0.0000
# 2 19.3916 179.3598 36.5181 0.0000 0.0000 0.0000
# 3 13.3612 36.5181 93.9644 0.0000 0.0000 0.0000
# 4 0.0000 0.0000 0.0000 39.7306 0.0000 0.0000
# 5 0.0000 0.0000 0.0000 0.0000 18.8764 0.0000
# 6 0.0000 0.0000 0.0000 0.0000 0.0000 29.8484
#
#
#
# Elastic Compliance Matrix: (Units=1/GPa)
#
#
# Indices 1 2 3 4 5 6 
#
# 1 0.021521 -0.001850 -0.002341 0.000000 0.000000 0.000000
# 2 -0.001850 0.006214 -0.002152 0.000000 0.000000 0.000000
# 3 -0.002341 -0.002152 0.011811 0.000000 0.000000 0.000000
# 4 0.000000 0.000000 0.000000 0.025170 0.000000 0.000000
# 5 0.000000 0.000000 0.000000 0.000000 0.052976 0.000000
# 6 0.000000 0.000000 0.000000 0.000000 0.000000 0.033503
#
#
# Mechanical properties :
#
#
# Convention : Reuss Voigt Hill
#
# Bulk Modulus (GPa) = 37.22989 51.27250 44.25120
# Shear Modulus (GPa) = 28.92949 34.60038 31.76493
#
# Velocity S-wave (km/s) = 3.29321 3.60155 3.45082
# Velocity P-wave (km/s) = 5.33078 6.04286 5.69795
#
# Compressibility (1/GPa) = 0.02686014
#
# Stress axis : x y z
#
# Youngs Moduli (GPa) = 46.46588 160.93971 84.66342
#
# Poissons Ratio (x) = 0.29776 0.19821
# Poissons Ratio (y) = 0.08597 0.18217
# Poissons Ratio (z) = 0.10878 0.34630
#
# Static dielectric constant tensor:
#      x y z
#    x 2.154740 0.000000 0.000000 
#    y 0.000000 2.084530 0.000000 
#    z 0.000000 0.000000 2.151840 
# 
# From -- ./inp_files/6178.got.cif
#   From: 2010.05.17/outbox.cif.g08.bks.cpg/sg33_4_cif.got.tgz:6178.got - 2010.06.03 17:15:25.
