data_PCOD9346273
_publ_section_title
;
Structure prediction by ZEFSAII (Michael W. Deem and Ramdas Pophale) SiO2 
 PCOD9346273
Probable space group: P N A 21
;
_chemical_formula_sum "Si O2"
_cell_formula_units_Z 28
_cell_length_a 8.568082
_cell_length_b 24.402076
_cell_length_c 5.019042
_cell_angle_alpha 90.000000
_cell_angle_beta 90.000000
_cell_angle_gamma 90.000000
_cell_volume 1049.376223
_symmetry_space_group_name_H-M "P N A 21"
_symmetry_group_IT_number 33
_symmetry_cell_setting 'orthorhombic'
loop_
_space_group_symop_operation_xyz
x,y,z
-x,-y,1/2+z
1/2-x,1/2+y,1/2+z
1/2+x,1/2-y,z
loop_
_atom_site_type_symbol
_atom_site_label
_atom_site_fract_x
_atom_site_fract_y
_atom_site_fract_z
Si Si1 0.999933 0.964908 0.777850
Si Si2 0.778628 0.404926 0.338810
Si Si3 0.624040 0.807081 0.549092
Si Si4 0.713481 0.617264 0.100050
Si Si5 0.914972 0.821180 0.161807
Si Si6 0.847882 0.724228 0.819183
Si Si7 0.492332 0.961752 0.239894
O O1 0.129209 0.922811 0.885155
O O2 0.834736 0.942796 0.667083
O O3 0.057271 0.002934 0.541291
O O4 0.894002 0.367269 0.174311
O O5 0.646464 0.362512 0.437852
O O6 0.868270 0.429834 0.589551
O O7 0.758030 0.814638 0.333078
O O8 0.704600 0.761765 0.735652
O O9 0.447466 0.786425 0.550802
O O10 0.797513 0.667824 0.953799
O O11 0.841390 0.578576 0.243349
O O12 0.572099 0.648058 0.265567
O O13 0.943137 0.762797 0.024662
O O14 0.470922 0.012280 0.027948
#
# Coordination Sequence:
#
# PCOD9346273 Si02
#       7
#     4   4   4   4   4   4   4
#     4  11  25  46  71 103 142 192 254 316 376 463
#     4  10  24  43  68  99 144 187 240 310 383 449
#     4  11  24  43  72 101 147 192 244 315 383 480
#     4  11  24  47  74 106 152 202 255 328 405 481
#     4  10  25  45  71 105 147 195 256 310 395 483
#     4  11  23  46  65 111 147 190 256 312 391 487
#     4  12  27  48  73 111 149 196 261 325 391 471
#
# _framework density 26.682517000000001
#
# number of rings (size 3 to 8) (size 9 to 14) (size 15 to 20)
#    0.000    1.143    2.857    1.714    8.000    0.000 
#   10.286    0.000    0.000    0.000    0.000    0.000 
#    0.000    0.000    0.000    0.000    0.000    0.000 
#
# Total GULP energy -156494.612044 kJ/mol
# GULP energy per Si atom -5589.093287 kJ/mol
# Density = 2.662179 g / cm^3
# Si number density = 26.682517 Si / 1000 Ang^3
#
#
#
# Elastic Constant Matrix: (Units=GPa)
#
#
# Indices 1 2 3 4 5 6 
#
# 1 106.2784 52.7138 6.4448 0.0000 0.0000 0.0000
# 2 52.7138 121.6017 5.4374 0.0000 0.0000 0.0000
# 3 6.4448 5.4374 51.8231 0.0000 0.0000 0.0000
# 4 0.0000 0.0000 0.0000 -0.5776 0.0000 0.0000
# 5 0.0000 0.0000 0.0000 0.0000 40.0373 0.0000
# 6 0.0000 0.0000 0.0000 0.0000 0.0000 10.4636
#
#
#
# Elastic Compliance Matrix: (Units=1/GPa)
#
#
# Indices 1 2 3 4 5 6 
#
# 1 0.012033 -0.005174 -0.000954 0.000000 0.000000 0.000000
# 2 -0.005174 0.010487 -0.000457 0.000000 0.000000 0.000000
# 3 -0.000954 -0.000457 0.019463 0.000000 0.000000 0.000000
# 4 0.000000 0.000000 0.000000 -1.731331 0.000000 0.000000
# 5 0.000000 0.000000 0.000000 0.000000 0.024977 0.000000
# 6 0.000000 0.000000 0.000000 0.000000 0.000000 0.095569
#
#
# Mechanical properties :
#
#
# Convention : Reuss Voigt Hill
#
# Bulk Modulus (GPa) = 34.70477 45.43281 40.06879
# Shear Modulus (GPa) = -3.23409 24.32516 10.54553
#
# Velocity S-wave (km/s) = -1.10213 3.02263 1.99018
# Velocity P-wave (km/s) = 3.37864 5.40795 4.50894
#
# Compressibility (1/GPa) = 0.02881448
#
# Stress axis : x y z
#
# Youngs Moduli (GPa) = 83.10325 95.35817 51.37973
#
# Poissons Ratio (x) = 0.49336 0.04900
# Poissons Ratio (y) = 0.42995 0.02347
# Poissons Ratio (z) = 0.07925 0.04357
#
# Static dielectric constant tensor:
#      x y z
#    x 2.450990 0.000000 0.000000 
#    y 0.000000 2.282380 0.000000 
#    z 0.000000 0.000000 2.099000 
# 
# From -- ./inp_files/472.got.cif
#   From: 2010.05.17/outbox.cif.g08.bks.cpg/sg33_1_cif.got.tgz:472.got - 2010.06.03 17:15:25.
