data_PCOD9346938
_publ_section_title
;
Structure prediction by ZEFSAII (Michael W. Deem and Ramdas Pophale) SiO2 
 PCOD9346938
Probable space group: P N A 21
;
_chemical_formula_sum "Si O2"
_cell_formula_units_Z 32
_cell_length_a 8.844895
_cell_length_b 14.084889
_cell_length_c 10.989823
_cell_angle_alpha 90.000000
_cell_angle_beta 90.000000
_cell_angle_gamma 90.000000
_cell_volume 1369.105163
_symmetry_space_group_name_H-M "P N A 21"
_symmetry_group_IT_number 33
_symmetry_cell_setting 'orthorhombic'
loop_
_space_group_symop_operation_xyz
x,y,z
-x,-y,1/2+z
1/2-x,1/2+y,1/2+z
1/2+x,1/2-y,z
loop_
_atom_site_type_symbol
_atom_site_label
_atom_site_fract_x
_atom_site_fract_y
_atom_site_fract_z
Si Si1 0.251399 0.559108 0.389780
Si Si2 0.284218 0.908891 0.084269
Si Si3 0.448317 0.973197 0.689598
Si Si4 0.880198 0.788102 0.960559
Si Si5 0.631877 0.794774 0.784550
Si Si6 0.462192 0.231064 0.923373
Si Si7 0.752564 0.160226 0.069519
Si Si8 0.500923 0.357787 0.714161
O O1 0.290606 0.488075 0.497443
O O2 0.114847 0.510500 0.316122
O O3 0.173790 0.656037 0.435632
O O4 0.387495 0.581152 0.298010
O O5 0.312239 0.811506 0.011527
O O6 0.169998 0.892863 0.195793
O O7 0.444076 0.951434 0.125972
O O8 0.544598 0.877882 0.714549
O O9 0.301528 0.942408 0.612807
O O10 0.933621 0.843569 0.079351
O O11 0.752574 0.837014 0.878965
O O12 0.014494 0.763322 0.867546
O O13 0.714875 0.725302 0.688599
O O14 0.492177 0.256537 0.783683
O O15 0.610551 0.195385 0.989946
O O16 0.401528 0.326453 0.988784
#
# Coordination Sequence:
#
# PCOD9346938 Si02
#       8
#     4   4   4   4   4   4   4   4
#     4  12  26  47  68 106 146 187 237 304 366 426
#     4  12  26  47  68 106 146 187 237 304 366 426
#     4  12  27  44  71 106 142 180 240 302 365 420
#     4  12  25  48  76 102 144 191 247 291 354 448
#     4  12  23  46  75 106 136 191 241 292 355 432
#     4  12  25  48  76 102 144 191 247 291 354 448
#     4  12  23  46  75 106 136 191 241 292 355 432
#     4  12  29  46  73 106 144 198 242 296 363 444
#
# _framework density 23.372928999999999
#
# number of rings (size 3 to 8) (size 9 to 14) (size 15 to 20)
#    0.000    0.000    7.500    1.500    3.500    2.000 
#    0.000    0.000    0.000    0.000    0.000    0.000 
#    0.000    0.000    0.000    0.000    0.000    0.000 
#
# Total GULP energy -179191.205119 kJ/mol
# GULP energy per Si atom -5599.725160 kJ/mol
# Density = 2.331973 g / cm^3
# Si number density = 23.372929 Si / 1000 Ang^3
#
#
#
# Elastic Constant Matrix: (Units=GPa)
#
#
# Indices 1 2 3 4 5 6 
#
# 1 38.4474 12.9366 13.4862 0.0000 0.0000 0.0000
# 2 12.9366 49.5906 6.8593 0.0000 0.0000 0.0000
# 3 13.4862 6.8593 93.1177 0.0000 0.0000 0.0000
# 4 0.0000 0.0000 0.0000 24.9605 0.0000 0.0000
# 5 0.0000 0.0000 0.0000 0.0000 64.0030 0.0000
# 6 0.0000 0.0000 0.0000 0.0000 0.0000 31.7041
#
#
#
# Elastic Compliance Matrix: (Units=1/GPa)
#
#
# Indices 1 2 3 4 5 6 
#
# 1 0.029772 -0.007244 -0.003778 0.000000 0.000000 0.000000
# 2 -0.007244 0.022135 -0.000581 0.000000 0.000000 0.000000
# 3 -0.003778 -0.000581 0.011329 0.000000 0.000000 0.000000
# 4 0.000000 0.000000 0.000000 0.040063 0.000000 0.000000
# 5 0.000000 0.000000 0.000000 0.000000 0.015624 0.000000
# 6 0.000000 0.000000 0.000000 0.000000 0.000000 0.031542
#
#
# Mechanical properties :
#
#
# Convention : Reuss Voigt Hill
#
# Bulk Modulus (GPa) = 24.98172 27.52444 26.25308
# Shear Modulus (GPa) = 26.73561 33.99176 30.36369
#
# Velocity S-wave (km/s) = 3.38578 3.81769 3.60821
# Velocity P-wave (km/s) = 5.09865 5.58881 5.34935
#
# Compressibility (1/GPa) = 0.04002926
#
# Stress axis : x y z
#
# Youngs Moduli (GPa) = 33.58822 45.17678 88.26804
#
# Poissons Ratio (x) = 0.32726 0.33350
# Poissons Ratio (y) = 0.24331 0.05132
# Poissons Ratio (z) = 0.12691 0.02627
#
# Static dielectric constant tensor:
#      x y z
#    x 1.875460 0.000000 0.000000 
#    y 0.000000 1.901100 0.000000 
#    z 0.000000 0.000000 1.876640 
# 
# From -- ./inp_files/5976.got.cif
#   From: 2010.05.17/outbox.cif.g08.bks.cpg/sg33_3_cif.got.tgz:5976.got - 2010.06.03 17:15:25.
