data_PCOD9346725
_publ_section_title
;
Structure prediction by ZEFSAII (Michael W. Deem and Ramdas Pophale) SiO2 
 PCOD9346725
Probable space group: P N A 21
;
_chemical_formula_sum "Si O2"
_cell_formula_units_Z 24
_cell_length_a 15.198632
_cell_length_b 11.180342
_cell_length_c 5.081885
_cell_angle_alpha 90.000000
_cell_angle_beta 90.000000
_cell_angle_gamma 90.000000
_cell_volume 863.543901
_symmetry_space_group_name_H-M "P N A 21"
_symmetry_group_IT_number 33
_symmetry_cell_setting 'orthorhombic'
loop_
_space_group_symop_operation_xyz
x,y,z
-x,-y,1/2+z
1/2-x,1/2+y,1/2+z
1/2+x,1/2-y,z
loop_
_atom_site_type_symbol
_atom_site_label
_atom_site_fract_x
_atom_site_fract_y
_atom_site_fract_z
Si Si1 0.097966 0.078878 0.301450
Si Si2 0.324929 0.757894 0.392481
Si Si3 0.560661 0.013928 0.785637
Si Si4 0.172690 0.639084 0.153056
Si Si5 0.713386 0.563558 0.719798
Si Si6 0.944146 0.156374 0.591480
O O1 0.134114 0.143861 0.041438
O O2 0.034130 0.175905 0.435995
O O3 0.171605 0.016127 0.482839
O O4 0.037529 0.961539 0.259778
O O5 0.393634 0.857611 0.308758
O O6 0.259987 0.720764 0.157801
O O7 0.260695 0.823031 0.596570
O O8 0.484601 0.006593 0.007620
O O9 0.632214 0.916004 0.886339
O O10 0.207821 0.524226 0.319304
O O11 0.095414 0.730063 0.242172
O O12 0.635895 0.610432 0.905463
#
# Coordination Sequence:
#
# PCOD9346725 Si02
#       6
#     4   4   4   4   4   4
#     4  12  24  42  69 103 141 187 236 303 374 442
#     4  11  25  45  75 106 145 197 251 313 373 453
#     4  11  28  52  78 115 156 206 258 317 388 460
#     4  11  25  45  75 106 145 197 251 313 373 453
#     4  11  24  44  68 101 138 188 248 301 362 448
#     4  12  24  42  69 103 141 187 236 303 374 442
#
# _framework density 27.792452000000001
#
# number of rings (size 3 to 8) (size 9 to 14) (size 15 to 20)
#    0.000    0.667    5.000    2.000    0.000   12.000 
#    0.000    0.000    0.000    0.000    0.000    0.000 
#    0.000    0.000    0.000    0.000    0.000    0.000 
#
# Total GULP energy -134457.763969 kJ/mol
# GULP energy per Si atom -5602.406832 kJ/mol
# Density = 2.772920 g / cm^3
# Si number density = 27.792452 Si / 1000 Ang^3
#
#
#
# Elastic Constant Matrix: (Units=GPa)
#
#
# Indices 1 2 3 4 5 6 
#
# 1 161.1268 57.2588 45.1884 0.0000 0.0000 0.0000
# 2 57.2588 144.0074 46.3792 0.0000 0.0000 0.0000
# 3 45.1884 46.3792 68.0443 0.0000 0.0000 0.0000
# 4 0.0000 0.0000 0.0000 49.0288 0.0000 0.0000
# 5 0.0000 0.0000 0.0000 0.0000 66.7926 0.0000
# 6 0.0000 0.0000 0.0000 0.0000 0.0000 62.7511
#
#
#
# Elastic Compliance Matrix: (Units=1/GPa)
#
#
# Indices 1 2 3 4 5 6 
#
# 1 0.008007 -0.001885 -0.004033 0.000000 0.000000 0.000000
# 2 -0.001885 0.009341 -0.005115 0.000000 0.000000 0.000000
# 3 -0.004033 -0.005115 0.020861 0.000000 0.000000 0.000000
# 4 0.000000 0.000000 0.000000 0.020396 0.000000 0.000000
# 5 0.000000 0.000000 0.000000 0.000000 0.014972 0.000000
# 6 0.000000 0.000000 0.000000 0.000000 0.000000 0.015936
#
#
# Mechanical properties :
#
#
# Convention : Reuss Voigt Hill
#
# Bulk Modulus (GPa) = 61.94443 74.53681 68.24062
# Shear Modulus (GPa) = 42.74988 50.67131 46.71060
#
# Velocity S-wave (km/s) = 3.92622 4.27453 4.10407
# Velocity P-wave (km/s) = 6.54906 7.15817 6.86038
#
# Compressibility (1/GPa) = 0.01614350
#
# Stress axis : x y z
#
# Youngs Moduli (GPa) = 124.88869 107.05619 47.93655
#
# Poissons Ratio (x) = 0.20179 0.19332
# Poissons Ratio (y) = 0.23540 0.24520
# Poissons Ratio (z) = 0.50365 0.54759
#
# Static dielectric constant tensor:
#      x y z
#    x 2.159940 0.000000 0.000000 
#    y 0.000000 2.154910 0.000000 
#    z 0.000000 0.000000 2.209640 
# 
# From -- ./inp_files/1272.got.cif
#   From: 2010.05.17/outbox.cif.g08.bks.cpg/sg33_1_cif.got.tgz:1272.got - 2010.06.03 17:15:25.
