data_PCOD9346785
_publ_section_title
;
Structure prediction by ZEFSAII (Michael W. Deem and Ramdas Pophale) SiO2 
 PCOD9346785
Probable space group: P N A 21
;
_chemical_formula_sum "Si O2"
_cell_formula_units_Z 20
_cell_length_a 9.134355
_cell_length_b 10.086743
_cell_length_c 9.742609
_cell_angle_alpha 90.000000
_cell_angle_beta 90.000000
_cell_angle_gamma 90.000000
_cell_volume 897.643964
_symmetry_space_group_name_H-M "P N A 21"
_symmetry_group_IT_number 33
_symmetry_cell_setting 'orthorhombic'
loop_
_space_group_symop_operation_xyz
x,y,z
-x,-y,1/2+z
1/2-x,1/2+y,1/2+z
1/2+x,1/2-y,z
loop_
_atom_site_type_symbol
_atom_site_label
_atom_site_fract_x
_atom_site_fract_y
_atom_site_fract_z
Si Si1 0.252384 0.159694 0.748030
Si Si2 0.248825 0.895442 0.570317
Si Si3 0.410350 0.140362 0.032272
Si Si4 0.177910 0.926462 0.086930
Si Si5 0.985695 0.027226 0.847503
O O1 0.361383 0.156734 0.874962
O O2 0.091407 0.153085 0.817104
O O3 0.253218 0.019774 0.670848
O O4 0.288547 0.281146 0.647481
O O5 0.417192 0.861636 0.545880
O O6 0.163211 0.762626 0.614366
O O7 0.158239 0.941688 0.436473
O O8 0.330043 0.004720 0.075581
O O9 0.076936 0.006109 0.197151
O O10 0.087023 0.932868 0.943712
#
# Coordination Sequence:
#
# PCOD9346785 Si02
#       5
#     4   4   4   4   4
#     4  11  26  49  75 105 150 195 249 305 380 440
#     4  12  26  46  72 106 146 192 250 304 365 447
#     4  11  27  46  72 107 144 199 242 305 376 441
#     4  11  25  48  79 104 148 196 246 305 380 441
#     4  11  24  47  76 108 144 196 243 311 365 441
#
# _framework density 22.280546999999999
#
# number of rings (size 3 to 8) (size 9 to 14) (size 15 to 20)
#    0.000    0.800    4.000    2.400    5.600    0.000 
#   10.800    0.000    0.000    0.000    0.000    0.000 
#    0.000    0.000    0.000    0.000    0.000    0.000 
#
# Total GULP energy -111706.842359 kJ/mol
# GULP energy per Si atom -5585.342118 kJ/mol
# Density = 2.222984 g / cm^3
# Si number density = 22.280547 Si / 1000 Ang^3
#
#
#
# Elastic Constant Matrix: (Units=GPa)
#
#
# Indices 1 2 3 4 5 6 
#
# 1 206.0019 63.5997 38.5168 0.0000 0.0000 0.0000
# 2 63.5997 147.9271 61.5287 0.0000 0.0000 0.0000
# 3 38.5168 61.5287 102.0250 0.0000 0.0000 0.0000
# 4 0.0000 0.0000 0.0000 25.2704 0.0000 0.0000
# 5 0.0000 0.0000 0.0000 0.0000 21.9875 0.0000
# 6 0.0000 0.0000 0.0000 0.0000 0.0000 35.8951
#
#
#
# Elastic Compliance Matrix: (Units=1/GPa)
#
#
# Indices 1 2 3 4 5 6 
#
# 1 0.005658 -0.002061 -0.000893 0.000000 0.000000 0.000000
# 2 -0.002061 0.009774 -0.005117 0.000000 0.000000 0.000000
# 3 -0.000893 -0.005117 0.013224 0.000000 0.000000 0.000000
# 4 0.000000 0.000000 0.000000 0.039572 0.000000 0.000000
# 5 0.000000 0.000000 0.000000 0.000000 0.045480 0.000000
# 6 0.000000 0.000000 0.000000 0.000000 0.000000 0.027859
#
#
# Mechanical properties :
#
#
# Convention : Reuss Voigt Hill
#
# Bulk Modulus (GPa) = 79.90285 87.02716 83.46501
# Shear Modulus (GPa) = 30.88697 36.11784 33.50240
#
# Velocity S-wave (km/s) = 3.72731 4.03059 3.88191
# Velocity P-wave (km/s) = 7.37996 7.79778 7.59175
#
# Compressibility (1/GPa) = 0.01251520
#
# Stress axis : x y z
#
# Youngs Moduli (GPa) = 176.75394 102.30804 75.61826
#
# Poissons Ratio (x) = 0.21086 0.06752
# Poissons Ratio (y) = 0.36429 0.38691
# Poissons Ratio (z) = 0.15783 0.52347
#
# Static dielectric constant tensor:
#      x y z
#    x 1.894490 0.000000 0.000000 
#    y 0.000000 1.884560 0.000000 
#    z 0.000000 0.000000 1.866730 
# 
# From -- ./inp_files/3090.got.cif
#   From: 2010.05.17/outbox.cif.g08.bks.cpg/sg33_2_cif.got.tgz:3090.got - 2010.06.03 17:15:25.
