data_PCOD9346286
_publ_section_title
;
Structure prediction by ZEFSAII (Michael W. Deem and Ramdas Pophale) SiO2 
 PCOD9346286
Probable space group: P N A 21
;
_chemical_formula_sum "Si O2"
_cell_formula_units_Z 20
_cell_length_a 18.551820
_cell_length_b 4.912348
_cell_length_c 8.458183
_cell_angle_alpha 90.000000
_cell_angle_beta 90.000000
_cell_angle_gamma 90.000000
_cell_volume 770.819556
_symmetry_space_group_name_H-M "P N A 21"
_symmetry_group_IT_number 33
_symmetry_cell_setting 'orthorhombic'
loop_
_space_group_symop_operation_xyz
x,y,z
-x,-y,1/2+z
1/2-x,1/2+y,1/2+z
1/2+x,1/2-y,z
loop_
_atom_site_type_symbol
_atom_site_label
_atom_site_fract_x
_atom_site_fract_y
_atom_site_fract_z
Si Si1 0.466207 0.946494 0.464830
Si Si2 0.155806 0.510925 0.730253
Si Si3 0.392004 0.436634 0.616843
Si Si4 0.275641 0.518867 0.356577
Si Si5 0.122998 0.338382 0.396296
O O1 0.423074 0.018061 0.305351
O O2 0.444143 0.644957 0.518268
O O3 0.612186 0.429816 0.290370
O O4 0.431063 0.148423 0.594945
O O5 0.186667 0.813202 0.731473
O O6 0.153443 0.331038 0.574079
O O7 0.204793 0.334235 0.846547
O O8 0.315612 0.433569 0.522209
O O9 0.548554 0.007286 0.429697
O O10 0.191203 0.493391 0.322116
#
# Coordination Sequence:
#
# PCOD9346286 Si02
#       5
#     4   4   4   4   4
#     4  10  24  44  65  96 137 175 221 281 340 403
#     4  10  24  44  64  94 134 172 218 277 337 402
#     4  10  24  44  65  97 138 174 220 281 340 403
#     4  10  24  44  64  95 135 172 219 280 337 399
#     4  12  24  42  74 100 128 183 234 277 342 417
#
# _framework density 25.946408000000002
#
# number of rings (size 3 to 8) (size 9 to 14) (size 15 to 20)
#    0.000    1.600    0.000    2.400    0.000   19.200 
#    0.000    0.000    0.000    0.000    0.000    0.000 
#    0.000    0.000    0.000    0.000    0.000    0.000 
#
# Total GULP energy -111875.223235 kJ/mol
# GULP energy per Si atom -5593.761162 kJ/mol
# Density = 2.588735 g / cm^3
# Si number density = 25.946408 Si / 1000 Ang^3
#
#
#
# Elastic Constant Matrix: (Units=GPa)
#
#
# Indices 1 2 3 4 5 6 
#
# 1 147.1150 20.9548 16.1522 0.0000 0.0000 0.0000
# 2 20.9548 99.4378 18.2852 0.0000 0.0000 0.0000
# 3 16.1522 18.2852 115.2375 0.0000 0.0000 0.0000
# 4 0.0000 0.0000 0.0000 39.8947 0.0000 0.0000
# 5 0.0000 0.0000 0.0000 0.0000 21.5070 0.0000
# 6 0.0000 0.0000 0.0000 0.0000 0.0000 18.8414
#
#
#
# Elastic Compliance Matrix: (Units=1/GPa)
#
#
# Indices 1 2 3 4 5 6 
#
# 1 0.007075 -0.001348 -0.000778 0.000000 0.000000 0.000000
# 2 -0.001348 0.010616 -0.001495 0.000000 0.000000 0.000000
# 3 -0.000778 -0.001495 0.009024 0.000000 0.000000 0.000000
# 4 0.000000 0.000000 0.000000 0.025066 0.000000 0.000000
# 5 0.000000 0.000000 0.000000 0.000000 0.046497 0.000000
# 6 0.000000 0.000000 0.000000 0.000000 0.000000 0.053075
#
#
# Mechanical properties :
#
#
# Convention : Reuss Voigt Hill
#
# Bulk Modulus (GPa) = 51.35540 52.50831 51.93185
# Shear Modulus (GPa) = 30.28751 36.47514 33.38133
#
# Velocity S-wave (km/s) = 3.42030 3.75345 3.59074
# Velocity P-wave (km/s) = 5.95263 6.25025 6.10326
#
# Compressibility (1/GPa) = 0.01947215
#
# Stress axis : x y z
#
# Youngs Moduli (GPa) = 141.34703 94.20120 110.81506
#
# Poissons Ratio (x) = 0.12697 0.08619
# Poissons Ratio (y) = 0.19052 0.16572
# Poissons Ratio (z) = 0.10993 0.14088
#
# Static dielectric constant tensor:
#      x y z
#    x 2.029440 0.000000 0.000000 
#    y 0.000000 1.964130 0.000000 
#    z 0.000000 0.000000 2.237170 
# 
# From -- ./inp_files/6561.got.cif
#   From: 2010.05.17/outbox.cif.g08.bks.cpg/sg33_4_cif.got.tgz:6561.got - 2010.06.03 17:15:25.
