data_PCOD9346164
_publ_section_title
;
Structure prediction by ZEFSAII (Michael W. Deem and Ramdas Pophale) SiO2 
 PCOD9346164
Probable space group: P N A 21
;
_chemical_formula_sum "Si O2"
_cell_formula_units_Z 28
_cell_length_a 12.396812
_cell_length_b 17.860469
_cell_length_c 5.536797
_cell_angle_alpha 90.000000
_cell_angle_beta 90.000000
_cell_angle_gamma 90.000000
_cell_volume 1225.918150
_symmetry_space_group_name_H-M "P N A 21"
_symmetry_group_IT_number 33
_symmetry_cell_setting 'orthorhombic'
loop_
_space_group_symop_operation_xyz
x,y,z
-x,-y,1/2+z
1/2-x,1/2+y,1/2+z
1/2+x,1/2-y,z
loop_
_atom_site_type_symbol
_atom_site_label
_atom_site_fract_x
_atom_site_fract_y
_atom_site_fract_z
Si Si1 0.564367 0.489152 0.618390
Si Si2 0.937616 0.508381 0.631078
Si Si3 0.753797 0.263104 0.029919
Si Si4 0.249065 0.392647 0.249110
Si Si5 0.664565 0.337957 0.409924
Si Si6 0.120877 0.646003 0.195166
Si Si7 0.878181 0.683941 0.114930
O O1 0.504519 0.516210 0.368968
O O2 0.658737 0.548302 0.686711
O O3 0.608768 0.407552 0.534964
O O4 0.862012 0.581229 0.617531
O O5 0.860694 0.441909 0.727775
O O6 0.978632 0.488308 0.358773
O O7 0.786751 0.191378 0.187353
O O8 0.687319 0.335681 0.125975
O O9 0.859169 0.300035 0.918193
O O10 0.674661 0.223474 0.842191
O O11 0.204402 0.379624 0.520491
O O12 0.787252 0.330027 0.508334
O O13 0.609322 0.257153 0.443199
O O14 0.996361 0.651182 0.132387
#
# Coordination Sequence:
#
# PCOD9346164 Si02
#       7
#     4   4   4   4   4   4   4
#     4  12  31  48  77 110 152 210 257 317 385 455
#     4  12  26  43  74 113 151 192 242 311 388 446
#     4  10  25  43  74 104 152 196 250 315 368 456
#     4  11  25  47  72 110 153 192 262 314 377 458
#     4  10  25  46  70 107 149 195 253 308 372 459
#     4  11  23  42  74 107 148 191 246 307 383 445
#     4  10  23  45  73 109 145 196 246 310 383 449
#
# _framework density 22.840026000000002
#
# number of rings (size 3 to 8) (size 9 to 14) (size 15 to 20)
#    0.000    1.143    2.857    0.857   10.000    4.571 
#    0.000    0.000    0.000    0.000    0.000    0.000 
#    0.000    0.000    0.000    0.000    0.000    0.000 
#
# Total GULP energy -155869.642775 kJ/mol
# GULP energy per Si atom -5566.772956 kJ/mol
# Density = 2.278804 g / cm^3
# Si number density = 22.840026 Si / 1000 Ang^3
#
#
#
# Elastic Constant Matrix: (Units=GPa)
#
#
# Indices 1 2 3 4 5 6 
#
# 1 88.3617 45.6472 55.3481 0.0000 0.0000 0.0000
# 2 45.6472 130.4558 35.7075 0.0000 0.0000 0.0000
# 3 55.3481 35.7075 89.5749 0.0000 0.0000 0.0000
# 4 0.0000 0.0000 0.0000 41.6084 0.0000 0.0000
# 5 0.0000 0.0000 0.0000 0.0000 19.8776 0.0000
# 6 0.0000 0.0000 0.0000 0.0000 0.0000 35.9674
#
#
#
# Elastic Compliance Matrix: (Units=1/GPa)
#
#
# Indices 1 2 3 4 5 6 
#
# 1 0.020252 -0.004110 -0.010876 0.000000 0.000000 0.000000
# 2 -0.004110 0.009438 -0.001223 0.000000 0.000000 0.000000
# 3 -0.010876 -0.001223 0.018371 0.000000 0.000000 0.000000
# 4 0.000000 0.000000 0.000000 0.024034 0.000000 0.000000
# 5 0.000000 0.000000 0.000000 0.000000 0.050308 0.000000
# 6 0.000000 0.000000 0.000000 0.000000 0.000000 0.027803
#
#
# Mechanical properties :
#
#
# Convention : Reuss Voigt Hill
#
# Bulk Modulus (GPa) = 63.91677 64.64422 64.28049
# Shear Modulus (GPa) = 26.61862 30.93665 28.77764
#
# Velocity S-wave (km/s) = 3.41755 3.68434 3.55345
# Velocity P-wave (km/s) = 6.60441 6.81642 6.71125
#
# Compressibility (1/GPa) = 0.01564535
#
# Stress axis : x y z
#
# Youngs Moduli (GPa) = 49.37674 105.95274 54.43231
#
# Poissons Ratio (x) = 0.43543 0.59199
# Poissons Ratio (y) = 0.20292 0.06657
# Poissons Ratio (z) = 0.53701 0.12959
#
# Static dielectric constant tensor:
#      x y z
#    x 1.869470 0.000000 0.000000 
#    y 0.000000 1.867070 0.000000 
#    z 0.000000 0.000000 2.140260 
# 
# From -- ./inp_files/971.got.cif
#   From: 2010.05.17/outbox.cif.g08.bks.cpg/sg33_1_cif.got.tgz:971.got - 2010.06.03 17:15:25.
