data_PCOD9346620
_publ_section_title
;
Structure prediction by ZEFSAII (Michael W. Deem and Ramdas Pophale) SiO2 
 PCOD9346620
Probable space group: P N A 21
;
_chemical_formula_sum "Si O2"
_cell_formula_units_Z 32
_cell_length_a 12.270532
_cell_length_b 5.311509
_cell_length_c 22.230123
_cell_angle_alpha 90.000000
_cell_angle_beta 90.000000
_cell_angle_gamma 90.000000
_cell_volume 1448.849181
_symmetry_space_group_name_H-M "P N A 21"
_symmetry_group_IT_number 33
_symmetry_cell_setting 'orthorhombic'
loop_
_space_group_symop_operation_xyz
x,y,z
-x,-y,1/2+z
1/2-x,1/2+y,1/2+z
1/2+x,1/2-y,z
loop_
_atom_site_type_symbol
_atom_site_label
_atom_site_fract_x
_atom_site_fract_y
_atom_site_fract_z
Si Si1 0.221838 0.648304 0.836270
Si Si2 0.132861 0.176755 0.982722
Si Si3 0.325609 0.797946 0.953906
Si Si4 0.989953 0.178687 0.100791
Si Si5 0.991914 0.571296 0.378965
Si Si6 0.218305 0.032790 0.561286
Si Si7 0.400743 0.185555 0.648797
Si Si8 0.674795 0.839133 0.285014
O O1 0.288949 0.618981 0.898989
O O2 0.094347 0.626954 0.851727
O O3 0.254031 0.410214 0.795773
O O4 0.260456 0.911649 0.807451
O O5 0.078198 0.239230 0.919232
O O6 0.217877 0.956970 0.969411
O O7 0.044367 0.138567 0.035003
O O8 0.205025 0.398203 0.012333
O O9 0.424380 0.952529 0.926383
O O10 0.359395 0.695594 0.018652
O O11 0.029761 0.444508 0.126808
O O12 0.859667 0.160433 0.095498
O O13 0.034279 0.945457 0.140400
O O14 0.066551 0.680140 0.326255
O O15 0.293952 0.186500 0.606143
O O16 0.361682 0.142711 0.716454
#
# Coordination Sequence:
#
# PCOD9346620 Si02
#       8
#     4   4   4   4   4   4   4   4
#     4  11  25  44  67 102 133 183 223 290 339 411
#     4  11  23  43  63 104 143 182 221 294 347 432
#     4  11  24  40  66 102 142 178 224 285 354 420
#     4  11  26  41  74  99 136 181 233 282 356 406
#     4  11  24  41  70 101 139 183 229 282 355 415
#     4  11  25  41  67 102 139 184 224 291 353 417
#     4  11  26  50  68 102 137 186 237 290 333 421
#     4  11  27  48  71  98 141 183 243 282 341 408
#
# _framework density 22.086494999999999
#
# number of rings (size 3 to 8) (size 9 to 14) (size 15 to 20)
#    0.000    1.000    2.500    3.000    8.750    5.000 
#    0.000    0.000    0.000    0.000    0.000    0.000 
#    0.000    0.000    0.000    0.000    0.000    0.000 
#
# Total GULP energy -178987.801493 kJ/mol
# GULP energy per Si atom -5593.368797 kJ/mol
# Density = 2.203622 g / cm^3
# Si number density = 22.086495 Si / 1000 Ang^3
#
#
#
# Elastic Constant Matrix: (Units=GPa)
#
#
# Indices 1 2 3 4 5 6 
#
# 1 28.6527 3.6016 -7.6699 0.0000 0.0000 0.0000
# 2 3.6016 70.0957 10.7335 0.0000 0.0000 0.0000
# 3 -7.6699 10.7335 94.5959 0.0000 0.0000 0.0000
# 4 0.0000 0.0000 0.0000 32.4919 0.0000 0.0000
# 5 0.0000 0.0000 0.0000 0.0000 13.0528 0.0000
# 6 0.0000 0.0000 0.0000 0.0000 0.0000 20.2477
#
#
#
# Elastic Compliance Matrix: (Units=1/GPa)
#
#
# Indices 1 2 3 4 5 6 
#
# 1 0.036048 -0.002340 0.003188 0.000000 0.000000 0.000000
# 2 -0.002340 0.014670 -0.001854 0.000000 0.000000 0.000000
# 3 0.003188 -0.001854 0.011040 0.000000 0.000000 0.000000
# 4 0.000000 0.000000 0.000000 0.030777 0.000000 0.000000
# 5 0.000000 0.000000 0.000000 0.000000 0.076612 0.000000
# 6 0.000000 0.000000 0.000000 0.000000 0.000000 0.049388
#
#
# Mechanical properties :
#
#
# Convention : Reuss Voigt Hill
#
# Bulk Modulus (GPa) = 16.73746 22.96386 19.85066
# Shear Modulus (GPa) = 20.79311 25.60375 23.19843
#
# Velocity S-wave (km/s) = 3.07162 3.40847 3.24442
# Velocity P-wave (km/s) = 4.49159 5.09019 4.80023
#
# Compressibility (1/GPa) = 0.05974621
#
# Stress axis : x y z
#
# Youngs Moduli (GPa) = 27.74045 68.16439 90.57798
#
# Poissons Ratio (x) = 0.15954 -0.28880
# Poissons Ratio (y) = 0.06493 0.16797
# Poissons Ratio (z) = -0.08845 0.12640
#
# Static dielectric constant tensor:
#      x y z
#    x 1.840380 0.000000 0.000000 
#    y 0.000000 1.862080 0.000000 
#    z 0.000000 0.000000 1.810540 
# 
# From -- ./inp_files/9110.got.cif
#   From: 2010.05.17/outbox.cif.g08.bks.cpg/sg33_5_cif.got.tgz:9110.got - 2010.06.03 17:15:25.
