data_PCOD9346581
_publ_section_title
;
Structure prediction by ZEFSAII (Michael W. Deem and Ramdas Pophale) SiO2 
 PCOD9346581
Probable space group: P N A 21
;
_chemical_formula_sum "Si O2"
_cell_formula_units_Z 24
_cell_length_a 9.359098
_cell_length_b 15.866953
_cell_length_c 6.465864
_cell_angle_alpha 90.000000
_cell_angle_beta 90.000000
_cell_angle_gamma 90.000000
_cell_volume 960.183184
_symmetry_space_group_name_H-M "P N A 21"
_symmetry_group_IT_number 33
_symmetry_cell_setting 'orthorhombic'
loop_
_space_group_symop_operation_xyz
x,y,z
-x,-y,1/2+z
1/2-x,1/2+y,1/2+z
1/2+x,1/2-y,z
loop_
_atom_site_type_symbol
_atom_site_label
_atom_site_fract_x
_atom_site_fract_y
_atom_site_fract_z
Si Si1 0.650325 0.535199 0.623080
Si Si2 0.510015 0.366663 0.778188
Si Si3 0.277778 0.670269 0.621252
Si Si4 0.965264 0.230579 0.373465
Si Si5 0.360400 0.901335 0.940600
Si Si6 0.867264 0.490057 0.294147
O O1 0.547888 0.458336 0.681740
O O2 0.590690 0.603824 0.464466
O O3 0.713373 0.582878 0.821851
O O4 0.778234 0.489695 0.502211
O O5 0.441423 0.306150 0.604731
O O6 0.650917 0.324901 0.891436
O O7 0.417212 0.670078 0.768169
O O8 0.198980 0.580959 0.644560
O O9 0.164814 0.736892 0.724191
O O10 0.060767 0.314637 0.402405
O O11 0.471942 0.969068 0.849215
O O12 0.349708 0.921667 0.180658
#
# Coordination Sequence:
#
# PCOD9346581 Si02
#       6
#     4   4   4   4   4   4
#     4  12  26  45  82 111 153 211 270 322 404 482
#     4  12  28  49  79 115 164 213 268 346 402 499
#     4  11  26  50  75 112 161 204 266 332 403 491
#     4  11  29  49  75 116 161 209 267 338 419 485
#     4  11  25  46  76 113 153 207 265 322 402 475
#     4  11  22  47  77 109 154 202 264 326 382 482
#
# _framework density 24.995229999999999
#
# number of rings (size 3 to 8) (size 9 to 14) (size 15 to 20)
#    0.000    0.667    5.000    1.000    4.667    2.667 
#    0.000    0.000    0.000    0.000    0.000    0.000 
#    0.000    0.000    0.000    0.000    0.000    0.000 
#
# Total GULP energy -134206.428616 kJ/mol
# GULP energy per Si atom -5591.934526 kJ/mol
# Density = 2.493834 g / cm^3
# Si number density = 24.995230 Si / 1000 Ang^3
#
#
#
# Elastic Constant Matrix: (Units=GPa)
#
#
# Indices 1 2 3 4 5 6 
#
# 1 114.6516 34.6024 40.3049 0.0000 0.0000 0.0000
# 2 34.6024 75.3969 40.2871 0.0000 0.0000 0.0000
# 3 40.3049 40.2871 97.4143 0.0000 0.0000 0.0000
# 4 0.0000 0.0000 0.0000 53.4176 0.0000 0.0000
# 5 0.0000 0.0000 0.0000 0.0000 57.6628 0.0000
# 6 0.0000 0.0000 0.0000 0.0000 0.0000 33.4521
#
#
#
# Elastic Compliance Matrix: (Units=1/GPa)
#
#
# Indices 1 2 3 4 5 6 
#
# 1 0.010811 -0.003301 -0.003108 0.000000 0.000000 0.000000
# 2 -0.003301 0.018033 -0.006092 0.000000 0.000000 0.000000
# 3 -0.003108 -0.006092 0.014071 0.000000 0.000000 0.000000
# 4 0.000000 0.000000 0.000000 0.018720 0.000000 0.000000
# 5 0.000000 0.000000 0.000000 0.000000 0.017342 0.000000
# 6 0.000000 0.000000 0.000000 0.000000 0.000000 0.029893
#
#
# Mechanical properties :
#
#
# Convention : Reuss Voigt Hill
#
# Bulk Modulus (GPa) = 55.82498 57.53907 56.68203
# Shear Modulus (GPa) = 35.75414 40.39105 38.07260
#
# Velocity S-wave (km/s) = 3.78622 4.02425 3.90705
# Velocity P-wave (km/s) = 6.44179 6.68302 6.56351
#
# Compressibility (1/GPa) = 0.01791313
#
# Stress axis : x y z
#
# Youngs Moduli (GPa) = 92.49982 55.45294 71.06910
#
# Poissons Ratio (x) = 0.18304 0.22087
# Poissons Ratio (y) = 0.30533 0.43297
# Poissons Ratio (z) = 0.28747 0.33783
#
# Static dielectric constant tensor:
#      x y z
#    x 1.997530 0.000000 0.000000 
#    y 0.000000 1.975950 0.000000 
#    z 0.000000 0.000000 2.011210 
# 
# From -- ./inp_files/404.got.cif
#   From: 2010.05.17/outbox.cif.g08.bks.cpg/sg33_1_cif.got.tgz:404.got - 2010.06.03 17:15:25.
