data_PCOD9346396
_publ_section_title
;
Structure prediction by ZEFSAII (Michael W. Deem and Ramdas Pophale) SiO2 
 PCOD9346396
Probable space group: P N A 21
;
_chemical_formula_sum "Si O2"
_cell_formula_units_Z 20
_cell_length_a 9.634920
_cell_length_b 10.964037
_cell_length_c 7.003653
_cell_angle_alpha 90.000000
_cell_angle_beta 90.000000
_cell_angle_gamma 90.000000
_cell_volume 739.849230
_symmetry_space_group_name_H-M "P N A 21"
_symmetry_group_IT_number 33
_symmetry_cell_setting 'orthorhombic'
loop_
_space_group_symop_operation_xyz
x,y,z
-x,-y,1/2+z
1/2-x,1/2+y,1/2+z
1/2+x,1/2-y,z
loop_
_atom_site_type_symbol
_atom_site_label
_atom_site_fract_x
_atom_site_fract_y
_atom_site_fract_z
Si Si1 0.737426 0.377133 0.417480
Si Si2 0.927544 0.153030 0.370846
Si Si3 0.781874 0.460641 0.995947
Si Si4 0.196233 0.381239 0.812951
Si Si5 0.541722 0.734883 0.430474
O O1 0.834399 0.262752 0.456445
O O2 0.577080 0.361432 0.470727
O O3 0.728649 0.391982 0.186232
O O4 0.811251 0.506335 0.463700
O O5 0.840667 0.027180 0.383368
O O6 0.946099 0.193569 0.150064
O O7 0.856947 0.572398 0.108655
O O8 0.887945 0.368709 0.900920
O O9 0.361444 0.356544 0.813496
O O10 0.115900 0.261532 0.876092
#
# Coordination Sequence:
#
# PCOD9346396 Si02
#       5
#     4   4   4   4   4
#     4   9  24  41  67  99 132 178 232 284 346 407
#     4  11  22  44  70  97 137 180 235 286 347 420
#     4   9  24  43  67 101 135 179 238 277 356 411
#     4  10  25  44  64 101 137 176 235 285 351 409
#     4  11  23  44  70  98 141 183 228 294 346 415
#
# _framework density 27.032536
#
# number of rings (size 3 to 8) (size 9 to 14) (size 15 to 20)
#    1.200    0.800    0.000    2.400    8.400    3.200 
#    3.600    0.000    0.000    0.000    0.000    0.000 
#    0.000    0.000    0.000    0.000    0.000    0.000 
#
# Total GULP energy -111770.346407 kJ/mol
# GULP energy per Si atom -5588.517320 kJ/mol
# Density = 2.697101 g / cm^3
# Si number density = 27.032536 Si / 1000 Ang^3
#
#
#
# Elastic Constant Matrix: (Units=GPa)
#
#
# Indices 1 2 3 4 5 6 
#
# 1 122.5028 21.0956 4.5206 0.0000 0.0000 0.0000
# 2 21.0956 94.4441 9.4237 0.0000 0.0000 0.0000
# 3 4.5206 9.4237 73.6602 0.0000 0.0000 0.0000
# 4 0.0000 0.0000 0.0000 49.5499 0.0000 0.0000
# 5 0.0000 0.0000 0.0000 0.0000 25.0293 0.0000
# 6 0.0000 0.0000 0.0000 0.0000 0.0000 54.6021
#
#
#
# Elastic Compliance Matrix: (Units=1/GPa)
#
#
# Indices 1 2 3 4 5 6 
#
# 1 0.008495 -0.001869 -0.000282 0.000000 0.000000 0.000000
# 2 -0.001869 0.011137 -0.001310 0.000000 0.000000 0.000000
# 3 -0.000282 -0.001310 0.013761 0.000000 0.000000 0.000000
# 4 0.000000 0.000000 0.000000 0.020182 0.000000 0.000000
# 5 0.000000 0.000000 0.000000 0.000000 0.039953 0.000000
# 6 0.000000 0.000000 0.000000 0.000000 0.000000 0.018314
#
#
# Mechanical properties :
#
#
# Convention : Reuss Voigt Hill
#
# Bulk Modulus (GPa) = 37.77944 40.07633 38.92789
# Shear Modulus (GPa) = 39.18850 42.87406 41.03128
#
# Velocity S-wave (km/s) = 3.81160 3.98680 3.90018
# Velocity P-wave (km/s) = 5.77727 6.00418 5.89182
#
# Compressibility (1/GPa) = 0.02646942
#
# Stress axis : x y z
#
# Youngs Moduli (GPa) = 117.71051 89.79432 72.67031
#
# Poissons Ratio (x) = 0.16786 0.02051
# Poissons Ratio (y) = 0.22005 0.09520
# Poissons Ratio (z) = 0.03322 0.11763
#
# Static dielectric constant tensor:
#      x y z
#    x 2.107020 0.000000 0.000000 
#    y 0.000000 2.136490 0.000000 
#    z 0.000000 0.000000 2.159630 
# 
# From -- ./inp_files/3042.got.cif
#   From: 2010.05.17/outbox.cif.g08.bks.cpg/sg33_2_cif.got.tgz:3042.got - 2010.06.03 17:15:25.
