data_PCOD9346839
_publ_section_title
;
Structure prediction by ZEFSAII (Michael W. Deem and Ramdas Pophale) SiO2 
 PCOD9346839
Probable space group: P N A 21
;
_chemical_formula_sum "Si O2"
_cell_formula_units_Z 32
_cell_length_a 11.286716
_cell_length_b 16.046271
_cell_length_c 8.181227
_cell_angle_alpha 90.000000
_cell_angle_beta 90.000000
_cell_angle_gamma 90.000000
_cell_volume 1481.699597
_symmetry_space_group_name_H-M "P N A 21"
_symmetry_group_IT_number 33
_symmetry_cell_setting 'orthorhombic'
loop_
_space_group_symop_operation_xyz
x,y,z
-x,-y,1/2+z
1/2-x,1/2+y,1/2+z
1/2+x,1/2-y,z
loop_
_atom_site_type_symbol
_atom_site_label
_atom_site_fract_x
_atom_site_fract_y
_atom_site_fract_z
Si Si1 0.703082 0.197183 0.620900
Si Si2 0.865870 0.857243 0.910552
Si Si3 0.595822 0.387916 0.037688
Si Si4 0.656828 0.983983 0.985197
Si Si5 0.839176 0.120692 0.084558
Si Si6 0.617500 0.573450 0.954675
Si Si7 0.010444 0.592772 0.281208
Si Si8 0.692645 0.784715 0.424594
O O1 0.663000 0.272353 0.503885
O O2 0.781711 0.132955 0.521086
O O3 0.590033 0.150524 0.698378
O O4 0.790660 0.230825 0.761634
O O5 0.896901 0.849187 0.719042
O O6 0.753186 0.918513 0.919545
O O7 0.983268 0.897576 0.991087
O O8 0.459957 0.388409 0.980892
O O9 0.636394 0.482991 0.030382
O O10 0.685361 0.335239 0.931398
O O11 0.552540 0.013799 0.865747
O O12 0.600120 0.942648 0.145576
O O13 0.729097 0.069049 0.018329
O O14 0.868079 0.079110 0.258793
O O15 0.816256 0.219789 0.074978
O O16 0.084494 0.651091 0.406273
#
# Coordination Sequence:
#
# PCOD9346839 Si02
#       8
#     4   4   4   4   4   4   4   4
#     4  12  25  47  71 102 143 187 238 290 357 420
#     4  11  25  46  71 104 141 180 235 294 349 424
#     4  11  25  45  74 103 136 185 232 290 356 417
#     4  12  26  48  68 108 140 186 234 294 358 426
#     4  11  25  46  71 104 141 180 235 294 349 424
#     4  11  25  45  74 103 136 185 232 290 356 417
#     4  12  28  46  72 104 146 196 230 302 360 436
#     4  12  25  47  71 102 143 187 238 290 357 420
#
# _framework density 21.596820000000001
#
# number of rings (size 3 to 8) (size 9 to 14) (size 15 to 20)
#    0.000    0.500    3.750    3.750    5.250    0.000 
#    0.000    0.000    0.000    0.000    0.000    0.000 
#    0.000    0.000    0.000    0.000    0.000    0.000 
#
# Total GULP energy -178991.643056 kJ/mol
# GULP energy per Si atom -5593.488845 kJ/mol
# Density = 2.154766 g / cm^3
# Si number density = 21.596820 Si / 1000 Ang^3
#
#
#
# Elastic Constant Matrix: (Units=GPa)
#
#
# Indices 1 2 3 4 5 6 
#
# 1 68.5763 2.5153 1.7542 0.0000 0.0000 0.0000
# 2 2.5153 85.4232 3.2019 0.0000 0.0000 0.0000
# 3 1.7542 3.2019 32.0893 0.0000 0.0000 0.0000
# 4 0.0000 0.0000 0.0000 -30.8277 0.0000 0.0000
# 5 0.0000 0.0000 0.0000 0.0000 38.8801 0.0000
# 6 0.0000 0.0000 0.0000 0.0000 0.0000 38.7662
#
#
#
# Elastic Compliance Matrix: (Units=1/GPa)
#
#
# Indices 1 2 3 4 5 6 
#
# 1 0.014616 -0.000402 -0.000759 0.000000 0.000000 0.000000
# 2 -0.000402 0.011761 -0.001152 0.000000 0.000000 0.000000
# 3 -0.000759 -0.001152 0.031319 0.000000 0.000000 0.000000
# 4 0.000000 0.000000 0.000000 -0.032438 0.000000 0.000000
# 5 0.000000 0.000000 0.000000 0.000000 0.025720 0.000000
# 6 0.000000 0.000000 0.000000 0.000000 0.000000 0.025796
#
#
# Mechanical properties :
#
#
# Convention : Reuss Voigt Hill
#
# Bulk Modulus (GPa) = 18.84219 22.33685 20.58952
# Shear Modulus (GPa) = 50.45900 21.27155 35.86527
#
# Velocity S-wave (km/s) = 4.83888 3.14178 4.07956
# Velocity P-wave (km/s) = 6.32165 4.85038 5.63424
#
# Compressibility (1/GPa) = 0.05307239
#
# Stress axis : x y z
#
# Youngs Moduli (GPa) = 68.41605 85.02374 31.92908
#
# Poissons Ratio (x) = 0.03417 0.02423
# Poissons Ratio (y) = 0.02750 0.03677
# Poissons Ratio (z) = 0.05192 0.09791
#
# Static dielectric constant tensor:
#      x y z
#    x 1.773530 0.000000 0.000000 
#    y 0.000000 1.900500 0.000000 
#    z 0.000000 0.000000 1.773080 
# 
# From -- ./inp_files/3995.got.cif
#   From: 2010.05.17/outbox.cif.g08.bks.cpg/sg33_2_cif.got.tgz:3995.got - 2010.06.03 17:15:25.
