data_PCOD9346855
_publ_section_title
;
Structure prediction by ZEFSAII (Michael W. Deem and Ramdas Pophale) SiO2 
 PCOD9346855
Probable space group: P N A 21
;
_chemical_formula_sum "Si O2"
_cell_formula_units_Z 16
_cell_length_a 5.367555
_cell_length_b 8.516671
_cell_length_c 11.284102
_cell_angle_alpha 90.000000
_cell_angle_beta 90.000000
_cell_angle_gamma 90.000000
_cell_volume 515.838054
_symmetry_space_group_name_H-M "P N A 21"
_symmetry_group_IT_number 33
_symmetry_cell_setting 'orthorhombic'
loop_
_space_group_symop_operation_xyz
x,y,z
-x,-y,1/2+z
1/2-x,1/2+y,1/2+z
1/2+x,1/2-y,z
loop_
_atom_site_type_symbol
_atom_site_label
_atom_site_fract_x
_atom_site_fract_y
_atom_site_fract_z
Si Si1 0.809339 0.817563 0.071940
Si Si2 0.379746 0.076398 0.895092
Si Si3 0.474909 0.631151 0.562840
Si Si4 0.879739 0.913290 0.815935
O O1 0.560156 0.750951 0.128035
O O2 0.804296 0.006967 0.073391
O O3 0.859757 0.797850 0.929298
O O4 0.458490 0.244407 0.959575
O O5 0.252367 0.018376 0.018899
O O6 0.124159 0.487655 0.830832
O O7 0.369017 0.522642 0.319979
O O8 0.394252 0.680643 0.692993
#
# Coordination Sequence:
#
# PCOD9346855 Si02
#       4
#     4   4   4   4
#     4  11  25  47  67 110 152 190 260 321 399 494
#     4  11  26  49  80 122 150 209 289 320 404 526
#     4  11  26  52  82 112 167 213 258 357 415 466
#     4  11  27  48  81 116 155 210 275 332 406 500
#
# _framework density 31.017486000000002
#
# number of rings (size 3 to 8) (size 9 to 14) (size 15 to 20)
#    0.000    1.000    0.000    6.000    3.500   12.000 
#   22.500    0.000    0.000    0.000    0.000    0.000 
#    0.000    0.000    0.000    0.000    0.000    0.000 
#
# Total GULP energy -89164.297112 kJ/mol
# GULP energy per Si atom -5572.768570 kJ/mol
# Density = 3.094689 g / cm^3
# Si number density = 31.017486 Si / 1000 Ang^3
#
#
#
# Elastic Constant Matrix: (Units=GPa)
#
#
# Indices 1 2 3 4 5 6 
#
# 1 333.6138 119.0125 57.2810 0.0000 0.0000 0.0000
# 2 119.0125 152.4034 28.4342 0.0000 0.0000 0.0000
# 3 57.2810 28.4342 105.2327 0.0000 0.0000 0.0000
# 4 0.0000 0.0000 0.0000 40.7809 0.0000 0.0000
# 5 0.0000 0.0000 0.0000 0.0000 17.4590 0.0000
# 6 0.0000 0.0000 0.0000 0.0000 0.0000 71.7137
#
#
#
# Elastic Compliance Matrix: (Units=1/GPa)
#
#
# Indices 1 2 3 4 5 6 
#
# 1 0.004379 -0.003133 -0.001537 0.000000 0.000000 0.000000
# 2 -0.003133 0.009151 -0.000767 0.000000 0.000000 0.000000
# 3 -0.001537 -0.000767 0.010547 0.000000 0.000000 0.000000
# 4 0.000000 0.000000 0.000000 0.024521 0.000000 0.000000
# 5 0.000000 0.000000 0.000000 0.000000 0.057277 0.000000
# 6 0.000000 0.000000 0.000000 0.000000 0.000000 0.013944
#
#
# Mechanical properties :
#
#
# Convention : Reuss Voigt Hill
#
# Bulk Modulus (GPa) = 75.74439 111.18948 93.46694
# Shear Modulus (GPa) = 37.01100 51.75886 44.38493
#
# Velocity S-wave (km/s) = 3.45806 4.08940 3.78691
# Velocity P-wave (km/s) = 6.35745 7.63039 7.02282
#
# Compressibility (1/GPa) = 0.01320230
#
# Stress axis : x y z
#
# Youngs Moduli (GPa) = 228.36392 109.27635 94.81553
#
# Poissons Ratio (x) = 0.34234 0.14574
# Poissons Ratio (y) = 0.71541 0.07276
# Poissons Ratio (z) = 0.35102 0.08386
#
# Static dielectric constant tensor:
#      x y z
#    x 2.789410 0.000000 0.000000 
#    y 0.000000 2.721020 0.000000 
#    z 0.000000 0.000000 2.534330 
# 
# From -- ./inp_files/5392.got.cif
#   From: 2010.05.17/outbox.cif.g08.bks.cpg/sg33_3_cif.got.tgz:5392.got - 2010.06.03 17:15:25.
