data_PCOD9346616
_publ_section_title
;
Structure prediction by ZEFSAII (Michael W. Deem and Ramdas Pophale) SiO2 
 PCOD9346616
Probable space group: P N A 21
;
_chemical_formula_sum "Si O2"
_cell_formula_units_Z 28
_cell_length_a 19.655776
_cell_length_b 6.613583
_cell_length_c 10.106053
_cell_angle_alpha 90.000000
_cell_angle_beta 90.000000
_cell_angle_gamma 90.000000
_cell_volume 1313.737431
_symmetry_space_group_name_H-M "P N A 21"
_symmetry_group_IT_number 33
_symmetry_cell_setting 'orthorhombic'
loop_
_space_group_symop_operation_xyz
x,y,z
-x,-y,1/2+z
1/2-x,1/2+y,1/2+z
1/2+x,1/2-y,z
loop_
_atom_site_type_symbol
_atom_site_label
_atom_site_fract_x
_atom_site_fract_y
_atom_site_fract_z
Si Si1 0.378294 0.470396 0.109490
Si Si2 0.323039 0.388304 0.371383
Si Si3 0.930476 0.414326 0.469474
Si Si4 0.371266 0.701255 0.594024
Si Si5 0.929890 0.357929 0.917190
Si Si6 0.671957 0.231266 0.380220
Si Si7 0.521472 0.593542 0.183531
O O1 0.319560 0.454796 0.218487
O O2 0.441340 0.565847 0.190928
O O3 0.403688 0.257268 0.048365
O O4 0.358440 0.614856 0.987999
O O5 0.381746 0.216291 0.375366
O O6 0.344331 0.563076 0.474567
O O7 0.249750 0.311547 0.415773
O O8 0.882192 0.573152 0.543798
O O9 0.962069 0.255313 0.571161
O O10 0.996160 0.534064 0.416915
O O11 0.329328 0.687479 0.729544
O O12 0.444880 0.614819 0.637196
O O13 0.874454 0.528353 0.881269
O O14 0.941565 0.178370 0.812210
#
# Coordination Sequence:
#
# PCOD9346616 Si02
#       7
#     4   4   4   4   4   4   4
#     4  12  27  47  73 109 147 185 247 307 358 430
#     4  11  31  46  72 105 146 197 241 293 366 438
#     4  11  24  44  72 103 140 187 236 294 361 421
#     4  11  24  49  72 100 147 183 238 303 356 425
#     4  12  25  42  76 108 138 188 243 295 361 430
#     4  12  28  48  72 105 147 193 243 295 364 439
#     4  11  23  42  71 110 137 179 238 301 360 413
#
# _framework density 21.31324
#
# number of rings (size 3 to 8) (size 9 to 14) (size 15 to 20)
#    0.000    0.571    5.714    0.857   10.000    1.143 
#    0.000    0.000    0.000    0.000    0.000    0.000 
#    0.000    0.000    0.000    0.000    0.000    0.000 
#
# Total GULP energy -156476.199972 kJ/mol
# GULP energy per Si atom -5588.435713 kJ/mol
# Density = 2.126473 g / cm^3
# Si number density = 21.313240 Si / 1000 Ang^3
#
#
#
# Elastic Constant Matrix: (Units=GPa)
#
#
# Indices 1 2 3 4 5 6 
#
# 1 90.5971 16.5148 13.0793 0.0000 0.0000 0.0000
# 2 16.5148 73.1145 35.3733 0.0000 0.0000 0.0000
# 3 13.0793 35.3733 93.4303 0.0000 0.0000 0.0000
# 4 0.0000 0.0000 0.0000 28.6263 0.0000 0.0000
# 5 0.0000 0.0000 0.0000 0.0000 23.5399 0.0000
# 6 0.0000 0.0000 0.0000 0.0000 0.0000 6.7710
#
#
#
# Elastic Compliance Matrix: (Units=1/GPa)
#
#
# Indices 1 2 3 4 5 6 
#
# 1 0.011557 -0.002238 -0.000771 0.000000 0.000000 0.000000
# 2 -0.002238 0.017177 -0.006190 0.000000 0.000000 0.000000
# 3 -0.000771 -0.006190 0.013155 0.000000 0.000000 0.000000
# 4 0.000000 0.000000 0.000000 0.034933 0.000000 0.000000
# 5 0.000000 0.000000 0.000000 0.000000 0.042481 0.000000
# 6 0.000000 0.000000 0.000000 0.000000 0.000000 0.147688
#
#
# Mechanical properties :
#
#
# Convention : Reuss Voigt Hill
#
# Bulk Modulus (GPa) = 42.56743 43.00853 42.78798
# Shear Modulus (GPa) = 17.05209 24.59909 20.82559
#
# Velocity S-wave (km/s) = 2.83162 3.40099 3.12928
# Velocity P-wave (km/s) = 5.54134 5.97038 5.75985
#
# Compressibility (1/GPa) = 0.02349214
#
# Stress axis : x y z
#
# Youngs Moduli (GPa) = 86.52738 58.21579 76.01828
#
# Poissons Ratio (x) = 0.13026 0.05859
# Poissons Ratio (y) = 0.19361 0.47057
# Poissons Ratio (z) = 0.06669 0.36037
#
# Static dielectric constant tensor:
#      x y z
#    x 1.770020 0.000000 0.000000 
#    y 0.000000 1.758720 0.000000 
#    z 0.000000 0.000000 1.797120 
# 
# From -- ./inp_files/6961.got.cif
#   From: 2010.05.17/outbox.cif.g08.bks.cpg/sg33_4_cif.got.tgz:6961.got - 2010.06.03 17:15:25.
