data_PCOD9346047
_publ_section_title
;
Structure prediction by ZEFSAII (Michael W. Deem and Ramdas Pophale) SiO2 
 PCOD9346047
Probable space group: P N A 21
;
_chemical_formula_sum "Si O2"
_cell_formula_units_Z 32
_cell_length_a 8.051562
_cell_length_b 31.089374
_cell_length_c 5.320713
_cell_angle_alpha 90.000000
_cell_angle_beta 90.000000
_cell_angle_gamma 90.000000
_cell_volume 1331.870355
_symmetry_space_group_name_H-M "P N A 21"
_symmetry_group_IT_number 33
_symmetry_cell_setting 'orthorhombic'
loop_
_space_group_symop_operation_xyz
x,y,z
-x,-y,1/2+z
1/2-x,1/2+y,1/2+z
1/2+x,1/2-y,z
loop_
_atom_site_type_symbol
_atom_site_label
_atom_site_fract_x
_atom_site_fract_y
_atom_site_fract_z
Si Si1 0.094537 0.630289 0.070950
Si Si2 0.223034 0.888023 0.199180
Si Si3 0.234210 0.669579 0.582653
Si Si4 0.180369 0.533482 0.095406
Si Si5 0.719412 0.015114 0.603984
Si Si6 0.025335 0.822580 0.906482
Si Si7 0.933010 0.763159 0.307043
Si Si8 0.258592 0.810693 0.514064
O O1 0.159341 0.646032 0.342185
O O2 0.186455 0.584441 0.052722
O O3 0.898793 0.621421 0.065309
O O4 0.128829 0.661765 0.834991
O O5 0.198737 0.938426 0.157634
O O6 0.258207 0.861877 0.459185
O O7 0.070404 0.861144 0.089778
O O8 0.415980 0.655894 0.687446
O O9 0.288709 0.715597 0.475088
O O10 0.252857 0.511411 0.347989
O O11 0.981201 0.523294 0.103515
O O12 0.257022 0.512516 0.849074
O O13 0.105079 0.786588 0.375662
O O14 0.200876 0.805242 0.800282
O O15 0.922149 0.782594 0.025506
O O16 0.915264 0.713677 0.389491
#
# Coordination Sequence:
#
# PCOD9346047 Si02
#       8
#     4   4   4   4   4   4   4   4
#     4  11  23  38  69 102 133 165 227 272 327 391
#     4  10  24  38  65 102 128 170 225 274 321 399
#     4  11  23  42  65  93 131 178 208 265 335 388
#     4   9  18  34  57  95 128 167 201 270 328 382
#     4   9  18  34  59  88 136 162 206 263 334 374
#     4  10  23  45  63  93 129 180 213 262 342 392
#     4  10  23  42  62  96 125 176 216 275 328 391
#     4  10  24  39  66  93 130 170 226 269 333 393
#
# _framework density 24.026361000000001
#
# number of rings (size 3 to 8) (size 9 to 14) (size 15 to 20)
#    0.000    2.000    1.250    0.750    5.250    7.000 
#    0.000    0.000    0.000    3.000    0.000    0.000 
#    0.000    0.000    0.000    0.000    0.000    0.000 
#
# Total GULP energy -178240.358481 kJ/mol
# GULP energy per Si atom -5570.011203 kJ/mol
# Density = 2.397168 g / cm^3
# Si number density = 24.026361 Si / 1000 Ang^3
#
#
#
# Elastic Constant Matrix: (Units=GPa)
#
#
# Indices 1 2 3 4 5 6 
#
# 1 49.2010 19.0171 13.8883 0.0000 0.0000 0.0000
# 2 19.0171 68.8839 33.0337 0.0000 0.0000 0.0000
# 3 13.8883 33.0337 144.9902 0.0000 0.0000 0.0000
# 4 0.0000 0.0000 0.0000 18.9862 0.0000 0.0000
# 5 0.0000 0.0000 0.0000 0.0000 28.3697 0.0000
# 6 0.0000 0.0000 0.0000 0.0000 0.0000 10.8595
#
#
#
# Elastic Compliance Matrix: (Units=1/GPa)
#
#
# Indices 1 2 3 4 5 6 
#
# 1 0.022844 -0.005902 -0.000843 0.000000 0.000000 0.000000
# 2 -0.005902 0.017823 -0.003495 0.000000 0.000000 0.000000
# 3 -0.000843 -0.003495 0.007774 0.000000 0.000000 0.000000
# 4 0.000000 0.000000 0.000000 0.052670 0.000000 0.000000
# 5 0.000000 0.000000 0.000000 0.000000 0.035249 0.000000
# 6 0.000000 0.000000 0.000000 0.000000 0.000000 0.092086
#
#
# Mechanical properties :
#
#
# Convention : Reuss Voigt Hill
#
# Bulk Modulus (GPa) = 35.76634 43.88369 39.82501
# Shear Modulus (GPa) = 19.36130 24.78548 22.07339
#
# Velocity S-wave (km/s) = 2.84180 3.21533 3.03432
# Velocity P-wave (km/s) = 5.06818 5.66471 5.37472
#
# Compressibility (1/GPa) = 0.02795925
#
# Stress axis : x y z
#
# Youngs Moduli (GPa) = 43.77477 56.10783 128.63130
#
# Poissons Ratio (x) = 0.33116 0.10850
# Poissons Ratio (y) = 0.25837 0.44960
# Poissons Ratio (z) = 0.03692 0.19611
#
# Static dielectric constant tensor:
#      x y z
#    x 2.030110 0.000000 0.000000 
#    y 0.000000 1.963870 0.000000 
#    z 0.000000 0.000000 2.050460 
# 
# From -- ./inp_files/617.got.cif
#   From: 2010.05.17/outbox.cif.g08.bks.cpg/sg33_1_cif.got.tgz:617.got - 2010.06.03 17:15:25.
