data_PCOD9346229
_publ_section_title
;
Structure prediction by ZEFSAII (Michael W. Deem and Ramdas Pophale) SiO2 
 PCOD9346229
Probable space group: P N A 21
;
_chemical_formula_sum "Si O2"
_cell_formula_units_Z 28
_cell_length_a 14.525707
_cell_length_b 12.349780
_cell_length_c 5.631948
_cell_angle_alpha 90.000000
_cell_angle_beta 90.000000
_cell_angle_gamma 90.000000
_cell_volume 1010.311129
_symmetry_space_group_name_H-M "P N A 21"
_symmetry_group_IT_number 33
_symmetry_cell_setting 'orthorhombic'
loop_
_space_group_symop_operation_xyz
x,y,z
-x,-y,1/2+z
1/2-x,1/2+y,1/2+z
1/2+x,1/2-y,z
loop_
_atom_site_type_symbol
_atom_site_label
_atom_site_fract_x
_atom_site_fract_y
_atom_site_fract_z
Si Si1 0.773966 0.834207 0.114920
Si Si2 0.845621 0.014424 0.746437
Si Si3 0.694337 0.097537 0.400889
Si Si4 0.406779 0.109192 0.860644
Si Si5 0.668608 0.692144 0.600660
Si Si6 0.064903 0.235902 0.850478
Si Si7 0.005113 0.140265 0.338837
O O1 0.666762 0.856657 0.155877
O O2 0.833365 0.820698 0.355064
O O3 0.808023 0.927961 0.941107
O O4 0.802106 0.714736 0.022345
O O5 0.949386 0.968623 0.730464
O O6 0.768540 0.025834 0.545831
O O7 0.859147 0.132632 0.860160
O O8 0.732335 0.137763 0.147308
O O9 0.607089 0.019292 0.388222
O O10 0.510830 0.148960 0.816571
O O11 0.359355 0.183055 0.070965
O O12 0.604206 0.642438 0.806365
O O13 0.031598 0.177134 0.602660
O O14 0.036964 0.219339 0.126217
#
# Coordination Sequence:
#
# PCOD9346229 Si02
#       7
#     4   4   4   4   4   4   4
#     4  11  23  46  69 100 141 181 242 287 354 424
#     4  11  24  40  68 102 135 184 229 292 359 419
#     4  12  24  42  68 100 136 194 226 292 352 420
#     4  11  23  46  69 100 141 181 242 287 354 424
#     4  11  24  40  68 102 135 184 229 292 359 419
#     4  10  24  47  69 102 136 190 229 299 342 422
#     4  10  24  41  69 102 142 170 235 293 364 416
#
# _framework density 27.714234000000001
#
# number of rings (size 3 to 8) (size 9 to 14) (size 15 to 20)
#    0.000    1.143    2.857    2.571    6.000    3.429 
#    0.000    8.571    0.000    0.000    0.000    0.000 
#    0.000    0.000    0.000    0.000    0.000    0.000 
#
# Total GULP energy -155978.049118 kJ/mol
# GULP energy per Si atom -5570.644611 kJ/mol
# Density = 2.765116 g / cm^3
# Si number density = 27.714234 Si / 1000 Ang^3
#
#
#
# Elastic Constant Matrix: (Units=GPa)
#
#
# Indices 1 2 3 4 5 6 
#
# 1 32.5216 8.8240 6.9851 0.0000 0.0000 0.0000
# 2 8.8240 135.0919 5.2702 0.0000 0.0000 0.0000
# 3 6.9851 5.2702 53.7484 0.0000 0.0000 0.0000
# 4 0.0000 0.0000 0.0000 45.5006 0.0000 0.0000
# 5 0.0000 0.0000 0.0000 0.0000 28.4584 0.0000
# 6 0.0000 0.0000 0.0000 0.0000 0.0000 50.0879
#
#
#
# Elastic Compliance Matrix: (Units=1/GPa)
#
#
# Indices 1 2 3 4 5 6 
#
# 1 0.032132 -0.001943 -0.003985 0.000000 0.000000 0.000000
# 2 -0.001943 0.007548 -0.000488 0.000000 0.000000 0.000000
# 3 -0.003985 -0.000488 0.019171 0.000000 0.000000 0.000000
# 4 0.000000 0.000000 0.000000 0.021978 0.000000 0.000000
# 5 0.000000 0.000000 0.000000 0.000000 0.035139 0.000000
# 6 0.000000 0.000000 0.000000 0.000000 0.000000 0.019965
#
#
# Mechanical properties :
#
#
# Convention : Reuss Voigt Hill
#
# Bulk Modulus (GPa) = 21.73022 29.28006 25.50514
# Shear Modulus (GPa) = 30.46827 38.16154 34.31490
#
# Velocity S-wave (km/s) = 3.31928 3.71477 3.52258
# Velocity P-wave (km/s) = 4.74847 5.38399 5.07618
#
# Compressibility (1/GPa) = 0.04601885
#
# Stress axis : x y z
#
# Youngs Moduli (GPa) = 31.12153 132.47969 52.16223
#
# Poissons Ratio (x) = 0.25745 0.20788
# Poissons Ratio (y) = 0.06048 0.02543
# Poissons Ratio (z) = 0.12403 0.06459
#
# Static dielectric constant tensor:
#      x y z
#    x 4.458020 0.000000 0.000000 
#    y 0.000000 2.283620 0.000000 
#    z 0.000000 0.000000 2.651270 
# 
# From -- ./inp_files/1747.got.cif
#   From: 2010.05.17/outbox.cif.g08.bks.cpg/sg33_1_cif.got.tgz:1747.got - 2010.06.03 17:15:25.
