data_PCOD9346008
_publ_section_title
;
Structure prediction by ZEFSAII (Michael W. Deem and Ramdas Pophale) SiO2 
 PCOD9346008
Probable space group: P N A 21
;
_chemical_formula_sum "Si O2"
_cell_formula_units_Z 28
_cell_length_a 12.135335
_cell_length_b 6.683864
_cell_length_c 13.919401
_cell_angle_alpha 90.000000
_cell_angle_beta 90.000000
_cell_angle_gamma 90.000000
_cell_volume 1129.015543
_symmetry_space_group_name_H-M "P N A 21"
_symmetry_group_IT_number 33
_symmetry_cell_setting 'orthorhombic'
loop_
_space_group_symop_operation_xyz
x,y,z
-x,-y,1/2+z
1/2-x,1/2+y,1/2+z
1/2+x,1/2-y,z
loop_
_atom_site_type_symbol
_atom_site_label
_atom_site_fract_x
_atom_site_fract_y
_atom_site_fract_z
Si Si1 0.643289 0.489905 0.786420
Si Si2 0.297843 0.017488 0.962759
Si Si3 0.946288 0.741255 0.783436
Si Si4 0.581155 0.352466 0.074921
Si Si5 0.951332 0.624735 0.386973
Si Si6 0.704794 0.537002 0.407085
Si Si7 0.627525 0.341177 0.582941
O O1 0.735898 0.551433 0.863392
O O2 0.570152 0.680591 0.762846
O O3 0.556571 0.338604 0.835840
O O4 0.673871 0.369444 0.690124
O O5 0.466065 0.963591 0.841587
O O6 0.193116 0.055387 0.033032
O O7 0.374618 0.874699 0.029393
O O8 0.896432 0.749382 0.677318
O O9 0.877161 0.897415 0.847571
O O10 0.487623 0.530368 0.079004
O O11 0.546509 0.182199 0.999024
O O12 0.826702 0.546845 0.366039
O O13 0.163459 0.737922 0.427860
O O14 0.713079 0.448025 0.512958
#
# Coordination Sequence:
#
# PCOD9346008 Si02
#       7
#     4   4   4   4   4   4   4
#     4   9  22  42  66 102 137 180 238 290 358 447
#     4  10  23  45  68 102 146 181 230 308 351 432
#     4  11  22  43  72 101 138 190 239 297 360 429
#     4   9  23  45  71 109 143 182 249 294 357 443
#     4  10  23  46  68 100 147 180 238 304 354 422
#     4  10  23  40  67 101 136 188 236 286 356 437
#     4  11  22  41  72 101 139 187 232 299 364 422
#
# _framework density 24.800370000000001
#
# number of rings (size 3 to 8) (size 9 to 14) (size 15 to 20)
#    0.000    2.286    0.000    2.571    4.000    5.714 
#   10.286    7.143    0.000    0.000    0.000    0.000 
#    0.000    0.000    0.000    0.000    0.000    0.000 
#
# Total GULP energy -156256.254322 kJ/mol
# GULP energy per Si atom -5580.580511 kJ/mol
# Density = 2.474392 g / cm^3
# Si number density = 24.800370 Si / 1000 Ang^3
#
#
#
# Elastic Constant Matrix: (Units=GPa)
#
#
# Indices 1 2 3 4 5 6 
#
# 1 95.3431 50.2572 28.8656 0.0000 0.0000 0.0000
# 2 50.2572 148.0500 60.6317 0.0000 0.0000 0.0000
# 3 28.8656 60.6317 205.9217 0.0000 0.0000 0.0000
# 4 0.0000 0.0000 0.0000 33.8707 0.0000 0.0000
# 5 0.0000 0.0000 0.0000 0.0000 14.7780 0.0000
# 6 0.0000 0.0000 0.0000 0.0000 0.0000 41.3273
#
#
#
# Elastic Compliance Matrix: (Units=1/GPa)
#
#
# Indices 1 2 3 4 5 6 
#
# 1 0.012836 -0.004117 -0.000587 0.000000 0.000000 0.000000
# 2 -0.004117 0.009001 -0.002073 0.000000 0.000000 0.000000
# 3 -0.000587 -0.002073 0.005549 0.000000 0.000000 0.000000
# 4 0.000000 0.000000 0.000000 0.029524 0.000000 0.000000
# 5 0.000000 0.000000 0.000000 0.000000 0.067668 0.000000
# 6 0.000000 0.000000 0.000000 0.000000 0.000000 0.024197
#
#
# Mechanical properties :
#
#
# Convention : Reuss Voigt Hill
#
# Bulk Modulus (GPa) = 72.29750 80.98043 76.63897
# Shear Modulus (GPa) = 29.95074 38.63256 34.29165
#
# Velocity S-wave (km/s) = 3.47893 3.95110 3.72251
# Velocity P-wave (km/s) = 6.73441 7.31702 7.03175
#
# Compressibility (1/GPa) = 0.01383174
#
# Stress axis : x y z
#
# Youngs Moduli (GPa) = 77.90377 111.09794 180.21439
#
# Poissons Ratio (x) = 0.45739 0.10582
# Poissons Ratio (y) = 0.32073 0.37362
# Poissons Ratio (z) = 0.04574 0.23032
#
# Static dielectric constant tensor:
#      x y z
#    x 2.075530 0.000000 0.000000 
#    y 0.000000 2.050870 0.000000 
#    z 0.000000 0.000000 1.974650 
# 
# From -- ./inp_files/7613.got.cif
#   From: 2010.05.17/outbox.cif.g08.bks.cpg/sg33_4_cif.got.tgz:7613.got - 2010.06.03 17:15:25.
