data_PCOD9346973
_publ_section_title
;
Structure prediction by ZEFSAII (Michael W. Deem and Ramdas Pophale) SiO2 
 PCOD9346973
Probable space group: P N A 21
;
_chemical_formula_sum "Si O2"
_cell_formula_units_Z 24
_cell_length_a 9.099389
_cell_length_b 14.124614
_cell_length_c 8.414960
_cell_angle_alpha 90.000000
_cell_angle_beta 90.000000
_cell_angle_gamma 90.000000
_cell_volume 1081.535740
_symmetry_space_group_name_H-M "P N A 21"
_symmetry_group_IT_number 33
_symmetry_cell_setting 'orthorhombic'
loop_
_space_group_symop_operation_xyz
x,y,z
-x,-y,1/2+z
1/2-x,1/2+y,1/2+z
1/2+x,1/2-y,z
loop_
_atom_site_type_symbol
_atom_site_label
_atom_site_fract_x
_atom_site_fract_y
_atom_site_fract_z
Si Si1 0.255742 0.349025 0.061500
Si Si2 0.707332 0.958649 0.883908
Si Si3 0.430867 0.668035 0.054517
Si Si4 0.918360 0.827888 0.424148
Si Si5 0.187385 0.984036 0.054323
Si Si6 0.406728 0.864725 0.883204
O O1 0.215592 0.360446 0.245780
O O2 0.193660 0.440691 0.969943
O O3 0.174715 0.254744 0.003756
O O4 0.426860 0.340705 0.015373
O O5 0.554245 0.915525 0.825435
O O6 0.811878 0.974897 0.732301
O O7 0.781175 0.884865 0.005255
O O8 0.438386 0.695553 0.239223
O O9 0.558152 0.591099 0.030959
O O10 0.443795 0.760691 0.946694
O O11 0.834537 0.927708 0.438256
O O12 0.337500 0.928102 0.022923
#
# Coordination Sequence:
#
# PCOD9346973 Si02
#       6
#     4   4   4   4   4   4
#     4  12  28  48  72 109 149 198 252 311 376 456
#     4  12  26  49  75 111 150 195 255 310 382 452
#     4  12  25  49  75 107 148 199 249 312 382 456
#     4  12  29  46  75 105 152 194 254 308 380 449
#     4  12  25  50  74 108 149 197 245 315 384 450
#     4  12  29  44  79 108 152 193 253 314 380 457
#
# _framework density 22.190667999999999
#
# number of rings (size 3 to 8) (size 9 to 14) (size 15 to 20)
#    0.000    0.000    3.333    5.000   14.000    0.000 
#    0.000    0.000    0.000    0.000    0.000    0.000 
#    0.000    0.000    0.000    0.000    0.000    0.000 
#
# Total GULP energy -134487.847753 kJ/mol
# GULP energy per Si atom -5603.660323 kJ/mol
# Density = 2.214016 g / cm^3
# Si number density = 22.190668 Si / 1000 Ang^3
#
#
#
# Elastic Constant Matrix: (Units=GPa)
#
#
# Indices 1 2 3 4 5 6 
#
# 1 68.3064 19.6842 -0.1323 0.0000 0.0000 0.0000
# 2 19.6842 112.4074 -1.5108 0.0000 0.0000 0.0000
# 3 -0.1323 -1.5108 73.0928 0.0000 0.0000 0.0000
# 4 0.0000 0.0000 0.0000 29.6685 0.0000 0.0000
# 5 0.0000 0.0000 0.0000 0.0000 21.3477 0.0000
# 6 0.0000 0.0000 0.0000 0.0000 0.0000 23.1029
#
#
#
# Elastic Compliance Matrix: (Units=1/GPa)
#
#
# Indices 1 2 3 4 5 6 
#
# 1 0.015418 -0.002700 -0.000028 0.000000 0.000000 0.000000
# 2 -0.002700 0.009372 0.000189 0.000000 0.000000 0.000000
# 3 -0.000028 0.000189 0.013685 0.000000 0.000000 0.000000
# 4 0.000000 0.000000 0.000000 0.033706 0.000000 0.000000
# 5 0.000000 0.000000 0.000000 0.000000 0.046843 0.000000
# 6 0.000000 0.000000 0.000000 0.000000 0.000000 0.043285
#
#
# Mechanical properties :
#
#
# Convention : Reuss Voigt Hill
#
# Bulk Modulus (GPa) = 29.94377 32.20989 31.07683
# Shear Modulus (GPa) = 28.00820 30.54154 29.27487
#
# Velocity S-wave (km/s) = 3.55654 3.71391 3.63608
# Velocity P-wave (km/s) = 5.51258 5.73911 5.62698
#
# Compressibility (1/GPa) = 0.03339593
#
# Stress axis : x y z
#
# Youngs Moduli (GPa) = 64.85917 106.70524 73.07225
#
# Poissons Ratio (x) = 0.28814 0.00204
# Poissons Ratio (y) = 0.17514 -0.01380
# Poissons Ratio (z) = 0.00181 -0.02015
#
# Static dielectric constant tensor:
#      x y z
#    x 1.815020 0.000000 0.000000 
#    y 0.000000 1.766470 0.000000 
#    z 0.000000 0.000000 1.844330 
# 
# From -- ./inp_files/3052.got.cif
#   From: 2010.05.17/outbox.cif.g08.bks.cpg/sg33_2_cif.got.tgz:3052.got - 2010.06.03 17:15:25.
