data_PCOD9346870
_publ_section_title
;
Structure prediction by ZEFSAII (Michael W. Deem and Ramdas Pophale) SiO2 
 PCOD9346870
Probable space group: P N A 21
;
_chemical_formula_sum "Si O2"
_cell_formula_units_Z 20
_cell_length_a 11.049512
_cell_length_b 10.445517
_cell_length_c 6.961263
_cell_angle_alpha 90.000000
_cell_angle_beta 90.000000
_cell_angle_gamma 90.000000
_cell_volume 803.454116
_symmetry_space_group_name_H-M "P N A 21"
_symmetry_group_IT_number 33
_symmetry_cell_setting 'orthorhombic'
loop_
_space_group_symop_operation_xyz
x,y,z
-x,-y,1/2+z
1/2-x,1/2+y,1/2+z
1/2+x,1/2-y,z
loop_
_atom_site_type_symbol
_atom_site_label
_atom_site_fract_x
_atom_site_fract_y
_atom_site_fract_z
Si Si1 0.303249 0.065570 0.564350
Si Si2 0.465567 0.036261 0.183832
Si Si3 0.211547 0.329817 0.704106
Si Si4 0.943415 0.786982 0.527162
Si Si5 0.088839 0.002504 0.331439
O O1 0.384140 0.059879 0.370963
O O2 0.270597 0.209045 0.608036
O O3 0.392015 0.995114 0.711889
O O4 0.171129 0.008376 0.523244
O O5 0.466575 0.166242 0.059045
O O6 0.406114 0.900509 0.119093
O O7 0.317535 0.433568 0.690247
O O8 0.170320 0.278933 0.917399
O O9 0.986692 0.899936 0.383858
O O10 0.932751 0.860246 0.732401
#
# Coordination Sequence:
#
# PCOD9346870 Si02
#       5
#     4   4   4   4   4
#     4  11  26  45  76 107 147 199 254 303 399 432
#     4  11  25  48  74 110 152 203 245 326 365 472
#     4  11  26  47  73 109 146 197 251 321 380 458
#     4  12  26  49  73 109 156 190 271 302 392 455
#     4  11  27  45  70 109 141 207 237 328 362 455
#
# _framework density 24.892524000000002
#
# number of rings (size 3 to 8) (size 9 to 14) (size 15 to 20)
#    0.000    0.800    4.000    2.400   11.200    0.000 
#    0.000    0.000    0.000    0.000    0.000    0.000 
#    0.000    0.000    0.000    0.000    0.000    0.000 
#
# Total GULP energy -111466.110585 kJ/mol
# GULP energy per Si atom -5573.305529 kJ/mol
# Density = 2.483587 g / cm^3
# Si number density = 24.892524 Si / 1000 Ang^3
#
#
#
# Elastic Constant Matrix: (Units=GPa)
#
#
# Indices 1 2 3 4 5 6 
#
# 1 54.2518 39.9670 34.3567 0.0000 0.0000 0.0000
# 2 39.9670 148.6000 43.1710 0.0000 0.0000 0.0000
# 3 34.3567 43.1710 71.5452 0.0000 0.0000 0.0000
# 4 0.0000 0.0000 0.0000 50.3811 0.0000 0.0000
# 5 0.0000 0.0000 0.0000 0.0000 44.3115 0.0000
# 6 0.0000 0.0000 0.0000 0.0000 0.0000 51.9658
#
#
#
# Elastic Compliance Matrix: (Units=1/GPa)
#
#
# Indices 1 2 3 4 5 6 
#
# 1 0.028790 -0.004519 -0.011099 0.000000 0.000000 0.000000
# 2 -0.004519 0.008869 -0.003182 0.000000 0.000000 0.000000
# 3 -0.011099 -0.003182 0.021227 0.000000 0.000000 0.000000
# 4 0.000000 0.000000 0.000000 0.019849 0.000000 0.000000
# 5 0.000000 0.000000 0.000000 0.000000 0.022567 0.000000
# 6 0.000000 0.000000 0.000000 0.000000 0.000000 0.019243
#
#
# Mechanical properties :
#
#
# Convention : Reuss Voigt Hill
#
# Bulk Modulus (GPa) = 46.97565 56.59850 51.78707
# Shear Modulus (GPa) = 30.25899 39.79185 35.02542
#
# Velocity S-wave (km/s) = 3.49031 4.00252 3.75516
# Velocity P-wave (km/s) = 5.92919 6.64430 6.29691
#
# Compressibility (1/GPa) = 0.02128763
#
# Stress axis : x y z
#
# Youngs Moduli (GPa) = 34.73402 112.74934 47.11050
#
# Poissons Ratio (x) = 0.50951 0.52286
# Poissons Ratio (y) = 0.15696 0.14989
# Poissons Ratio (z) = 0.38550 0.35874
#
# Static dielectric constant tensor:
#      x y z
#    x 1.940980 0.000000 0.000000 
#    y 0.000000 2.000970 0.000000 
#    z 0.000000 0.000000 2.150670 
# 
# From -- ./inp_files/3679.got.cif
#   From: 2010.05.17/outbox.cif.g08.bks.cpg/sg33_2_cif.got.tgz:3679.got - 2010.06.03 17:15:25.
