data_PCOD9346891
_publ_section_title
;
Structure prediction by ZEFSAII (Michael W. Deem and Ramdas Pophale) SiO2 
 PCOD9346891
Probable space group: P N A 21
;
_chemical_formula_sum "Si O2"
_cell_formula_units_Z 16
_cell_length_a 9.212259
_cell_length_b 6.443887
_cell_length_c 9.320130
_cell_angle_alpha 90.000000
_cell_angle_beta 90.000000
_cell_angle_gamma 90.000000
_cell_volume 553.268603
_symmetry_space_group_name_H-M "P N A 21"
_symmetry_group_IT_number 33
_symmetry_cell_setting 'orthorhombic'
loop_
_space_group_symop_operation_xyz
x,y,z
-x,-y,1/2+z
1/2-x,1/2+y,1/2+z
1/2+x,1/2-y,z
loop_
_atom_site_type_symbol
_atom_site_label
_atom_site_fract_x
_atom_site_fract_y
_atom_site_fract_z
Si Si1 0.480048 0.695508 0.884960
Si Si2 0.423884 0.897789 0.237440
Si Si3 0.838481 0.883149 0.585149
Si Si4 0.735545 0.907134 0.102875
O O1 0.444918 0.632480 0.722055
O O2 0.579660 0.528316 0.969798
O O3 0.534694 0.935374 0.862336
O O4 0.326369 0.681563 0.967849
O O5 0.287606 0.852946 0.560807
O O6 0.575188 0.848185 0.159626
O O7 0.332040 0.682625 0.236754
O O8 0.311718 0.022143 0.138993
#
# Coordination Sequence:
#
# PCOD9346891 Si02
#       4
#     4   4   4   4
#     4  11  27  58  97 139 199 261 335 421 513 606
#     4  11  27  53  91 136 199 251 328 417 499 600
#     4  11  27  58  95 142 196 259 335 418 508 611
#     4  11  25  55  91 133 190 261 326 412 504 601
#
# _framework density 28.919048
#
# number of rings (size 3 to 8) (size 9 to 14) (size 15 to 20)
#    0.000    1.000    0.000    4.500    7.000    0.000 
#   13.500   12.500    0.000    0.000    0.000    0.000 
#    0.000    0.000    0.000    0.000    0.000    0.000 
#
# Total GULP energy -89355.019628 kJ/mol
# GULP energy per Si atom -5584.688727 kJ/mol
# Density = 2.885323 g / cm^3
# Si number density = 28.919048 Si / 1000 Ang^3
#
#
#
# Elastic Constant Matrix: (Units=GPa)
#
#
# Indices 1 2 3 4 5 6 
#
# 1 218.5048 55.4220 73.7727 0.0000 0.0000 0.0000
# 2 55.4220 187.6982 112.6073 0.0000 0.0000 0.0000
# 3 73.7727 112.6073 180.9680 0.0000 0.0000 0.0000
# 4 0.0000 0.0000 0.0000 90.4436 0.0000 0.0000
# 5 0.0000 0.0000 0.0000 0.0000 66.6013 0.0000
# 6 0.0000 0.0000 0.0000 0.0000 0.0000 85.4719
#
#
#
# Elastic Compliance Matrix: (Units=1/GPa)
#
#
# Indices 1 2 3 4 5 6 
#
# 1 0.005329 -0.000431 -0.001904 0.000000 0.000000 0.000000
# 2 -0.000431 0.008536 -0.005136 0.000000 0.000000 0.000000
# 3 -0.001904 -0.005136 0.009498 0.000000 0.000000 0.000000
# 4 0.000000 0.000000 0.000000 0.011057 0.000000 0.000000
# 5 0.000000 0.000000 0.000000 0.000000 0.015015 0.000000
# 6 0.000000 0.000000 0.000000 0.000000 0.000000 0.011700
#
#
# Mechanical properties :
#
#
# Convention : Reuss Voigt Hill
#
# Bulk Modulus (GPa) = 118.75514 118.97500 118.86507
# Shear Modulus (GPa) = 63.38503 71.52795 67.45649
#
# Velocity S-wave (km/s) = 4.68676 4.97871 4.83494
# Velocity P-wave (km/s) = 8.39294 8.61859 8.50651
#
# Compressibility (1/GPa) = 0.00842069
#
# Stress axis : x y z
#
# Youngs Moduli (GPa) = 187.66093 117.14769 105.28706
#
# Poissons Ratio (x) = 0.05051 0.20047
# Poissons Ratio (y) = 0.08091 0.54075
# Poissons Ratio (z) = 0.35731 0.60166
#
# Static dielectric constant tensor:
#      x y z
#    x 2.201690 0.000000 0.000000 
#    y 0.000000 2.474080 0.000000 
#    z 0.000000 0.000000 2.539450 
# 
# From -- ./inp_files/2915.got.cif
#   From: 2010.05.17/outbox.cif.g08.bks.cpg/sg33_2_cif.got.tgz:2915.got - 2010.06.03 17:15:25.
