data_PCOD9346329
_publ_section_title
;
Structure prediction by ZEFSAII (Michael W. Deem and Ramdas Pophale) SiO2 
 PCOD9346329
Probable space group: P N A 21
;
_chemical_formula_sum "Si O2"
_cell_formula_units_Z 20
_cell_length_a 9.039755
_cell_length_b 9.805565
_cell_length_c 9.414678
_cell_angle_alpha 90.000000
_cell_angle_beta 90.000000
_cell_angle_gamma 90.000000
_cell_volume 834.516166
_symmetry_space_group_name_H-M "P N A 21"
_symmetry_group_IT_number 33
_symmetry_cell_setting 'orthorhombic'
loop_
_space_group_symop_operation_xyz
x,y,z
-x,-y,1/2+z
1/2-x,1/2+y,1/2+z
1/2+x,1/2-y,z
loop_
_atom_site_type_symbol
_atom_site_label
_atom_site_fract_x
_atom_site_fract_y
_atom_site_fract_z
Si Si1 0.060601 0.469848 0.774910
Si Si2 0.255415 0.405249 0.527791
Si Si3 0.690083 0.020394 0.071619
Si Si4 0.259866 0.674424 0.649886
Si Si5 0.927157 0.826384 0.919100
O O1 0.188451 0.386929 0.687215
O O2 0.115898 0.623391 0.736491
O O3 0.905724 0.451147 0.696175
O O4 0.079256 0.447185 0.940198
O O5 0.267639 0.569356 0.518642
O O6 0.135785 0.326320 0.434782
O O7 0.411697 0.344268 0.483498
O O8 0.748275 0.167938 0.117092
O O9 0.817205 0.923103 0.010987
O O10 0.396194 0.637709 0.754977
#
# Coordination Sequence:
#
# PCOD9346329 Si02
#       5
#     4   4   4   4   4
#     4   9  24  46  67 107 137 184 239 279 356 413
#     4  10  24  46  66 101 139 182 236 286 352 419
#     4  11  23  47  73 101 145 185 233 295 347 426
#     4   9  25  44  70 100 139 181 241 281 355 414
#     4  11  24  45  70 101 140 184 233 297 348 414
#
# _framework density 23.965980999999999
#
# number of rings (size 3 to 8) (size 9 to 14) (size 15 to 20)
#    1.200    0.800    0.000    1.200   11.200    0.000 
#   18.000    0.000    0.000    0.000    0.000    0.000 
#    0.000    0.000    0.000    0.000    0.000    0.000 
#
# Total GULP energy -111710.411734 kJ/mol
# GULP energy per Si atom -5585.520587 kJ/mol
# Density = 2.391143 g / cm^3
# Si number density = 23.965981 Si / 1000 Ang^3
#
#
#
# Elastic Constant Matrix: (Units=GPa)
#
#
# Indices 1 2 3 4 5 6 
#
# 1 140.2087 40.5699 32.4396 0.0000 0.0000 0.0000
# 2 40.5699 97.6409 26.2081 0.0000 0.0000 0.0000
# 3 32.4396 26.2081 97.9800 0.0000 0.0000 0.0000
# 4 0.0000 0.0000 0.0000 29.0736 0.0000 0.0000
# 5 0.0000 0.0000 0.0000 0.0000 34.7005 0.0000
# 6 0.0000 0.0000 0.0000 0.0000 0.0000 37.3484
#
#
#
# Elastic Compliance Matrix: (Units=1/GPa)
#
#
# Indices 1 2 3 4 5 6 
#
# 1 0.008457 -0.002976 -0.002004 0.000000 0.000000 0.000000
# 2 -0.002976 0.012081 -0.002246 0.000000 0.000000 0.000000
# 3 -0.002004 -0.002246 0.011470 0.000000 0.000000 0.000000
# 4 0.000000 0.000000 0.000000 0.034396 0.000000 0.000000
# 5 0.000000 0.000000 0.000000 0.000000 0.028818 0.000000
# 6 0.000000 0.000000 0.000000 0.000000 0.000000 0.026775
#
#
# Mechanical properties :
#
#
# Convention : Reuss Voigt Hill
#
# Bulk Modulus (GPa) = 56.95980 59.36275 58.16128
# Shear Modulus (GPa) = 35.13672 35.99863 35.56767
#
# Velocity S-wave (km/s) = 3.83313 3.87986 3.85657
# Velocity P-wave (km/s) = 6.58856 6.70033 6.64468
#
# Compressibility (1/GPa) = 0.01755624
#
# Stress axis : x y z
#
# Youngs Moduli (GPa) = 118.24541 82.77429 87.18051
#
# Poissons Ratio (x) = 0.24634 0.17470
# Poissons Ratio (y) = 0.35190 0.19582
# Poissons Ratio (z) = 0.23696 0.18593
#
# Static dielectric constant tensor:
#      x y z
#    x 1.966530 0.000000 0.000000 
#    y 0.000000 1.968110 0.000000 
#    z 0.000000 0.000000 1.938180 
# 
# From -- ./inp_files/3034.got.cif
#   From: 2010.05.17/outbox.cif.g08.bks.cpg/sg33_2_cif.got.tgz:3034.got - 2010.06.03 17:15:25.
