data_PCOD9346422
_publ_section_title
;
Structure prediction by ZEFSAII (Michael W. Deem and Ramdas Pophale) SiO2 
 PCOD9346422
Probable space group: P N A 21
;
_chemical_formula_sum "Si O2"
_cell_formula_units_Z 20
_cell_length_a 7.704827
_cell_length_b 9.491217
_cell_length_c 10.797706
_cell_angle_alpha 90.000000
_cell_angle_beta 90.000000
_cell_angle_gamma 90.000000
_cell_volume 789.616642
_symmetry_space_group_name_H-M "P N A 21"
_symmetry_group_IT_number 33
_symmetry_cell_setting 'orthorhombic'
loop_
_space_group_symop_operation_xyz
x,y,z
-x,-y,1/2+z
1/2-x,1/2+y,1/2+z
1/2+x,1/2-y,z
loop_
_atom_site_type_symbol
_atom_site_label
_atom_site_fract_x
_atom_site_fract_y
_atom_site_fract_z
Si Si1 0.692137 0.051275 0.994440
Si Si2 0.356434 0.444617 0.736553
Si Si3 0.428631 0.892844 0.862186
Si Si4 0.511300 0.175833 0.619680
Si Si5 0.379709 0.321062 0.201231
O O1 0.825086 0.031449 0.882238
O O2 0.507589 0.036370 0.920403
O O3 0.763365 0.177884 0.077451
O O4 0.655417 0.925491 0.093805
O O5 0.467242 0.305656 0.705658
O O6 0.173852 0.409304 0.671854
O O7 0.456347 0.577977 0.681950
O O8 0.553131 0.824634 0.758154
O O9 0.239171 0.892586 0.807110
O O10 0.437689 0.786155 0.978602
#
# Coordination Sequence:
#
# PCOD9346422 Si02
#       5
#     4   4   4   4   4
#     4  10  26  44  76 102 148 200 232 312 356 438
#     4  12  25  44  77 111 144 202 247 297 380 433
#     4  10  25  47  72 106 154 191 244 306 361 445
#     4  10  25  47  72 106 154 191 244 306 361 445
#     4  12  25  44  77 111 144 202 247 297 380 433
#
# _framework density 25.328745000000001
#
# number of rings (size 3 to 8) (size 9 to 14) (size 15 to 20)
#    1.200    0.000    0.000    4.800   11.200    1.600 
#    0.000    0.000    0.000    0.000    0.000    0.000 
#    0.000    0.000    0.000    0.000    0.000    0.000 
#
# Total GULP energy -111681.444876 kJ/mol
# GULP energy per Si atom -5584.072244 kJ/mol
# Density = 2.527110 g / cm^3
# Si number density = 25.328745 Si / 1000 Ang^3
#
#
#
# Elastic Constant Matrix: (Units=GPa)
#
#
# Indices 1 2 3 4 5 6 
#
# 1 128.1352 64.3063 65.1353 0.0000 0.0000 0.0000
# 2 64.3063 108.2000 51.0182 0.0000 0.0000 0.0000
# 3 65.1353 51.0182 75.1795 0.0000 0.0000 0.0000
# 4 0.0000 0.0000 0.0000 37.5935 0.0000 0.0000
# 5 0.0000 0.0000 0.0000 0.0000 46.2910 0.0000
# 6 0.0000 0.0000 0.0000 0.0000 0.0000 45.9057
#
#
#
# Elastic Compliance Matrix: (Units=1/GPa)
#
#
# Indices 1 2 3 4 5 6 
#
# 1 0.015104 -0.004127 -0.010285 0.000000 0.000000 0.000000
# 2 -0.004127 0.014719 -0.006413 0.000000 0.000000 0.000000
# 3 -0.010285 -0.006413 0.026564 0.000000 0.000000 0.000000
# 4 0.000000 0.000000 0.000000 0.026600 0.000000 0.000000
# 5 0.000000 0.000000 0.000000 0.000000 0.021602 0.000000
# 6 0.000000 0.000000 0.000000 0.000000 0.000000 0.021784
#
#
# Mechanical properties :
#
#
# Convention : Reuss Voigt Hill
#
# Bulk Modulus (GPa) = 67.85677 74.71492 71.28585
# Shear Modulus (GPa) = 28.91253 34.69504 31.80378
#
# Velocity S-wave (km/s) = 3.38226 3.70508 3.54735
# Velocity P-wave (km/s) = 6.48857 6.91850 6.70698
#
# Compressibility (1/GPa) = 0.01473692
#
# Stress axis : x y z
#
# Youngs Moduli (GPa) = 66.20898 67.94119 37.64434
#
# Poissons Ratio (x) = 0.28039 0.38718
# Poissons Ratio (y) = 0.27324 0.24141
# Poissons Ratio (z) = 0.68097 0.43569
#
# Static dielectric constant tensor:
#      x y z
#    x 2.019080 0.000000 0.000000 
#    y 0.000000 2.007910 0.000000 
#    z 0.000000 0.000000 2.024400 
# 
# From -- ./inp_files/5711.got.cif
#   From: 2010.05.17/outbox.cif.g08.bks.cpg/sg33_3_cif.got.tgz:5711.got - 2010.06.03 17:15:25.
