data_PCOD9346646
_publ_section_title
;
Structure prediction by ZEFSAII (Michael W. Deem and Ramdas Pophale) SiO2 
 PCOD9346646
Probable space group: P N A 21
;
_chemical_formula_sum "Si O2"
_cell_formula_units_Z 28
_cell_length_a 7.852875
_cell_length_b 11.629021
_cell_length_c 12.851583
_cell_angle_alpha 90.000000
_cell_angle_beta 90.000000
_cell_angle_gamma 90.000000
_cell_volume 1173.622602
_symmetry_space_group_name_H-M "P N A 21"
_symmetry_group_IT_number 33
_symmetry_cell_setting 'orthorhombic'
loop_
_space_group_symop_operation_xyz
x,y,z
-x,-y,1/2+z
1/2-x,1/2+y,1/2+z
1/2+x,1/2-y,z
loop_
_atom_site_type_symbol
_atom_site_label
_atom_site_fract_x
_atom_site_fract_y
_atom_site_fract_z
Si Si1 0.941548 0.456431 0.868590
Si Si2 0.304669 0.529554 0.168982
Si Si3 0.659831 0.086064 0.693663
Si Si4 0.005379 0.377735 0.091274
Si Si5 0.039758 0.782477 0.092714
Si Si6 0.850431 0.311860 0.378821
Si Si7 0.545533 0.338695 0.232989
O O1 0.790222 0.451403 0.781853
O O2 0.105653 0.402050 0.812125
O O3 0.003067 0.589260 0.884716
O O4 0.923965 0.390115 0.976997
O O5 0.176968 0.453243 0.100001
O O6 0.370679 0.639104 0.104419
O O7 0.474277 0.455950 0.188974
O O8 0.828939 0.152680 0.666941
O O9 0.516855 0.157676 0.630996
O O10 0.630520 0.952259 0.661506
O O11 0.064443 0.255409 0.139111
O O12 0.128088 0.764000 0.982048
O O13 0.672727 0.358025 0.332072
O O14 0.886744 0.221137 0.288847
#
# Coordination Sequence:
#
# PCOD9346646 Si02
#       7
#     4   4   4   4   4   4   4
#     4  11  24  48  75 102 147 197 246 298 376 438
#     4  11  26  48  69 108 153 192 247 307 366 445
#     4  11  23  45  68 104 146 189 242 310 358 433
#     4  11  24  46  71 105 149 188 242 309 370 427
#     4  12  26  44  73 107 147 190 246 306 367 433
#     4  12  23  42  77 108 135 193 251 300 357 435
#     4  12  24  45  73 108 149 183 244 310 364 441
#
# _framework density 23.857754
#
# number of rings (size 3 to 8) (size 9 to 14) (size 15 to 20)
#    0.000    0.571    5.714    3.429    4.000    0.000 
#    5.143    0.000    0.000    0.000    0.000    0.000 
#    0.000    0.000    0.000    0.000    0.000    0.000 
#
# Total GULP energy -156143.110242 kJ/mol
# GULP energy per Si atom -5576.539652 kJ/mol
# Density = 2.380345 g / cm^3
# Si number density = 23.857754 Si / 1000 Ang^3
#
#
#
# Elastic Constant Matrix: (Units=GPa)
#
#
# Indices 1 2 3 4 5 6 
#
# 1 79.5101 25.6863 11.0075 0.0000 0.0000 0.0000
# 2 25.6863 125.1744 45.9562 0.0000 0.0000 0.0000
# 3 11.0075 45.9562 109.2339 0.0000 0.0000 0.0000
# 4 0.0000 0.0000 0.0000 28.0665 0.0000 0.0000
# 5 0.0000 0.0000 0.0000 0.0000 38.8543 0.0000
# 6 0.0000 0.0000 0.0000 0.0000 0.0000 42.6209
#
#
#
# Elastic Compliance Matrix: (Units=1/GPa)
#
#
# Indices 1 2 3 4 5 6 
#
# 1 0.013475 -0.002681 -0.000230 0.000000 0.000000 0.000000
# 2 -0.002681 0.009981 -0.003929 0.000000 0.000000 0.000000
# 3 -0.000230 -0.003929 0.010831 0.000000 0.000000 0.000000
# 4 0.000000 0.000000 0.000000 0.035630 0.000000 0.000000
# 5 0.000000 0.000000 0.000000 0.000000 0.025737 0.000000
# 6 0.000000 0.000000 0.000000 0.000000 0.000000 0.023463
#
#
# Mechanical properties :
#
#
# Convention : Reuss Voigt Hill
#
# Bulk Modulus (GPa) = 48.52620 53.24649 50.88635
# Shear Modulus (GPa) = 35.79975 37.32624 36.56299
#
# Velocity S-wave (km/s) = 3.87790 3.95971 3.91902
# Velocity P-wave (km/s) = 6.35883 6.57818 6.46944
#
# Compressibility (1/GPa) = 0.02060742
#
# Stress axis : x y z
#
# Youngs Moduli (GPa) = 74.21221 100.18540 92.32818
#
# Poissons Ratio (x) = 0.26856 0.02124
# Poissons Ratio (y) = 0.19894 0.36278
# Poissons Ratio (z) = 0.01707 0.39365
#
# Static dielectric constant tensor:
#      x y z
#    x 2.040670 0.000000 0.000000 
#    y 0.000000 1.966670 0.000000 
#    z 0.000000 0.000000 1.923370 
# 
# From -- ./inp_files/5854.got.cif
#   From: 2010.05.17/outbox.cif.g08.bks.cpg/sg33_3_cif.got.tgz:5854.got - 2010.06.03 17:15:25.
