data_PCOD9346554
_publ_section_title
;
Structure prediction by ZEFSAII (Michael W. Deem and Ramdas Pophale) SiO2 
 PCOD9346554
Probable space group: P N A 21
;
_chemical_formula_sum "Si O2"
_cell_formula_units_Z 28
_cell_length_a 17.661946
_cell_length_b 12.834246
_cell_length_c 5.389437
_cell_angle_alpha 90.000000
_cell_angle_beta 90.000000
_cell_angle_gamma 90.000000
_cell_volume 1221.665506
_symmetry_space_group_name_H-M "P N A 21"
_symmetry_group_IT_number 33
_symmetry_cell_setting 'orthorhombic'
loop_
_space_group_symop_operation_xyz
x,y,z
-x,-y,1/2+z
1/2-x,1/2+y,1/2+z
1/2+x,1/2-y,z
loop_
_atom_site_type_symbol
_atom_site_label
_atom_site_fract_x
_atom_site_fract_y
_atom_site_fract_z
Si Si1 0.585540 0.244099 0.953240
Si Si2 0.198519 0.170355 0.282941
Si Si3 0.545729 0.478767 0.813634
Si Si4 0.315283 0.462638 0.031918
Si Si5 0.734174 0.171236 0.677447
Si Si6 0.795362 0.453936 0.904637
Si Si7 0.526331 0.940904 0.426224
O O1 0.568031 0.358853 0.855047
O O2 0.653123 0.196285 0.793654
O O3 0.627462 0.256623 0.216886
O O4 0.513970 0.170387 0.954059
O O5 0.247755 0.236059 0.480681
O O6 0.160882 0.061460 0.366278
O O7 0.247439 0.136800 0.041503
O O8 0.492996 0.486321 0.569844
O O9 0.621382 0.544269 0.744142
O O10 0.237685 0.512330 0.139185
O O11 0.297082 0.357812 0.884272
O O12 0.722497 0.059684 0.551393
O O13 0.883513 0.431532 0.904425
O O14 0.495361 0.994635 0.174301
#
# Coordination Sequence:
#
# PCOD9346554 Si02
#       7
#     4   4   4   4   4   4   4
#     4  12  25  50  76 107 156 209 253 313 407 462
#     4  11  22  44  75 106 149 202 260 312 396 468
#     4  12  28  51  77 109 159 214 263 322 389 469
#     4  11  24  46  75 107 151 195 267 331 376 470
#     4  11  22  42  78 107 139 200 254 320 404 448
#     4  11  24  45  74 107 152 198 256 331 381 466
#     4  12  27  48  77 117 158 196 259 331 393 463
#
# _framework density 22.919530000000002
#
# number of rings (size 3 to 8) (size 9 to 14) (size 15 to 20)
#    0.000    0.571    4.286    3.429    4.000    0.000 
#    7.714    1.429    0.000    0.000    0.000    0.000 
#    0.000    0.000    0.000    0.000    0.000    0.000 
#
# Total GULP energy -156578.872954 kJ/mol
# GULP energy per Si atom -5592.102605 kJ/mol
# Density = 2.286736 g / cm^3
# Si number density = 22.919530 Si / 1000 Ang^3
#
#
#
# Elastic Constant Matrix: (Units=GPa)
#
#
# Indices 1 2 3 4 5 6 
#
# 1 117.3533 22.7458 36.1943 0.0000 0.0000 0.0000
# 2 22.7458 102.5517 31.0362 0.0000 0.0000 0.0000
# 3 36.1943 31.0362 108.0900 0.0000 0.0000 0.0000
# 4 0.0000 0.0000 0.0000 34.1280 0.0000 0.0000
# 5 0.0000 0.0000 0.0000 0.0000 36.2100 0.0000
# 6 0.0000 0.0000 0.0000 0.0000 0.0000 43.0599
#
#
#
# Elastic Compliance Matrix: (Units=1/GPa)
#
#
# Indices 1 2 3 4 5 6 
#
# 1 0.009652 -0.001273 -0.002866 0.000000 0.000000 0.000000
# 2 -0.001273 0.010847 -0.002688 0.000000 0.000000 0.000000
# 3 -0.002866 -0.002688 0.010983 0.000000 0.000000 0.000000
# 4 0.000000 0.000000 0.000000 0.029301 0.000000 0.000000
# 5 0.000000 0.000000 0.000000 0.000000 0.027617 0.000000
# 6 0.000000 0.000000 0.000000 0.000000 0.000000 0.023223
#
#
# Mechanical properties :
#
#
# Convention : Reuss Voigt Hill
#
# Bulk Modulus (GPa) = 56.09586 56.43862 56.26724
# Shear Modulus (GPa) = 38.10329 38.54750 38.32540
#
# Velocity S-wave (km/s) = 4.08178 4.10550 4.09366
# Velocity P-wave (km/s) = 6.83687 6.86671 6.85181
#
# Compressibility (1/GPa) = 0.01782663
#
# Stress axis : x y z
#
# Youngs Moduli (GPa) = 103.60388 92.19004 91.04767
#
# Poissons Ratio (x) = 0.11739 0.26098
# Poissons Ratio (y) = 0.13192 0.24475
# Poissons Ratio (z) = 0.29697 0.24782
#
# Static dielectric constant tensor:
#      x y z
#    x 1.829350 0.000000 0.000000 
#    y 0.000000 1.872880 0.000000 
#    z 0.000000 0.000000 2.034130 
# 
# From -- ./inp_files/1742.got.cif
#   From: 2010.05.17/outbox.cif.g08.bks.cpg/sg33_1_cif.got.tgz:1742.got - 2010.06.03 17:15:25.
