data_PCOD9346146
_publ_section_title
;
Structure prediction by ZEFSAII (Michael W. Deem and Ramdas Pophale) SiO2 
 PCOD9346146
Probable space group: P N A 21
;
_chemical_formula_sum "Si O2"
_cell_formula_units_Z 24
_cell_length_a 7.984071
_cell_length_b 22.879655
_cell_length_c 5.696886
_cell_angle_alpha 90.000000
_cell_angle_beta 90.000000
_cell_angle_gamma 90.000000
_cell_volume 1040.666060
_symmetry_space_group_name_H-M "P N A 21"
_symmetry_group_IT_number 33
_symmetry_cell_setting 'orthorhombic'
loop_
_space_group_symop_operation_xyz
x,y,z
-x,-y,1/2+z
1/2-x,1/2+y,1/2+z
1/2+x,1/2-y,z
loop_
_atom_site_type_symbol
_atom_site_label
_atom_site_fract_x
_atom_site_fract_y
_atom_site_fract_z
Si Si1 0.656273 0.690593 0.069560
Si Si2 0.254396 0.419887 0.782914
Si Si3 0.202058 0.196296 0.798128
Si Si4 0.632149 0.923565 0.282336
Si Si5 0.963561 0.150920 0.162299
Si Si6 0.690786 0.453664 0.285489
O O1 0.744389 0.627581 0.076289
O O2 0.734458 0.740487 0.226027
O O3 0.461798 0.684128 0.140063
O O4 0.641289 0.700877 0.794690
O O5 0.362307 0.478588 0.765145
O O6 0.062696 0.438598 0.809237
O O7 0.337250 0.379935 0.982239
O O8 0.340436 0.146486 0.761638
O O9 0.121147 0.184503 0.050114
O O10 0.717653 0.942055 0.531392
O O11 0.708581 0.947795 0.035207
O O12 0.045952 0.094809 0.291329
#
# Coordination Sequence:
#
# PCOD9346146 Si02
#       6
#     4   4   4   4   4   4
#     4  11  23  44  67 101 136 188 237 294 368 422
#     4  11  26  40  71 105 143 185 241 289 361 432
#     4  10  23  45  65  98 140 176 243 293 356 431
#     4  11  24  47  70 105 140 193 235 298 360 425
#     4  10  25  43  68 104 135 193 235 296 364 429
#     4  11  25  45  73 101 152 183 243 292 361 427
#
# _framework density 23.062155000000001
#
# number of rings (size 3 to 8) (size 9 to 14) (size 15 to 20)
#    0.000    1.333    1.667    2.000    7.000    2.667 
#    3.000    0.000    0.000    0.000    0.000    0.000 
#    0.000    0.000    0.000    0.000    0.000    0.000 
#
# Total GULP energy -133732.267708 kJ/mol
# GULP energy per Si atom -5572.177821 kJ/mol
# Density = 2.300966 g / cm^3
# Si number density = 23.062155 Si / 1000 Ang^3
#
#
#
# Elastic Constant Matrix: (Units=GPa)
#
#
# Indices 1 2 3 4 5 6 
#
# 1 39.4892 -3.6546 22.5256 0.0000 0.0000 0.0000
# 2 -3.6546 129.7716 46.5626 0.0000 0.0000 0.0000
# 3 22.5256 46.5626 95.8843 0.0000 0.0000 0.0000
# 4 0.0000 0.0000 0.0000 18.5918 0.0000 0.0000
# 5 0.0000 0.0000 0.0000 0.0000 17.5362 0.0000
# 6 0.0000 0.0000 0.0000 0.0000 0.0000 24.2979
#
#
#
# Elastic Compliance Matrix: (Units=1/GPa)
#
#
# Indices 1 2 3 4 5 6 
#
# 1 0.031046 0.004228 -0.009347 0.000000 0.000000 0.000000
# 2 0.004228 0.009908 -0.005805 0.000000 0.000000 0.000000
# 3 -0.009347 -0.005805 0.015444 0.000000 0.000000 0.000000
# 4 0.000000 0.000000 0.000000 0.053787 0.000000 0.000000
# 5 0.000000 0.000000 0.000000 0.000000 0.057025 0.000000
# 6 0.000000 0.000000 0.000000 0.000000 0.000000 0.041156
#
#
# Mechanical properties :
#
#
# Convention : Reuss Voigt Hill
#
# Bulk Modulus (GPa) = 28.94265 44.00138 36.47202
# Shear Modulus (GPa) = 20.68433 25.39928 23.04180
#
# Velocity S-wave (km/s) = 2.99807 3.32224 3.16431
# Velocity P-wave (km/s) = 4.95597 5.81698 5.40365
#
# Compressibility (1/GPa) = 0.03455109
#
# Stress axis : x y z
#
# Youngs Moduli (GPa) = 32.21004 100.93262 64.75113
#
# Poissons Ratio (x) = -0.42674 0.60521
# Poissons Ratio (y) = -0.13618 0.37585
# Poissons Ratio (z) = 0.30106 0.58586
#
# Static dielectric constant tensor:
#      x y z
#    x 1.834260 0.000000 0.000000 
#    y 0.000000 1.855900 0.000000 
#    z 0.000000 0.000000 2.140490 
# 
# From -- ./inp_files/462.got.cif
#   From: 2010.05.17/outbox.cif.g08.bks.cpg/sg33_1_cif.got.tgz:462.got - 2010.06.03 17:15:25.
