data_PCOD9346935
_publ_section_title
;
Structure prediction by ZEFSAII (Michael W. Deem and Ramdas Pophale) SiO2 
 PCOD9346935
Probable space group: P N A 21
;
_chemical_formula_sum "Si O2"
_cell_formula_units_Z 20
_cell_length_a 14.571574
_cell_length_b 12.281057
_cell_length_c 4.967740
_cell_angle_alpha 90.000000
_cell_angle_beta 90.000000
_cell_angle_gamma 90.000000
_cell_volume 888.998588
_symmetry_space_group_name_H-M "P N A 21"
_symmetry_group_IT_number 33
_symmetry_cell_setting 'orthorhombic'
loop_
_space_group_symop_operation_xyz
x,y,z
-x,-y,1/2+z
1/2-x,1/2+y,1/2+z
1/2+x,1/2-y,z
loop_
_atom_site_type_symbol
_atom_site_label
_atom_site_fract_x
_atom_site_fract_y
_atom_site_fract_z
Si Si1 0.261887 0.897782 0.508000
Si Si2 0.056267 0.538040 0.014566
Si Si3 0.501814 0.725747 0.149366
Si Si4 0.150306 0.949662 0.010698
Si Si5 0.118597 0.200201 0.150187
O O1 0.178682 0.932440 0.702095
O O2 0.296862 0.778105 0.582485
O O3 0.346836 0.979364 0.554115
O O4 0.231081 0.904269 0.200335
O O5 0.058245 0.666220 0.074902
O O6 0.017876 0.513774 0.718553
O O7 0.560849 0.618996 0.088508
O O8 0.413989 0.719792 0.953533
O O9 0.465344 0.732616 0.452476
O O10 0.138768 0.075362 0.085218
#
# Coordination Sequence:
#
# PCOD9346935 Si02
#       5
#     4   4   4   4   4
#     4  12  26  44  66 104 134 175 220 282 337 387
#     4  12  23  44  67  98 131 178 223 270 323 399
#     4  12  24  46  72  98 130 183 230 269 334 400
#     4  12  28  43  70  99 140 174 220 283 341 393
#     4  12  25  47  69  97 137 176 227 274 329 409
#
# _framework density 22.497219999999999
#
# number of rings (size 3 to 8) (size 9 to 14) (size 15 to 20)
#    0.000    0.000    4.000    6.000    5.600    0.000 
#    0.000    0.000    0.000    0.000    0.000    0.000 
#    0.000    0.000    0.000    0.000    0.000    0.000 
#
# Total GULP energy -112131.052496 kJ/mol
# GULP energy per Si atom -5606.552625 kJ/mol
# Density = 2.244602 g / cm^3
# Si number density = 22.497220 Si / 1000 Ang^3
#
#
#
# Elastic Constant Matrix: (Units=GPa)
#
#
# Indices 1 2 3 4 5 6 
#
# 1 19.0149 -4.0168 1.6722 0.0000 0.0000 0.0000
# 2 -4.0168 132.4519 -1.0600 0.0000 0.0000 0.0000
# 3 1.6722 -1.0600 53.9416 0.0000 0.0000 0.0000
# 4 0.0000 0.0000 0.0000 24.6411 0.0000 0.0000
# 5 0.0000 0.0000 0.0000 0.0000 35.8819 0.0000
# 6 0.0000 0.0000 0.0000 0.0000 0.0000 30.0579
#
#
#
# Elastic Compliance Matrix: (Units=1/GPa)
#
#
# Indices 1 2 3 4 5 6 
#
# 1 0.053069 0.001596 -0.001614 0.000000 0.000000 0.000000
# 2 0.001596 0.007599 0.000100 0.000000 0.000000 0.000000
# 3 -0.001614 0.000100 0.018591 0.000000 0.000000 0.000000
# 4 0.000000 0.000000 0.000000 0.040583 0.000000 0.000000
# 5 0.000000 0.000000 0.000000 0.000000 0.027869 0.000000
# 6 0.000000 0.000000 0.000000 0.000000 0.000000 0.033269
#
#
# Mechanical properties :
#
#
# Convention : Reuss Voigt Hill
#
# Bulk Modulus (GPa) = 12.59062 22.06660 17.32861
# Shear Modulus (GPa) = 24.12082 32.03704 28.07893
#
# Velocity S-wave (km/s) = 3.27795 3.77774 3.53669
# Velocity P-wave (km/s) = 4.46490 5.37200 4.93931
#
# Compressibility (1/GPa) = 0.07942418
#
# Stress axis : x y z
#
# Youngs Moduli (GPa) = 18.84324 131.59415 53.79070
#
# Poissons Ratio (x) = -0.21009 0.08681
# Poissons Ratio (y) = -0.03008 -0.00537
# Poissons Ratio (z) = 0.03041 -0.01314
#
# Static dielectric constant tensor:
#      x y z
#    x 1.806150 0.000000 0.000000 
#    y 0.000000 1.812050 0.000000 
#    z 0.000000 0.000000 1.773850 
# 
# From -- ./inp_files/681.got.cif
#   From: 2010.05.17/outbox.cif.g08.bks.cpg/sg33_1_cif.got.tgz:681.got - 2010.06.03 17:15:25.
