data_PCOD9346801
_publ_section_title
;
Structure prediction by ZEFSAII (Michael W. Deem and Ramdas Pophale) SiO2 
 PCOD9346801
Probable space group: P N A 21
;
_chemical_formula_sum "Si O2"
_cell_formula_units_Z 20
_cell_length_a 14.815880
_cell_length_b 7.332685
_cell_length_c 7.740322
_cell_angle_alpha 90.000000
_cell_angle_beta 90.000000
_cell_angle_gamma 90.000000
_cell_volume 840.909983
_symmetry_space_group_name_H-M "P N A 21"
_symmetry_group_IT_number 33
_symmetry_cell_setting 'orthorhombic'
loop_
_space_group_symop_operation_xyz
x,y,z
-x,-y,1/2+z
1/2-x,1/2+y,1/2+z
1/2+x,1/2-y,z
loop_
_atom_site_type_symbol
_atom_site_label
_atom_site_fract_x
_atom_site_fract_y
_atom_site_fract_z
Si Si1 0.498571 0.950973 0.984370
Si Si2 0.169086 0.721958 0.462036
Si Si3 0.408615 0.363903 0.619653
Si Si4 0.915173 0.729911 0.673043
Si Si5 0.771770 0.116635 0.318116
O O1 0.489765 0.850989 0.801988
O O2 0.411030 0.077955 0.999614
O O3 0.510908 0.781836 0.114295
O O4 0.583707 0.082797 0.019008
O O5 0.139511 0.844524 0.302329
O O6 0.186340 0.846052 0.629198
O O7 0.247764 0.588064 0.386348
O O8 0.437831 0.572132 0.603386
O O9 0.338503 0.313559 0.467333
O O10 0.823706 0.719434 0.785103
#
# Coordination Sequence:
#
# PCOD9346801 Si02
#       5
#     4   4   4   4   4
#     4  11  24  50  71 107 161 188 263 320 388 464
#     4  11  26  48  74 115 153 208 258 333 394 472
#     4  12  26  46  80 107 153 208 263 313 401 467
#     4  11  26  47  73 114 145 207 252 320 397 463
#     4  11  24  49  72 111 154 197 264 324 390 464
#
# _framework density 23.783757999999999
#
# number of rings (size 3 to 8) (size 9 to 14) (size 15 to 20)
#    0.000    0.800    6.000    1.200    5.600    0.000 
#   10.800    0.000    0.000    0.000    0.000    0.000 
#    0.000    0.000    0.000    0.000    0.000    0.000 
#
# Total GULP energy -111668.033597 kJ/mol
# GULP energy per Si atom -5583.401680 kJ/mol
# Density = 2.372963 g / cm^3
# Si number density = 23.783758 Si / 1000 Ang^3
#
#
#
# Elastic Constant Matrix: (Units=GPa)
#
#
# Indices 1 2 3 4 5 6 
#
# 1 57.1605 34.2404 50.0955 0.0000 0.0000 0.0000
# 2 34.2404 149.2136 43.0031 0.0000 0.0000 0.0000
# 3 50.0955 43.0031 168.1960 0.0000 0.0000 0.0000
# 4 0.0000 0.0000 0.0000 19.7151 0.0000 0.0000
# 5 0.0000 0.0000 0.0000 0.0000 36.0946 0.0000
# 6 0.0000 0.0000 0.0000 0.0000 0.0000 18.9859
#
#
#
# Elastic Compliance Matrix: (Units=1/GPa)
#
#
# Indices 1 2 3 4 5 6 
#
# 1 0.025696 -0.003984 -0.006635 0.000000 0.000000 0.000000
# 2 -0.003984 0.007853 -0.000821 0.000000 0.000000 0.000000
# 3 -0.006635 -0.000821 0.008131 0.000000 0.000000 0.000000
# 4 0.000000 0.000000 0.000000 0.050723 0.000000 0.000000
# 5 0.000000 0.000000 0.000000 0.000000 0.027705 0.000000
# 6 0.000000 0.000000 0.000000 0.000000 0.000000 0.052671
#
#
# Mechanical properties :
#
#
# Convention : Reuss Voigt Hill
#
# Bulk Modulus (GPa) = 53.19141 69.91646 61.55393
# Shear Modulus (GPa) = 24.76168 31.44118 28.10143
#
# Velocity S-wave (km/s) = 3.23014 3.63982 3.44108
# Velocity P-wave (km/s) = 6.02701 6.86476 6.45948
#
# Compressibility (1/GPa) = 0.01880003
#
# Stress axis : x y z
#
# Youngs Moduli (GPa) = 38.91673 127.34423 122.98029
#
# Poissons Ratio (x) = 0.50740 0.81592
# Poissons Ratio (y) = 0.15506 0.10097
# Poissons Ratio (z) = 0.25819 0.10455
#
# Static dielectric constant tensor:
#      x y z
#    x 2.001320 0.000000 0.000000 
#    y 0.000000 1.908260 0.000000 
#    z 0.000000 0.000000 2.021430 
# 
# From -- ./inp_files/4164.got.cif
#   From: 2010.05.17/outbox.cif.g08.bks.cpg/sg33_3_cif.got.tgz:4164.got - 2010.06.03 17:15:25.
