data_PCOD9346796
_publ_section_title
;
Structure prediction by ZEFSAII (Michael W. Deem and Ramdas Pophale) SiO2 
 PCOD9346796
Probable space group: P N A 21
;
_chemical_formula_sum "Si O2"
_cell_formula_units_Z 32
_cell_length_a 16.687973
_cell_length_b 8.238957
_cell_length_c 9.899160
_cell_angle_alpha 90.000000
_cell_angle_beta 90.000000
_cell_angle_gamma 90.000000
_cell_volume 1361.050278
_symmetry_space_group_name_H-M "P N A 21"
_symmetry_group_IT_number 33
_symmetry_cell_setting 'orthorhombic'
loop_
_space_group_symop_operation_xyz
x,y,z
-x,-y,1/2+z
1/2-x,1/2+y,1/2+z
1/2+x,1/2-y,z
loop_
_atom_site_type_symbol
_atom_site_label
_atom_site_fract_x
_atom_site_fract_y
_atom_site_fract_z
Si Si1 0.304078 0.281792 0.298450
Si Si2 0.042258 0.200504 0.649955
Si Si3 0.443491 0.849594 0.434980
Si Si4 0.143604 0.808537 0.097424
Si Si5 0.788313 0.401184 0.827431
Si Si6 0.965205 0.183371 0.159820
Si Si7 0.809003 0.823101 0.582383
Si Si8 0.061853 0.366621 0.382953
O O1 0.322989 0.245543 0.454044
O O2 0.281812 0.472811 0.287055
O O3 0.382473 0.242052 0.212220
O O4 0.228646 0.197229 0.229483
O O5 0.947675 0.238968 0.629591
O O6 0.085248 0.266810 0.516352
O O7 0.853948 0.995980 0.582167
O O8 0.045243 0.008185 0.664169
O O9 0.509934 0.739870 0.511324
O O10 0.365617 0.821419 0.527714
O O11 0.485130 0.022306 0.420791
O O12 0.426920 0.783808 0.285759
O O13 0.196943 0.737543 0.217907
O O14 0.867924 0.511178 0.841071
O O15 0.762034 0.334180 0.972543
O O16 0.032497 0.247021 0.264776
#
# Coordination Sequence:
#
# PCOD9346796 Si02
#       8
#     4   4   4   4   4   4   4   4
#     4  11  26  45  71 104 150 190 242 306 370 444
#     4  12  24  46  75 103 141 190 250 310 360 431
#     4  12  25  44  74 105 146 192 251 306 358 447
#     4  11  24  49  70 106 145 192 245 299 362 443
#     4  11  26  47  72 110 148 188 245 308 374 439
#     4  12  25  45  72 107 140 199 252 297 374 441
#     4  11  26  48  70 109 150 198 241 299 380 439
#     4  12  26  46  74 108 144 191 256 309 366 446
#
# _framework density 23.511254000000001
#
# number of rings (size 3 to 8) (size 9 to 14) (size 15 to 20)
#    0.000    0.500    3.750    4.500    1.750    6.000 
#    0.000    0.000    0.000    0.000    0.000    0.000 
#    0.000    0.000    0.000    0.000    0.000    0.000 
#
# Total GULP energy -179200.934064 kJ/mol
# GULP energy per Si atom -5600.029190 kJ/mol
# Density = 2.345774 g / cm^3
# Si number density = 23.511254 Si / 1000 Ang^3
#
#
#
# Elastic Constant Matrix: (Units=GPa)
#
#
# Indices 1 2 3 4 5 6 
#
# 1 78.8758 7.5058 27.4151 0.0000 0.0000 0.0000
# 2 7.5058 64.1302 18.6576 0.0000 0.0000 0.0000
# 3 27.4151 18.6576 107.1561 0.0000 0.0000 0.0000
# 4 0.0000 0.0000 0.0000 42.5067 0.0000 0.0000
# 5 0.0000 0.0000 0.0000 0.0000 32.7449 0.0000
# 6 0.0000 0.0000 0.0000 0.0000 0.0000 32.1349
#
#
#
# Elastic Compliance Matrix: (Units=1/GPa)
#
#
# Indices 1 2 3 4 5 6 
#
# 1 0.013939 -0.000626 -0.003457 0.000000 0.000000 0.000000
# 2 -0.000626 0.016453 -0.002705 0.000000 0.000000 0.000000
# 3 -0.003457 -0.002705 0.010688 0.000000 0.000000 0.000000
# 4 0.000000 0.000000 0.000000 0.023526 0.000000 0.000000
# 5 0.000000 0.000000 0.000000 0.000000 0.030539 0.000000
# 6 0.000000 0.000000 0.000000 0.000000 0.000000 0.031119
#
#
# Mechanical properties :
#
#
# Convention : Reuss Voigt Hill
#
# Bulk Modulus (GPa) = 36.35700 39.70212 38.02956
# Shear Modulus (GPa) = 33.55528 34.58287 34.06908
#
# Velocity S-wave (km/s) = 3.78193 3.83940 3.81077
# Velocity P-wave (km/s) = 5.87945 6.04796 5.96430
#
# Compressibility (1/GPa) = 0.02750502
#
# Stress axis : x y z
#
# Youngs Moduli (GPa) = 71.73923 60.77766 93.56583
#
# Poissons Ratio (x) = 0.03802 0.32349
# Poissons Ratio (y) = 0.04488 0.25307
# Poissons Ratio (z) = 0.24803 0.16439
#
# Static dielectric constant tensor:
#      x y z
#    x 1.926820 0.000000 0.000000 
#    y 0.000000 1.869340 0.000000 
#    z 0.000000 0.000000 1.860080 
# 
# From -- ./inp_files/7046.got.cif
#   From: 2010.05.17/outbox.cif.g08.bks.cpg/sg33_4_cif.got.tgz:7046.got - 2010.06.03 17:15:25.
