data_PCOD9346395
_publ_section_title
;
Structure prediction by ZEFSAII (Michael W. Deem and Ramdas Pophale) SiO2 
 PCOD9346395
Probable space group: P N A 21
;
_chemical_formula_sum "Si O2"
_cell_formula_units_Z 16
_cell_length_a 17.184935
_cell_length_b 7.421191
_cell_length_c 5.080699
_cell_angle_alpha 90.000000
_cell_angle_beta 90.000000
_cell_angle_gamma 90.000000
_cell_volume 647.955185
_symmetry_space_group_name_H-M "P N A 21"
_symmetry_group_IT_number 33
_symmetry_cell_setting 'orthorhombic'
loop_
_space_group_symop_operation_xyz
x,y,z
-x,-y,1/2+z
1/2-x,1/2+y,1/2+z
1/2+x,1/2-y,z
loop_
_atom_site_type_symbol
_atom_site_label
_atom_site_fract_x
_atom_site_fract_y
_atom_site_fract_z
Si Si1 0.656343 0.264823 0.380460
Si Si2 0.405766 0.391283 0.115471
Si Si3 0.973048 0.600510 0.573046
Si Si4 0.808423 0.120102 0.631751
O O1 0.598810 0.395696 0.548567
O O2 0.610640 0.120180 0.208133
O O3 0.724278 0.191301 0.561394
O O4 0.695527 0.406561 0.181556
O O5 0.347270 0.307707 0.898060
O O6 0.488347 0.298921 0.073553
O O7 0.369573 0.351515 0.397506
O O8 0.977057 0.515990 0.284193
#
# Coordination Sequence:
#
# PCOD9346395 Si02
#       4
#     4   4   4   4
#     4  10  28  47  81 104 154 194 256 309 379 447
#     4  10  26  46  73 107 150 196 246 306 377 447
#     4  12  29  46  77 111 153 196 253 313 380 453
#     4  10  25  43  79 106 149 192 253 304 380 439
#
# _framework density 24.693066000000002
#
# number of rings (size 3 to 8) (size 9 to 14) (size 15 to 20)
#    1.500    0.000    0.000    1.500   14.000    2.000 
#    0.000    0.000    0.000    0.000    0.000    0.000 
#    0.000    0.000    0.000    0.000    0.000    0.000 
#
# Total GULP energy -89549.147606 kJ/mol
# GULP energy per Si atom -5596.821725 kJ/mol
# Density = 2.463686 g / cm^3
# Si number density = 24.693066 Si / 1000 Ang^3
#
#
#
# Elastic Constant Matrix: (Units=GPa)
#
#
# Indices 1 2 3 4 5 6 
#
# 1 59.1480 6.3507 9.0883 0.0000 0.0000 0.0000
# 2 6.3507 51.9061 3.8166 0.0000 0.0000 0.0000
# 3 9.0883 3.8166 105.7345 0.0000 0.0000 0.0000
# 4 0.0000 0.0000 0.0000 17.9815 0.0000 0.0000
# 5 0.0000 0.0000 0.0000 0.0000 37.8506 0.0000
# 6 0.0000 0.0000 0.0000 0.0000 0.0000 45.4424
#
#
#
# Elastic Compliance Matrix: (Units=1/GPa)
#
#
# Indices 1 2 3 4 5 6 
#
# 1 0.017341 -0.002017 -0.001418 0.000000 0.000000 0.000000
# 2 -0.002017 0.019552 -0.000532 0.000000 0.000000 0.000000
# 3 -0.001418 -0.000532 0.009599 0.000000 0.000000 0.000000
# 4 0.000000 0.000000 0.000000 0.055613 0.000000 0.000000
# 5 0.000000 0.000000 0.000000 0.000000 0.026420 0.000000
# 6 0.000000 0.000000 0.000000 0.000000 0.000000 0.022006
#
#
# Mechanical properties :
#
#
# Convention : Reuss Voigt Hill
#
# Bulk Modulus (GPa) = 25.93599 28.36664 27.15131
# Shear Modulus (GPa) = 29.18570 33.42376 31.30473
#
# Velocity S-wave (km/s) = 3.44166 3.68308 3.56442
# Velocity P-wave (km/s) = 5.13026 5.44053 5.28767
#
# Compressibility (1/GPa) = 0.03855646
#
# Stress axis : x y z
#
# Youngs Moduli (GPa) = 57.66618 51.14684 104.18051
#
# Poissons Ratio (x) = 0.10319 0.14770
# Poissons Ratio (y) = 0.11634 0.05546
# Poissons Ratio (z) = 0.08175 0.02723
#
# Static dielectric constant tensor:
#      x y z
#    x 1.939170 0.000000 0.000000 
#    y 0.000000 1.982080 0.000000 
#    z 0.000000 0.000000 1.928590 
# 
# From -- ./inp_files/1193.got.cif
#   From: 2010.05.17/outbox.cif.g08.bks.cpg/sg33_1_cif.got.tgz:1193.got - 2010.06.03 17:15:25.
