data_PCOD9346782
_publ_section_title
;
Structure prediction by ZEFSAII (Michael W. Deem and Ramdas Pophale) SiO2 
 PCOD9346782
Probable space group: P N A 21
;
_chemical_formula_sum "Si O2"
_cell_formula_units_Z 20
_cell_length_a 9.913870
_cell_length_b 9.469602
_cell_length_c 9.471363
_cell_angle_alpha 90.000000
_cell_angle_beta 90.000000
_cell_angle_gamma 90.000000
_cell_volume 889.175377
_symmetry_space_group_name_H-M "P N A 21"
_symmetry_group_IT_number 33
_symmetry_cell_setting 'orthorhombic'
loop_
_space_group_symop_operation_xyz
x,y,z
-x,-y,1/2+z
1/2-x,1/2+y,1/2+z
1/2+x,1/2-y,z
loop_
_atom_site_type_symbol
_atom_site_label
_atom_site_fract_x
_atom_site_fract_y
_atom_site_fract_z
Si Si1 0.601694 0.436910 0.070360
Si Si2 0.291013 0.802804 0.052860
Si Si3 0.430603 0.108850 0.413883
Si Si4 0.602558 0.115914 0.151949
Si Si5 0.855864 0.942197 0.247213
O O1 0.720402 0.550179 0.089817
O O2 0.628222 0.280660 0.127757
O O3 0.468466 0.496270 0.143840
O O4 0.584539 0.431548 0.902243
O O5 0.436322 0.821747 0.983381
O O6 0.193640 0.711231 0.950299
O O7 0.309105 0.709595 0.192384
O O8 0.470636 0.094459 0.250354
O O9 0.409337 0.964711 0.502088
O O10 0.725197 0.041949 0.235555
#
# Coordination Sequence:
#
# PCOD9346782 Si02
#       5
#     4   4   4   4   4
#     4  12  26  46  78 105 150 196 255 303 377 448
#     4  11  24  47  73 104 150 189 244 307 365 440
#     4  11  25  49  72 107 149 191 245 306 373 441
#     4  11  28  46  76 109 147 196 249 307 378 448
#     4  11  27  48  71 113 144 200 251 309 377 443
#
# _framework density 22.492747999999999
#
# number of rings (size 3 to 8) (size 9 to 14) (size 15 to 20)
#    0.000    0.800    4.000    1.200    5.600    1.600 
#    0.000    0.000    0.000    0.000    0.000    0.000 
#    0.000    0.000    0.000    0.000    0.000    0.000 
#
# Total GULP energy -112059.835128 kJ/mol
# GULP energy per Si atom -5602.991756 kJ/mol
# Density = 2.244155 g / cm^3
# Si number density = 22.492748 Si / 1000 Ang^3
#
#
#
# Elastic Constant Matrix: (Units=GPa)
#
#
# Indices 1 2 3 4 5 6 
#
# 1 72.6148 3.3082 11.4612 0.0000 0.0000 0.0000
# 2 3.3082 129.4943 40.7378 0.0000 0.0000 0.0000
# 3 11.4612 40.7378 118.6418 0.0000 0.0000 0.0000
# 4 0.0000 0.0000 0.0000 29.6102 0.0000 0.0000
# 5 0.0000 0.0000 0.0000 0.0000 28.9127 0.0000
# 6 0.0000 0.0000 0.0000 0.0000 0.0000 12.2266
#
#
#
# Elastic Compliance Matrix: (Units=1/GPa)
#
#
# Indices 1 2 3 4 5 6 
#
# 1 0.013985 0.000076 -0.001377 0.000000 0.000000 0.000000
# 2 0.000076 0.008658 -0.002980 0.000000 0.000000 0.000000
# 3 -0.001377 -0.002980 0.009585 0.000000 0.000000 0.000000
# 4 0.000000 0.000000 0.000000 0.033772 0.000000 0.000000
# 5 0.000000 0.000000 0.000000 0.000000 0.034587 0.000000
# 6 0.000000 0.000000 0.000000 0.000000 0.000000 0.081789
#
#
# Mechanical properties :
#
#
# Convention : Reuss Voigt Hill
#
# Bulk Modulus (GPa) = 42.25558 47.97393 45.11476
# Shear Modulus (GPa) = 25.14741 31.83281 28.49011
#
# Velocity S-wave (km/s) = 3.34731 3.76606 3.56284
# Velocity P-wave (km/s) = 5.81089 6.34711 6.08491
#
# Compressibility (1/GPa) = 0.02366551
#
# Stress axis : x y z
#
# Youngs Moduli (GPa) = 71.50420 115.50077 104.32896
#
# Poissons Ratio (x) = -0.00877 0.14367
# Poissons Ratio (y) = -0.00543 0.31092
# Poissons Ratio (z) = 0.09847 0.34422
#
# Static dielectric constant tensor:
#      x y z
#    x 1.793410 0.000000 0.000000 
#    y 0.000000 1.815690 0.000000 
#    z 0.000000 0.000000 1.855990 
# 
# From -- ./inp_files/2932.got.cif
#   From: 2010.05.17/outbox.cif.g08.bks.cpg/sg33_2_cif.got.tgz:2932.got - 2010.06.03 17:15:25.
