data_PCOD9346347
_publ_section_title
;
Structure prediction by ZEFSAII (Michael W. Deem and Ramdas Pophale) SiO2 
 PCOD9346347
Probable space group: P N A 21
;
_chemical_formula_sum "Si O2"
_cell_formula_units_Z 20
_cell_length_a 24.970282
_cell_length_b 4.953045
_cell_length_c 5.874865
_cell_angle_alpha 90.000000
_cell_angle_beta 90.000000
_cell_angle_gamma 90.000000
_cell_volume 726.597019
_symmetry_space_group_name_H-M "P N A 21"
_symmetry_group_IT_number 33
_symmetry_cell_setting 'orthorhombic'
loop_
_space_group_symop_operation_xyz
x,y,z
-x,-y,1/2+z
1/2-x,1/2+y,1/2+z
1/2+x,1/2-y,z
loop_
_atom_site_type_symbol
_atom_site_label
_atom_site_fract_x
_atom_site_fract_y
_atom_site_fract_z
Si Si1 0.417462 0.524688 0.993610
Si Si2 0.115408 0.530133 0.234191
Si Si3 0.985638 0.373050 0.496386
Si Si4 0.682421 0.309507 0.739373
Si Si5 0.284730 0.190126 0.491359
O O1 0.405977 0.216505 0.938777
O O2 0.396097 0.719289 0.789315
O O3 0.479645 0.598647 0.015343
O O4 0.378855 0.622646 0.193976
O O5 0.078280 0.630390 0.025881
O O6 0.177040 0.594652 0.195902
O O7 0.998058 0.484928 0.241350
O O8 0.723085 0.375713 0.534936
O O9 0.703789 0.499655 0.940225
O O10 0.693124 0.998468 0.791005
#
# Coordination Sequence:
#
# PCOD9346347 Si02
#       5
#     4   4   4   4   4
#     4  11  24  43  67  97 134 176 228 286 347 413
#     4  11  24  43  67  97 134 176 228 286 347 413
#     4  10  24  46  72 104 142 186 234 290 350 416
#     4  12  24  41  65  94 132 176 228 286 348 414
#     4  12  24  41  65  94 132 176 228 286 348 414
#
# _framework density 27.525576000000001
#
# number of rings (size 3 to 8) (size 9 to 14) (size 15 to 20)
#    0.000    0.800    0.000    7.200    0.000   11.200 
#    0.000    0.000    0.000    0.000    0.000    0.000 
#    0.000    0.000    0.000    0.000    0.000    0.000 
#
# Total GULP energy -111988.704211 kJ/mol
# GULP energy per Si atom -5599.435211 kJ/mol
# Density = 2.746293 g / cm^3
# Si number density = 27.525576 Si / 1000 Ang^3
#
#
#
# Elastic Constant Matrix: (Units=GPa)
#
#
# Indices 1 2 3 4 5 6 
#
# 1 78.0370 30.7003 34.4553 0.0000 0.0000 0.0000
# 2 30.7003 76.1859 36.6493 0.0000 0.0000 0.0000
# 3 34.4553 36.6493 105.6352 0.0000 0.0000 0.0000
# 4 0.0000 0.0000 0.0000 54.1259 0.0000 0.0000
# 5 0.0000 0.0000 0.0000 0.0000 64.2145 0.0000
# 6 0.0000 0.0000 0.0000 0.0000 0.0000 37.6985
#
#
#
# Elastic Compliance Matrix: (Units=1/GPa)
#
#
# Indices 1 2 3 4 5 6 
#
# 1 0.016323 -0.004821 -0.003652 0.000000 0.000000 0.000000
# 2 -0.004821 0.017179 -0.004388 0.000000 0.000000 0.000000
# 3 -0.003652 -0.004388 0.012180 0.000000 0.000000 0.000000
# 4 0.000000 0.000000 0.000000 0.018475 0.000000 0.000000
# 5 0.000000 0.000000 0.000000 0.000000 0.015573 0.000000
# 6 0.000000 0.000000 0.000000 0.000000 0.000000 0.026526
#
#
# Mechanical properties :
#
#
# Convention : Reuss Voigt Hill
#
# Bulk Modulus (GPa) = 50.09606 51.49644 50.79625
# Shear Modulus (GPa) = 36.06679 41.74466 38.90573
#
# Velocity S-wave (km/s) = 3.62374 3.89855 3.76365
# Velocity P-wave (km/s) = 5.97896 6.24613 6.11400
#
# Compressibility (1/GPa) = 0.01996165
#
# Stress axis : x y z
#
# Youngs Moduli (GPa) = 61.26186 58.20981 82.10274
#
# Poissons Ratio (x) = 0.28064 0.29980
# Poissons Ratio (y) = 0.29535 0.36024
# Poissons Ratio (z) = 0.22370 0.25541
#
# Static dielectric constant tensor:
#      x y z
#    x 2.149810 0.000000 0.000000 
#    y 0.000000 2.046940 0.000000 
#    z 0.000000 0.000000 2.204180 
# 
# From -- ./inp_files/2149.got.cif
#   From: 2010.05.17/outbox.cif.g08.bks.cpg/sg33_2_cif.got.tgz:2149.got - 2010.06.03 17:15:25.
