data_PCOD9346389
_publ_section_title
;
Structure prediction by ZEFSAII (Michael W. Deem and Ramdas Pophale) SiO2 
 PCOD9346389
Probable space group: P N A 21
;
_chemical_formula_sum "Si O2"
_cell_formula_units_Z 28
_cell_length_a 9.726023
_cell_length_b 11.360833
_cell_length_c 10.440410
_cell_angle_alpha 90.000000
_cell_angle_beta 90.000000
_cell_angle_gamma 90.000000
_cell_volume 1153.620652
_symmetry_space_group_name_H-M "P N A 21"
_symmetry_group_IT_number 33
_symmetry_cell_setting 'orthorhombic'
loop_
_space_group_symop_operation_xyz
x,y,z
-x,-y,1/2+z
1/2-x,1/2+y,1/2+z
1/2+x,1/2-y,z
loop_
_atom_site_type_symbol
_atom_site_label
_atom_site_fract_x
_atom_site_fract_y
_atom_site_fract_z
Si Si1 0.811523 0.367977 0.529430
Si Si2 0.521191 0.655973 0.684432
Si Si3 0.063523 0.246470 0.456526
Si Si4 0.091839 0.641436 0.298174
Si Si5 0.957306 0.102871 0.688731
Si Si6 0.756977 0.779894 0.522392
Si Si7 0.306989 0.934931 0.332327
O O1 0.973220 0.354679 0.503793
O O2 0.724587 0.253931 0.486526
O O3 0.803173 0.381208 0.681436
O O4 0.760681 0.465614 0.431716
O O5 0.472408 0.723283 0.810900
O O6 0.535802 0.518113 0.719257
O O7 0.656645 0.716419 0.625148
O O8 0.394004 0.667648 0.584675
O O9 0.005734 0.142189 0.548669
O O10 0.033433 0.775397 0.271498
O O11 0.164201 0.634279 0.435275
O O12 0.963257 0.554562 0.288673
O O13 0.798235 0.070860 0.715679
O O14 0.799909 0.681670 0.418708
#
# Coordination Sequence:
#
# PCOD9346389 Si02
#       7
#     4   4   4   4   4   4   4
#     4  11  25  45  74 106 144 188 247 297 367 440
#     4  12  24  45  72 102 147 186 243 294 369 426
#     4  11  25  45  68 107 144 185 239 306 354 436
#     4  10  25  45  74 101 147 187 239 296 366 434
#     4  10  25  42  75  98 143 191 237 291 366 427
#     4  11  25  44  69 103 142 190 236 305 353 441
#     4  11  23  48  70 105 143 187 249 297 361 440
#
# _framework density 24.271408000000001
#
# number of rings (size 3 to 8) (size 9 to 14) (size 15 to 20)
#    0.000    1.143    2.857    1.714   14.000    2.286 
#    2.571    0.000    0.000    0.000    0.000    0.000 
#    0.000    0.000    0.000    0.000    0.000    0.000 
#
# Total GULP energy -156482.626240 kJ/mol
# GULP energy per Si atom -5588.665223 kJ/mol
# Density = 2.421617 g / cm^3
# Si number density = 24.271408 Si / 1000 Ang^3
#
#
#
# Elastic Constant Matrix: (Units=GPa)
#
#
# Indices 1 2 3 4 5 6 
#
# 1 88.4705 12.1036 10.4214 0.0000 0.0000 0.0000
# 2 12.1036 41.8508 -0.6386 0.0000 0.0000 0.0000
# 3 10.4214 -0.6386 89.3972 0.0000 0.0000 0.0000
# 4 0.0000 0.0000 0.0000 34.4689 0.0000 0.0000
# 5 0.0000 0.0000 0.0000 0.0000 48.2816 0.0000
# 6 0.0000 0.0000 0.0000 0.0000 0.0000 27.7937
#
#
#
# Elastic Compliance Matrix: (Units=1/GPa)
#
#
# Indices 1 2 3 4 5 6 
#
# 1 0.011946 -0.003476 -0.001417 0.000000 0.000000 0.000000
# 2 -0.003476 0.024909 0.000583 0.000000 0.000000 0.000000
# 3 -0.001417 0.000583 0.011355 0.000000 0.000000 0.000000
# 4 0.000000 0.000000 0.000000 0.029012 0.000000 0.000000
# 5 0.000000 0.000000 0.000000 0.000000 0.020712 0.000000
# 6 0.000000 0.000000 0.000000 0.000000 0.000000 0.035979
#
#
# Mechanical properties :
#
#
# Convention : Reuss Voigt Hill
#
# Bulk Modulus (GPa) = 25.25978 29.27680 27.26829
# Shear Modulus (GPa) = 32.10680 35.29765 33.70223
#
# Velocity S-wave (km/s) = 3.64101 3.81765 3.73038
# Velocity P-wave (km/s) = 5.30149 5.61436 5.46017
#
# Compressibility (1/GPa) = 0.03958862
#
# Stress axis : x y z
#
# Youngs Moduli (GPa) = 83.71154 40.14657 88.06355
#
# Poissons Ratio (x) = 0.13957 0.12482
# Poissons Ratio (y) = 0.29102 -0.05136
# Poissons Ratio (z) = 0.11865 -0.02341
#
# Static dielectric constant tensor:
#      x y z
#    x 1.982660 0.000000 0.000000 
#    y 0.000000 1.970140 0.000000 
#    z 0.000000 0.000000 1.893130 
# 
# From -- ./inp_files/5875.got.cif
#   From: 2010.05.17/outbox.cif.g08.bks.cpg/sg33_3_cif.got.tgz:5875.got - 2010.06.03 17:15:25.
