data_PCOD9346529
_publ_section_title
;
Structure prediction by ZEFSAII (Michael W. Deem and Ramdas Pophale) SiO2 
 PCOD9346529
Probable space group: P N A 21
;
_chemical_formula_sum "Si O2"
_cell_formula_units_Z 32
_cell_length_a 19.078305
_cell_length_b 8.049838
_cell_length_c 8.971194
_cell_angle_alpha 90.000000
_cell_angle_beta 90.000000
_cell_angle_gamma 90.000000
_cell_volume 1377.771434
_symmetry_space_group_name_H-M "P N A 21"
_symmetry_group_IT_number 33
_symmetry_cell_setting 'orthorhombic'
loop_
_space_group_symop_operation_xyz
x,y,z
-x,-y,1/2+z
1/2-x,1/2+y,1/2+z
1/2+x,1/2-y,z
loop_
_atom_site_type_symbol
_atom_site_label
_atom_site_fract_x
_atom_site_fract_y
_atom_site_fract_z
Si Si1 0.234752 0.949718 0.794580
Si Si2 0.876408 0.729738 0.697029
Si Si3 0.376580 0.043218 0.202814
Si Si4 0.222471 0.020060 0.098366
Si Si5 0.899507 0.119517 0.094698
Si Si6 0.090819 0.583090 0.036927
Si Si7 0.055572 0.236472 0.521068
Si Si8 0.825560 0.236931 0.801856
O O1 0.262255 0.135058 0.831365
O O2 0.300907 0.855275 0.729585
O O3 0.169327 0.940498 0.686581
O O4 0.220533 0.889754 0.962196
O O5 0.848851 0.872839 0.587289
O O6 0.923215 0.594220 0.614870
O O7 0.907901 0.773178 0.858141
O O8 0.301864 0.082910 0.123766
O O9 0.423041 0.209018 0.172265
O O10 0.371478 0.039068 0.381288
O O11 0.404015 0.872571 0.126579
O O12 0.210579 0.931273 0.254881
O O13 0.945251 0.952224 0.083749
O O14 0.878108 0.187595 0.932133
O O15 0.133024 0.684085 0.162977
O O16 0.020999 0.685878 0.005514
#
# Coordination Sequence:
#
# PCOD9346529 Si02
#       8
#     4   4   4   4   4   4   4   4
#     4  11  22  40  66 104 142 175 226 290 369 429
#     4  11  23  43  69  98 143 182 228 301 355 415
#     4  12  25  45  74 107 139 188 239 302 359 435
#     4  12  23  39  69 104 140 171 226 298 370 416
#     4  12  25  44  73 107 140 186 235 295 363 425
#     4  11  28  47  69 100 145 196 247 284 357 431
#     4  12  26  50  71 101 144 201 240 291 354 433
#     4  11  24  42  67 103 143 183 231 299 351 428
#
# _framework density 23.225912999999998
#
# number of rings (size 3 to 8) (size 9 to 14) (size 15 to 20)
#    0.000    0.500    5.000    3.000    7.000    1.000 
#    2.250    0.000    0.000    0.000    0.000    0.000 
#    0.000    0.000    0.000    0.000    0.000    0.000 
#
# Total GULP energy -178541.386343 kJ/mol
# GULP energy per Si atom -5579.418323 kJ/mol
# Density = 2.317305 g / cm^3
# Si number density = 23.225913 Si / 1000 Ang^3
#
#
#
# Elastic Constant Matrix: (Units=GPa)
#
#
# Indices 1 2 3 4 5 6 
#
# 1 61.0036 -5.4762 24.6372 0.0000 0.0000 0.0000
# 2 -5.4762 82.8324 6.4272 0.0000 0.0000 0.0000
# 3 24.6372 6.4272 121.6694 0.0000 0.0000 0.0000
# 4 0.0000 0.0000 0.0000 26.1427 0.0000 0.0000
# 5 0.0000 0.0000 0.0000 0.0000 22.0982 0.0000
# 6 0.0000 0.0000 0.0000 0.0000 0.0000 31.5761
#
#
#
# Elastic Compliance Matrix: (Units=1/GPa)
#
#
# Indices 1 2 3 4 5 6 
#
# 1 0.018032 0.001481 -0.003730 0.000000 0.000000 0.000000
# 2 0.001481 0.012244 -0.000947 0.000000 0.000000 0.000000
# 3 -0.003730 -0.000947 0.009024 0.000000 0.000000 0.000000
# 4 0.000000 0.000000 0.000000 0.038252 0.000000 0.000000
# 5 0.000000 0.000000 0.000000 0.000000 0.045253 0.000000
# 6 0.000000 0.000000 0.000000 0.000000 0.000000 0.031670
#
#
# Mechanical properties :
#
#
# Convention : Reuss Voigt Hill
#
# Bulk Modulus (GPa) = 30.38572 35.18689 32.78631
# Shear Modulus (GPa) = 29.09797 31.95788 30.52792
#
# Velocity S-wave (km/s) = 3.54336 3.71341 3.62939
# Velocity P-wave (km/s) = 5.46367 5.79385 5.63118
#
# Compressibility (1/GPa) = 0.03291019
#
# Stress axis : x y z
#
# Youngs Moduli (GPa) = 55.45792 81.67283 110.81301
#
# Poissons Ratio (x) = -0.12100 0.41328
# Poissons Ratio (y) = -0.08216 0.10492
# Poissons Ratio (z) = 0.20683 0.07733
#
# Static dielectric constant tensor:
#      x y z
#    x 1.940200 0.000000 0.000000 
#    y 0.000000 1.986150 0.000000 
#    z 0.000000 0.000000 1.906170 
# 
# From -- ./inp_files/5023.got.cif
#   From: 2010.05.17/outbox.cif.g08.bks.cpg/sg33_3_cif.got.tgz:5023.got - 2010.06.03 17:15:25.
