data_PCOD9346313
_publ_section_title
;
Structure prediction by ZEFSAII (Michael W. Deem and Ramdas Pophale) SiO2 
 PCOD9346313
Probable space group: P N A 21
;
_chemical_formula_sum "Si O2"
_cell_formula_units_Z 32
_cell_length_a 13.752936
_cell_length_b 8.264678
_cell_length_c 13.567239
_cell_angle_alpha 90.000000
_cell_angle_beta 90.000000
_cell_angle_gamma 90.000000
_cell_volume 1542.101058
_symmetry_space_group_name_H-M "P N A 21"
_symmetry_group_IT_number 33
_symmetry_cell_setting 'orthorhombic'
loop_
_space_group_symop_operation_xyz
x,y,z
-x,-y,1/2+z
1/2-x,1/2+y,1/2+z
1/2+x,1/2-y,z
loop_
_atom_site_type_symbol
_atom_site_label
_atom_site_fract_x
_atom_site_fract_y
_atom_site_fract_z
Si Si1 0.477208 0.920020 0.301320
Si Si2 0.061840 0.747693 0.119726
Si Si3 0.804487 0.153796 0.460533
Si Si4 0.695513 0.846206 0.757663
Si Si5 0.061840 0.752307 0.598471
Si Si6 0.578569 0.080771 0.481701
Si Si7 0.522792 0.420020 0.916877
Si Si8 0.421431 0.580770 0.736495
O O1 0.545594 0.877204 0.208647
O O2 0.459569 0.750000 0.359099
O O3 0.376646 0.999525 0.264940
O O4 0.529698 0.042175 0.376716
O O5 0.060380 0.920623 0.171823
O O6 0.158324 0.740846 0.053295
O O7 0.975553 0.721758 0.041070
O O8 0.816152 0.250002 0.359099
O O9 0.692749 0.107503 0.472298
O O10 0.876646 0.999527 0.453255
O O11 0.658324 0.740844 0.664902
O O12 0.807251 0.892498 0.745898
O O13 0.060381 0.579377 0.546374
O O14 0.045594 0.877204 0.509550
O O15 0.975553 0.778242 0.677126
O O16 0.470302 0.542175 0.841481
#
# Coordination Sequence:
#
# PCOD9346313 Si02
#       8
#     4   4   4   4   4   4   4   4
#     4  10  24  45  66  99 140 178 222 284 331 394
#     4  11  23  44  70  95 136 175 223 277 336 396
#     4  12  25  42  71 100 134 180 227 272 342 398
#     4  12  25  42  71 100 134 180 227 272 342 398
#     4  11  23  44  70  95 136 175 223 277 336 396
#     4  11  25  45  67  99 136 175 227 279 332 402
#     4  10  24  45  66  99 140 178 222 284 331 394
#     4  11  25  45  67  99 136 175 227 279 332 402
#
# _framework density 20.750910000000001
#
# number of rings (size 3 to 8) (size 9 to 14) (size 15 to 20)
#    0.000    1.000    5.000    0.750    3.500    3.000 
#    4.500    2.500    0.000    0.000    0.000    0.000 
#    0.000    0.000    0.000    0.000    0.000    0.000 
#
# Total GULP energy -178896.936042 kJ/mol
# GULP energy per Si atom -5590.529251 kJ/mol
# Density = 2.070368 g / cm^3
# Si number density = 20.750910 Si / 1000 Ang^3
#
#
#
# Elastic Constant Matrix: (Units=GPa)
#
#
# Indices 1 2 3 4 5 6 
#
# 1 147.0177 36.8627 42.0672 0.0000 0.0000 0.0000
# 2 36.8627 69.3576 40.5440 0.0000 0.0000 0.0000
# 3 42.0672 40.5440 135.9490 0.0000 0.0000 0.0000
# 4 0.0000 0.0000 0.0000 34.3641 0.0000 0.0000
# 5 0.0000 0.0000 0.0000 0.0000 9.1341 0.0000
# 6 0.0000 0.0000 0.0000 0.0000 0.0000 22.1202
#
#
#
# Elastic Compliance Matrix: (Units=1/GPa)
#
#
# Indices 1 2 3 4 5 6 
#
# 1 0.008086 -0.003433 -0.001478 0.000000 0.000000 0.000000
# 2 -0.003433 0.018920 -0.004580 0.000000 0.000000 0.000000
# 3 -0.001478 -0.004580 0.009179 0.000000 0.000000 0.000000
# 4 0.000000 0.000000 0.000000 0.029100 0.000000 0.000000
# 5 0.000000 0.000000 0.000000 0.000000 0.109480 0.000000
# 6 0.000000 0.000000 0.000000 0.000000 0.000000 0.045208
#
#
# Mechanical properties :
#
#
# Convention : Reuss Voigt Hill
#
# Bulk Modulus (GPa) = 58.13384 65.69689 61.91536
# Shear Modulus (GPa) = 20.43406 28.64706 24.54056
#
# Velocity S-wave (km/s) = 3.14145 3.71957 3.44266
# Velocity P-wave (km/s) = 6.42138 7.08346 6.76053
#
# Compressibility (1/GPa) = 0.01720169
#
# Stress axis : x y z
#
# Youngs Moduli (GPa) = 123.67497 52.85342 108.94446
#
# Poissons Ratio (x) = 0.18147 0.16102
# Poissons Ratio (y) = 0.42463 0.49898
# Poissons Ratio (z) = 0.18280 0.24208
#
# Static dielectric constant tensor:
#      x y z
#    x 1.683500 0.000000 0.000000 
#    y 0.000000 1.769430 0.000000 
#    z 0.000000 0.000000 1.771990 
# 
# From -- ./inp_files/8011.got.cif
#   From: 2010.05.17/outbox.cif.g08.bks.cpg/sg33_5_cif.got.tgz:8011.got - 2010.06.03 17:15:25.
