data_PCOD9346442
_publ_section_title
;
Structure prediction by ZEFSAII (Michael W. Deem and Ramdas Pophale) SiO2 
 PCOD9346442
Probable space group: P N A 21
;
_chemical_formula_sum "Si O2"
_cell_formula_units_Z 28
_cell_length_a 9.509936
_cell_length_b 5.652115
_cell_length_c 21.121972
_cell_angle_alpha 90.000000
_cell_angle_beta 90.000000
_cell_angle_gamma 90.000000
_cell_volume 1135.332438
_symmetry_space_group_name_H-M "P N A 21"
_symmetry_group_IT_number 33
_symmetry_cell_setting 'orthorhombic'
loop_
_space_group_symop_operation_xyz
x,y,z
-x,-y,1/2+z
1/2-x,1/2+y,1/2+z
1/2+x,1/2-y,z
loop_
_atom_site_type_symbol
_atom_site_label
_atom_site_fract_x
_atom_site_fract_y
_atom_site_fract_z
Si Si1 0.038166 0.455080 0.429460
Si Si2 0.415261 0.038907 0.707847
Si Si3 0.159662 0.731864 0.676224
Si Si4 0.232221 0.449032 0.549172
Si Si5 0.485494 0.625843 0.104237
Si Si6 0.700259 0.803973 0.329289
Si Si7 0.527369 0.441209 0.896958
O O1 0.161346 0.484540 0.481339
O O2 0.106285 0.485463 0.360092
O O3 0.951139 0.699504 0.438342
O O4 0.962883 0.201238 0.427273
O O5 0.303263 0.828400 0.703773
O O6 0.571733 0.943020 0.720951
O O7 0.435445 0.159574 0.639738
O O8 0.347342 0.216857 0.757497
O O9 0.185619 0.619690 0.606830
O O10 0.058026 0.949682 0.659558
O O11 0.399152 0.459818 0.554771
O O12 0.156772 0.204698 0.570279
O O13 0.632593 0.589251 0.369861
O O14 0.858519 0.886442 0.342031
#
# Coordination Sequence:
#
# PCOD9346442 Si02
#       7
#     4   4   4   4   4   4   4
#     4  10  27  45  73 105 141 191 236 299 351 427
#     4  11  25  44  70 101 140 186 229 299 352 436
#     4  11  24  44  65 105 136 181 236 287 362 416
#     4  11  25  42  70  97 141 182 237 290 356 417
#     4  11  24  42  64 101 135 182 229 287 353 418
#     4  10  27  44  72 103 146 188 237 296 361 429
#     4  10  26  47  68 108 139 186 242 282 365 415
#
# _framework density 24.662375999999998
#
# number of rings (size 3 to 8) (size 9 to 14) (size 15 to 20)
#    0.857    0.571    2.857    0.000   10.000    0.000 
#    0.000    0.000    0.000    0.000    0.000    0.000 
#    0.000    0.000    0.000    0.000    0.000    0.000 
#
# Total GULP energy -156116.632831 kJ/mol
# GULP energy per Si atom -5575.594030 kJ/mol
# Density = 2.460624 g / cm^3
# Si number density = 24.662376 Si / 1000 Ang^3
#
#
#
# Elastic Constant Matrix: (Units=GPa)
#
#
# Indices 1 2 3 4 5 6 
#
# 1 83.5697 14.6373 -4.6666 0.0000 0.0000 0.0000
# 2 14.6373 97.0601 -7.7378 0.0000 0.0000 0.0000
# 3 -4.6666 -7.7378 31.3444 0.0000 0.0000 0.0000
# 4 0.0000 0.0000 0.0000 18.2338 0.0000 0.0000
# 5 0.0000 0.0000 0.0000 0.0000 21.3352 0.0000
# 6 0.0000 0.0000 0.0000 0.0000 0.0000 33.1324
#
#
#
# Elastic Compliance Matrix: (Units=1/GPa)
#
#
# Indices 1 2 3 4 5 6 
#
# 1 0.012351 -0.001751 0.001407 0.000000 0.000000 0.000000
# 2 -0.001751 0.010758 0.002395 0.000000 0.000000 0.000000
# 3 0.001407 0.002395 0.032704 0.000000 0.000000 0.000000
# 4 0.000000 0.000000 0.000000 0.054843 0.000000 0.000000
# 5 0.000000 0.000000 0.000000 0.000000 0.046871 0.000000
# 6 0.000000 0.000000 0.000000 0.000000 0.000000 0.030182
#
#
# Mechanical properties :
#
#
# Convention : Reuss Voigt Hill
#
# Bulk Modulus (GPa) = 16.69002 24.04890 20.36946
# Shear Modulus (GPa) = 24.56050 28.52302 26.54176
#
# Velocity S-wave (km/s) = 3.15916 3.40448 3.28411
# Velocity P-wave (km/s) = 4.48209 5.02259 4.76002
#
# Compressibility (1/GPa) = 0.05991606
#
# Stress axis : x y z
#
# Youngs Moduli (GPa) = 80.96371 92.95565 30.57697
#
# Poissons Ratio (x) = 0.16272 -0.04301
# Poissons Ratio (y) = 0.14173 -0.07323
# Poissons Ratio (z) = -0.11390 -0.22264
#
# Static dielectric constant tensor:
#      x y z
#    x 1.949720 0.000000 0.000000 
#    y 0.000000 2.028790 0.000000 
#    z 0.000000 0.000000 1.962770 
# 
# From -- ./inp_files/8659.got.cif
#   From: 2010.05.17/outbox.cif.g08.bks.cpg/sg33_5_cif.got.tgz:8659.got - 2010.06.03 17:15:25.
