data_PCOD9346348
_publ_section_title
;
Structure prediction by ZEFSAII (Michael W. Deem and Ramdas Pophale) SiO2 
 PCOD9346348
Probable space group: P N A 21
;
_chemical_formula_sum "Si O2"
_cell_formula_units_Z 20
_cell_length_a 18.383382
_cell_length_b 4.717128
_cell_length_c 8.042919
_cell_angle_alpha 90.000000
_cell_angle_beta 90.000000
_cell_angle_gamma 90.000000
_cell_volume 697.455925
_symmetry_space_group_name_H-M "P N A 21"
_symmetry_group_IT_number 33
_symmetry_cell_setting 'orthorhombic'
loop_
_space_group_symop_operation_xyz
x,y,z
-x,-y,1/2+z
1/2-x,1/2+y,1/2+z
1/2+x,1/2-y,z
loop_
_atom_site_type_symbol
_atom_site_label
_atom_site_fract_x
_atom_site_fract_y
_atom_site_fract_z
Si Si1 0.484789 0.540113 0.410120
Si Si2 0.341075 0.647927 0.271121
Si Si3 0.711933 0.753240 0.478894
Si Si4 0.907623 0.460802 0.509327
Si Si5 0.862130 0.761900 0.837339
O O1 0.425120 0.540340 0.260482
O O2 0.481156 0.856513 0.477195
O O3 0.561265 0.407332 0.376912
O O4 0.436050 0.351442 0.534824
O O5 0.286945 0.593385 0.428800
O O6 0.361356 0.969117 0.342682
O O7 0.299641 0.465177 0.130394
O O8 0.693866 0.525277 0.331640
O O9 0.658208 0.024316 0.476150
O O10 0.868905 0.582510 0.669953
#
# Coordination Sequence:
#
# PCOD9346348 Si02
#       5
#     4   4   4   4   4
#     4  10  25  42  78 104 150 192 244 311 372 449
#     4  10  28  47  76 103 154 195 256 299 391 439
#     4  12  28  46  76 108 150 199 250 315 372 463
#     4  10  24  46  73 101 152 191 245 308 375 442
#     4  12  27  45  75 112 148 193 257 307 384 441
#
# _framework density 28.675646
#
# number of rings (size 3 to 8) (size 9 to 14) (size 15 to 20)
#    1.200    0.000    0.000    3.600   11.200    1.600 
#    0.000    0.000    0.000    0.000    0.000    0.000 
#    0.000    0.000    0.000    0.000    0.000    0.000 
#
# Total GULP energy -111449.888516 kJ/mol
# GULP energy per Si atom -5572.494426 kJ/mol
# Density = 2.861038 g / cm^3
# Si number density = 28.675646 Si / 1000 Ang^3
#
#
#
# Elastic Constant Matrix: (Units=GPa)
#
#
# Indices 1 2 3 4 5 6 
#
# 1 139.4876 27.9945 6.5905 0.0000 0.0000 0.0000
# 2 27.9945 128.4794 31.1866 0.0000 0.0000 0.0000
# 3 6.5905 31.1866 118.6056 0.0000 0.0000 0.0000
# 4 0.0000 0.0000 0.0000 48.7222 0.0000 0.0000
# 5 0.0000 0.0000 0.0000 0.0000 23.0063 0.0000
# 6 0.0000 0.0000 0.0000 0.0000 0.0000 35.9905
#
#
#
# Elastic Compliance Matrix: (Units=1/GPa)
#
#
# Indices 1 2 3 4 5 6 
#
# 1 0.007497 -0.001637 0.000014 0.000000 0.000000 0.000000
# 2 -0.001637 0.008671 -0.002189 0.000000 0.000000 0.000000
# 3 0.000014 -0.002189 0.009006 0.000000 0.000000 0.000000
# 4 0.000000 0.000000 0.000000 0.020525 0.000000 0.000000
# 5 0.000000 0.000000 0.000000 0.000000 0.043466 0.000000
# 6 0.000000 0.000000 0.000000 0.000000 0.000000 0.027785
#
#
# Mechanical properties :
#
#
# Convention : Reuss Voigt Hill
#
# Bulk Modulus (GPa) = 56.97959 57.56840 57.27400
# Shear Modulus (GPa) = 38.33624 42.93055 40.63340
#
# Velocity S-wave (km/s) = 3.66032 3.87345 3.76839
# Velocity P-wave (km/s) = 6.14634 6.33436 6.24105
#
# Compressibility (1/GPa) = 0.01755015
#
# Stress axis : x y z
#
# Youngs Moduli (GPa) = 133.38749 115.32176 111.03518
#
# Poissons Ratio (x) = 0.18877 -0.00154
# Poissons Ratio (y) = 0.21834 0.24307
# Poissons Ratio (z) = -0.00184 0.25245
#
# Static dielectric constant tensor:
#      x y z
#    x 2.293910 0.000000 0.000000 
#    y 0.000000 2.195420 0.000000 
#    z 0.000000 0.000000 2.513690 
# 
# From -- ./inp_files/4582.got.cif
#   From: 2010.05.17/outbox.cif.g08.bks.cpg/sg33_3_cif.got.tgz:4582.got - 2010.06.03 17:15:25.
