data_PCOD9346574
_publ_section_title
;
Structure prediction by ZEFSAII (Michael W. Deem and Ramdas Pophale) SiO2 
 PCOD9346574
Probable space group: P N A 21
;
_chemical_formula_sum "Si O2"
_cell_formula_units_Z 28
_cell_length_a 17.803333
_cell_length_b 11.471557
_cell_length_c 5.651702
_cell_angle_alpha 90.000000
_cell_angle_beta 90.000000
_cell_angle_gamma 90.000000
_cell_volume 1154.258116
_symmetry_space_group_name_H-M "P N A 21"
_symmetry_group_IT_number 33
_symmetry_cell_setting 'orthorhombic'
loop_
_space_group_symop_operation_xyz
x,y,z
-x,-y,1/2+z
1/2-x,1/2+y,1/2+z
1/2+x,1/2-y,z
loop_
_atom_site_type_symbol
_atom_site_label
_atom_site_fract_x
_atom_site_fract_y
_atom_site_fract_z
Si Si1 0.184210 0.584463 0.477860
Si Si2 0.291580 0.468208 0.133024
Si Si3 0.791644 0.797537 0.852992
Si Si4 0.028097 0.554996 0.659734
Si Si5 0.544849 0.304560 0.200402
Si Si6 0.068945 0.957563 0.956757
Si Si7 0.682517 0.687536 0.223581
O O1 0.223344 0.490346 0.312351
O O2 0.249086 0.643442 0.633306
O O3 0.117958 0.541597 0.643487
O O4 0.152933 0.688572 0.313891
O O5 0.371112 0.435549 0.248142
O O6 0.305597 0.595245 0.027927
O O7 0.271278 0.376901 0.929544
O O8 0.873422 0.756801 0.773732
O O9 0.734192 0.716572 0.998070
O O10 0.998395 0.494876 0.415353
O O11 0.005019 0.691484 0.647748
O O12 0.504199 0.381901 0.402981
O O13 0.555119 0.405747 0.001412
O O14 0.114933 0.900761 0.172111
#
# Coordination Sequence:
#
# PCOD9346574 Si02
#       7
#     4   4   4   4   4   4   4
#     4  11  26  50  77 110 158 213 278 334 416 503
#     4  11  22  45  73 116 153 203 265 333 424 485
#     4  11  24  47  74 115 156 207 271 335 411 515
#     4  12  33  57  81 119 175 234 282 340 417 523
#     4  12  27  50  82 122 161 219 281 347 435 491
#     4  12  26  49  79 122 162 198 271 361 424 487
#     4  11  24  44  78 110 161 202 264 350 419 498
#
# _framework density 24.258008
#
# number of rings (size 3 to 8) (size 9 to 14) (size 15 to 20)
#    0.000    0.571    2.857    3.429    8.000    4.571 
#    2.571    0.000    0.000    0.000    0.000    0.000 
#    0.000    0.000    0.000    0.000    0.000    0.000 
#
# Total GULP energy -156703.750027 kJ/mol
# GULP energy per Si atom -5596.562501 kJ/mol
# Density = 2.420280 g / cm^3
# Si number density = 24.258008 Si / 1000 Ang^3
#
#
#
# Elastic Constant Matrix: (Units=GPa)
#
#
# Indices 1 2 3 4 5 6 
#
# 1 103.1105 10.9510 17.2582 0.0000 0.0000 0.0000
# 2 10.9510 103.3727 37.5663 0.0000 0.0000 0.0000
# 3 17.2582 37.5663 72.1936 0.0000 0.0000 0.0000
# 4 0.0000 0.0000 0.0000 45.2199 0.0000 0.0000
# 5 0.0000 0.0000 0.0000 0.0000 43.3270 0.0000
# 6 0.0000 0.0000 0.0000 0.0000 0.0000 29.1434
#
#
#
# Elastic Compliance Matrix: (Units=1/GPa)
#
#
# Indices 1 2 3 4 5 6 
#
# 1 0.010107 -0.000238 -0.002293 0.000000 0.000000 0.000000
# 2 -0.000238 0.011935 -0.006154 0.000000 0.000000 0.000000
# 3 -0.002293 -0.006154 0.017602 0.000000 0.000000 0.000000
# 4 0.000000 0.000000 0.000000 0.022114 0.000000 0.000000
# 5 0.000000 0.000000 0.000000 0.000000 0.023080 0.000000
# 6 0.000000 0.000000 0.000000 0.000000 0.000000 0.034313
#
#
# Mechanical properties :
#
#
# Convention : Reuss Voigt Hill
#
# Bulk Modulus (GPa) = 44.89032 45.58084 45.23558
# Shear Modulus (GPa) = 34.73547 37.73150 36.23348
#
# Velocity S-wave (km/s) = 3.78817 3.94817 3.86900
# Velocity P-wave (km/s) = 6.13834 6.29403 6.21667
#
# Compressibility (1/GPa) = 0.02227652
#
# Stress axis : x y z
#
# Youngs Moduli (GPa) = 98.93857 83.78567 56.81234
#
# Poissons Ratio (x) = 0.01991 0.13025
# Poissons Ratio (y) = 0.02351 0.34961
# Poissons Ratio (z) = 0.22682 0.51560
#
# Static dielectric constant tensor:
#      x y z
#    x 1.885520 0.000000 0.000000 
#    y 0.000000 1.934170 0.000000 
#    z 0.000000 0.000000 2.018050 
# 
# From -- ./inp_files/1759.got.cif
#   From: 2010.05.17/outbox.cif.g08.bks.cpg/sg33_1_cif.got.tgz:1759.got - 2010.06.03 17:15:25.
