data_PCOD9346591
_publ_section_title
;
Structure prediction by ZEFSAII (Michael W. Deem and Ramdas Pophale) SiO2 
 PCOD9346591
Probable space group: P N A 21
;
_chemical_formula_sum "Si O2"
_cell_formula_units_Z 32
_cell_length_a 8.892723
_cell_length_b 5.062688
_cell_length_c 28.458806
_cell_angle_alpha 90.000000
_cell_angle_beta 90.000000
_cell_angle_gamma 90.000000
_cell_volume 1281.246239
_symmetry_space_group_name_H-M "P N A 21"
_symmetry_group_IT_number 33
_symmetry_cell_setting 'orthorhombic'
loop_
_space_group_symop_operation_xyz
x,y,z
-x,-y,1/2+z
1/2-x,1/2+y,1/2+z
1/2+x,1/2-y,z
loop_
_atom_site_type_symbol
_atom_site_label
_atom_site_fract_x
_atom_site_fract_y
_atom_site_fract_z
Si Si1 0.558830 0.911271 0.402510
Si Si2 0.618750 0.610004 0.871314
Si Si3 0.341291 0.100089 0.007962
Si Si4 0.759534 0.165436 0.733157
Si Si5 0.489448 0.444318 0.273722
Si Si6 0.814513 0.416753 0.642725
Si Si7 0.448667 0.245205 0.178632
Si Si8 0.836564 0.381694 0.539751
O O1 0.480583 0.653364 0.380352
O O2 0.613704 0.836525 0.454509
O O3 0.436272 0.148068 0.403477
O O4 0.707571 0.029296 0.377025
O O5 0.574637 0.700644 0.818400
O O6 0.271622 0.363310 0.031482
O O7 0.217780 0.864897 0.008485
O O8 0.493444 0.979717 0.030825
O O9 0.641192 0.372156 0.753743
O O10 0.863493 0.279717 0.691273
O O11 0.855883 0.098443 0.779565
O O12 0.670187 0.955699 0.701484
O O13 0.539891 0.292189 0.226864
O O14 0.650745 0.527504 0.655069
O O15 0.815893 0.276800 0.593185
O O16 0.937973 0.645614 0.639458
#
# Coordination Sequence:
#
# PCOD9346591 Si02
#       8
#     4   4   4   4   4   4   4   4
#     4  12  26  49  74 106 145 184 236 298 378 421
#     4  12  27  44  76 107 141 188 238 302 342 448
#     4  12  26  50  73 108 141 189 229 306 369 430
#     4  11  23  41  61  90 133 180 215 281 328 404
#     4  11  25  39  67  93 135 176 237 270 347 395
#     4  11  25  40  65  95 129 180 228 276 339 403
#     4  11  23  41  61  90 133 178 217 279 331 401
#     4  12  27  44  77 103 143 181 244 292 350 440
#
# _framework density 24.975683
#
# number of rings (size 3 to 8) (size 9 to 14) (size 15 to 20)
#    0.000    0.500    2.500    5.250    7.000    0.000 
#    0.000    0.000    0.000    0.000    0.000    0.000 
#    0.000    0.000    0.000    0.000    0.000    0.000 
#
# Total GULP energy -178861.213950 kJ/mol
# GULP energy per Si atom -5589.412936 kJ/mol
# Density = 2.491884 g / cm^3
# Si number density = 24.975683 Si / 1000 Ang^3
#
#
#
# Elastic Constant Matrix: (Units=GPa)
#
#
# Indices 1 2 3 4 5 6 
#
# 1 88.0135 5.4745 -0.9204 0.0000 0.0000 0.0000
# 2 5.4745 64.4915 -7.1894 0.0000 0.0000 0.0000
# 3 -0.9204 -7.1894 37.2899 0.0000 0.0000 0.0000
# 4 0.0000 0.0000 0.0000 18.7602 0.0000 0.0000
# 5 0.0000 0.0000 0.0000 0.0000 28.0894 0.0000
# 6 0.0000 0.0000 0.0000 0.0000 0.0000 43.9037
#
#
#
# Elastic Compliance Matrix: (Units=1/GPa)
#
#
# Indices 1 2 3 4 5 6 
#
# 1 0.011423 -0.000959 0.000097 0.000000 0.000000 0.000000
# 2 -0.000959 0.015927 0.003047 0.000000 0.000000 0.000000
# 3 0.000097 0.003047 0.027407 0.000000 0.000000 0.000000
# 4 0.000000 0.000000 0.000000 0.053304 0.000000 0.000000
# 5 0.000000 0.000000 0.000000 0.000000 0.035601 0.000000
# 6 0.000000 0.000000 0.000000 0.000000 0.000000 0.022777
#
#
# Mechanical properties :
#
#
# Convention : Reuss Voigt Hill
#
# Bulk Modulus (GPa) = 16.91279 20.50271 18.70775
# Shear Modulus (GPa) = 27.50627 30.97933 29.24280
#
# Velocity S-wave (km/s) = 3.32222 3.52572 3.42548
# Velocity P-wave (km/s) = 4.63709 4.98008 4.81164
#
# Compressibility (1/GPa) = 0.05912686
#
# Stress axis : x y z
#
# Youngs Moduli (GPa) = 87.54611 62.78652 36.48735
#
# Poissons Ratio (x) = 0.06020 -0.00354
# Poissons Ratio (y) = 0.08394 -0.11118
# Poissons Ratio (z) = -0.00850 -0.19131
#
# Static dielectric constant tensor:
#      x y z
#    x 2.226680 0.000000 0.000000 
#    y 0.000000 3.741060 0.000000 
#    z 0.000000 0.000000 1.956280 
# 
# From -- ./inp_files/9375.got.cif
#   From: 2010.05.17/outbox.cif.g08.bks.cpg/sg33_5_cif.got.tgz:9375.got - 2010.06.03 17:15:25.
