data_PCOD9346957
_publ_section_title
;
Structure prediction by ZEFSAII (Michael W. Deem and Ramdas Pophale) SiO2 
 PCOD9346957
Probable space group: P N A 21
;
_chemical_formula_sum "Si O2"
_cell_formula_units_Z 24
_cell_length_a 10.659200
_cell_length_b 13.498647
_cell_length_c 6.537318
_cell_angle_alpha 90.000000
_cell_angle_beta 90.000000
_cell_angle_gamma 90.000000
_cell_volume 940.620550
_symmetry_space_group_name_H-M "P N A 21"
_symmetry_group_IT_number 33
_symmetry_cell_setting 'orthorhombic'
loop_
_space_group_symop_operation_xyz
x,y,z
-x,-y,1/2+z
1/2-x,1/2+y,1/2+z
1/2+x,1/2-y,z
loop_
_atom_site_type_symbol
_atom_site_label
_atom_site_fract_x
_atom_site_fract_y
_atom_site_fract_z
Si Si1 0.665865 0.950948 0.404730
Si Si2 0.729460 0.653252 0.489497
Si Si3 0.777997 0.319693 0.279674
Si Si4 0.076327 0.388588 0.682416
Si Si5 0.435726 0.294614 0.616632
Si Si6 0.378654 0.547717 0.093819
O O1 0.651128 0.884960 0.608408
O O2 0.561231 0.929242 0.233925
O O3 0.799615 0.932920 0.300739
O O4 0.641891 0.061144 0.489830
O O5 0.784322 0.731628 0.648313
O O6 0.840388 0.593628 0.381438
O O7 0.656557 0.709889 0.308924
O O8 0.633866 0.570259 0.570748
O O9 0.870569 0.258965 0.427261
O O10 0.690079 0.392515 0.409612
O O11 0.058852 0.271400 0.657727
O O12 0.482476 0.407030 0.596146
#
# Coordination Sequence:
#
# PCOD9346957 Si02
#       6
#     4   4   4   4   4   4
#     4  12  25  49  75 115 145 196 259 313 383 446
#     4  12  29  48  75 113 151 202 247 315 387 448
#     4  12  25  50  74 112 151 197 252 310 389 446
#     4  12  24  48  77 105 151 192 254 313 365 462
#     4  12  28  48  73 110 151 200 250 310 380 454
#     4  12  29  49  78 113 153 199 256 315 380 470
#
# _framework density 25.515070999999999
#
# number of rings (size 3 to 8) (size 9 to 14) (size 15 to 20)
#    0.000    0.000    5.000    4.000    9.333    1.333 
#    0.000    0.000    0.000    0.000    0.000    0.000 
#    0.000    0.000    0.000    0.000    0.000    0.000 
#
# Total GULP energy -134489.165241 kJ/mol
# GULP energy per Si atom -5603.715218 kJ/mol
# Density = 2.545700 g / cm^3
# Si number density = 25.515071 Si / 1000 Ang^3
#
#
#
# Elastic Constant Matrix: (Units=GPa)
#
#
# Indices 1 2 3 4 5 6 
#
# 1 41.9482 0.5059 20.4528 0.0000 0.0000 0.0000
# 2 0.5059 93.3503 37.7983 0.0000 0.0000 0.0000
# 3 20.4528 37.7983 104.1820 0.0000 0.0000 0.0000
# 4 0.0000 0.0000 0.0000 64.6021 0.0000 0.0000
# 5 0.0000 0.0000 0.0000 0.0000 30.4955 0.0000
# 6 0.0000 0.0000 0.0000 0.0000 0.0000 39.1567
#
#
#
# Elastic Compliance Matrix: (Units=1/GPa)
#
#
# Indices 1 2 3 4 5 6 
#
# 1 0.026786 0.002326 -0.006102 0.000000 0.000000 0.000000
# 2 0.002326 0.012759 -0.005086 0.000000 0.000000 0.000000
# 3 -0.006102 -0.005086 0.012642 0.000000 0.000000 0.000000
# 4 0.000000 0.000000 0.000000 0.015479 0.000000 0.000000
# 5 0.000000 0.000000 0.000000 0.000000 0.032792 0.000000
# 6 0.000000 0.000000 0.000000 0.000000 0.000000 0.025538
#
#
# Mechanical properties :
#
#
# Convention : Reuss Voigt Hill
#
# Bulk Modulus (GPa) = 29.01726 39.66607 34.34166
# Shear Modulus (GPa) = 32.21471 38.89910 35.55691
#
# Velocity S-wave (km/s) = 3.55713 3.90879 3.73710
# Velocity P-wave (km/s) = 5.31678 5.99595 5.66655
#
# Compressibility (1/GPa) = 0.03446225
#
# Stress axis : x y z
#
# Youngs Moduli (GPa) = 37.33261 78.37621 79.10298
#
# Poissons Ratio (x) = -0.18229 0.48272
# Poissons Ratio (y) = -0.08683 0.40229
# Poissons Ratio (z) = 0.22782 0.39860
#
# Static dielectric constant tensor:
#      x y z
#    x 1.991190 0.000000 0.000000 
#    y 0.000000 2.099400 0.000000 
#    z 0.000000 0.000000 1.998070 
# 
# From -- ./inp_files/836.got.cif
#   From: 2010.05.17/outbox.cif.g08.bks.cpg/sg33_1_cif.got.tgz:836.got - 2010.06.03 17:15:25.
