data_PCOD9346525
_publ_section_title
;
Structure prediction by ZEFSAII (Michael W. Deem and Ramdas Pophale) SiO2 
 PCOD9346525
Probable space group: P N A 21
;
_chemical_formula_sum "Si O2"
_cell_formula_units_Z 28
_cell_length_a 10.108835
_cell_length_b 21.756207
_cell_length_c 6.694479
_cell_angle_alpha 90.000000
_cell_angle_beta 90.000000
_cell_angle_gamma 90.000000
_cell_volume 1472.316142
_symmetry_space_group_name_H-M "P N A 21"
_symmetry_group_IT_number 33
_symmetry_cell_setting 'orthorhombic'
loop_
_space_group_symop_operation_xyz
x,y,z
-x,-y,1/2+z
1/2-x,1/2+y,1/2+z
1/2+x,1/2-y,z
loop_
_atom_site_type_symbol
_atom_site_label
_atom_site_fract_x
_atom_site_fract_y
_atom_site_fract_z
Si Si1 0.367408 0.647699 0.627400
Si Si2 0.169336 0.840021 0.591329
Si Si3 0.531070 0.850477 0.048888
Si Si4 0.604713 0.075905 0.900439
Si Si5 0.336629 0.766163 0.894334
Si Si6 0.365134 0.057862 0.223101
Si Si7 0.232882 0.730737 0.299542
O O1 0.522746 0.633504 0.616407
O O2 0.346352 0.698582 0.802057
O O3 0.270615 0.589695 0.649346
O O4 0.320017 0.686253 0.435578
O O5 0.277099 0.889947 0.519172
O O6 0.222358 0.806058 0.790542
O O7 0.167789 0.783980 0.432225
O O8 0.437615 0.881897 0.213512
O O9 0.629163 0.809542 0.178306
O O10 0.468251 0.806688 0.877460
O O11 0.596099 0.904267 0.920915
O O12 0.646649 0.011826 0.798444
O O13 0.480147 0.065163 0.052962
O O14 0.319996 0.761521 0.129607
#
# Coordination Sequence:
#
# PCOD9346525 Si02
#       7
#     4   4   4   4   4   4   4
#     4  11  25  41  63 101 139 168 213 272 338 395
#     4  11  25  41  63 101 139 168 213 272 338 395
#     4  12  22  40  66  98 126 170 224 268 322 388
#     4  12  25  45  68  94 128 178 231 271 317 395
#     4  11  22  38  66  97 135 172 208 264 333 396
#     4  12  25  45  68  94 128 178 231 271 317 395
#     4  11  22  38  66  97 135 172 208 264 333 396
#
# _framework density 19.017652999999999
#
# number of rings (size 3 to 8) (size 9 to 14) (size 15 to 20)
#    0.000    0.571    7.143    1.714    4.000    0.000 
#    0.000    4.286    0.000    0.000    0.000    0.000 
#    0.000    0.000    0.000    0.000    0.000    0.000 
#
# Total GULP energy -156330.250781 kJ/mol
# GULP energy per Si atom -5583.223242 kJ/mol
# Density = 1.897437 g / cm^3
# Si number density = 19.017653 Si / 1000 Ang^3
#
#
#
# Elastic Constant Matrix: (Units=GPa)
#
#
# Indices 1 2 3 4 5 6 
#
# 1 101.0830 31.2088 15.9164 0.0000 0.0000 0.0000
# 2 31.2088 102.4929 13.9608 0.0000 0.0000 0.0000
# 3 15.9164 13.9608 67.6032 0.0000 0.0000 0.0000
# 4 0.0000 0.0000 0.0000 14.9922 0.0000 0.0000
# 5 0.0000 0.0000 0.0000 0.0000 28.5236 0.0000
# 6 0.0000 0.0000 0.0000 0.0000 0.0000 15.1813
#
#
#
# Elastic Compliance Matrix: (Units=1/GPa)
#
#
# Indices 1 2 3 4 5 6 
#
# 1 0.011172 -0.003132 -0.001984 0.000000 0.000000 0.000000
# 2 -0.003132 0.010917 -0.001517 0.000000 0.000000 0.000000
# 3 -0.001984 -0.001517 0.015573 0.000000 0.000000 0.000000
# 4 0.000000 0.000000 0.000000 0.066701 0.000000 0.000000
# 5 0.000000 0.000000 0.000000 0.000000 0.035059 0.000000
# 6 0.000000 0.000000 0.000000 0.000000 0.000000 0.065870
#
#
# Mechanical properties :
#
#
# Convention : Reuss Voigt Hill
#
# Bulk Modulus (GPa) = 40.98911 43.70568 42.34740
# Shear Modulus (GPa) = 22.05665 25.74564 23.90115
#
# Velocity S-wave (km/s) = 3.40928 3.68336 3.54897
# Velocity P-wave (km/s) = 6.09077 6.41257 6.25374
#
# Compressibility (1/GPa) = 0.02439672
#
# Stress axis : x y z
#
# Youngs Moduli (GPa) = 89.50877 91.60012 64.21564
#
# Poissons Ratio (x) = 0.28686 0.12738
# Poissons Ratio (y) = 0.28031 0.09743
# Poissons Ratio (z) = 0.17755 0.13897
#
# Static dielectric constant tensor:
#      x y z
#    x 1.721980 0.000000 0.000000 
#    y 0.000000 1.651210 0.000000 
#    z 0.000000 0.000000 1.692460 
# 
# From -- ./inp_files/486.got.cif
#   From: 2010.05.17/outbox.cif.g08.bks.cpg/sg33_1_cif.got.tgz:486.got - 2010.06.03 17:15:25.
