data_PCOD9346328
_publ_section_title
;
Structure prediction by ZEFSAII (Michael W. Deem and Ramdas Pophale) SiO2 
 PCOD9346328
Probable space group: P N A 21
;
_chemical_formula_sum "Si O2"
_cell_formula_units_Z 28
_cell_length_a 11.712529
_cell_length_b 11.129642
_cell_length_c 9.344077
_cell_angle_alpha 90.000000
_cell_angle_beta 90.000000
_cell_angle_gamma 90.000000
_cell_volume 1218.058881
_symmetry_space_group_name_H-M "P N A 21"
_symmetry_group_IT_number 33
_symmetry_cell_setting 'orthorhombic'
loop_
_space_group_symop_operation_xyz
x,y,z
-x,-y,1/2+z
1/2-x,1/2+y,1/2+z
1/2+x,1/2-y,z
loop_
_atom_site_type_symbol
_atom_site_label
_atom_site_fract_x
_atom_site_fract_y
_atom_site_fract_z
Si Si1 0.860149 0.941454 0.529500
Si Si2 0.672448 0.828068 0.692745
Si Si3 0.539787 0.580970 0.278917
Si Si4 0.210732 0.421064 0.861810
Si Si5 0.288226 0.858549 0.887318
Si Si6 0.063864 0.300422 0.630200
Si Si7 0.942304 0.557830 0.636054
O O1 0.937239 0.971746 0.668399
O O2 0.777362 0.054128 0.495247
O O3 0.771023 0.837611 0.572484
O O4 0.936233 0.928040 0.389214
O O5 0.699579 0.714980 0.791365
O O6 0.544903 0.844746 0.634006
O O7 0.689758 0.948100 0.789324
O O8 0.654766 0.596684 0.369587
O O9 0.518211 0.694784 0.177423
O O10 0.154725 0.324255 0.755964
O O11 0.144974 0.420695 0.009312
O O12 0.373559 0.931741 0.784263
O O13 0.368189 0.773789 0.984543
O O14 0.997200 0.426366 0.615647
#
# Coordination Sequence:
#
# PCOD9346328 Si02
#       7
#     4   4   4   4   4   4   4
#     4  11  27  50  67 115 143 187 249 301 361 451
#     4  10  25  46  73 103 146 182 246 295 363 437
#     4  11  27  46  74 100 152 188 239 298 372 423
#     4  10  24  46  65 106 142 180 243 297 349 438
#     4  12  26  45  76 106 144 196 237 299 373 424
#     4  11  24  46  73 100 142 197 236 297 360 429
#     4  11  25  45  74 108 141 184 246 303 348 440
#
# _framework density 22.987393999999998
#
# number of rings (size 3 to 8) (size 9 to 14) (size 15 to 20)
#    0.000    1.143    4.286    1.714   12.000    2.286 
#    0.000    0.000    0.000    0.000    0.000    0.000 
#    0.000    0.000    0.000    0.000    0.000    0.000 
#
# Total GULP energy -156782.917759 kJ/mol
# GULP energy per Si atom -5599.389920 kJ/mol
# Density = 2.293507 g / cm^3
# Si number density = 22.987394 Si / 1000 Ang^3
#
#
#
# Elastic Constant Matrix: (Units=GPa)
#
#
# Indices 1 2 3 4 5 6 
#
# 1 92.8097 14.4306 45.4707 0.0000 0.0000 0.0000
# 2 14.4306 35.6049 -1.5893 0.0000 0.0000 0.0000
# 3 45.4707 -1.5893 112.2928 0.0000 0.0000 0.0000
# 4 0.0000 0.0000 0.0000 24.6933 0.0000 0.0000
# 5 0.0000 0.0000 0.0000 0.0000 55.3843 0.0000
# 6 0.0000 0.0000 0.0000 0.0000 0.0000 21.8192
#
#
#
# Elastic Compliance Matrix: (Units=1/GPa)
#
#
# Indices 1 2 3 4 5 6 
#
# 1 0.014703 -0.006229 -0.006042 0.000000 0.000000 0.000000
# 2 -0.006229 0.030743 0.002957 0.000000 0.000000 0.000000
# 3 -0.006042 0.002957 0.011394 0.000000 0.000000 0.000000
# 4 0.000000 0.000000 0.000000 0.040497 0.000000 0.000000
# 5 0.000000 0.000000 0.000000 0.000000 0.018056 0.000000
# 6 0.000000 0.000000 0.000000 0.000000 0.000000 0.045831
#
#
# Mechanical properties :
#
#
# Convention : Reuss Voigt Hill
#
# Bulk Modulus (GPa) = 26.16939 39.70350 32.93644
# Shear Modulus (GPa) = 25.96213 32.53905 29.25059
#
# Velocity S-wave (km/s) = 3.36431 3.76642 3.57103
# Velocity P-wave (km/s) = 5.14785 6.01863 5.60019
#
# Compressibility (1/GPa) = 0.03821259
#
# Stress axis : x y z
#
# Youngs Moduli (GPa) = 68.01119 32.52814 87.76746
#
# Poissons Ratio (x) = 0.20262 0.53029
# Poissons Ratio (y) = 0.42364 -0.25956
# Poissons Ratio (z) = 0.41093 -0.09620
#
# Static dielectric constant tensor:
#      x y z
#    x 1.846750 0.000000 0.000000 
#    y 0.000000 1.860280 0.000000 
#    z 0.000000 0.000000 1.843080 
# 
# From -- ./inp_files/3861.got.cif
#   From: 2010.05.17/outbox.cif.g08.bks.cpg/sg33_2_cif.got.tgz:3861.got - 2010.06.03 17:15:25.
