data_PCOD9346762
_publ_section_title
;
Structure prediction by ZEFSAII (Michael W. Deem and Ramdas Pophale) SiO2 
 PCOD9346762
Probable space group: P N A 21
;
_chemical_formula_sum "Si O2"
_cell_formula_units_Z 32
_cell_length_a 14.014219
_cell_length_b 4.867765
_cell_length_c 18.274233
_cell_angle_alpha 90.000000
_cell_angle_beta 90.000000
_cell_angle_gamma 90.000000
_cell_volume 1246.630252
_symmetry_space_group_name_H-M "P N A 21"
_symmetry_group_IT_number 33
_symmetry_cell_setting 'orthorhombic'
loop_
_space_group_symop_operation_xyz
x,y,z
-x,-y,1/2+z
1/2-x,1/2+y,1/2+z
1/2+x,1/2-y,z
loop_
_atom_site_type_symbol
_atom_site_label
_atom_site_fract_x
_atom_site_fract_y
_atom_site_fract_z
Si Si1 0.737182 0.342024 0.692320
Si Si2 0.116935 0.647732 0.930806
Si Si3 0.004605 0.929459 0.802583
Si Si4 0.380701 0.057596 0.823747
Si Si5 0.668285 0.484633 0.066125
Si Si6 0.889426 0.359356 0.173685
Si Si7 0.512044 0.780878 0.531613
Si Si8 0.694426 0.653063 0.462567
O O1 0.805812 0.382883 0.760282
O O2 0.791913 0.185583 0.627247
O O3 0.695692 0.635176 0.668970
O O4 0.651410 0.132978 0.711099
O O5 0.224525 0.532243 0.924239
O O6 0.082157 0.823561 0.861690
O O7 0.125268 0.841476 0.000085
O O8 0.039606 0.426297 0.962184
O O9 0.910314 0.757962 0.823064
O O10 0.037469 0.805495 0.725272
O O11 0.972268 0.244375 0.808003
O O12 0.336923 0.132090 0.901421
O O13 0.574765 0.312637 0.084246
O O14 0.746428 0.297023 0.027063
O O15 0.927707 0.444632 0.093433
O O16 0.591861 0.569081 0.498438
#
# Coordination Sequence:
#
# PCOD9346762 Si02
#       8
#     4   4   4   4   4   4   4   4
#     4  12  27  48  74 112 147 201 248 310 378 447
#     4  11  26  42  75 105 148 192 256 303 376 447
#     4  12  27  48  74 111 148 201 247 310 379 446
#     4  12  27  47  76 106 154 192 252 309 375 448
#     4  11  26  42  75 104 148 194 252 308 369 454
#     4  12  27  47  76 105 155 194 249 309 377 448
#     4  11  24  46  70 109 145 195 247 313 374 444
#     4  11  24  46  70 108 145 197 245 314 372 444
#
# _framework density 25.669198999999999
#
# number of rings (size 3 to 8) (size 9 to 14) (size 15 to 20)
#    0.000    0.500    2.500    4.500   10.500    1.000 
#    0.000    0.000    0.000    0.000    0.000    0.000 
#    0.000    0.000    0.000    0.000    0.000    0.000 
#
# Total GULP energy -179067.093841 kJ/mol
# GULP energy per Si atom -5595.846683 kJ/mol
# Density = 2.561077 g / cm^3
# Si number density = 25.669199 Si / 1000 Ang^3
#
#
#
# Elastic Constant Matrix: (Units=GPa)
#
#
# Indices 1 2 3 4 5 6 
#
# 1 144.2007 14.4389 20.2083 0.0000 0.0000 0.0000
# 2 14.4389 69.0685 -10.0105 0.0000 0.0000 0.0000
# 3 20.2083 -10.0105 112.2731 0.0000 0.0000 0.0000
# 4 0.0000 0.0000 0.0000 -18.7112 0.0000 0.0000
# 5 0.0000 0.0000 0.0000 0.0000 87.1246 0.0000
# 6 0.0000 0.0000 0.0000 0.0000 0.0000 1.5559
#
#
#
# Elastic Compliance Matrix: (Units=1/GPa)
#
#
# Indices 1 2 3 4 5 6 
#
# 1 0.007316 -0.001743 -0.001472 0.000000 0.000000 0.000000
# 2 -0.001743 0.015083 0.001659 0.000000 0.000000 0.000000
# 3 -0.001472 0.001659 0.009320 0.000000 0.000000 0.000000
# 4 0.000000 0.000000 0.000000 -0.053444 0.000000 0.000000
# 5 0.000000 0.000000 0.000000 0.000000 0.011478 0.000000
# 6 0.000000 0.000000 0.000000 0.000000 0.000000 0.642696
#
#
# Mechanical properties :
#
#
# Convention : Reuss Voigt Hill
#
# Bulk Modulus (GPa) = 34.95806 41.64620 38.30213
# Shear Modulus (GPa) = 7.75078 34.05423 20.90250
#
# Velocity S-wave (km/s) = 1.73955 3.64628 2.85670
# Velocity P-wave (km/s) = 4.20511 5.82980 5.08279
#
# Compressibility (1/GPa) = 0.02860570
#
# Stress axis : x y z
#
# Youngs Moduli (GPa) = 136.69452 66.29949 107.29957
#
# Poissons Ratio (x) = 0.11554 0.15796
# Poissons Ratio (y) = 0.23822 -0.17796
# Poissons Ratio (z) = 0.20123 -0.10996
#
# Static dielectric constant tensor:
#      x y z
#    x 1.592170 0.000000 0.000000 
#    y 0.000000 2.412960 0.000000 
#    z 0.000000 0.000000 1.947480 
# 
# From -- ./inp_files/8803.got.cif
#   From: 2010.05.17/outbox.cif.g08.bks.cpg/sg33_5_cif.got.tgz:8803.got - 2010.06.03 17:15:25.
