data_PCOD9346929
_publ_section_title
;
Structure prediction by ZEFSAII (Michael W. Deem and Ramdas Pophale) SiO2 
 PCOD9346929
Probable space group: P N A 21
;
_chemical_formula_sum "Si O2"
_cell_formula_units_Z 32
_cell_length_a 9.879138
_cell_length_b 11.343255
_cell_length_c 13.757137
_cell_angle_alpha 90.000000
_cell_angle_beta 90.000000
_cell_angle_gamma 90.000000
_cell_volume 1541.646529
_symmetry_space_group_name_H-M "P N A 21"
_symmetry_group_IT_number 33
_symmetry_cell_setting 'orthorhombic'
loop_
_space_group_symop_operation_xyz
x,y,z
-x,-y,1/2+z
1/2-x,1/2+y,1/2+z
1/2+x,1/2-y,z
loop_
_atom_site_type_symbol
_atom_site_label
_atom_site_fract_x
_atom_site_fract_y
_atom_site_fract_z
Si Si1 0.546015 0.514280 0.965660
Si Si2 0.904954 0.487534 0.269599
Si Si3 0.841250 0.389215 0.683901
Si Si4 0.589352 0.524403 0.753584
Si Si5 0.278152 0.991821 0.478578
Si Si6 0.612372 0.258793 0.023335
Si Si7 0.139088 0.734094 0.645439
Si Si8 0.342324 0.390720 0.667157
O O1 0.590544 0.568574 0.863714
O O2 0.382851 0.518044 0.977384
O O3 0.591868 0.377139 0.962926
O O4 0.618736 0.573764 0.057278
O O5 0.850697 0.473502 0.378602
O O6 0.908754 0.357824 0.224845
O O7 0.803023 0.565503 0.203521
O O8 0.047840 0.550464 0.253134
O O9 0.698291 0.424737 0.729855
O O10 0.840849 0.447318 0.575271
O O11 0.857885 0.249168 0.678567
O O12 0.620309 0.632954 0.682215
O O13 0.446063 0.464714 0.733127
O O14 0.306053 0.851262 0.481224
O O15 0.706091 0.290696 0.116404
O O16 0.463719 0.217787 0.055804
#
# Coordination Sequence:
#
# PCOD9346929 Si02
#       8
#     4   4   4   4   4   4   4   4
#     4  12  26  44  73 103 135 193 232 278 351 419
#     4  12  27  43  71 107 135 181 234 286 348 409
#     4  12  27  47  66 103 150 178 225 298 343 408
#     4  12  25  47  70 102 141 186 231 279 356 412
#     4  12  26  46  68 105 141 182 233 293 346 404
#     4  12  22  44  71  96 140 177 236 285 339 404
#     4  12  22  46  70 100 136 181 229 294 339 402
#     4  12  25  47  67 102 140 188 228 277 352 422
#
# _framework density 20.757028999999999
#
# number of rings (size 3 to 8) (size 9 to 14) (size 15 to 20)
#    0.000    0.000    8.750    0.750    5.250    2.000 
#    0.000    0.000    0.000    0.000    0.000    0.000 
#    0.000    0.000    0.000    0.000    0.000    0.000 
#
# Total GULP energy -178940.847268 kJ/mol
# GULP energy per Si atom -5591.901477 kJ/mol
# Density = 2.070978 g / cm^3
# Si number density = 20.757029 Si / 1000 Ang^3
#
#
#
# Elastic Constant Matrix: (Units=GPa)
#
#
# Indices 1 2 3 4 5 6 
#
# 1 42.9448 -7.4063 -4.3820 0.0000 0.0000 0.0000
# 2 -7.4063 71.2998 -19.1879 0.0000 0.0000 0.0000
# 3 -4.3820 -19.1879 56.5670 0.0000 0.0000 0.0000
# 4 0.0000 0.0000 0.0000 15.4935 0.0000 0.0000
# 5 0.0000 0.0000 0.0000 0.0000 27.9867 0.0000
# 6 0.0000 0.0000 0.0000 0.0000 0.0000 22.3593
#
#
#
# Elastic Compliance Matrix: (Units=1/GPa)
#
#
# Indices 1 2 3 4 5 6 
#
# 1 0.024163 0.003317 0.002997 0.000000 0.000000 0.000000
# 2 0.003317 0.015889 0.005647 0.000000 0.000000 0.000000
# 3 0.002997 0.005647 0.019826 0.000000 0.000000 0.000000
# 4 0.000000 0.000000 0.000000 0.064543 0.000000 0.000000
# 5 0.000000 0.000000 0.000000 0.000000 0.035731 0.000000
# 6 0.000000 0.000000 0.000000 0.000000 0.000000 0.044724
#
#
# Mechanical properties :
#
#
# Convention : Reuss Voigt Hill
#
# Bulk Modulus (GPa) = 11.93335 12.09543 12.01439
# Shear Modulus (GPa) = 23.93607 26.62044 25.27825
#
# Velocity S-wave (km/s) = 3.39950 3.58506 3.49351
# Velocity P-wave (km/s) = 4.60112 4.79339 4.69824
#
# Compressibility (1/GPa) = 0.08379879
#
# Stress axis : x y z
#
# Youngs Moduli (GPa) = 41.38479 62.93493 50.43950
#
# Poissons Ratio (x) = -0.20872 -0.15116
# Poissons Ratio (y) = -0.13725 -0.28482
# Poissons Ratio (z) = -0.12402 -0.35538
#
# Static dielectric constant tensor:
#      x y z
#    x 1.722110 0.000000 0.000000 
#    y 0.000000 1.726000 0.000000 
#    z 0.000000 0.000000 1.767550 
# 
# From -- ./inp_files/7666.got.cif
#   From: 2010.05.17/outbox.cif.g08.bks.cpg/sg33_4_cif.got.tgz:7666.got - 2010.06.03 17:15:25.
