data_PCOD9346083
_publ_section_title
;
Structure prediction by ZEFSAII (Michael W. Deem and Ramdas Pophale) SiO2 
 PCOD9346083
Probable space group: P N A 21
;
_chemical_formula_sum "Si O2"
_cell_formula_units_Z 28
_cell_length_a 12.924112
_cell_length_b 17.434439
_cell_length_c 5.270632
_cell_angle_alpha 90.000000
_cell_angle_beta 90.000000
_cell_angle_gamma 90.000000
_cell_volume 1187.603270
_symmetry_space_group_name_H-M "P N A 21"
_symmetry_group_IT_number 33
_symmetry_cell_setting 'orthorhombic'
loop_
_space_group_symop_operation_xyz
x,y,z
-x,-y,1/2+z
1/2-x,1/2+y,1/2+z
1/2+x,1/2-y,z
loop_
_atom_site_type_symbol
_atom_site_label
_atom_site_fract_x
_atom_site_fract_y
_atom_site_fract_z
Si Si1 0.288998 0.327960 0.418040
Si Si2 0.178664 0.580546 0.777794
Si Si3 0.034183 0.828295 0.260855
Si Si4 0.458272 0.532724 0.491215
Si Si5 0.268163 0.992517 0.792430
Si Si6 0.641192 0.299197 0.375809
Si Si7 0.954425 0.280842 0.134131
O O1 0.360554 0.359423 0.643244
O O2 0.237482 0.400176 0.279840
O O3 0.211773 0.263425 0.519520
O O4 0.369656 0.279224 0.247530
O O5 0.174120 0.521644 0.544480
O O6 0.280367 0.637440 0.762181
O O7 0.081967 0.637851 0.737376
O O8 0.190024 0.535192 0.042370
O O9 0.051943 0.739631 0.335549
O O10 0.995473 0.879747 0.492344
O O11 0.941263 0.835844 0.064184
O O12 0.465745 0.504026 0.778274
O O13 0.348924 0.519121 0.357181
O O14 0.570757 0.243865 0.201390
#
# Coordination Sequence:
#
# PCOD9346083 Si02
#       7
#     4   4   4   4   4   4   4
#     4  10  24  41  65  95 136 169 226 272 343 396
#     4  11  26  43  69  96 136 175 226 270 340 398
#     4  11  22  37  67  95 133 173 223 279 335 402
#     4  12  23  36  61  99 138 168 211 270 350 405
#     4  12  24  43  64 100 135 177 215 280 334 403
#     4  10  23  43  64  98 124 182 219 279 326 403
#     4  10  24  43  66  95 130 178 224 280 322 401
#
# _framework density 23.576896999999999
#
# number of rings (size 3 to 8) (size 9 to 14) (size 15 to 20)
#    0.000    1.143    2.857    2.571   10.000    1.143 
#    0.000    1.429    0.000    0.000    0.000    0.000 
#    0.000    0.000    0.000    0.000    0.000    0.000 
#
# Total GULP energy -156333.057043 kJ/mol
# GULP energy per Si atom -5583.323466 kJ/mol
# Density = 2.352323 g / cm^3
# Si number density = 23.576897 Si / 1000 Ang^3
#
#
#
# Elastic Constant Matrix: (Units=GPa)
#
#
# Indices 1 2 3 4 5 6 
#
# 1 22.5028 -1.2073 5.5452 0.0000 0.0000 0.0000
# 2 -1.2073 85.8818 14.6413 0.0000 0.0000 0.0000
# 3 5.5452 14.6413 77.2136 0.0000 0.0000 0.0000
# 4 0.0000 0.0000 0.0000 44.8052 0.0000 0.0000
# 5 0.0000 0.0000 0.0000 0.0000 14.1486 0.0000
# 6 0.0000 0.0000 0.0000 0.0000 0.0000 23.3963
#
#
#
# Elastic Compliance Matrix: (Units=1/GPa)
#
#
# Indices 1 2 3 4 5 6 
#
# 1 0.045366 0.001233 -0.003492 0.000000 0.000000 0.000000
# 2 0.001233 0.012066 -0.002377 0.000000 0.000000 0.000000
# 3 -0.003492 -0.002377 0.013653 0.000000 0.000000 0.000000
# 4 0.000000 0.000000 0.000000 0.022319 0.000000 0.000000
# 5 0.000000 0.000000 0.000000 0.000000 0.070678 0.000000
# 6 0.000000 0.000000 0.000000 0.000000 0.000000 0.042742
#
#
# Mechanical properties :
#
#
# Convention : Reuss Voigt Hill
#
# Bulk Modulus (GPa) = 16.17763 24.83962 20.50863
# Shear Modulus (GPa) = 21.12389 27.57795 24.35092
#
# Velocity S-wave (km/s) = 2.99650 3.42380 3.21725
# Velocity P-wave (km/s) = 4.34149 5.11745 4.74536
#
# Compressibility (1/GPa) = 0.06181374
#
# Stress axis : x y z
#
# Youngs Moduli (GPa) = 22.04315 82.87465 73.24665
#
# Poissons Ratio (x) = -0.10218 0.25576
# Poissons Ratio (y) = -0.02718 0.17408
# Poissons Ratio (z) = 0.07697 0.19696
#
# Static dielectric constant tensor:
#      x y z
#    x 1.909570 0.000000 0.000000 
#    y 0.000000 1.957890 0.000000 
#    z 0.000000 0.000000 1.969730 
# 
# From -- ./inp_files/949.got.cif
#   From: 2010.05.17/outbox.cif.g08.bks.cpg/sg33_1_cif.got.tgz:949.got - 2010.06.03 17:15:25.
