data_PCOD9346334
_publ_section_title
;
Structure prediction by ZEFSAII (Michael W. Deem and Ramdas Pophale) SiO2 
 PCOD9346334
Probable space group: P N A 21
;
_chemical_formula_sum "Si O2"
_cell_formula_units_Z 28
_cell_length_a 21.839457
_cell_length_b 9.023091
_cell_length_c 5.276691
_cell_angle_alpha 90.000000
_cell_angle_beta 90.000000
_cell_angle_gamma 90.000000
_cell_volume 1039.821604
_symmetry_space_group_name_H-M "P N A 21"
_symmetry_group_IT_number 33
_symmetry_cell_setting 'orthorhombic'
loop_
_space_group_symop_operation_xyz
x,y,z
-x,-y,1/2+z
1/2-x,1/2+y,1/2+z
1/2+x,1/2-y,z
loop_
_atom_site_type_symbol
_atom_site_label
_atom_site_fract_x
_atom_site_fract_y
_atom_site_fract_z
Si Si1 0.527559 0.429462 0.651950
Si Si2 0.631174 0.243444 0.078960
Si Si3 0.744167 0.059081 0.279076
Si Si4 0.147174 0.973279 0.386179
Si Si5 0.471576 0.874066 0.907913
Si Si6 0.895921 0.486103 0.256989
Si Si7 0.180616 0.719008 0.118367
O O1 0.490673 0.507287 0.422908
O O2 0.597620 0.469530 0.586948
O O3 0.519042 0.254319 0.616648
O O4 0.645781 0.411546 0.152053
O O5 0.562902 0.214232 0.186092
O O6 0.685027 0.157144 0.221812
O O7 0.630270 0.150630 0.818868
O O8 0.718353 0.891535 0.301429
O O9 0.777682 0.150920 0.498735
O O10 0.789754 0.043582 0.039369
O O11 0.131482 0.811468 0.279079
O O12 0.537166 0.946887 0.871987
O O13 0.419600 0.997034 0.971462
O O14 0.849264 0.372562 0.386267
#
# Coordination Sequence:
#
# PCOD9346334 Si02
#       7
#     4   4   4   4   4   4   4
#     4  11  28  49  77 115 160 207 264 328 399 472
#     4  10  24  46  69 109 142 202 254 322 401 460
#     4  11  25  48  70 111 146 203 257 327 388 483
#     4  11  26  46  75 109 152 200 256 329 391 479
#     4  11  24  44  77 106 151 200 256 325 395 477
#     4  11  24  45  74 107 147 197 255 324 388 481
#     4  11  27  46  78 109 152 201 266 325 404 480
#
# _framework density 26.927692
#
# number of rings (size 3 to 8) (size 9 to 14) (size 15 to 20)
#    0.000    1.143    2.857    0.857   10.000    5.714 
#    0.000    0.000    0.000    0.000    0.000    0.000 
#    0.000    0.000    0.000    0.000    0.000    0.000 
#
# Total GULP energy -156611.038333 kJ/mol
# GULP energy per Si atom -5593.251369 kJ/mol
# Density = 2.686640 g / cm^3
# Si number density = 26.927692 Si / 1000 Ang^3
#
#
#
# Elastic Constant Matrix: (Units=GPa)
#
#
# Indices 1 2 3 4 5 6 
#
# 1 117.7659 45.4662 24.2419 0.0000 0.0000 0.0000
# 2 45.4662 178.2571 32.4016 0.0000 0.0000 0.0000
# 3 24.2419 32.4016 50.8438 0.0000 0.0000 0.0000
# 4 0.0000 0.0000 0.0000 30.9349 0.0000 0.0000
# 5 0.0000 0.0000 0.0000 0.0000 39.8206 0.0000
# 6 0.0000 0.0000 0.0000 0.0000 0.0000 45.8164
#
#
#
# Elastic Compliance Matrix: (Units=1/GPa)
#
#
# Indices 1 2 3 4 5 6 
#
# 1 0.009951 -0.001895 -0.003537 0.000000 0.000000 0.000000
# 2 -0.001895 0.006706 -0.003370 0.000000 0.000000 0.000000
# 3 -0.003537 -0.003370 0.023502 0.000000 0.000000 0.000000
# 4 0.000000 0.000000 0.000000 0.032326 0.000000 0.000000
# 5 0.000000 0.000000 0.000000 0.000000 0.025113 0.000000
# 6 0.000000 0.000000 0.000000 0.000000 0.000000 0.021826
#
#
# Mechanical properties :
#
#
# Convention : Reuss Voigt Hill
#
# Bulk Modulus (GPa) = 44.33586 61.23179 52.78382
# Shear Modulus (GPa) = 34.59107 39.63152 37.11129
#
# Velocity S-wave (km/s) = 3.58801 3.84053 3.71642
# Velocity P-wave (km/s) = 5.80221 6.51575 6.16930
#
# Compressibility (1/GPa) = 0.02255511
#
# Stress axis : x y z
#
# Youngs Moduli (GPa) = 100.49060 149.12447 42.54967
#
# Poissons Ratio (x) = 0.28263 0.15049
# Poissons Ratio (y) = 0.19046 0.14338
# Poissons Ratio (z) = 0.35542 0.50252
#
# Static dielectric constant tensor:
#      x y z
#    x 2.089750 0.000000 0.000000 
#    y 0.000000 2.113590 0.000000 
#    z 0.000000 0.000000 2.247440 
# 
# From -- ./inp_files/2235.got.cif
#   From: 2010.05.17/outbox.cif.g08.bks.cpg/sg33_2_cif.got.tgz:2235.got - 2010.06.03 17:15:25.
