data_PCOD9346971
_publ_section_title
;
Structure prediction by ZEFSAII (Michael W. Deem and Ramdas Pophale) SiO2 
 PCOD9346971
Probable space group: P N A 21
;
_chemical_formula_sum "Si O2"
_cell_formula_units_Z 28
_cell_length_a 9.086113
_cell_length_b 22.870479
_cell_length_c 4.768802
_cell_angle_alpha 90.000000
_cell_angle_beta 90.000000
_cell_angle_gamma 90.000000
_cell_volume 990.974970
_symmetry_space_group_name_H-M "P N A 21"
_symmetry_group_IT_number 33
_symmetry_cell_setting 'orthorhombic'
loop_
_space_group_symop_operation_xyz
x,y,z
-x,-y,1/2+z
1/2-x,1/2+y,1/2+z
1/2+x,1/2-y,z
loop_
_atom_site_type_symbol
_atom_site_label
_atom_site_fract_x
_atom_site_fract_y
_atom_site_fract_z
Si Si1 0.310797 0.516582 0.753910
Si Si2 0.922414 0.526627 0.650866
Si Si3 0.308316 0.307062 0.512402
Si Si4 0.466131 0.844644 0.402870
Si Si5 0.921467 0.769813 0.753829
Si Si6 0.208354 0.125778 0.874657
Si Si7 0.945024 0.083237 0.460108
O O1 0.225866 0.504228 0.041756
O O2 0.251253 0.572516 0.585314
O O3 0.325481 0.452482 0.628938
O O4 0.480245 0.537766 0.757340
O O5 0.934162 0.594652 0.569734
O O6 0.960461 0.511849 0.969382
O O7 0.183833 0.329648 0.727421
O O8 0.230531 0.254588 0.363156
O O9 0.475666 0.282738 0.526151
O O10 0.355007 0.363539 0.329471
O O11 0.485455 0.786652 0.592264
O O12 0.629615 0.854165 0.262751
O O13 0.874567 0.824549 0.560209
O O14 0.084454 0.104849 0.649733
#
# Coordination Sequence:
#
# PCOD9346971 Si02
#       7
#     4   4   4   4   4   4   4
#     4  12  25  47  80 117 162 212 273 352 421 526
#     4  12  28  50  81 126 169 217 278 350 434 511
#     4  12  30  50  80 114 158 214 275 347 423 510
#     4  12  29  50  83 117 164 218 280 357 423 517
#     4  12  30  52  78 115 162 212 288 344 425 512
#     4  12  27  52  79 116 162 217 271 351 425 515
#     4  12  27  47  81 115 157 214 271 341 435 507
#
# _framework density 28.255004
#
# number of rings (size 3 to 8) (size 9 to 14) (size 15 to 20)
#    0.000    0.000    7.143    0.857    8.000    2.286 
#    0.000    0.000    0.000    0.000    0.000    0.000 
#    0.000    0.000    0.000    0.000    0.000    0.000 
#
# Total GULP energy -156446.980088 kJ/mol
# GULP energy per Si atom -5587.392146 kJ/mol
# Density = 2.819069 g / cm^3
# Si number density = 28.255004 Si / 1000 Ang^3
#
#
#
# Elastic Constant Matrix: (Units=GPa)
#
#
# Indices 1 2 3 4 5 6 
#
# 1 210.2780 77.5211 43.8000 0.0000 0.0000 0.0000
# 2 77.5211 158.5712 36.0348 0.0000 0.0000 0.0000
# 3 43.8000 36.0348 42.0323 0.0000 0.0000 0.0000
# 4 0.0000 0.0000 0.0000 -17.1077 0.0000 0.0000
# 5 0.0000 0.0000 0.0000 0.0000 52.2155 0.0000
# 6 0.0000 0.0000 0.0000 0.0000 0.0000 61.5657
#
#
#
# Elastic Compliance Matrix: (Units=1/GPa)
#
#
# Indices 1 2 3 4 5 6 
#
# 1 0.006574 -0.002058 -0.005086 0.000000 0.000000 0.000000
# 2 -0.002058 0.008476 -0.005122 0.000000 0.000000 0.000000
# 3 -0.005086 -0.005122 0.033483 0.000000 0.000000 0.000000
# 4 0.000000 0.000000 0.000000 -0.058453 0.000000 0.000000
# 5 0.000000 0.000000 0.000000 0.000000 0.019151 0.000000
# 6 0.000000 0.000000 0.000000 0.000000 0.000000 0.016243
#
#
# Mechanical properties :
#
#
# Convention : Reuss Voigt Hill
#
# Bulk Modulus (GPa) = 41.66641 80.62148 61.14394
# Shear Modulus (GPa) = 86.19771 36.23640 61.21706
#
# Velocity S-wave (km/s) = 5.52931 3.58505 4.65972
# Velocity P-wave (km/s) = 7.45271 6.76257 7.11601
#
# Compressibility (1/GPa) = 0.02400015
#
# Stress axis : x y z
#
# Youngs Moduli (GPa) = 152.12279 117.97388 29.86633
#
# Poissons Ratio (x) = 0.24278 0.15189
# Poissons Ratio (y) = 0.31306 0.15299
# Poissons Ratio (z) = 0.77367 0.60432
#
# Static dielectric constant tensor:
#      x y z
#    x 2.478080 0.000000 0.000000 
#    y 0.000000 2.136480 0.000000 
#    z 0.000000 0.000000 2.292180 
# 
# From -- ./inp_files/492.got.cif
#   From: 2010.05.17/outbox.cif.g08.bks.cpg/sg33_1_cif.got.tgz:492.got - 2010.06.03 17:15:25.
