data_PCOD9346981
_publ_section_title
;
Structure prediction by ZEFSAII (Michael W. Deem and Ramdas Pophale) SiO2 
 PCOD9346981
Probable space group: P N A 21
;
_chemical_formula_sum "Si O2"
_cell_formula_units_Z 24
_cell_length_a 10.639721
_cell_length_b 12.142343
_cell_length_c 7.533060
_cell_angle_alpha 90.000000
_cell_angle_beta 90.000000
_cell_angle_gamma 90.000000
_cell_volume 973.204623
_symmetry_space_group_name_H-M "P N A 21"
_symmetry_group_IT_number 33
_symmetry_cell_setting 'orthorhombic'
loop_
_space_group_symop_operation_xyz
x,y,z
-x,-y,1/2+z
1/2-x,1/2+y,1/2+z
1/2+x,1/2-y,z
loop_
_atom_site_type_symbol
_atom_site_label
_atom_site_fract_x
_atom_site_fract_y
_atom_site_fract_z
Si Si1 0.633362 0.730468 0.179220
Si Si2 0.144206 0.953861 0.476138
Si Si3 0.108396 0.388200 0.183017
Si Si4 0.623399 0.333541 0.533513
Si Si5 0.637437 0.927457 0.460281
Si Si6 0.608070 0.371072 0.157643
O O1 0.648315 0.616898 0.282858
O O2 0.615604 0.829424 0.318792
O O3 0.508348 0.722736 0.060888
O O4 0.755343 0.761040 0.063200
O O5 0.284428 0.916616 0.541062
O O6 0.019240 0.893015 0.556821
O O7 0.136662 0.056954 0.648360
O O8 0.128978 0.456833 0.360879
O O9 0.114708 0.257184 0.211204
O O10 0.972611 0.418672 0.105079
O O11 0.620462 0.420005 0.360469
O O12 0.770447 0.905839 0.551869
#
# Coordination Sequence:
#
# PCOD9346981 Si02
#       6
#     4   4   4   4   4   4
#     4  12  25  52  77 114 157 198 265 322 382 465
#     4  12  26  52  78 109 156 204 256 318 391 454
#     4  12  27  48  79 109 153 203 254 319 393 453
#     4  12  30  46  80 115 150 209 260 317 393 464
#     4  12  28  48  78 113 155 203 258 322 389 458
#     4  12  28  50  76 112 157 203 259 322 384 464
#
# _framework density 24.660795
#
# number of rings (size 3 to 8) (size 9 to 14) (size 15 to 20)
#    0.000    0.000    5.000    3.000   11.667    1.333 
#    0.000    0.000    0.000    0.000    0.000    0.000 
#    0.000    0.000    0.000    0.000    0.000    0.000 
#
# Total GULP energy -134164.510813 kJ/mol
# GULP energy per Si atom -5590.187951 kJ/mol
# Density = 2.460467 g / cm^3
# Si number density = 24.660795 Si / 1000 Ang^3
#
#
#
# Elastic Constant Matrix: (Units=GPa)
#
#
# Indices 1 2 3 4 5 6 
#
# 1 164.6639 73.9380 50.3772 0.0000 0.0000 0.0000
# 2 73.9380 199.5651 68.4339 0.0000 0.0000 0.0000
# 3 50.3772 68.4339 110.0164 0.0000 0.0000 0.0000
# 4 0.0000 0.0000 0.0000 53.5788 0.0000 0.0000
# 5 0.0000 0.0000 0.0000 0.0000 45.9736 0.0000
# 6 0.0000 0.0000 0.0000 0.0000 0.0000 32.0486
#
#
#
# Elastic Compliance Matrix: (Units=1/GPa)
#
#
# Indices 1 2 3 4 5 6 
#
# 1 0.007690 -0.002087 -0.002223 0.000000 0.000000 0.000000
# 2 -0.002087 0.006936 -0.003359 0.000000 0.000000 0.000000
# 3 -0.002223 -0.003359 0.012197 0.000000 0.000000 0.000000
# 4 0.000000 0.000000 0.000000 0.018664 0.000000 0.000000
# 5 0.000000 0.000000 0.000000 0.000000 0.021752 0.000000
# 6 0.000000 0.000000 0.000000 0.000000 0.000000 0.031203
#
#
# Mechanical properties :
#
#
# Convention : Reuss Voigt Hill
#
# Bulk Modulus (GPa) = 87.06895 95.52706 91.29801
# Shear Modulus (GPa) = 42.51436 45.08663 43.80050
#
# Velocity S-wave (km/s) = 4.15657 4.28047 4.21897
# Velocity P-wave (km/s) = 7.64326 7.95301 7.79967
#
# Compressibility (1/GPa) = 0.01148515
#
# Stress axis : x y z
#
# Youngs Moduli (GPa) = 130.03579 144.17947 81.98803
#
# Poissons Ratio (x) = 0.30087 0.18229
# Poissons Ratio (y) = 0.27135 0.27538
# Poissons Ratio (z) = 0.28912 0.48426
#
# Static dielectric constant tensor:
#      x y z
#    x 1.857730 0.000000 0.000000 
#    y 0.000000 2.067640 0.000000 
#    z 0.000000 0.000000 2.306410 
# 
# From -- ./inp_files/3060.got.cif
#   From: 2010.05.17/outbox.cif.g08.bks.cpg/sg33_2_cif.got.tgz:3060.got - 2010.06.03 17:15:25.
