data_PCOD9346434
_publ_section_title
;
Structure prediction by ZEFSAII (Michael W. Deem and Ramdas Pophale) SiO2 
 PCOD9346434
Probable space group: P N A 21
;
_chemical_formula_sum "Si O2"
_cell_formula_units_Z 12
_cell_length_a 9.684262
_cell_length_b 5.259080
_cell_length_c 8.967410
_cell_angle_alpha 90.000000
_cell_angle_beta 90.000000
_cell_angle_gamma 90.000000
_cell_volume 456.712959
_symmetry_space_group_name_H-M "P N A 21"
_symmetry_group_IT_number 33
_symmetry_cell_setting 'orthorhombic'
loop_
_space_group_symop_operation_xyz
x,y,z
-x,-y,1/2+z
1/2-x,1/2+y,1/2+z
1/2+x,1/2-y,z
loop_
_atom_site_type_symbol
_atom_site_label
_atom_site_fract_x
_atom_site_fract_y
_atom_site_fract_z
Si Si1 0.892710 0.275660 0.018300
Si Si2 0.540493 0.727798 0.954619
Si Si3 0.300296 0.872338 0.787329
O O1 0.777902 0.188957 0.136228
O O2 0.973239 0.543444 0.048759
O O3 0.823375 0.342990 0.854758
O O4 0.001641 0.050138 0.006929
O O5 0.450390 0.752077 0.803604
O O6 0.699793 0.749073 0.914923
#
# Coordination Sequence:
#
# PCOD9346434 Si02
#       3
#     4   4   4
#     4  10  26  42  72 100 144 182 246 290 369 420
#     4  10  26  40  72 100 138 187 232 301 350 442
#     4  10  26  46  70 104 142 189 238 301 361 436
#
# _framework density 26.274705000000001
#
# number of rings (size 3 to 8) (size 9 to 14) (size 15 to 20)
#    2.000    0.000    0.000    0.000   14.000    0.000 
#    0.000    0.000    0.000    0.000    0.000    0.000 
#    0.000    0.000    0.000    0.000    0.000    0.000 
#
# Total GULP energy -66976.451280 kJ/mol
# GULP energy per Si atom -5581.370940 kJ/mol
# Density = 2.621490 g / cm^3
# Si number density = 26.274705 Si / 1000 Ang^3
#
#
#
# Elastic Constant Matrix: (Units=GPa)
#
#
# Indices 1 2 3 4 5 6 
#
# 1 98.9073 28.6817 6.2057 0.0000 0.0000 0.0000
# 2 28.6817 174.1550 58.9489 0.0000 0.0000 0.0000
# 3 6.2057 58.9489 100.1984 0.0000 0.0000 0.0000
# 4 0.0000 0.0000 0.0000 44.0553 0.0000 0.0000
# 5 0.0000 0.0000 0.0000 0.0000 36.9830 0.0000
# 6 0.0000 0.0000 0.0000 0.0000 0.0000 20.3468
#
#
#
# Elastic Compliance Matrix: (Units=1/GPa)
#
#
# Indices 1 2 3 4 5 6 
#
# 1 0.010635 -0.001909 0.000464 0.000000 0.000000 0.000000
# 2 -0.001909 0.007512 -0.004301 0.000000 0.000000 0.000000
# 3 0.000464 -0.004301 0.012482 0.000000 0.000000 0.000000
# 4 0.000000 0.000000 0.000000 0.022699 0.000000 0.000000
# 5 0.000000 0.000000 0.000000 0.000000 0.027039 0.000000
# 6 0.000000 0.000000 0.000000 0.000000 0.000000 0.049148
#
#
# Mechanical properties :
#
#
# Convention : Reuss Voigt Hill
#
# Bulk Modulus (GPa) = 52.25328 62.32593 57.28960
# Shear Modulus (GPa) = 33.92452 38.90533 36.41492
#
# Velocity S-wave (km/s) = 3.59715 3.85218 3.72685
# Velocity P-wave (km/s) = 6.09780 6.59986 6.35379
#
# Compressibility (1/GPa) = 0.01913755
#
# Stress axis : x y z
#
# Youngs Moduli (GPa) = 94.03082 133.11477 80.11481
#
# Poissons Ratio (x) = 0.25406 -0.03719
# Poissons Ratio (y) = 0.17947 0.34461
# Poissons Ratio (z) = -0.04365 0.57259
#
# Static dielectric constant tensor:
#      x y z
#    x 1.981780 0.000000 0.000000 
#    y 0.000000 2.030660 0.000000 
#    z 0.000000 0.000000 2.236260 
# 
# From -- ./inp_files/3604.got.cif
#   From: 2010.05.17/outbox.cif.g08.bks.cpg/sg33_2_cif.got.tgz:3604.got - 2010.06.03 17:15:25.
