data_PCOD9346270
_publ_section_title
;
Structure prediction by ZEFSAII (Michael W. Deem and Ramdas Pophale) SiO2 
 PCOD9346270
Probable space group: P N A 21
;
_chemical_formula_sum "Si O2"
_cell_formula_units_Z 28
_cell_length_a 8.918683
_cell_length_b 11.876151
_cell_length_c 12.224974
_cell_angle_alpha 90.000000
_cell_angle_beta 90.000000
_cell_angle_gamma 90.000000
_cell_volume 1294.864674
_symmetry_space_group_name_H-M "P N A 21"
_symmetry_group_IT_number 33
_symmetry_cell_setting 'orthorhombic'
loop_
_space_group_symop_operation_xyz
x,y,z
-x,-y,1/2+z
1/2-x,1/2+y,1/2+z
1/2+x,1/2-y,z
loop_
_atom_site_type_symbol
_atom_site_label
_atom_site_fract_x
_atom_site_fract_y
_atom_site_fract_z
Si Si1 0.994502 0.325011 0.387170
Si Si2 0.822120 0.105375 0.982522
Si Si3 0.150007 0.198874 0.984684
Si Si4 0.773414 0.483437 0.819763
Si Si5 0.690189 0.891259 0.675513
Si Si6 0.548896 0.428263 0.312829
Si Si7 0.914990 0.454345 0.603199
O O1 0.875538 0.348215 0.290177
O O2 0.936630 0.360257 0.508557
O O3 0.125313 0.414536 0.362574
O O4 0.045661 0.197472 0.363985
O O5 0.718743 0.038458 0.067967
O O6 0.697599 0.186213 0.925875
O O7 0.975927 0.175472 0.005490
O O8 0.886027 0.010109 0.903807
O O9 0.224131 0.098551 0.916922
O O10 0.243957 0.205639 0.097535
O O11 0.617985 0.537425 0.780958
O O12 0.863049 0.417809 0.724484
O O13 0.844896 0.949856 0.709030
O O14 0.565890 0.970480 0.619647
#
# Coordination Sequence:
#
# PCOD9346270 Si02
#       7
#     4   4   4   4   4   4   4
#     4  11  23  43  71 103 139 181 230 290 354 416
#     4  11  25  44  70  98 141 176 241 287 350 414
#     4  11  24  42  67 100 132 185 231 291 341 414
#     4  10  24  43  66  98 138 180 238 284 349 415
#     4  11  23  40  71 100 139 176 238 283 350 412
#     4  11  24  44  70 105 138 186 232 296 347 421
#     4  11  23  44  69 100 139 182 230 293 349 418
#
# _framework density 21.623882999999999
#
# number of rings (size 3 to 8) (size 9 to 14) (size 15 to 20)
#    0.000    1.143    2.857    2.571    8.000    0.000 
#    0.000    7.143    0.000    0.000    0.000    0.000 
#    0.000    0.000    0.000    0.000    0.000    0.000 
#
# Total GULP energy -156168.229723 kJ/mol
# GULP energy per Si atom -5577.436776 kJ/mol
# Density = 2.157467 g / cm^3
# Si number density = 21.623883 Si / 1000 Ang^3
#
#
#
# Elastic Constant Matrix: (Units=GPa)
#
#
# Indices 1 2 3 4 5 6 
#
# 1 114.7255 20.2844 53.1107 0.0000 0.0000 0.0000
# 2 20.2844 55.1964 17.7130 0.0000 0.0000 0.0000
# 3 53.1107 17.7130 69.1513 0.0000 0.0000 0.0000
# 4 0.0000 0.0000 0.0000 7.3088 0.0000 0.0000
# 5 0.0000 0.0000 0.0000 0.0000 28.9721 0.0000
# 6 0.0000 0.0000 0.0000 0.0000 0.0000 23.1426
#
#
#
# Elastic Compliance Matrix: (Units=1/GPa)
#
#
# Indices 1 2 3 4 5 6 
#
# 1 0.013689 -0.001805 -0.010051 0.000000 0.000000 0.000000
# 2 -0.001805 0.019978 -0.003731 0.000000 0.000000 0.000000
# 3 -0.010051 -0.003731 0.023136 0.000000 0.000000 0.000000
# 4 0.000000 0.000000 0.000000 0.136821 0.000000 0.000000
# 5 0.000000 0.000000 0.000000 0.000000 0.034516 0.000000
# 6 0.000000 0.000000 0.000000 0.000000 0.000000 0.043210
#
#
# Mechanical properties :
#
#
# Convention : Reuss Voigt Hill
#
# Bulk Modulus (GPa) = 39.01883 46.80994 42.91438
# Shear Modulus (GPa) = 16.07372 21.74904 18.91138
#
# Velocity S-wave (km/s) = 2.72937 3.17486 2.96050
# Velocity P-wave (km/s) = 5.29302 5.92739 5.61917
#
# Compressibility (1/GPa) = 0.02562865
#
# Stress axis : x y z
#
# Youngs Moduli (GPa) = 73.05374 50.05570 43.22236
#
# Poissons Ratio (x) = 0.09035 0.43442
# Poissons Ratio (y) = 0.13187 0.16126
# Poissons Ratio (z) = 0.73426 0.18675
#
# Static dielectric constant tensor:
#      x y z
#    x 1.816430 0.000000 0.000000 
#    y 0.000000 1.821940 0.000000 
#    z 0.000000 0.000000 1.903370 
# 
# From -- ./inp_files/5876.got.cif
#   From: 2010.05.17/outbox.cif.g08.bks.cpg/sg33_3_cif.got.tgz:5876.got - 2010.06.03 17:15:25.
