data_PCOD9346854
_publ_section_title
;
Structure prediction by ZEFSAII (Michael W. Deem and Ramdas Pophale) SiO2 
 PCOD9346854
Probable space group: P N A 21
;
_chemical_formula_sum "Si O2"
_cell_formula_units_Z 20
_cell_length_a 8.047543
_cell_length_b 4.793142
_cell_length_c 18.021307
_cell_angle_alpha 90.000000
_cell_angle_beta 90.000000
_cell_angle_gamma 90.000000
_cell_volume 695.136170
_symmetry_space_group_name_H-M "P N A 21"
_symmetry_group_IT_number 33
_symmetry_cell_setting 'orthorhombic'
loop_
_space_group_symop_operation_xyz
x,y,z
-x,-y,1/2+z
1/2-x,1/2+y,1/2+z
1/2+x,1/2-y,z
loop_
_atom_site_type_symbol
_atom_site_label
_atom_site_fract_x
_atom_site_fract_y
_atom_site_fract_z
Si Si1 0.704134 0.460087 0.239310
Si Si2 0.946733 0.132562 0.034543
Si Si3 0.326638 0.043127 0.633407
Si Si4 0.981935 0.581228 0.831801
Si Si5 0.687098 0.343546 0.920893
O O1 0.716110 0.163013 0.200244
O O2 0.571763 0.397489 0.306546
O O3 0.892676 0.515716 0.265806
O O4 0.642473 0.669060 0.175982
O O5 0.838540 0.924649 0.083839
O O6 0.043745 0.361249 0.084453
O O7 0.812965 0.295752 0.986998
O O8 0.049767 0.985403 0.967904
O O9 0.798153 0.467834 0.854618
O O10 0.097991 0.443362 0.895908
#
# Coordination Sequence:
#
# PCOD9346854 Si02
#       5
#     4   4   4   4   4
#     4  12  28  48  78 117 167 220 270 338 417 508
#     4   9  21  46  80 117 162 214 279 347 416 493
#     4  11  25  47  77 116 162 215 276 342 416 499
#     4  11  25  46  81 120 167 217 277 342 423 504
#     4   9  21  49  82 120 162 216 274 347 420 494
#
# _framework density 28.771339000000001
#
# number of rings (size 3 to 8) (size 9 to 14) (size 15 to 20)
#    0.000    1.600    0.000    2.400    0.000   14.400 
#    0.000   32.000    0.000    0.000    0.000    0.000 
#    0.000    0.000    0.000    0.000    0.000    0.000 
#
# Total GULP energy -111651.474223 kJ/mol
# GULP energy per Si atom -5582.573711 kJ/mol
# Density = 2.870585 g / cm^3
# Si number density = 28.771339 Si / 1000 Ang^3
#
#
#
# Elastic Constant Matrix: (Units=GPa)
#
#
# Indices 1 2 3 4 5 6 
#
# 1 153.6132 52.5379 84.2253 0.0000 0.0000 0.0000
# 2 52.5379 147.4486 65.5114 0.0000 0.0000 0.0000
# 3 84.2253 65.5114 168.0853 0.0000 0.0000 0.0000
# 4 0.0000 0.0000 0.0000 41.6047 0.0000 0.0000
# 5 0.0000 0.0000 0.0000 0.0000 83.1319 0.0000
# 6 0.0000 0.0000 0.0000 0.0000 0.0000 31.5586
#
#
#
# Elastic Compliance Matrix: (Units=1/GPa)
#
#
# Indices 1 2 3 4 5 6 
#
# 1 0.009240 -0.001494 -0.004048 0.000000 0.000000 0.000000
# 2 -0.001494 0.008444 -0.002542 0.000000 0.000000 0.000000
# 3 -0.004048 -0.002542 0.008969 0.000000 0.000000 0.000000
# 4 0.000000 0.000000 0.000000 0.024036 0.000000 0.000000
# 5 0.000000 0.000000 0.000000 0.000000 0.012029 0.000000
# 6 0.000000 0.000000 0.000000 0.000000 0.000000 0.031687
#
#
# Mechanical properties :
#
#
# Convention : Reuss Voigt Hill
#
# Bulk Modulus (GPa) = 95.38113 97.07736 96.22924
# Shear Modulus (GPa) = 43.83349 49.05054 46.44201
#
# Velocity S-wave (km/s) = 3.90745 4.13345 4.02204
# Velocity P-wave (km/s) = 7.31990 7.52295 7.42212
#
# Compressibility (1/GPa) = 0.01048425
#
# Stress axis : x y z
#
# Youngs Moduli (GPa) = 108.22224 118.42809 111.49988
#
# Poissons Ratio (x) = 0.17693 0.45134
# Poissons Ratio (y) = 0.16168 0.28348
# Poissons Ratio (z) = 0.43807 0.30110
#
# Static dielectric constant tensor:
#      x y z
#    x 2.384980 0.000000 0.000000 
#    y 0.000000 2.210710 0.000000 
#    z 0.000000 0.000000 2.344590 
# 
# From -- ./inp_files/8418.got.cif
#   From: 2010.05.17/outbox.cif.g08.bks.cpg/sg33_5_cif.got.tgz:8418.got - 2010.06.03 17:15:25.
