data_PCOD9346597
_publ_section_title
;
Structure prediction by ZEFSAII (Michael W. Deem and Ramdas Pophale) SiO2 
 PCOD9346597
Probable space group: P N A 21
;
_chemical_formula_sum "Si O2"
_cell_formula_units_Z 28
_cell_length_a 22.975716
_cell_length_b 8.873339
_cell_length_c 4.905478
_cell_angle_alpha 90.000000
_cell_angle_beta 90.000000
_cell_angle_gamma 90.000000
_cell_volume 1000.086260
_symmetry_space_group_name_H-M "P N A 21"
_symmetry_group_IT_number 33
_symmetry_cell_setting 'orthorhombic'
loop_
_space_group_symop_operation_xyz
x,y,z
-x,-y,1/2+z
1/2-x,1/2+y,1/2+z
1/2+x,1/2-y,z
loop_
_atom_site_type_symbol
_atom_site_label
_atom_site_fract_x
_atom_site_fract_y
_atom_site_fract_z
Si Si1 0.368956 0.684660 0.135010
Si Si2 0.209238 0.008455 0.818441
Si Si3 0.943994 0.317876 0.062485
Si Si4 0.042474 0.988715 0.306115
Si Si5 0.947048 0.629183 0.869357
Si Si6 0.138962 0.465669 0.906206
Si Si7 0.241420 0.660396 0.840229
O O1 0.358463 0.552163 0.362916
O O2 0.329179 0.831652 0.239252
O O3 0.407662 0.606758 0.893798
O O4 0.424082 0.812829 0.162166
O O5 0.202769 0.104287 0.523339
O O6 0.225393 0.834847 0.811472
O O7 0.246424 0.093046 0.044418
O O8 0.893455 0.400912 0.234860
O O9 0.997806 0.284037 0.258702
O O10 0.966652 0.455137 0.879033
O O11 0.929392 0.175102 0.880177
O O12 0.987324 0.001150 0.513876
O O13 0.891019 0.607700 0.671781
O O14 0.193949 0.567241 0.009325
#
# Coordination Sequence:
#
# PCOD9346597 Si02
#       7
#     4   4   4   4   4   4   4
#     4  11  26  46  71 108 147 202 252 314 381 454
#     4  12  28  52  81 112 153 196 258 322 390 465
#     4  11  23  41  66 102 141 196 245 304 365 449
#     4  12  27  43  67 102 148 193 249 306 372 444
#     4  11  23  42  71 102 147 197 253 309 370 462
#     4  11  25  44  74 103 150 193 254 305 388 445
#     4  12  28  52  80 117 150 199 255 324 394 463
#
# _framework density 27.997585000000001
#
# number of rings (size 3 to 8) (size 9 to 14) (size 15 to 20)
#    0.000    0.571    2.857    4.286   12.000    0.000 
#    2.571    0.000    0.000    0.000    0.000    0.000 
#    0.000    0.000    0.000    0.000    0.000    0.000 
#
# Total GULP energy -156080.303374 kJ/mol
# GULP energy per Si atom -5574.296549 kJ/mol
# Density = 2.793386 g / cm^3
# Si number density = 27.997585 Si / 1000 Ang^3
#
#
#
# Elastic Constant Matrix: (Units=GPa)
#
#
# Indices 1 2 3 4 5 6 
#
# 1 89.0229 38.1468 14.7854 0.0000 0.0000 0.0000
# 2 38.1468 199.6869 44.4178 0.0000 0.0000 0.0000
# 3 14.7854 44.4178 95.4788 0.0000 0.0000 0.0000
# 4 0.0000 0.0000 0.0000 26.1830 0.0000 0.0000
# 5 0.0000 0.0000 0.0000 0.0000 36.3363 0.0000
# 6 0.0000 0.0000 0.0000 0.0000 0.0000 39.2333
#
#
#
# Elastic Compliance Matrix: (Units=1/GPa)
#
#
# Indices 1 2 3 4 5 6 
#
# 1 0.012304 -0.002149 -0.000906 0.000000 0.000000 0.000000
# 2 -0.002149 0.005961 -0.002440 0.000000 0.000000 0.000000
# 3 -0.000906 -0.002440 0.011749 0.000000 0.000000 0.000000
# 4 0.000000 0.000000 0.000000 0.038193 0.000000 0.000000
# 5 0.000000 0.000000 0.000000 0.000000 0.027521 0.000000
# 6 0.000000 0.000000 0.000000 0.000000 0.000000 0.025489
#
#
# Mechanical properties :
#
#
# Convention : Reuss Voigt Hill
#
# Bulk Modulus (GPa) = 52.56405 64.32095 58.44250
# Shear Modulus (GPa) = 36.08846 39.47309 37.78077
#
# Velocity S-wave (km/s) = 3.59414 3.75890 3.67744
# Velocity P-wave (km/s) = 6.00325 6.47014 6.24107
#
# Compressibility (1/GPa) = 0.01902441
#
# Stress axis : x y z
#
# Youngs Moduli (GPa) = 81.27188 167.75060 85.11299
#
# Poissons Ratio (x) = 0.36051 0.07708
# Poissons Ratio (y) = 0.17466 0.20771
# Poissons Ratio (z) = 0.07360 0.40938
#
# Static dielectric constant tensor:
#      x y z
#    x 3.124080 0.000000 0.000000 
#    y 0.000000 3.574010 0.000000 
#    z 0.000000 0.000000 2.603410 
# 
# From -- ./inp_files/2253.got.cif
#   From: 2010.05.17/outbox.cif.g08.bks.cpg/sg33_2_cif.got.tgz:2253.got - 2010.06.03 17:15:25.
