data_PCOD9346242
_publ_section_title
;
Structure prediction by ZEFSAII (Michael W. Deem and Ramdas Pophale) SiO2 
 PCOD9346242
Probable space group: P N A 21
;
_chemical_formula_sum "Si O2"
_cell_formula_units_Z 28
_cell_length_a 8.890554
_cell_length_b 5.126736
_cell_length_c 27.101256
_cell_angle_alpha 90.000000
_cell_angle_beta 90.000000
_cell_angle_gamma 90.000000
_cell_volume 1235.262328
_symmetry_space_group_name_H-M "P N A 21"
_symmetry_group_IT_number 33
_symmetry_cell_setting 'orthorhombic'
loop_
_space_group_symop_operation_xyz
x,y,z
-x,-y,1/2+z
1/2-x,1/2+y,1/2+z
1/2+x,1/2-y,z
loop_
_atom_site_type_symbol
_atom_site_label
_atom_site_fract_x
_atom_site_fract_y
_atom_site_fract_z
Si Si1 0.747486 0.422216 0.838510
Si Si2 0.753180 0.043174 0.752048
Si Si3 0.188501 0.947413 0.137410
Si Si4 0.476525 0.954723 0.598309
Si Si5 0.751631 0.403874 0.949072
Si Si6 0.510554 0.782096 0.802847
Si Si7 0.423022 0.074367 0.484446
O O1 0.710661 0.290223 0.785829
O O2 0.728641 0.308847 0.892470
O O3 0.634602 0.665629 0.838681
O O4 0.920793 0.496333 0.831410
O O5 0.808905 0.054014 0.696832
O O6 0.600266 0.878377 0.755047
O O7 0.883231 0.912902 0.784799
O O8 0.355748 0.005829 0.118422
O O9 0.135287 0.659281 0.123748
O O10 0.080861 0.164678 0.112253
O O11 0.471813 0.044118 0.541411
O O12 0.645718 0.647149 0.966825
O O13 0.924185 0.496163 0.955434
O O14 0.705446 0.147200 0.979070
#
# Coordination Sequence:
#
# PCOD9346242 Si02
#       7
#     4   4   4   4   4   4   4
#     4  11  25  42  69 100 143 181 233 284 348 425
#     4  11  25  42  69 100 143 181 233 284 348 425
#     4  12  28  45  78 106 145 190 240 291 372 424
#     4  12  26  49  74 106 142 186 243 303 358 427
#     4  12  28  45  78 106 145 190 240 291 372 424
#     4  10  24  42  66  94 146 176 230 278 346 402
#     4  12  26  49  74 106 142 186 243 303 358 427
#
# _framework density 22.667247
#
# number of rings (size 3 to 8) (size 9 to 14) (size 15 to 20)
#    0.000    0.571    0.000    6.857   16.000    0.000 
#    0.000    0.000    0.000    0.000    0.000    0.000 
#    0.000    0.000    0.000    0.000    0.000    0.000 
#
# Total GULP energy -156425.810472 kJ/mol
# GULP energy per Si atom -5586.636088 kJ/mol
# Density = 2.261566 g / cm^3
# Si number density = 22.667247 Si / 1000 Ang^3
#
#
#
# Elastic Constant Matrix: (Units=GPa)
#
#
# Indices 1 2 3 4 5 6 
#
# 1 88.0386 -3.6968 -23.8901 0.0000 0.0000 0.0000
# 2 -3.6968 62.5669 -14.3863 0.0000 0.0000 0.0000
# 3 -23.8901 -14.3863 117.8159 0.0000 0.0000 0.0000
# 4 0.0000 0.0000 0.0000 22.2988 0.0000 0.0000
# 5 0.0000 0.0000 0.0000 0.0000 32.6319 0.0000
# 6 0.0000 0.0000 0.0000 0.0000 0.0000 170.2550
#
#
#
# Elastic Compliance Matrix: (Units=1/GPa)
#
#
# Indices 1 2 3 4 5 6 
#
# 1 0.012125 0.001319 0.002620 0.000000 0.000000 0.000000
# 2 0.001319 0.016588 0.002293 0.000000 0.000000 0.000000
# 3 0.002620 0.002293 0.009299 0.000000 0.000000 0.000000
# 4 0.000000 0.000000 0.000000 0.044845 0.000000 0.000000
# 5 0.000000 0.000000 0.000000 0.000000 0.030645 0.000000
# 6 0.000000 0.000000 0.000000 0.000000 0.000000 0.005874
#
#
# Mechanical properties :
#
#
# Convention : Reuss Voigt Hill
#
# Bulk Modulus (GPa) = 19.81192 20.49722 20.15457
# Shear Modulus (GPa) = 40.40798 65.73012 53.06905
#
# Velocity S-wave (km/s) = 4.22674 5.39081 4.84387
# Velocity P-wave (km/s) = 5.70786 6.91448 6.33994
#
# Compressibility (1/GPa) = 0.05047467
#
# Stress axis : x y z
#
# Youngs Moduli (GPa) = 82.47491 60.28442 107.53834
#
# Poissons Ratio (x) = -0.07950 -0.28171
# Poissons Ratio (y) = -0.10876 -0.24658
# Poissons Ratio (z) = -0.21606 -0.13823
#
# Static dielectric constant tensor:
#      x y z
#    x 1.806350 0.000000 0.000000 
#    y 0.000000 2.195870 0.000000 
#    z 0.000000 0.000000 1.887350 
# 
# From -- ./inp_files/9245.got.cif
#   From: 2010.05.17/outbox.cif.g08.bks.cpg/sg33_5_cif.got.tgz:9245.got - 2010.06.03 17:15:25.
