data_PCOD9346961
_publ_section_title
;
Structure prediction by ZEFSAII (Michael W. Deem and Ramdas Pophale) SiO2 
 PCOD9346961
Probable space group: P N A 21
;
_chemical_formula_sum "Si O2"
_cell_formula_units_Z 28
_cell_length_a 9.864653
_cell_length_b 20.855812
_cell_length_c 5.642982
_cell_angle_alpha 90.000000
_cell_angle_beta 90.000000
_cell_angle_gamma 90.000000
_cell_volume 1160.960868
_symmetry_space_group_name_H-M "P N A 21"
_symmetry_group_IT_number 33
_symmetry_cell_setting 'orthorhombic'
loop_
_space_group_symop_operation_xyz
x,y,z
-x,-y,1/2+z
1/2-x,1/2+y,1/2+z
1/2+x,1/2-y,z
loop_
_atom_site_type_symbol
_atom_site_label
_atom_site_fract_x
_atom_site_fract_y
_atom_site_fract_z
Si Si1 0.358119 0.515032 0.840920
Si Si2 0.931282 0.519167 0.438260
Si Si3 0.362631 0.261643 0.541855
Si Si4 0.490014 0.839517 0.388464
Si Si5 0.890799 0.756541 0.744387
Si Si6 0.220045 0.118413 0.010260
Si Si7 0.994102 0.106675 0.667708
O O1 0.216613 0.511772 0.979231
O O2 0.311871 0.546826 0.594596
O O3 0.419331 0.444582 0.832619
O O4 0.470376 0.563505 0.940950
O O5 0.998698 0.513231 0.702877
O O6 0.916728 0.592731 0.342574
O O7 0.430434 0.204799 0.696532
O O8 0.206073 0.260152 0.466175
O O9 0.450542 0.257661 0.302444
O O10 0.404733 0.330314 0.644719
O O11 0.386137 0.794918 0.533782
O O12 0.622399 0.866967 0.523340
O O13 0.847310 0.827028 0.670653
O O14 0.141640 0.126914 0.764263
#
# Coordination Sequence:
#
# PCOD9346961 Si02
#       7
#     4   4   4   4   4   4   4
#     4  12  27  46  75 110 152 206 262 326 398 489
#     4  12  30  51  79 116 160 214 270 332 408 494
#     4  12  28  46  76 115 149 203 263 331 408 484
#     4  12  28  48  78 111 159 204 266 335 407 487
#     4  12  27  46  78 109 154 198 260 330 404 485
#     4  12  24  50  73 106 150 203 249 322 404 477
#     4  12  26  47  77 109 154 198 262 330 405 484
#
# _framework density 24.117954999999998
#
# number of rings (size 3 to 8) (size 9 to 14) (size 15 to 20)
#    0.000    0.000    7.143    1.714    6.000    2.286 
#    0.000    0.000    0.000    0.000    0.000    0.000 
#    0.000    0.000    0.000    0.000    0.000    0.000 
#
# Total GULP energy -156272.787901 kJ/mol
# GULP energy per Si atom -5581.170996 kJ/mol
# Density = 2.406306 g / cm^3
# Si number density = 24.117955 Si / 1000 Ang^3
#
#
#
# Elastic Constant Matrix: (Units=GPa)
#
#
# Indices 1 2 3 4 5 6 
#
# 1 88.1333 6.0561 5.2880 0.0000 0.0000 0.0000
# 2 6.0561 111.1427 5.1087 0.0000 0.0000 0.0000
# 3 5.2880 5.1087 46.5934 0.0000 0.0000 0.0000
# 4 0.0000 0.0000 0.0000 34.1973 0.0000 0.0000
# 5 0.0000 0.0000 0.0000 0.0000 37.7977 0.0000
# 6 0.0000 0.0000 0.0000 0.0000 0.0000 -10.4972
#
#
#
# Elastic Compliance Matrix: (Units=1/GPa)
#
#
# Indices 1 2 3 4 5 6 
#
# 1 0.011460 -0.000568 -0.001238 0.000000 0.000000 0.000000
# 2 -0.000568 0.009071 -0.000930 0.000000 0.000000 0.000000
# 3 -0.001238 -0.000930 0.021705 0.000000 0.000000 0.000000
# 4 0.000000 0.000000 0.000000 0.029242 0.000000 0.000000
# 5 0.000000 0.000000 0.000000 0.000000 0.026457 0.000000
# 6 0.000000 0.000000 0.000000 0.000000 0.000000 -0.095264
#
#
# Mechanical properties :
#
#
# Convention : Reuss Voigt Hill
#
# Bulk Modulus (GPa) = 27.20088 30.97501 29.08795
# Shear Modulus (GPa) = 245.12873 27.59400 136.36136
#
# Velocity S-wave (km/s) = 10.09248 3.38616 7.52742
# Velocity P-wave (km/s) = 12.12904 5.30652 9.36143
#
# Compressibility (1/GPa) = 0.03676352
#
# Stress axis : x y z
#
# Youngs Moduli (GPa) = 87.26196 110.23991 46.07270
#
# Poissons Ratio (x) = 0.06256 0.05706
# Poissons Ratio (y) = 0.04952 0.04286
# Poissons Ratio (z) = 0.10806 0.10254
#
# Static dielectric constant tensor:
#      x y z
#    x 1.931030 0.000000 0.000000 
#    y 0.000000 1.981250 0.000000 
#    z 0.000000 0.000000 2.060610 
# 
# From -- ./inp_files/491.got.cif
#   From: 2010.05.17/outbox.cif.g08.bks.cpg/sg33_1_cif.got.tgz:491.got - 2010.06.03 17:15:25.
