data_PCOD9346872
_publ_section_title
;
Structure prediction by ZEFSAII (Michael W. Deem and Ramdas Pophale) SiO2 
 PCOD9346872
Probable space group: P N A 21
;
_chemical_formula_sum "Si O2"
_cell_formula_units_Z 16
_cell_length_a 11.726938
_cell_length_b 6.399633
_cell_length_c 8.040490
_cell_angle_alpha 90.000000
_cell_angle_beta 90.000000
_cell_angle_gamma 90.000000
_cell_volume 603.423493
_symmetry_space_group_name_H-M "P N A 21"
_symmetry_group_IT_number 33
_symmetry_cell_setting 'orthorhombic'
loop_
_space_group_symop_operation_xyz
x,y,z
-x,-y,1/2+z
1/2-x,1/2+y,1/2+z
1/2+x,1/2-y,z
loop_
_atom_site_type_symbol
_atom_site_label
_atom_site_fract_x
_atom_site_fract_y
_atom_site_fract_z
Si Si1 0.377194 0.383049 0.329460
Si Si2 0.497431 0.956257 0.610668
Si Si3 0.746981 0.967753 0.003766
Si Si4 0.934928 0.198181 0.838624
O O1 0.454675 0.195871 0.252578
O O2 0.288070 0.265519 0.448633
O O3 0.316666 0.498266 0.173936
O O4 0.467842 0.543007 0.405311
O O5 0.580248 0.896412 0.460224
O O6 0.370586 0.912581 0.543004
O O7 0.483270 0.192007 0.674426
O O8 0.818163 0.071040 0.852805
#
# Coordination Sequence:
#
# PCOD9346872 Si02
#       4
#     4   4   4   4
#     4  11  26  51  77 118 159 210 261 335 390 497
#     4  11  25  48  76 114 156 206 257 327 392 475
#     4  11  26  48  80 111 156 212 263 325 408 458
#     4  11  27  49  77 117 159 200 269 325 394 484
#
# _framework density 26.515376
#
# number of rings (size 3 to 8) (size 9 to 14) (size 15 to 20)
#    0.000    1.000    2.500    1.500   10.500    2.000 
#    4.500    0.000    0.000    0.000    0.000    0.000 
#    0.000    0.000    0.000    0.000    0.000    0.000 
#
# Total GULP energy -89452.036196 kJ/mol
# GULP energy per Si atom -5590.752262 kJ/mol
# Density = 2.645503 g / cm^3
# Si number density = 26.515376 Si / 1000 Ang^3
#
#
#
# Elastic Constant Matrix: (Units=GPa)
#
#
# Indices 1 2 3 4 5 6 
#
# 1 122.6965 86.1656 21.4300 0.0000 0.0000 0.0000
# 2 86.1656 133.4708 65.5822 0.0000 0.0000 0.0000
# 3 21.4300 65.5822 75.5083 0.0000 0.0000 0.0000
# 4 0.0000 0.0000 0.0000 55.0037 0.0000 0.0000
# 5 0.0000 0.0000 0.0000 0.0000 53.5174 0.0000
# 6 0.0000 0.0000 0.0000 0.0000 0.0000 21.9973
#
#
#
# Elastic Compliance Matrix: (Units=1/GPa)
#
#
# Indices 1 2 3 4 5 6 
#
# 1 0.017553 -0.015498 0.008479 0.000000 0.000000 0.000000
# 2 -0.015498 0.026754 -0.018838 0.000000 0.000000 0.000000
# 3 0.008479 -0.018838 0.027199 0.000000 0.000000 0.000000
# 4 0.000000 0.000000 0.000000 0.018181 0.000000 0.000000
# 5 0.000000 0.000000 0.000000 0.000000 0.018686 0.000000
# 6 0.000000 0.000000 0.000000 0.000000 0.000000 0.045460
#
#
# Mechanical properties :
#
#
# Convention : Reuss Voigt Hill
#
# Bulk Modulus (GPa) = 50.52772 75.33678 62.93225
# Shear Modulus (GPa) = 23.56890 36.67020 30.11955
#
# Velocity S-wave (km/s) = 2.98464 3.72288 3.37401
# Velocity P-wave (km/s) = 5.56550 6.85229 6.24214
#
# Compressibility (1/GPa) = 0.01979112
#
# Stress axis : x y z
#
# Youngs Moduli (GPa) = 56.97032 37.37782 36.76596
#
# Poissons Ratio (x) = 0.57928 -0.31174
# Poissons Ratio (y) = 0.88293 0.69261
# Poissons Ratio (z) = -0.48305 0.70414
#
# Static dielectric constant tensor:
#      x y z
#    x 2.028950 0.000000 0.000000 
#    y 0.000000 2.032550 0.000000 
#    z 0.000000 0.000000 2.232140 
# 
# From -- ./inp_files/3612.got.cif
#   From: 2010.05.17/outbox.cif.g08.bks.cpg/sg33_2_cif.got.tgz:3612.got - 2010.06.03 17:15:25.
