data_PCOD9346221
_publ_section_title
;
Structure prediction by ZEFSAII (Michael W. Deem and Ramdas Pophale) SiO2 
 PCOD9346221
Probable space group: P N A 21
;
_chemical_formula_sum "Si O2"
_cell_formula_units_Z 28
_cell_length_a 23.688525
_cell_length_b 9.211208
_cell_length_c 4.819875
_cell_angle_alpha 90.000000
_cell_angle_beta 90.000000
_cell_angle_gamma 90.000000
_cell_volume 1051.696392
_symmetry_space_group_name_H-M "P N A 21"
_symmetry_group_IT_number 33
_symmetry_cell_setting 'orthorhombic'
loop_
_space_group_symop_operation_xyz
x,y,z
-x,-y,1/2+z
1/2-x,1/2+y,1/2+z
1/2+x,1/2-y,z
loop_
_atom_site_type_symbol
_atom_site_label
_atom_site_fract_x
_atom_site_fract_y
_atom_site_fract_z
Si Si1 0.308550 0.372728 0.820200
Si Si2 0.003865 0.090237 0.041896
Si Si3 0.774442 0.383355 0.226561
Si Si4 0.596320 0.969360 0.723309
Si Si5 0.920515 0.292329 0.702191
Si Si6 0.888885 0.735105 0.600554
Si Si7 0.823159 0.835017 0.091371
O O1 0.263527 0.473728 0.652007
O O2 0.360369 0.289428 0.678315
O O3 0.338340 0.501000 0.002123
O O4 0.280149 0.256060 0.028411
O O5 0.058326 0.165756 0.170779
O O6 0.963860 0.191542 0.860158
O O7 0.026705 0.982401 0.802130
O O8 0.837148 0.441065 0.272327
O O9 0.742707 0.331858 0.506458
O O10 0.585713 0.934311 0.402964
O O11 0.585239 0.115092 0.892869
O O12 0.562691 0.848404 0.901069
O O13 0.854880 0.720119 0.888545
O O14 0.842255 0.808252 0.400862
#
# Coordination Sequence:
#
# PCOD9346221 Si02
#       7
#     4   4   4   4   4   4   4
#     4   9  20  41  64  97 132 181 221 287 332 417
#     4  12  26  45  74  99 132 181 228 292 353 412
#     4   9  21  41  65  99 136 184 225 275 357 408
#     4  11  25  41  68  97 138 180 223 282 344 422
#     4  11  24  44  65 102 138 174 232 285 346 409
#     4  12  24  46  68 100 135 180 233 285 345 415
#     4  10  24  40  68  98 137 172 232 280 335 413
#
# _framework density 26.623653000000001
#
# number of rings (size 3 to 8) (size 9 to 14) (size 15 to 20)
#    0.857    0.571    0.000    5.143    0.000    8.000 
#    2.571    0.000    0.000    0.000    0.000    0.000 
#    0.000    0.000    0.000    0.000    0.000    0.000 
#
# Total GULP energy -156616.888449 kJ/mol
# GULP energy per Si atom -5593.460302 kJ/mol
# Density = 2.656306 g / cm^3
# Si number density = 26.623653 Si / 1000 Ang^3
#
#
#
# Elastic Constant Matrix: (Units=GPa)
#
#
# Indices 1 2 3 4 5 6 
#
# 1 73.4001 -13.2560 -5.6331 0.0000 0.0000 0.0000
# 2 -13.2560 100.4944 6.1504 0.0000 0.0000 0.0000
# 3 -5.6331 6.1504 98.3330 0.0000 0.0000 0.0000
# 4 0.0000 0.0000 0.0000 34.0670 0.0000 0.0000
# 5 0.0000 0.0000 0.0000 0.0000 27.3301 0.0000
# 6 0.0000 0.0000 0.0000 0.0000 0.0000 30.2059
#
#
#
# Elastic Compliance Matrix: (Units=1/GPa)
#
#
# Indices 1 2 3 4 5 6 
#
# 1 0.014003 0.001805 0.000689 0.000000 0.000000 0.000000
# 2 0.001805 0.010222 -0.000536 0.000000 0.000000 0.000000
# 3 0.000689 -0.000536 0.010243 0.000000 0.000000 0.000000
# 4 0.000000 0.000000 0.000000 0.029354 0.000000 0.000000
# 5 0.000000 0.000000 0.000000 0.000000 0.036590 0.000000
# 6 0.000000 0.000000 0.000000 0.000000 0.000000 0.033106
#
#
# Mechanical properties :
#
#
# Convention : Reuss Voigt Hill
#
# Bulk Modulus (GPa) = 26.05288 27.41671 26.73480
# Shear Modulus (GPa) = 35.11363 37.31833 36.21598
#
# Velocity S-wave (km/s) = 3.63559 3.74799 3.69222
# Velocity P-wave (km/s) = 5.23739 5.38982 5.31415
#
# Compressibility (1/GPa) = 0.03838347
#
# Stress axis : x y z
#
# Youngs Moduli (GPa) = 71.41417 97.83126 97.63215
#
# Poissons Ratio (x) = -0.17657 -0.06729
# Poissons Ratio (y) = -0.12889 0.05233
# Poissons Ratio (z) = -0.04922 0.05243
#
# Static dielectric constant tensor:
#      x y z
#    x 2.031880 0.000000 0.000000 
#    y 0.000000 2.243910 0.000000 
#    z 0.000000 0.000000 2.039800 
# 
# From -- ./inp_files/2446.got.cif
#   From: 2010.05.17/outbox.cif.g08.bks.cpg/sg33_2_cif.got.tgz:2446.got - 2010.06.03 17:15:25.
