data_PCOD9346021
_publ_section_title
;
Structure prediction by ZEFSAII (Michael W. Deem and Ramdas Pophale) SiO2 
 PCOD9346021
Probable space group: P N A 21
;
_chemical_formula_sum "Si O2"
_cell_formula_units_Z 32
_cell_length_a 22.449070
_cell_length_b 7.205409
_cell_length_c 8.336823
_cell_angle_alpha 90.000000
_cell_angle_beta 90.000000
_cell_angle_gamma 90.000000
_cell_volume 1348.520562
_symmetry_space_group_name_H-M "P N A 21"
_symmetry_group_IT_number 33
_symmetry_cell_setting 'orthorhombic'
loop_
_space_group_symop_operation_xyz
x,y,z
-x,-y,1/2+z
1/2-x,1/2+y,1/2+z
1/2+x,1/2-y,z
loop_
_atom_site_type_symbol
_atom_site_label
_atom_site_fract_x
_atom_site_fract_y
_atom_site_fract_z
Si Si1 0.701960 0.259298 0.308660
Si Si2 0.641785 0.085006 0.580165
Si Si3 0.670887 0.794927 0.936826
Si Si4 0.578121 0.113939 0.007622
Si Si5 0.548563 0.936328 0.354153
Si Si6 0.231684 0.689438 0.519413
Si Si7 0.150244 0.091999 0.834245
Si Si8 0.639875 0.633067 0.282959
O O1 0.670377 0.099562 0.402778
O O2 0.758567 0.321296 0.413701
O O3 0.728523 0.193204 0.142024
O O4 0.652048 0.415084 0.285239
O O5 0.642293 0.277276 0.677122
O O6 0.578472 0.008941 0.522449
O O7 0.694057 0.947235 0.639925
O O8 0.644071 0.630160 0.822072
O O9 0.663252 0.706227 0.113631
O O10 0.629165 0.974659 0.941277
O O11 0.562549 0.060242 0.193231
O O12 0.520350 0.080513 0.897756
O O13 0.604284 0.316845 0.962426
O O14 0.577309 0.733834 0.315845
O O15 0.282376 0.611088 0.401595
O O16 0.183414 0.799039 0.422480
#
# Coordination Sequence:
#
# PCOD9346021 Si02
#       8
#     4   4   4   4   4   4   4   4
#     4  12  21  38  61 100 136 166 216 271 331 403
#     4  11  24  40  63  98 136 175 220 272 335 404
#     4  11  24  43  66 102 136 176 224 271 341 410
#     4  11  24  47  73  93 134 177 225 294 336 402
#     4  10  24  47  70  95 129 178 232 282 348 399
#     4  11  21  37  63  94 132 173 213 266 334 397
#     4  12  23  43  65  99 136 176 222 273 335 407
#     4  10  23  41  65  95 133 173 220 273 334 406
#
# _framework density 23.729709
#
# number of rings (size 3 to 8) (size 9 to 14) (size 15 to 20)
#    0.000    1.000    2.500    4.500    1.750    3.000 
#    2.250    0.000    0.000    0.000    0.000    0.000 
#    0.000    0.000    0.000    0.000    0.000    0.000 
#
# Total GULP energy -178687.633503 kJ/mol
# GULP energy per Si atom -5583.988547 kJ/mol
# Density = 2.367570 g / cm^3
# Si number density = 23.729709 Si / 1000 Ang^3
#
#
#
# Elastic Constant Matrix: (Units=GPa)
#
#
# Indices 1 2 3 4 5 6 
#
# 1 113.3506 21.8152 22.7177 0.0000 0.0000 0.0000
# 2 21.8152 83.4838 16.2148 0.0000 0.0000 0.0000
# 3 22.7177 16.2148 70.3799 0.0000 0.0000 0.0000
# 4 0.0000 0.0000 0.0000 39.3700 0.0000 0.0000
# 5 0.0000 0.0000 0.0000 0.0000 38.0284 0.0000
# 6 0.0000 0.0000 0.0000 0.0000 0.0000 21.6727
#
#
#
# Elastic Compliance Matrix: (Units=1/GPa)
#
#
# Indices 1 2 3 4 5 6 
#
# 1 0.009749 -0.002027 -0.002680 0.000000 0.000000 0.000000
# 2 -0.002027 0.012961 -0.002332 0.000000 0.000000 0.000000
# 3 -0.002680 -0.002332 0.015611 0.000000 0.000000 0.000000
# 4 0.000000 0.000000 0.000000 0.025400 0.000000 0.000000
# 5 0.000000 0.000000 0.000000 0.000000 0.026296 0.000000
# 6 0.000000 0.000000 0.000000 0.000000 0.000000 0.046141
#
#
# Mechanical properties :
#
#
# Convention : Reuss Voigt Hill
#
# Bulk Modulus (GPa) = 41.24797 43.18999 42.21898
# Shear Modulus (GPa) = 31.58214 33.57865 32.58040
#
# Velocity S-wave (km/s) = 3.65212 3.76579 3.70939
# Velocity P-wave (km/s) = 5.93331 6.09496 6.01468
#
# Compressibility (1/GPa) = 0.02424362
#
# Stress axis : x y z
#
# Youngs Moduli (GPa) = 102.57003 77.15470 64.05794
#
# Poissons Ratio (x) = 0.15640 0.17167
# Poissons Ratio (y) = 0.20792 0.14937
# Poissons Ratio (z) = 0.27488 0.17991
#
# Static dielectric constant tensor:
#      x y z
#    x 1.912720 0.000000 0.000000 
#    y 0.000000 2.016850 0.000000 
#    z 0.000000 0.000000 2.068400 
# 
# From -- ./inp_files/5017.got.cif
#   From: 2010.05.17/outbox.cif.g08.bks.cpg/sg33_3_cif.got.tgz:5017.got - 2010.06.03 17:15:25.
