data_PCOD9346979
_publ_section_title
;
Structure prediction by ZEFSAII (Michael W. Deem and Ramdas Pophale) SiO2 
 PCOD9346979
Probable space group: P N A 21
;
_chemical_formula_sum "Si O2"
_cell_formula_units_Z 32
_cell_length_a 18.392375
_cell_length_b 5.939162
_cell_length_c 12.459623
_cell_angle_alpha 90.000000
_cell_angle_beta 90.000000
_cell_angle_gamma 90.000000
_cell_volume 1361.030590
_symmetry_space_group_name_H-M "P N A 21"
_symmetry_group_IT_number 33
_symmetry_cell_setting 'orthorhombic'
loop_
_space_group_symop_operation_xyz
x,y,z
-x,-y,1/2+z
1/2-x,1/2+y,1/2+z
1/2+x,1/2-y,z
loop_
_atom_site_type_symbol
_atom_site_label
_atom_site_fract_x
_atom_site_fract_y
_atom_site_fract_z
Si Si1 0.829845 0.672370 0.225990
Si Si2 0.938648 0.318187 0.774448
Si Si3 0.587207 0.446813 0.548750
Si Si4 0.680526 0.482697 0.179387
Si Si5 0.955241 0.349855 0.181603
Si Si6 0.172659 0.327664 0.377855
Si Si7 0.183316 0.084296 0.941702
Si Si8 0.028188 0.941884 0.886376
O O1 0.877855 0.853161 0.158937
O O2 0.750779 0.643579 0.175239
O O3 0.877443 0.451126 0.211995
O O4 0.818975 0.725499 0.350757
O O5 0.888421 0.488358 0.844072
O O6 0.984984 0.453252 0.685156
O O7 0.887217 0.133887 0.717401
O O8 0.995330 0.185784 0.851748
O O9 0.561686 0.698480 0.578541
O O10 0.645146 0.368744 0.458591
O O11 0.515547 0.353074 0.489224
O O12 0.694876 0.297068 0.269347
O O13 0.672050 0.359541 0.065880
O O14 0.983687 0.199285 0.279309
O O15 0.887314 0.060305 0.411938
O O16 0.240885 0.456654 0.427176
#
# Coordination Sequence:
#
# PCOD9346979 Si02
#       8
#     4   4   4   4   4   4   4   4
#     4  12  27  52  76 115 164 206 264 331 419 476
#     4  12  25  51  75 113 160 205 266 334 393 479
#     4  12  27  48  80 114 161 210 261 332 411 479
#     4  12  28  49  80 114 155 209 269 329 402 486
#     4  12  26  48  77 113 158 208 264 327 400 486
#     4  12  27  53  78 114 161 206 268 334 403 483
#     4  12  27  52  77 115 156 204 265 334 395 489
#     4  12  27  49  75 114 159 204 273 325 397 480
#
# _framework density 23.511596000000001
#
# number of rings (size 3 to 8) (size 9 to 14) (size 15 to 20)
#    0.000    0.000    7.500    0.750    7.000    1.000 
#    4.500    0.000    0.000    0.000    0.000    0.000 
#    0.000    0.000    0.000    0.000    0.000    0.000 
#
# Total GULP energy -178887.228968 kJ/mol
# GULP energy per Si atom -5590.225905 kJ/mol
# Density = 2.345808 g / cm^3
# Si number density = 23.511596 Si / 1000 Ang^3
#
#
#
# Elastic Constant Matrix: (Units=GPa)
#
#
# Indices 1 2 3 4 5 6 
#
# 1 102.0199 -2.0835 6.6624 0.0000 0.0000 0.0000
# 2 -2.0835 22.5053 33.3546 0.0000 0.0000 0.0000
# 3 6.6624 33.3546 153.4111 0.0000 0.0000 0.0000
# 4 0.0000 0.0000 0.0000 35.2475 0.0000 0.0000
# 5 0.0000 0.0000 0.0000 0.0000 27.6761 0.0000
# 6 0.0000 0.0000 0.0000 0.0000 0.0000 24.0178
#
#
#
# Elastic Compliance Matrix: (Units=1/GPa)
#
#
# Indices 1 2 3 4 5 6 
#
# 1 0.009910 0.002295 -0.000929 0.000000 0.000000 0.000000
# 2 0.002295 0.066091 -0.014469 0.000000 0.000000 0.000000
# 3 -0.000929 -0.014469 0.009705 0.000000 0.000000 0.000000
# 4 0.000000 0.000000 0.000000 0.028371 0.000000 0.000000
# 5 0.000000 0.000000 0.000000 0.000000 0.036132 0.000000
# 6 0.000000 0.000000 0.000000 0.000000 0.000000 0.041636
#
#
# Mechanical properties :
#
#
# Convention : Reuss Voigt Hill
#
# Bulk Modulus (GPa) = 16.80744 39.31149 28.05947
# Shear Modulus (GPa) = 21.01869 33.38847 27.20358
#
# Velocity S-wave (km/s) = 2.99318 3.77249 3.40520
# Velocity P-wave (km/s) = 4.37145 5.97762 5.23648
#
# Compressibility (1/GPa) = 0.05949744
#
# Stress axis : x y z
#
# Youngs Moduli (GPa) = 100.91266 15.13074 103.04340
#
# Poissons Ratio (x) = -0.03472 0.09575
# Poissons Ratio (y) = -0.23156 1.49094
# Poissons Ratio (z) = 0.09377 0.21893
#
# Static dielectric constant tensor:
#      x y z
#    x 1.880780 0.000000 0.000000 
#    y 0.000000 1.937450 0.000000 
#    z 0.000000 0.000000 1.880310 
# 
# From -- ./inp_files/7216.got.cif
#   From: 2010.05.17/outbox.cif.g08.bks.cpg/sg33_4_cif.got.tgz:7216.got - 2010.06.03 17:15:25.
