data_PCOD9346741
_publ_section_title
;
Structure prediction by ZEFSAII (Michael W. Deem and Ramdas Pophale) SiO2 
 PCOD9346741
Probable space group: P N A 21
;
_chemical_formula_sum "Si O2"
_cell_formula_units_Z 24
_cell_length_a 11.295245
_cell_length_b 5.201536
_cell_length_c 15.788117
_cell_angle_alpha 90.000000
_cell_angle_beta 90.000000
_cell_angle_gamma 90.000000
_cell_volume 927.593294
_symmetry_space_group_name_H-M "P N A 21"
_symmetry_group_IT_number 33
_symmetry_cell_setting 'orthorhombic'
loop_
_space_group_symop_operation_xyz
x,y,z
-x,-y,1/2+z
1/2-x,1/2+y,1/2+z
1/2+x,1/2-y,z
loop_
_atom_site_type_symbol
_atom_site_label
_atom_site_fract_x
_atom_site_fract_y
_atom_site_fract_z
Si Si1 0.994964 0.064715 0.043720
Si Si2 0.814795 0.737306 0.675813
Si Si3 0.813089 0.727841 0.118114
Si Si4 0.168357 0.545928 0.461237
Si Si5 0.386321 0.590179 0.359793
Si Si6 0.500615 0.901298 0.818051
O O1 0.091146 0.206304 0.100785
O O2 0.947919 0.814634 0.095081
O O3 0.879872 0.242129 0.026005
O O4 0.045738 0.053284 0.949011
O O5 0.749139 0.470425 0.659504
O O6 0.897479 0.698353 0.757296
O O7 0.725835 0.980686 0.672521
O O8 0.769199 0.663239 0.021707
O O9 0.255062 0.657879 0.390274
O O10 0.059821 0.424840 0.410520
O O11 0.397823 0.313847 0.316806
O O12 0.447494 0.813265 0.305348
#
# Coordination Sequence:
#
# PCOD9346741 Si02
#       6
#     4   4   4   4   4   4
#     4  11  24  44  74 107 138 190 243 296 358 430
#     4  12  28  46  73 108 151 186 235 307 369 431
#     4  12  24  45  73 106 139 188 245 296 355 436
#     4  11  25  45  75 104 137 193 249 297 348 437
#     4  11  24  44  73  98 140 189 241 295 354 434
#     4  11  27  48  68 107 147 184 239 297 370 426
#
# _framework density 25.873405999999999
#
# number of rings (size 3 to 8) (size 9 to 14) (size 15 to 20)
#    0.000    0.667    5.000    1.000    9.333    1.333 
#    3.000    0.000    0.000    0.000    0.000    0.000 
#    0.000    0.000    0.000    0.000    0.000    0.000 
#
# Total GULP energy -134324.829188 kJ/mol
# GULP energy per Si atom -5596.867883 kJ/mol
# Density = 2.581452 g / cm^3
# Si number density = 25.873406 Si / 1000 Ang^3
#
#
#
# Elastic Constant Matrix: (Units=GPa)
#
#
# Indices 1 2 3 4 5 6 
#
# 1 68.0305 42.8954 11.9864 0.0000 0.0000 0.0000
# 2 42.8954 176.1311 45.9602 0.0000 0.0000 0.0000
# 3 11.9864 45.9602 84.0811 0.0000 0.0000 0.0000
# 4 0.0000 0.0000 0.0000 42.8829 0.0000 0.0000
# 5 0.0000 0.0000 0.0000 0.0000 52.4054 0.0000
# 6 0.0000 0.0000 0.0000 0.0000 0.0000 37.3922
#
#
#
# Elastic Compliance Matrix: (Units=1/GPa)
#
#
# Indices 1 2 3 4 5 6 
#
# 1 0.017369 -0.004180 -0.000191 0.000000 0.000000 0.000000
# 2 -0.004180 0.007628 -0.003574 0.000000 0.000000 0.000000
# 3 -0.000191 -0.003574 0.013874 0.000000 0.000000 0.000000
# 4 0.000000 0.000000 0.000000 0.023319 0.000000 0.000000
# 5 0.000000 0.000000 0.000000 0.000000 0.019082 0.000000
# 6 0.000000 0.000000 0.000000 0.000000 0.000000 0.026744
#
#
# Mechanical properties :
#
#
# Convention : Reuss Voigt Hill
#
# Bulk Modulus (GPa) = 43.51457 58.88074 51.19765
# Shear Modulus (GPa) = 38.00373 41.69615 39.84994
#
# Velocity S-wave (km/s) = 3.83669 4.01876 3.92878
# Velocity P-wave (km/s) = 6.04001 6.65887 6.35698
#
# Compressibility (1/GPa) = 0.02298081
#
# Stress axis : x y z
#
# Youngs Moduli (GPa) = 57.57497 131.09286 72.07723
#
# Poissons Ratio (x) = 0.54799 0.01377
# Poissons Ratio (y) = 0.24067 0.25759
# Poissons Ratio (z) = 0.01100 0.46850
#
# Static dielectric constant tensor:
#      x y z
#    x 2.077860 0.000000 0.000000 
#    y 0.000000 2.087560 0.000000 
#    z 0.000000 0.000000 2.022650 
# 
# From -- ./inp_files/7882.got.cif
#   From: 2010.05.17/outbox.cif.g08.bks.cpg/sg33_4_cif.got.tgz:7882.got - 2010.06.03 17:15:25.
