data_PCOD9346572
_publ_section_title
;
Structure prediction by ZEFSAII (Michael W. Deem and Ramdas Pophale) SiO2 
 PCOD9346572
Probable space group: P N A 21
;
_chemical_formula_sum "Si O2"
_cell_formula_units_Z 24
_cell_length_a 13.906940
_cell_length_b 11.021099
_cell_length_c 6.574146
_cell_angle_alpha 90.000000
_cell_angle_beta 90.000000
_cell_angle_gamma 90.000000
_cell_volume 1007.617796
_symmetry_space_group_name_H-M "P N A 21"
_symmetry_group_IT_number 33
_symmetry_cell_setting 'orthorhombic'
loop_
_space_group_symop_operation_xyz
x,y,z
-x,-y,1/2+z
1/2-x,1/2+y,1/2+z
1/2+x,1/2-y,z
loop_
_atom_site_type_symbol
_atom_site_label
_atom_site_fract_x
_atom_site_fract_y
_atom_site_fract_z
Si Si1 0.360055 0.252815 0.977000
Si Si2 0.078903 0.948024 0.775065
Si Si3 0.542658 0.906472 0.165123
Si Si4 0.256697 0.340931 0.576839
Si Si5 0.134903 0.554806 0.774295
Si Si6 0.080374 0.179888 0.519049
O O1 0.431306 0.156959 0.875140
O O2 0.293915 0.280833 0.785527
O O3 0.399840 0.376869 0.066111
O O4 0.329307 0.179130 0.176546
O O5 0.084755 0.090094 0.716034
O O6 0.158132 0.899720 0.939442
O O7 0.974775 0.901077 0.851055
O O8 0.488351 0.796143 0.052423
O O9 0.475195 0.018181 0.221919
O O10 0.631459 0.942978 0.019798
O O11 0.194907 0.452183 0.663181
O O12 0.182958 0.243100 0.478986
#
# Coordination Sequence:
#
# PCOD9346572 Si02
#       6
#     4   4   4   4   4   4
#     4  12  23  45  71 103 148 189 245 308 366 454
#     4  12  26  50  74 108 153 202 252 312 383 457
#     4  11  22  45  71 106 140 186 246 301 374 442
#     4  11  27  47  72 112 149 198 254 316 379 453
#     4  11  23  42  75 105 142 191 244 314 370 445
#     4  11  25  49  73 106 148 198 247 311 380 447
#
# _framework density 23.818556000000001
#
# number of rings (size 3 to 8) (size 9 to 14) (size 15 to 20)
#    0.000    0.667    5.000    2.000    0.000    4.000 
#    9.000    0.000    0.000    0.000    0.000    0.000 
#    0.000    0.000    0.000    0.000    0.000    0.000 
#
# Total GULP energy -133963.217133 kJ/mol
# GULP energy per Si atom -5581.800714 kJ/mol
# Density = 2.376434 g / cm^3
# Si number density = 23.818556 Si / 1000 Ang^3
#
#
#
# Elastic Constant Matrix: (Units=GPa)
#
#
# Indices 1 2 3 4 5 6 
#
# 1 76.1559 33.9262 40.6480 0.0000 0.0000 0.0000
# 2 33.9262 118.4662 27.1334 0.0000 0.0000 0.0000
# 3 40.6480 27.1334 65.8034 0.0000 0.0000 0.0000
# 4 0.0000 0.0000 0.0000 57.7195 0.0000 0.0000
# 5 0.0000 0.0000 0.0000 0.0000 37.8848 0.0000
# 6 0.0000 0.0000 0.0000 0.0000 0.0000 19.7051
#
#
#
# Elastic Compliance Matrix: (Units=1/GPa)
#
#
# Indices 1 2 3 4 5 6 
#
# 1 0.020704 -0.003313 -0.011423 0.000000 0.000000 0.000000
# 2 -0.003313 0.009852 -0.002016 0.000000 0.000000 0.000000
# 3 -0.011423 -0.002016 0.023084 0.000000 0.000000 0.000000
# 4 0.000000 0.000000 0.000000 0.017325 0.000000 0.000000
# 5 0.000000 0.000000 0.000000 0.000000 0.026396 0.000000
# 6 0.000000 0.000000 0.000000 0.000000 0.000000 0.050748
#
#
# Mechanical properties :
#
#
# Convention : Reuss Voigt Hill
#
# Bulk Modulus (GPa) = 49.66185 51.53785 50.59985
# Shear Modulus (GPa) = 26.54992 33.64307 30.09650
#
# Velocity S-wave (km/s) = 3.34229 3.76237 3.55853
# Velocity P-wave (km/s) = 5.98247 6.36856 6.17853
#
# Compressibility (1/GPa) = 0.02013618
#
# Stress axis : x y z
#
# Youngs Moduli (GPa) = 48.30034 101.50580 43.31951
#
# Poissons Ratio (x) = 0.33627 0.49484
# Poissons Ratio (y) = 0.16001 0.08733
# Poissons Ratio (z) = 0.55174 0.20462
#
# Static dielectric constant tensor:
#      x y z
#    x 1.983730 0.000000 0.000000 
#    y 0.000000 1.997120 0.000000 
#    z 0.000000 0.000000 2.169140 
# 
# From -- ./inp_files/1336.got.cif
#   From: 2010.05.17/outbox.cif.g08.bks.cpg/sg33_1_cif.got.tgz:1336.got - 2010.06.03 17:15:25.
