data_PCOD9346240
_publ_section_title
;
Structure prediction by ZEFSAII (Michael W. Deem and Ramdas Pophale) SiO2 
 PCOD9346240
Probable space group: P N A 21
;
_chemical_formula_sum "Si O2"
_cell_formula_units_Z 28
_cell_length_a 12.807169
_cell_length_b 17.399001
_cell_length_c 4.929174
_cell_angle_alpha 90.000000
_cell_angle_beta 90.000000
_cell_angle_gamma 90.000000
_cell_volume 1098.377436
_symmetry_space_group_name_H-M "P N A 21"
_symmetry_group_IT_number 33
_symmetry_cell_setting 'orthorhombic'
loop_
_space_group_symop_operation_xyz
x,y,z
-x,-y,1/2+z
1/2-x,1/2+y,1/2+z
1/2+x,1/2-y,z
loop_
_atom_site_type_symbol
_atom_site_label
_atom_site_fract_x
_atom_site_fract_y
_atom_site_fract_z
Si Si1 0.231298 0.016993 0.883180
Si Si2 0.008570 0.044742 0.936731
Si Si3 0.561289 0.965452 0.078625
Si Si4 0.449557 0.214610 0.439481
Si Si5 0.768616 0.334271 0.178761
Si Si6 0.334989 0.362737 0.682324
Si Si7 0.670566 0.255951 0.689502
O O1 0.121209 0.055556 0.796429
O O2 0.322567 0.008931 0.666852
O O3 0.273393 0.076272 0.109226
O O4 0.196238 0.934840 0.997115
O O5 0.918592 0.106549 0.899251
O O6 0.971279 0.972902 0.749971
O O7 0.561729 0.872719 0.054405
O O8 0.481889 0.994309 0.310096
O O9 0.386522 0.201121 0.152096
O O10 0.393057 0.292352 0.538498
O O11 0.567291 0.235328 0.523558
O O12 0.734437 0.309974 0.479185
O O13 0.682568 0.298480 0.976860
O O14 0.227317 0.324047 0.766216
#
# Coordination Sequence:
#
# PCOD9346240 Si02
#       7
#     4   4   4   4   4   4   4
#     4  11  24  46  73 105 147 195 250 316 387 461
#     4  10  24  42  66 102 141 184 240 304 376 460
#     4  12  28  48  74 107 148 201 257 313 381 465
#     4  11  26  48  74 109 150 196 260 323 383 468
#     4  11  26  45  71 105 146 195 250 312 389 463
#     4  10  24  44  71 104 140 186 242 305 381 455
#     4  11  26  47  71 104 148 197 247 317 389 462
#
# _framework density 25.492149000000001
#
# number of rings (size 3 to 8) (size 9 to 14) (size 15 to 20)
#    0.000    1.143    0.000    4.286    0.000   25.143 
#    0.000    0.000    0.000    0.000    0.000    0.000 
#    0.000    0.000    0.000    0.000    0.000    0.000 
#
# Total GULP energy -156290.314204 kJ/mol
# GULP energy per Si atom -5581.796936 kJ/mol
# Density = 2.543413 g / cm^3
# Si number density = 25.492149 Si / 1000 Ang^3
#
#
#
# Elastic Constant Matrix: (Units=GPa)
#
#
# Indices 1 2 3 4 5 6 
#
# 1 129.1215 41.2322 -3.1976 0.0000 0.0000 0.0000
# 2 41.2322 166.3436 51.9238 0.0000 0.0000 0.0000
# 3 -3.1976 51.9238 86.3035 0.0000 0.0000 0.0000
# 4 0.0000 0.0000 0.0000 32.1539 0.0000 0.0000
# 5 0.0000 0.0000 0.0000 0.0000 39.4285 0.0000
# 6 0.0000 0.0000 0.0000 0.0000 0.0000 45.8417
#
#
#
# Elastic Compliance Matrix: (Units=1/GPa)
#
#
# Indices 1 2 3 4 5 6 
#
# 1 0.008679 -0.002772 0.001990 0.000000 0.000000 0.000000
# 2 -0.002772 0.008287 -0.005089 0.000000 0.000000 0.000000
# 3 0.001990 -0.005089 0.014722 0.000000 0.000000 0.000000
# 4 0.000000 0.000000 0.000000 0.031100 0.000000 0.000000
# 5 0.000000 0.000000 0.000000 0.000000 0.025362 0.000000
# 6 0.000000 0.000000 0.000000 0.000000 0.000000 0.021814
#
#
# Mechanical properties :
#
#
# Convention : Reuss Voigt Hill
#
# Bulk Modulus (GPa) = 50.13602 62.40951 56.27277
# Shear Modulus (GPa) = 38.95374 42.93885 40.94629
#
# Velocity S-wave (km/s) = 3.91329 4.10859 4.01213
# Velocity P-wave (km/s) = 6.33470 6.85874 6.60192
#
# Compressibility (1/GPa) = 0.01994574
#
# Stress axis : x y z
#
# Youngs Moduli (GPa) = 115.21781 120.66679 67.92416
#
# Poissons Ratio (x) = 0.33453 -0.13514
# Poissons Ratio (y) = 0.31943 0.34565
# Poissons Ratio (z) = -0.22923 0.61404
#
# Static dielectric constant tensor:
#      x y z
#    x 2.150960 0.000000 0.000000 
#    y 0.000000 2.072720 0.000000 
#    z 0.000000 0.000000 2.012680 
# 
# From -- ./inp_files/932.got.cif
#   From: 2010.05.17/outbox.cif.g08.bks.cpg/sg33_1_cif.got.tgz:932.got - 2010.06.03 17:15:25.
