data_PCOD9346274
_publ_section_title
;
Structure prediction by ZEFSAII (Michael W. Deem and Ramdas Pophale) SiO2 
 PCOD9346274
Probable space group: P N A 21
;
_chemical_formula_sum "Si O2"
_cell_formula_units_Z 32
_cell_length_a 9.457085
_cell_length_b 13.371750
_cell_length_c 11.431664
_cell_angle_alpha 90.000000
_cell_angle_beta 90.000000
_cell_angle_gamma 90.000000
_cell_volume 1445.622809
_symmetry_space_group_name_H-M "P N A 21"
_symmetry_group_IT_number 33
_symmetry_cell_setting 'orthorhombic'
loop_
_space_group_symop_operation_xyz
x,y,z
-x,-y,1/2+z
1/2-x,1/2+y,1/2+z
1/2+x,1/2-y,z
loop_
_atom_site_type_symbol
_atom_site_label
_atom_site_fract_x
_atom_site_fract_y
_atom_site_fract_z
Si Si1 0.787532 0.072364 0.129810
Si Si2 0.467384 0.028387 0.553742
Si Si3 0.054423 0.103255 0.503557
Si Si4 0.428308 0.594521 0.746445
Si Si5 0.782260 0.077709 0.628324
Si Si6 0.536831 0.850579 0.397669
Si Si7 0.692062 0.279249 0.028626
Si Si8 0.071428 0.728272 0.141115
O O1 0.773500 0.182143 0.077577
O O2 0.904297 0.076026 0.230144
O O3 0.628869 0.032193 0.147258
O O4 0.851267 0.990167 0.041006
O O5 0.626968 0.044472 0.596378
O O6 0.406694 0.141016 0.545655
O O7 0.473461 0.956861 0.440404
O O8 0.092222 0.137919 0.374553
O O9 0.891563 0.065069 0.519314
O O10 0.048400 0.195310 0.593999
O O11 0.347889 0.489378 0.731140
O O12 0.369854 0.660299 0.639150
O O13 0.801173 0.193769 0.660536
O O14 0.436101 0.764950 0.452715
O O15 0.693213 0.839948 0.453499
O O16 0.541650 0.828922 0.260793
#
# Coordination Sequence:
#
# PCOD9346274 Si02
#       8
#     4   4   4   4   4   4   4   4
#     4  10  24  43  69 105 141 189 249 293 369 434
#     4  11  24  46  66 109 141 186 251 304 369 437
#     4   9  24  44  71 104 141 199 236 302 371 441
#     4  11  21  46  70 101 151 193 243 299 362 450
#     4   9  23  42  70 102 145 187 245 290 370 437
#     4  11  25  43  74 100 144 188 247 306 360 464
#     4  11  23  43  69 105 138 195 244 293 372 426
#     4  10  26  45  73 102 145 189 245 303 383 429
#
# _framework density 22.135788000000002
#
# number of rings (size 3 to 8) (size 9 to 14) (size 15 to 20)
#    0.750    1.000    2.500    0.000    5.250    2.000 
#    9.000    0.000    0.000    0.000    0.000    0.000 
#    0.000    0.000    0.000    0.000    0.000    0.000 
#
# Total GULP energy -178506.141247 kJ/mol
# GULP energy per Si atom -5578.316914 kJ/mol
# Density = 2.208541 g / cm^3
# Si number density = 22.135788 Si / 1000 Ang^3
#
#
#
# Elastic Constant Matrix: (Units=GPa)
#
#
# Indices 1 2 3 4 5 6 
#
# 1 102.8049 38.1564 31.9502 0.0000 0.0000 0.0000
# 2 38.1564 139.4007 46.9968 0.0000 0.0000 0.0000
# 3 31.9502 46.9968 117.7499 0.0000 0.0000 0.0000
# 4 0.0000 0.0000 0.0000 27.8889 0.0000 0.0000
# 5 0.0000 0.0000 0.0000 0.0000 5.9092 0.0000
# 6 0.0000 0.0000 0.0000 0.0000 0.0000 43.2185
#
#
#
# Elastic Compliance Matrix: (Units=1/GPa)
#
#
# Indices 1 2 3 4 5 6 
#
# 1 0.011263 -0.002372 -0.002110 0.000000 0.000000 0.000000
# 2 -0.002372 0.008788 -0.002864 0.000000 0.000000 0.000000
# 3 -0.002110 -0.002864 0.010208 0.000000 0.000000 0.000000
# 4 0.000000 0.000000 0.000000 0.035857 0.000000 0.000000
# 5 0.000000 0.000000 0.000000 0.000000 0.169229 0.000000
# 6 0.000000 0.000000 0.000000 0.000000 0.000000 0.023138
#
#
# Mechanical properties :
#
#
# Convention : Reuss Voigt Hill
#
# Bulk Modulus (GPa) = 64.23079 66.01802 65.12441
# Shear Modulus (GPa) = 17.96215 31.59344 24.77780
#
# Velocity S-wave (km/s) = 2.85169 3.78200 3.34931
# Velocity P-wave (km/s) = 6.31843 6.99716 6.66644
#
# Compressibility (1/GPa) = 0.01556886
#
# Stress axis : x y z
#
# Youngs Moduli (GPa) = 88.78603 113.78736 97.96149
#
# Poissons Ratio (x) = 0.26987 0.20665
# Poissons Ratio (y) = 0.21057 0.28057
# Poissons Ratio (z) = 0.18729 0.32590
#
# Static dielectric constant tensor:
#      x y z
#    x 1.884100 0.000000 0.000000 
#    y 0.000000 1.826600 0.000000 
#    z 0.000000 0.000000 1.778490 
# 
# From -- ./inp_files/5940.got.cif
#   From: 2010.05.17/outbox.cif.g08.bks.cpg/sg33_3_cif.got.tgz:5940.got - 2010.06.03 17:15:25.
