data_PCOD9346569
_publ_section_title
;
Structure prediction by ZEFSAII (Michael W. Deem and Ramdas Pophale) SiO2 
 PCOD9346569
Probable space group: P N A 21
;
_chemical_formula_sum "Si O2"
_cell_formula_units_Z 28
_cell_length_a 13.872775
_cell_length_b 12.675184
_cell_length_c 8.085730
_cell_angle_alpha 90.000000
_cell_angle_beta 90.000000
_cell_angle_gamma 90.000000
_cell_volume 1421.794567
_symmetry_space_group_name_H-M "P N A 21"
_symmetry_group_IT_number 33
_symmetry_cell_setting 'orthorhombic'
loop_
_space_group_symop_operation_xyz
x,y,z
-x,-y,1/2+z
1/2-x,1/2+y,1/2+z
1/2+x,1/2-y,z
loop_
_atom_site_type_symbol
_atom_site_label
_atom_site_fract_x
_atom_site_fract_y
_atom_site_fract_z
Si Si1 0.677599 0.826136 0.587940
Si Si2 0.544225 0.226563 0.062152
Si Si3 0.309039 0.743391 0.281567
Si Si4 0.775736 0.625697 0.725798
Si Si5 0.740438 0.551219 0.095327
Si Si6 0.359934 0.544094 0.082587
Si Si7 0.551442 0.460032 0.217469
O O1 0.564253 0.814251 0.561583
O O2 0.735459 0.803367 0.417771
O O3 0.716224 0.735052 0.710200
O O4 0.707702 0.942199 0.645552
O O5 0.616924 0.152669 0.165745
O O6 0.546194 0.342503 0.144104
O O7 0.591841 0.237395 0.881327
O O8 0.269540 0.852167 0.210686
O O9 0.323776 0.658373 0.137693
O O10 0.723988 0.541879 0.605188
O O11 0.769807 0.579868 0.908955
O O12 0.626924 0.527760 0.110066
O O13 0.446061 0.510107 0.206103
O O14 0.405170 0.542046 0.900955
#
# Coordination Sequence:
#
# PCOD9346569 Si02
#       7
#     4   4   4   4   4   4   4
#     4  11  24  45  69  98 139 177 226 287 337 407
#     4  11  23  43  67  99 137 181 223 281 342 412
#     4  11  25  44  67 100 139 175 234 278 346 405
#     4  11  22  45  67  96 140 174 226 284 343 399
#     4  12  25  45  68 102 138 181 224 283 342 410
#     4  12  24  42  70 103 135 182 229 295 336 412
#     4  12  23  40  72 102 132 180 242 278 344 397
#
# _framework density 19.693422000000002
#
# number of rings (size 3 to 8) (size 9 to 14) (size 15 to 20)
#    0.000    0.571    5.714    4.286    2.000    1.143 
#    0.000    0.000    0.000    0.000    0.000    0.000 
#    0.000    0.000    0.000    0.000    0.000    0.000 
#
# Total GULP energy -156681.111618 kJ/mol
# GULP energy per Si atom -5595.753986 kJ/mol
# Density = 1.964860 g / cm^3
# Si number density = 19.693422 Si / 1000 Ang^3
#
#
#
# Elastic Constant Matrix: (Units=GPa)
#
#
# Indices 1 2 3 4 5 6 
#
# 1 117.1910 23.5180 -16.5818 0.0000 0.0000 0.0000
# 2 23.5180 123.3752 5.4242 0.0000 0.0000 0.0000
# 3 -16.5818 5.4242 37.1185 0.0000 0.0000 0.0000
# 4 0.0000 0.0000 0.0000 34.0872 0.0000 0.0000
# 5 0.0000 0.0000 0.0000 0.0000 23.1364 0.0000
# 6 0.0000 0.0000 0.0000 0.0000 0.0000 11.2004
#
#
#
# Elastic Compliance Matrix: (Units=1/GPa)
#
#
# Indices 1 2 3 4 5 6 
#
# 1 0.009588 -0.002029 0.004580 0.000000 0.000000 0.000000
# 2 -0.002029 0.008587 -0.002161 0.000000 0.000000 0.000000
# 3 0.004580 -0.002161 0.029303 0.000000 0.000000 0.000000
# 4 0.000000 0.000000 0.000000 0.029337 0.000000 0.000000
# 5 0.000000 0.000000 0.000000 0.000000 0.043222 0.000000
# 6 0.000000 0.000000 0.000000 0.000000 0.000000 0.089282
#
#
# Mechanical properties :
#
#
# Convention : Reuss Voigt Hill
#
# Bulk Modulus (GPa) = 20.72241 33.60059 27.16150
# Shear Modulus (GPa) = 22.25927 31.37309 26.81618
#
# Velocity S-wave (km/s) = 3.36563 3.99566 3.69410
# Velocity P-wave (km/s) = 5.06444 6.19564 5.65838
#
# Compressibility (1/GPa) = 0.04825694
#
# Stress axis : x y z
#
# Youngs Moduli (GPa) = 104.29375 116.45289 34.12675
#
# Poissons Ratio (x) = 0.23629 -0.15630
# Poissons Ratio (y) = 0.21162 0.07376
# Poissons Ratio (z) = -0.47765 0.25169
#
# Static dielectric constant tensor:
#      x y z
#    x 1.668030 0.000000 0.000000 
#    y 0.000000 1.676140 0.000000 
#    z 0.000000 0.000000 1.701220 
# 
# From -- ./inp_files/4364.got.cif
#   From: 2010.05.17/outbox.cif.g08.bks.cpg/sg33_3_cif.got.tgz:4364.got - 2010.06.03 17:15:25.
