data_PCOD9346567
_publ_section_title
;
Structure prediction by ZEFSAII (Michael W. Deem and Ramdas Pophale) SiO2 
 PCOD9346567
Probable space group: P N A 21
;
_chemical_formula_sum "Si O2"
_cell_formula_units_Z 24
_cell_length_a 16.318947
_cell_length_b 11.707233
_cell_length_c 5.083255
_cell_angle_alpha 90.000000
_cell_angle_beta 90.000000
_cell_angle_gamma 90.000000
_cell_volume 971.154418
_symmetry_space_group_name_H-M "P N A 21"
_symmetry_group_IT_number 33
_symmetry_cell_setting 'orthorhombic'
loop_
_space_group_symop_operation_xyz
x,y,z
-x,-y,1/2+z
1/2-x,1/2+y,1/2+z
1/2+x,1/2-y,z
loop_
_atom_site_type_symbol
_atom_site_label
_atom_site_fract_x
_atom_site_fract_y
_atom_site_fract_z
Si Si1 0.495203 0.366738 0.184810
Si Si2 0.364855 0.465087 0.483740
Si Si3 0.883953 0.257003 0.815886
Si Si4 0.784794 0.813667 0.526651
Si Si5 0.883341 0.732719 0.018419
Si Si6 0.054369 0.501762 0.294432
O O1 0.410538 0.436370 0.214816
O O2 0.564509 0.457839 0.119286
O O3 0.531354 0.296906 0.433998
O O4 0.467290 0.279357 0.962728
O O5 0.356767 0.343879 0.621538
O O6 0.289381 0.550067 0.473171
O O7 0.806731 0.269879 0.007914
O O8 0.897185 0.384473 0.708370
O O9 0.819174 0.786302 0.812744
O O10 0.845502 0.756837 0.306220
O O11 0.895914 0.601857 0.929341
O O12 0.992128 0.536046 0.530005
#
# Coordination Sequence:
#
# PCOD9346567 Si02
#       6
#     4   4   4   4   4   4
#     4  11  22  44  76 104 135 189 256 309 357 452
#     4  11  24  45  73 106 143 189 252 311 375 445
#     4  12  28  45  72 112 149 197 253 313 389 465
#     4  11  29  46  73 107 151 198 240 317 395 460
#     4  11  25  50  72 104 150 195 253 307 382 452
#     4  12  26  46  74 107 146 192 252 315 372 454
#
# _framework density 24.712855999999999
#
# number of rings (size 3 to 8) (size 9 to 14) (size 15 to 20)
#    0.000    0.667    3.333    3.000   11.667    0.000 
#    0.000    0.000    0.000    0.000    0.000    0.000 
#    0.000    0.000    0.000    0.000    0.000    0.000 
#
# Total GULP energy -134186.906758 kJ/mol
# GULP energy per Si atom -5591.121115 kJ/mol
# Density = 2.465661 g / cm^3
# Si number density = 24.712856 Si / 1000 Ang^3
#
#
#
# Elastic Constant Matrix: (Units=GPa)
#
#
# Indices 1 2 3 4 5 6 
#
# 1 56.6102 22.7755 21.8187 0.0000 0.0000 0.0000
# 2 22.7755 167.5702 0.1724 0.0000 0.0000 0.0000
# 3 21.8187 0.1724 69.0368 0.0000 0.0000 0.0000
# 4 0.0000 0.0000 0.0000 34.4887 0.0000 0.0000
# 5 0.0000 0.0000 0.0000 0.0000 24.5222 0.0000
# 6 0.0000 0.0000 0.0000 0.0000 0.0000 33.1818
#
#
#
# Elastic Compliance Matrix: (Units=1/GPa)
#
#
# Indices 1 2 3 4 5 6 
#
# 1 0.021444 -0.002908 -0.006770 0.000000 0.000000 0.000000
# 2 -0.002908 0.006362 0.000903 0.000000 0.000000 0.000000
# 3 -0.006770 0.000903 0.016622 0.000000 0.000000 0.000000
# 4 0.000000 0.000000 0.000000 0.028995 0.000000 0.000000
# 5 0.000000 0.000000 0.000000 0.000000 0.040779 0.000000
# 6 0.000000 0.000000 0.000000 0.000000 0.000000 0.030137
#
#
# Mechanical properties :
#
#
# Convention : Reuss Voigt Hill
#
# Bulk Modulus (GPa) = 37.20365 42.52782 39.86574
# Shear Modulus (GPa) = 29.26579 35.00190 32.13384
#
# Velocity S-wave (km/s) = 3.44500 3.76752 3.60986
# Velocity P-wave (km/s) = 5.55978 6.01429 5.79150
#
# Compressibility (1/GPa) = 0.02687908
#
# Stress axis : x y z
#
# Youngs Moduli (GPa) = 46.63378 157.18552 60.15990
#
# Poissons Ratio (x) = 0.45703 0.40728
# Poissons Ratio (y) = 0.13559 -0.05433
# Poissons Ratio (z) = 0.31571 -0.14194
#
# Static dielectric constant tensor:
#      x y z
#    x 2.011860 0.000000 0.000000 
#    y 0.000000 1.994300 0.000000 
#    z 0.000000 0.000000 1.983100 
# 
# From -- ./inp_files/1704.got.cif
#   From: 2010.05.17/outbox.cif.g08.bks.cpg/sg33_1_cif.got.tgz:1704.got - 2010.06.03 17:15:25.
