data_PCOD9346523
_publ_section_title
;
Structure prediction by ZEFSAII (Michael W. Deem and Ramdas Pophale) SiO2 
 PCOD9346523
Probable space group: P N A 21
;
_chemical_formula_sum "Si O2"
_cell_formula_units_Z 32
_cell_length_a 10.592145
_cell_length_b 6.398504
_cell_length_c 20.898270
_cell_angle_alpha 90.000000
_cell_angle_beta 90.000000
_cell_angle_gamma 90.000000
_cell_volume 1416.356888
_symmetry_space_group_name_H-M "P N A 21"
_symmetry_group_IT_number 33
_symmetry_cell_setting 'orthorhombic'
loop_
_space_group_symop_operation_xyz
x,y,z
-x,-y,1/2+z
1/2-x,1/2+y,1/2+z
1/2+x,1/2-y,z
loop_
_atom_site_type_symbol
_atom_site_label
_atom_site_fract_x
_atom_site_fract_y
_atom_site_fract_z
Si Si1 0.524773 0.817379 0.428280
Si Si2 0.073655 0.675588 0.855716
Si Si3 0.339189 0.920612 0.648600
Si Si4 0.475224 0.317382 0.639537
Si Si5 0.626473 0.135965 0.530399
Si Si6 0.626476 0.364033 0.037418
Si Si7 0.660809 0.420610 0.419218
Si Si8 0.426347 0.324410 0.212101
O O1 0.543783 0.000768 0.480642
O O2 0.429948 0.669016 0.467537
O O3 0.644882 0.670576 0.414884
O O4 0.475936 0.937696 0.366167
O O5 0.208478 0.671539 0.892041
O O6 0.095658 0.749998 0.783908
O O7 0.960290 0.820690 0.883018
O O8 0.347046 0.849696 0.574916
O O9 0.460289 0.820693 0.684799
O O10 0.208476 0.828461 0.675775
O O11 0.355115 0.170578 0.652933
O O12 0.456214 0.500771 0.587176
O O13 0.524061 0.437699 0.701650
O O14 0.570048 0.169018 0.600281
O O15 0.749998 0.999998 0.533909
O O16 0.652953 0.349692 0.492901
#
# Coordination Sequence:
#
# PCOD9346523 Si02
#       8
#     4   4   4   4   4   4   4   4
#     4  11  23  40  66 105 139 182 226 292 360 423
#     4  11  26  47  70  99 140 191 248 296 348 425
#     4  11  24  44  71 104 143 190 239 296 361 425
#     4  11  23  40  66 105 139 182 226 292 360 423
#     4  11  22  37  65 103 144 178 224 285 363 430
#     4  11  22  37  65 103 144 178 224 285 363 430
#     4  11  24  44  71 104 143 190 239 296 361 425
#     4  11  26  47  70  99 140 191 248 296 348 425
#
# _framework density 22.593174000000001
#
# number of rings (size 3 to 8) (size 9 to 14) (size 15 to 20)
#    0.000    1.000    2.500    3.750    3.500    5.000 
#    0.000    2.500    0.000    0.000    0.000    0.000 
#    0.000    0.000    0.000    0.000    0.000    0.000 
#
# Total GULP energy -178680.843690 kJ/mol
# GULP energy per Si atom -5583.776365 kJ/mol
# Density = 2.254175 g / cm^3
# Si number density = 22.593174 Si / 1000 Ang^3
#
#
#
# Elastic Constant Matrix: (Units=GPa)
#
#
# Indices 1 2 3 4 5 6 
#
# 1 102.8093 28.0485 24.7223 0.0000 0.0000 0.0000
# 2 28.0485 97.4222 25.0901 0.0000 0.0000 0.0000
# 3 24.7223 25.0901 52.6369 0.0000 0.0000 0.0000
# 4 0.0000 0.0000 0.0000 37.1452 0.0000 0.0000
# 5 0.0000 0.0000 0.0000 0.0000 30.7074 0.0000
# 6 0.0000 0.0000 0.0000 0.0000 0.0000 40.0701
#
#
#
# Elastic Compliance Matrix: (Units=1/GPa)
#
#
# Indices 1 2 3 4 5 6 
#
# 1 0.011350 -0.002160 -0.004301 0.000000 0.000000 0.000000
# 2 -0.002160 0.012112 -0.004759 0.000000 0.000000 0.000000
# 3 -0.004301 -0.004759 0.023287 0.000000 0.000000 0.000000
# 4 0.000000 0.000000 0.000000 0.026921 0.000000 0.000000
# 5 0.000000 0.000000 0.000000 0.000000 0.032565 0.000000
# 6 0.000000 0.000000 0.000000 0.000000 0.000000 0.024956
#
#
# Mechanical properties :
#
#
# Convention : Reuss Voigt Hill
#
# Bulk Modulus (GPa) = 41.13773 45.39890 43.26831
# Shear Modulus (GPa) = 30.91461 33.25169 32.08315
#
# Velocity S-wave (km/s) = 3.70309 3.84051 3.77243
# Velocity P-wave (km/s) = 6.04412 6.30902 6.17799
#
# Compressibility (1/GPa) = 0.02430858
#
# Stress axis : x y z
#
# Youngs Moduli (GPa) = 88.10261 82.56211 42.94295
#
# Poissons Ratio (x) = 0.17834 0.18471
# Poissons Ratio (y) = 0.19031 0.20436
# Poissons Ratio (z) = 0.37896 0.39290
#
# Static dielectric constant tensor:
#      x y z
#    x 1.904930 0.000000 0.000000 
#    y 0.000000 2.015790 0.000000 
#    z 0.000000 0.000000 1.899780 
# 
# From -- ./inp_files/9132.got.cif
#   From: 2010.05.17/outbox.cif.g08.bks.cpg/sg33_5_cif.got.tgz:9132.got - 2010.06.03 17:15:25.
