data_PCOD9346038
_publ_section_title
;
Structure prediction by ZEFSAII (Michael W. Deem and Ramdas Pophale) SiO2 
 PCOD9346038
Probable space group: P N A 21
;
_chemical_formula_sum "Si O2"
_cell_formula_units_Z 32
_cell_length_a 13.232266
_cell_length_b 5.009506
_cell_length_c 18.799906
_cell_angle_alpha 90.000000
_cell_angle_beta 90.000000
_cell_angle_gamma 90.000000
_cell_volume 1246.191548
_symmetry_space_group_name_H-M "P N A 21"
_symmetry_group_IT_number 33
_symmetry_cell_setting 'orthorhombic'
loop_
_space_group_symop_operation_xyz
x,y,z
-x,-y,1/2+z
1/2-x,1/2+y,1/2+z
1/2+x,1/2-y,z
loop_
_atom_site_type_symbol
_atom_site_label
_atom_site_fract_x
_atom_site_fract_y
_atom_site_fract_z
Si Si1 0.071463 0.704664 0.357170
Si Si2 0.195068 0.392782 0.657665
Si Si3 0.189816 0.501615 0.963704
Si Si4 0.635666 0.599750 0.576560
Si Si5 0.928875 0.321276 0.274436
Si Si6 0.247511 0.355987 0.338671
Si Si7 0.616801 0.423496 0.225239
Si Si8 0.453402 0.504269 0.478547
O O1 0.174887 0.557495 0.380449
O O2 0.028732 0.913577 0.413883
O O3 0.989568 0.479223 0.335603
O O4 0.095319 0.852976 0.283961
O O5 0.152453 0.593349 0.597845
O O6 0.145491 0.483969 0.731976
O O7 0.314891 0.452162 0.663967
O O8 0.164752 0.092322 0.641883
O O9 0.234499 0.599274 0.888312
O O10 0.135564 0.218644 0.969414
O O11 0.281756 0.494517 0.018712
O O12 0.102044 0.720227 0.980067
O O13 0.524182 0.546242 0.546961
O O14 0.860872 0.091105 0.311169
O O15 0.009042 0.214670 0.216565
O O16 0.184422 0.291761 0.267725
#
# Coordination Sequence:
#
# PCOD9346038 Si02
#       8
#     4   4   4   4   4   4   4   4
#     4  11  24  42  76 107 151 184 244 313 380 450
#     4  11  28  47  75 100 148 199 249 302 372 434
#     4  12  27  47  77 107 147 196 246 309 372 446
#     4  12  29  52  71 106 150 201 255 314 358 447
#     4  10  23  45  71 111 143 191 243 309 375 453
#     4  10  23  41  71 108 146 185 234 305 383 437
#     4  10  24  42  71 106 142 190 239 301 368 452
#     4  12  28  48  78 113 145 196 252 307 380 439
#
# _framework density 25.678235000000001
#
# number of rings (size 3 to 8) (size 9 to 14) (size 15 to 20)
#    0.000    1.000    1.250    3.000   15.750    4.000 
#    0.000    0.000    0.000    0.000    0.000    0.000 
#    0.000    0.000    0.000    0.000    0.000    0.000 
#
# Total GULP energy -179287.246415 kJ/mol
# GULP energy per Si atom -5602.726450 kJ/mol
# Density = 2.561979 g / cm^3
# Si number density = 25.678235 Si / 1000 Ang^3
#
#
#
# Elastic Constant Matrix: (Units=GPa)
#
#
# Indices 1 2 3 4 5 6 
#
# 1 124.0050 8.3073 17.3466 0.0000 0.0000 0.0000
# 2 8.3073 59.0508 -1.8288 0.0000 0.0000 0.0000
# 3 17.3466 -1.8288 60.4393 0.0000 0.0000 0.0000
# 4 0.0000 0.0000 0.0000 41.0293 0.0000 0.0000
# 5 0.0000 0.0000 0.0000 0.0000 48.9535 0.0000
# 6 0.0000 0.0000 0.0000 0.0000 0.0000 45.9678
#
#
#
# Elastic Compliance Matrix: (Units=1/GPa)
#
#
# Indices 1 2 3 4 5 6 
#
# 1 0.008496 -0.001272 -0.002477 0.000000 0.000000 0.000000
# 2 -0.001272 0.017141 0.000884 0.000000 0.000000 0.000000
# 3 -0.002477 0.000884 0.017283 0.000000 0.000000 0.000000
# 4 0.000000 0.000000 0.000000 0.024373 0.000000 0.000000
# 5 0.000000 0.000000 0.000000 0.000000 0.020428 0.000000
# 6 0.000000 0.000000 0.000000 0.000000 0.000000 0.021754
#
#
# Mechanical properties :
#
#
# Convention : Reuss Voigt Hill
#
# Bulk Modulus (GPa) = 26.88915 32.34950 29.61932
# Shear Modulus (GPa) = 39.18453 41.83480 40.50966
#
# Velocity S-wave (km/s) = 3.91062 4.04070 3.97619
# Velocity P-wave (km/s) = 5.55742 5.86473 5.71314
#
# Compressibility (1/GPa) = 0.03718972
#
# Stress axis : x y z
#
# Youngs Moduli (GPa) = 117.70410 58.34008 57.85982
#
# Poissons Ratio (x) = 0.07420 0.14331
# Poissons Ratio (y) = 0.14971 -0.05113
# Poissons Ratio (z) = 0.29154 -0.05156
#
# Static dielectric constant tensor:
#      x y z
#    x 2.048910 0.000000 0.000000 
#    y 0.000000 2.000330 0.000000 
#    z 0.000000 0.000000 2.039620 
# 
# From -- ./inp_files/9127.got.cif
#   From: 2010.05.17/outbox.cif.g08.bks.cpg/sg33_5_cif.got.tgz:9127.got - 2010.06.03 17:15:25.
