data_PCOD9346093
_publ_section_title
;
Structure prediction by ZEFSAII (Michael W. Deem and Ramdas Pophale) SiO2 
 PCOD9346093
Probable space group: P N A 21
;
_chemical_formula_sum "Si O2"
_cell_formula_units_Z 20
_cell_length_a 20.140672
_cell_length_b 7.532747
_cell_length_c 5.445529
_cell_angle_alpha 90.000000
_cell_angle_beta 90.000000
_cell_angle_gamma 90.000000
_cell_volume 826.166181
_symmetry_space_group_name_H-M "P N A 21"
_symmetry_group_IT_number 33
_symmetry_cell_setting 'orthorhombic'
loop_
_space_group_symop_operation_xyz
x,y,z
-x,-y,1/2+z
1/2-x,1/2+y,1/2+z
1/2+x,1/2-y,z
loop_
_atom_site_type_symbol
_atom_site_label
_atom_site_fract_x
_atom_site_fract_y
_atom_site_fract_z
Si Si1 0.773121 0.798370 0.863590
Si Si2 0.460655 0.956711 0.556018
Si Si3 0.726879 0.201629 0.855179
Si Si4 0.148662 0.750000 0.109385
Si Si5 0.039345 0.043289 0.162752
O O1 0.804430 0.750000 0.609385
O O2 0.750000 1.000000 0.859385
O O3 0.812711 0.750000 0.109385
O O4 0.702265 0.695680 0.899590
O O5 0.448798 0.750000 0.609386
O O6 0.499241 0.974007 0.296711
O O7 0.396917 0.085398 0.537544
O O8 0.797734 0.304320 0.819179
O O9 0.103083 0.914602 0.181226
O O10 0.000759 0.025992 0.422059
#
# Coordination Sequence:
#
# PCOD9346093 Si02
#       5
#     4   4   4   4   4
#     4  10  23  43  68  93 133 169 223 274 329 393
#     4  12  24  43  67  95 136 177 221 275 332 401
#     4  10  23  43  68  93 133 169 223 274 329 393
#     4  10  26  40  72  96 140 168 234 264 350 386
#     4  12  24  43  67  95 136 177 221 275 332 401
#
# _framework density 24.208203000000001
#
# number of rings (size 3 to 8) (size 9 to 14) (size 15 to 20)
#    1.200    0.000    4.000    1.200    5.600    1.600 
#    0.000    0.000    0.000    0.000    0.000    0.000 
#    0.000    0.000    0.000    0.000    0.000    0.000 
#
# Total GULP energy -111747.694998 kJ/mol
# GULP energy per Si atom -5587.384750 kJ/mol
# Density = 2.415310 g / cm^3
# Si number density = 24.208203 Si / 1000 Ang^3
#
#
#
# Elastic Constant Matrix: (Units=GPa)
#
#
# Indices 1 2 3 4 5 6 
#
# 1 106.2656 -1.6346 21.0405 0.0000 0.0000 0.0000
# 2 -1.6346 98.4765 17.2841 0.0000 0.0000 0.0000
# 3 21.0405 17.2841 205.4733 0.0000 0.0000 0.0000
# 4 0.0000 0.0000 0.0000 42.3028 0.0000 0.0000
# 5 0.0000 0.0000 0.0000 0.0000 -2.3510 0.0000
# 6 0.0000 0.0000 0.0000 0.0000 0.0000 53.3160
#
#
#
# Elastic Compliance Matrix: (Units=1/GPa)
#
#
# Indices 1 2 3 4 5 6 
#
# 1 0.009616 0.000337 -0.001013 0.000000 0.000000 0.000000
# 2 0.000337 0.010319 -0.000903 0.000000 0.000000 0.000000
# 3 -0.001013 -0.000903 0.005046 0.000000 0.000000 0.000000
# 4 0.000000 0.000000 0.000000 0.023639 0.000000 0.000000
# 5 0.000000 0.000000 0.000000 0.000000 -0.425354 0.000000
# 6 0.000000 0.000000 0.000000 0.000000 0.000000 0.018756
#
#
# Mechanical properties :
#
#
# Convention : Reuss Voigt Hill
#
# Bulk Modulus (GPa) = 45.81912 53.73282 49.77597
# Shear Modulus (GPa) = -14.38660 43.55526 14.58433
#
# Velocity S-wave (km/s) = -2.44044 4.24629 2.45716
# Velocity P-wave (km/s) = 3.32072 6.80336 5.35317
#
# Compressibility (1/GPa) = 0.02182495
#
# Stress axis : x y z
#
# Youngs Moduli (GPa) = 103.99159 96.91129 198.15819
#
# Poissons Ratio (x) = -0.03270 0.20075
# Poissons Ratio (y) = -0.03509 0.17885
# Poissons Ratio (z) = 0.10535 0.08747
#
# Static dielectric constant tensor:
#      x y z
#    x 1.904050 0.000000 0.000000 
#    y 0.000000 1.943970 0.000000 
#    z 0.000000 0.000000 2.054690 
# 
# From -- ./inp_files/1605.got.cif
#   From: 2010.05.17/outbox.cif.g08.bks.cpg/sg33_1_cif.got.tgz:1605.got - 2010.06.03 17:15:25.
