data_PCOD9346777
_publ_section_title
;
Structure prediction by ZEFSAII (Michael W. Deem and Ramdas Pophale) SiO2 
 PCOD9346777
Probable space group: P N A 21
;
_chemical_formula_sum "Si O2"
_cell_formula_units_Z 24
_cell_length_a 16.642887
_cell_length_b 5.116295
_cell_length_c 11.537435
_cell_angle_alpha 90.000000
_cell_angle_beta 90.000000
_cell_angle_gamma 90.000000
_cell_volume 982.411662
_symmetry_space_group_name_H-M "P N A 21"
_symmetry_group_IT_number 33
_symmetry_cell_setting 'orthorhombic'
loop_
_space_group_symop_operation_xyz
x,y,z
-x,-y,1/2+z
1/2-x,1/2+y,1/2+z
1/2+x,1/2-y,z
loop_
_atom_site_type_symbol
_atom_site_label
_atom_site_fract_x
_atom_site_fract_y
_atom_site_fract_z
Si Si1 0.754867 0.900774 0.356810
Si Si2 0.802819 0.806365 0.119865
Si Si3 0.013159 0.938097 0.202900
Si Si4 0.648706 0.403868 0.383405
Si Si5 0.907428 0.426787 0.247187
Si Si6 0.635652 0.698527 0.000457
O O1 0.798951 0.964802 0.237639
O O2 0.715783 0.618936 0.353981
O O3 0.684925 0.114717 0.367613
O O4 0.821501 0.933048 0.455067
O O5 0.712368 0.817129 0.069133
O O6 0.834096 0.523781 0.164202
O O7 0.861968 0.909848 0.021361
O O8 0.074915 0.025840 0.303698
O O9 0.958388 0.193945 0.191318
O O10 0.963135 0.687522 0.245544
O O11 0.063818 0.857637 0.088642
O O12 0.112685 0.649487 0.881574
#
# Coordination Sequence:
#
# PCOD9346777 Si02
#       6
#     4   4   4   4   4   4
#     4  11  24  46  79 123 147 205 280 330 397 470
#     4  11  25  51  83 115 157 207 281 336 391 488
#     4  12  29  55  78 117 172 215 270 332 429 482
#     4  11  26  46  78 117 157 211 260 336 406 472
#     4  12  30  53  77 124 161 218 277 329 423 494
#     4  11  28  53  85 112 166 212 272 347 394 490
#
# _framework density 24.429677999999999
#
# number of rings (size 3 to 8) (size 9 to 14) (size 15 to 20)
#    0.000    0.667    1.667    4.000    4.667    8.000 
#    3.000    0.000    0.000    0.000    0.000    0.000 
#    0.000    0.000    0.000    0.000    0.000    0.000 
#
# Total GULP energy -134287.505255 kJ/mol
# GULP energy per Si atom -5595.312719 kJ/mol
# Density = 2.437407 g / cm^3
# Si number density = 24.429678 Si / 1000 Ang^3
#
#
#
# Elastic Constant Matrix: (Units=GPa)
#
#
# Indices 1 2 3 4 5 6 
#
# 1 127.2140 59.1765 59.6889 0.0000 0.0000 0.0000
# 2 59.1765 106.4419 38.3085 0.0000 0.0000 0.0000
# 3 59.6889 38.3085 161.2987 0.0000 0.0000 0.0000
# 4 0.0000 0.0000 0.0000 47.3876 0.0000 0.0000
# 5 0.0000 0.0000 0.0000 0.0000 57.1698 0.0000
# 6 0.0000 0.0000 0.0000 0.0000 0.0000 33.3803
#
#
#
# Elastic Compliance Matrix: (Units=1/GPa)
#
#
# Indices 1 2 3 4 5 6 
#
# 1 0.011859 -0.005482 -0.003086 0.000000 0.000000 0.000000
# 2 -0.005482 0.012807 -0.001013 0.000000 0.000000 0.000000
# 3 -0.003086 -0.001013 0.007582 0.000000 0.000000 0.000000
# 4 0.000000 0.000000 0.000000 0.021103 0.000000 0.000000
# 5 0.000000 0.000000 0.000000 0.000000 0.017492 0.000000
# 6 0.000000 0.000000 0.000000 0.000000 0.000000 0.029958
#
#
# Mechanical properties :
#
#
# Convention : Reuss Voigt Hill
#
# Bulk Modulus (GPa) = 76.42141 78.81138 77.61639
# Shear Modulus (GPa) = 40.21679 43.43959 41.82819
#
# Velocity S-wave (km/s) = 4.06177 4.22138 4.14235
# Velocity P-wave (km/s) = 7.30393 7.48937 7.39723
#
# Compressibility (1/GPa) = 0.01308534
#
# Stress axis : x y z
#
# Youngs Moduli (GPa) = 84.32307 78.08074 131.88412
#
# Poissons Ratio (x) = 0.42806 0.40705
# Poissons Ratio (y) = 0.46228 0.13360
# Poissons Ratio (z) = 0.26026 0.07910
#
# Static dielectric constant tensor:
#      x y z
#    x 1.987480 0.000000 0.000000 
#    y 0.000000 1.960310 0.000000 
#    z 0.000000 0.000000 1.967170 
# 
# From -- ./inp_files/6894.got.cif
#   From: 2010.05.17/outbox.cif.g08.bks.cpg/sg33_4_cif.got.tgz:6894.got - 2010.06.03 17:15:25.
