data_PCOD9346629
_publ_section_title
;
Structure prediction by ZEFSAII (Michael W. Deem and Ramdas Pophale) SiO2 
 PCOD9346629
Probable space group: P N A 21
;
_chemical_formula_sum "Si O2"
_cell_formula_units_Z 24
_cell_length_a 17.495974
_cell_length_b 8.955341
_cell_length_c 5.331993
_cell_angle_alpha 90.000000
_cell_angle_beta 90.000000
_cell_angle_gamma 90.000000
_cell_volume 835.429531
_symmetry_space_group_name_H-M "P N A 21"
_symmetry_group_IT_number 33
_symmetry_cell_setting 'orthorhombic'
loop_
_space_group_symop_operation_xyz
x,y,z
-x,-y,1/2+z
1/2-x,1/2+y,1/2+z
1/2+x,1/2-y,z
loop_
_atom_site_type_symbol
_atom_site_label
_atom_site_fract_x
_atom_site_fract_y
_atom_site_fract_z
Si Si1 0.057567 0.956076 0.493680
Si Si2 0.938333 0.687213 0.604832
Si Si3 0.408802 0.362741 0.488944
Si Si4 0.089789 0.551138 0.736701
Si Si5 0.789973 0.768685 0.889300
Si Si6 0.272393 0.073708 0.893857
O O1 0.108371 0.957114 0.741043
O O2 0.112094 0.921945 0.260517
O O3 0.996404 0.817624 0.513292
O O4 0.000363 0.095702 0.498873
O O5 0.892740 0.603619 0.380051
O O6 0.879437 0.741645 0.817192
O O7 0.999325 0.564151 0.694734
O O8 0.393743 0.192717 0.419503
O O9 0.241012 0.150426 0.640618
O O10 0.137529 0.578171 0.481531
O O11 0.762784 0.850877 0.639044
O O12 0.756238 0.602344 0.895905
#
# Coordination Sequence:
#
# PCOD9346629 Si02
#       6
#     4   4   4   4   4   4
#     4   9  19  36  60  99 151 198 242 305 390 472
#     4  11  23  43  78 117 156 199 264 343 410 470
#     4   9  19  36  60  99 151 198 242 305 390 472
#     4  11  23  43  78 117 156 199 264 343 410 470
#     4  12  28  53  81 114 160 217 274 330 402 492
#     4  12  28  53  81 114 160 217 274 330 402 492
#
# _framework density 28.727736
#
# number of rings (size 3 to 8) (size 9 to 14) (size 15 to 20)
#    0.000    1.333    0.000    5.000    0.000    9.333 
#    0.000   23.333    0.000    0.000    0.000    0.000 
#    0.000    0.000    0.000    0.000    0.000    0.000 
#
# Total GULP energy -134353.092785 kJ/mol
# GULP energy per Si atom -5598.045533 kJ/mol
# Density = 2.866235 g / cm^3
# Si number density = 28.727736 Si / 1000 Ang^3
#
#
#
# Elastic Constant Matrix: (Units=GPa)
#
#
# Indices 1 2 3 4 5 6 
#
# 1 166.7580 56.0353 77.4909 0.0000 0.0000 0.0000
# 2 56.0353 173.0521 72.7173 0.0000 0.0000 0.0000
# 3 77.4909 72.7173 280.8650 0.0000 0.0000 0.0000
# 4 0.0000 0.0000 0.0000 59.9225 0.0000 0.0000
# 5 0.0000 0.0000 0.0000 0.0000 34.0808 0.0000
# 6 0.0000 0.0000 0.0000 0.0000 0.0000 36.8109
#
#
#
# Elastic Compliance Matrix: (Units=1/GPa)
#
#
# Indices 1 2 3 4 5 6 
#
# 1 0.007300 -0.001703 -0.001573 0.000000 0.000000 0.000000
# 2 -0.001703 0.006881 -0.001312 0.000000 0.000000 0.000000
# 3 -0.001573 -0.001312 0.004334 0.000000 0.000000 0.000000
# 4 0.000000 0.000000 0.000000 0.016688 0.000000 0.000000
# 5 0.000000 0.000000 0.000000 0.000000 0.029342 0.000000
# 6 0.000000 0.000000 0.000000 0.000000 0.000000 0.027166
#
#
# Mechanical properties :
#
#
# Convention : Reuss Voigt Hill
#
# Bulk Modulus (GPa) = 107.06866 114.79580 110.93223
# Shear Modulus (GPa) = 48.07692 53.79161 50.93426
#
# Velocity S-wave (km/s) = 4.09533 4.33189 4.21527
# Velocity P-wave (km/s) = 7.72744 8.06641 7.89874
#
# Compressibility (1/GPa) = 0.00933980
#
# Stress axis : x y z
#
# Youngs Moduli (GPa) = 136.98775 145.32413 230.72773
#
# Poissons Ratio (x) = 0.24744 0.36299
# Poissons Ratio (y) = 0.23325 0.30267
# Poissons Ratio (z) = 0.21551 0.19064
#
# Static dielectric constant tensor:
#      x y z
#    x 2.364620 0.000000 0.000000 
#    y 0.000000 2.266830 0.000000 
#    z 0.000000 0.000000 2.404030 
# 
# From -- ./inp_files/4670.got.cif
#   From: 2010.05.17/outbox.cif.g08.bks.cpg/sg33_3_cif.got.tgz:4670.got - 2010.06.03 17:15:25.
