data_PCOD9346302
_publ_section_title
;
Structure prediction by ZEFSAII (Michael W. Deem and Ramdas Pophale) SiO2 
 PCOD9346302
Probable space group: P N A 21
;
_chemical_formula_sum "Si O2"
_cell_formula_units_Z 16
_cell_length_a 12.247398
_cell_length_b 6.525185
_cell_length_c 7.228869
_cell_angle_alpha 90.000000
_cell_angle_beta 90.000000
_cell_angle_gamma 90.000000
_cell_volume 577.706182
_symmetry_space_group_name_H-M "P N A 21"
_symmetry_group_IT_number 33
_symmetry_cell_setting 'orthorhombic'
loop_
_space_group_symop_operation_xyz
x,y,z
-x,-y,1/2+z
1/2-x,1/2+y,1/2+z
1/2+x,1/2-y,z
loop_
_atom_site_type_symbol
_atom_site_label
_atom_site_fract_x
_atom_site_fract_y
_atom_site_fract_z
Si Si1 0.242608 0.488513 0.914420
Si Si2 0.713393 0.980067 0.484752
Si Si3 0.512533 0.154817 0.989662
Si Si4 0.402033 0.496939 0.226038
O O1 0.241621 0.537904 0.699718
O O2 0.123590 0.472639 0.007497
O O3 0.189575 0.911746 0.871632
O O4 0.277409 0.251119 0.911283
O O5 0.668882 0.415840 0.552883
O O6 0.584494 0.006669 0.461079
O O7 0.477252 0.311523 0.153784
O O8 0.534489 0.317292 0.823050
#
# Coordination Sequence:
#
# PCOD9346302 Si02
#       4
#     4   4   4   4
#     4  10  24  45  67 102 142 190 244 296 366 446
#     4  10  24  45  67 102 142 190 244 296 366 446
#     4  10  24  44  70 104 140 188 240 296 374 430
#     4  10  24  46  70 100 146 184 242 304 366 432
#
# _framework density 27.695741999999999
#
# number of rings (size 3 to 8) (size 9 to 14) (size 15 to 20)
#    0.000    2.000    0.000    0.000   17.500    8.000 
#    0.000    0.000    0.000    0.000    0.000    0.000 
#    0.000    0.000    0.000    0.000    0.000    0.000 
#
# Total GULP energy -89621.318389 kJ/mol
# GULP energy per Si atom -5601.332399 kJ/mol
# Density = 2.763270 g / cm^3
# Si number density = 27.695742 Si / 1000 Ang^3
#
#
#
# Elastic Constant Matrix: (Units=GPa)
#
#
# Indices 1 2 3 4 5 6 
#
# 1 164.0179 58.8202 65.7536 0.0000 0.0000 0.0000
# 2 58.8202 98.6986 70.7922 0.0000 0.0000 0.0000
# 3 65.7536 70.7922 170.4906 0.0000 0.0000 0.0000
# 4 0.0000 0.0000 0.0000 9.4877 0.0000 0.0000
# 5 0.0000 0.0000 0.0000 0.0000 60.9429 0.0000
# 6 0.0000 0.0000 0.0000 0.0000 0.0000 52.8071
#
#
#
# Elastic Compliance Matrix: (Units=1/GPa)
#
#
# Indices 1 2 3 4 5 6 
#
# 1 0.008043 -0.003658 -0.001583 0.000000 0.000000 0.000000
# 2 -0.003658 0.016093 -0.005271 0.000000 0.000000 0.000000
# 3 -0.001583 -0.005271 0.008665 0.000000 0.000000 0.000000
# 4 0.000000 0.000000 0.000000 0.105400 0.000000 0.000000
# 5 0.000000 0.000000 0.000000 0.000000 0.016409 0.000000
# 6 0.000000 0.000000 0.000000 0.000000 0.000000 0.018937
#
#
# Mechanical properties :
#
#
# Convention : Reuss Voigt Hill
#
# Bulk Modulus (GPa) = 84.91916 91.54878 88.23397
# Shear Modulus (GPa) = 25.18927 40.50359 32.84643
#
# Velocity S-wave (km/s) = 3.01906 3.82835 3.44753
# Velocity P-wave (km/s) = 6.54836 7.25731 6.91193
#
# Compressibility (1/GPa) = 0.01177591
#
# Stress axis : x y z
#
# Youngs Moduli (GPa) = 124.32511 62.13969 115.40861
#
# Poissons Ratio (x) = 0.22730 0.18272
# Poissons Ratio (y) = 0.45477 0.60836
# Poissons Ratio (z) = 0.19684 0.32756
#
# Static dielectric constant tensor:
#      x y z
#    x 2.265280 0.000000 0.000000 
#    y 0.000000 2.418570 0.000000 
#    z 0.000000 0.000000 2.174750 
# 
# From -- ./inp_files/4148.got.cif
#   From: 2010.05.17/outbox.cif.g08.bks.cpg/sg33_3_cif.got.tgz:4148.got - 2010.06.03 17:15:25.
