data_PCOD9346075
_publ_section_title
;
Structure prediction by ZEFSAII (Michael W. Deem and Ramdas Pophale) SiO2 
 PCOD9346075
Probable space group: P N A 21
;
_chemical_formula_sum "Si O2"
_cell_formula_units_Z 32
_cell_length_a 13.303011
_cell_length_b 19.814203
_cell_length_c 5.317488
_cell_angle_alpha 90.000000
_cell_angle_beta 90.000000
_cell_angle_gamma 90.000000
_cell_volume 1401.629007
_symmetry_space_group_name_H-M "P N A 21"
_symmetry_group_IT_number 33
_symmetry_cell_setting 'orthorhombic'
loop_
_space_group_symop_operation_xyz
x,y,z
-x,-y,1/2+z
1/2-x,1/2+y,1/2+z
1/2+x,1/2-y,z
loop_
_atom_site_type_symbol
_atom_site_label
_atom_site_fract_x
_atom_site_fract_y
_atom_site_fract_z
Si Si1 0.411026 0.745356 0.995570
Si Si2 0.212636 0.991749 0.695557
Si Si3 0.414747 0.609253 0.253954
Si Si4 0.286065 0.277453 0.733108
Si Si5 0.911022 0.337994 0.453705
Si Si6 0.257769 0.674907 0.625906
Si Si7 0.054324 0.526606 0.234749
Si Si8 0.636387 0.575325 0.214796
O O1 0.491779 0.795071 0.877292
O O2 0.343410 0.705080 0.801346
O O3 0.450812 0.682571 0.158287
O O4 0.331323 0.784919 0.166224
O O5 0.202737 0.942607 0.458201
O O6 0.150552 0.056944 0.590575
O O7 0.329072 0.005058 0.750588
O O8 0.160955 0.965178 0.956259
O O9 0.325499 0.628403 0.447098
O O10 0.519650 0.571268 0.302540
O O11 0.337506 0.217110 0.577785
O O12 0.337518 0.346753 0.669051
O O13 0.289790 0.243190 0.006003
O O14 0.836683 0.365639 0.238900
O O15 0.943654 0.395332 0.647155
O O16 0.999065 0.511759 0.498719
#
# Coordination Sequence:
#
# PCOD9346075 Si02
#       8
#     4   4   4   4   4   4   4   4
#     4  10  23  42  73 105 143 189 250 311 373 446
#     4  12  29  49  74 109 154 204 249 315 375 461
#     4  11  25  47  73 109 149 198 257 304 392 445
#     4  10  24  43  66 110 143 194 244 323 368 441
#     4  11  25  46  76 104 150 196 252 309 384 444
#     4  10  24  41  74 102 146 196 246 316 378 450
#     4  12  30  52  78 111 153 207 254 308 384 469
#     4  12  28  46  78 110 154 196 260 312 378 446
#
# _framework density 22.830576000000001
#
# number of rings (size 3 to 8) (size 9 to 14) (size 15 to 20)
#    0.000    1.000    1.250    3.750   17.500    0.000 
#    0.000    0.000    0.000    0.000    0.000    0.000 
#    0.000    0.000    0.000    0.000    0.000    0.000 
#
# Total GULP energy -178459.735676 kJ/mol
# GULP energy per Si atom -5576.866740 kJ/mol
# Density = 2.277861 g / cm^3
# Si number density = 22.830576 Si / 1000 Ang^3
#
#
#
# Elastic Constant Matrix: (Units=GPa)
#
#
# Indices 1 2 3 4 5 6 
#
# 1 124.6626 45.6947 9.8845 0.0000 0.0000 0.0000
# 2 45.6947 79.5640 12.0767 0.0000 0.0000 0.0000
# 3 9.8845 12.0767 48.2887 0.0000 0.0000 0.0000
# 4 0.0000 0.0000 0.0000 189.1936 0.0000 0.0000
# 5 0.0000 0.0000 0.0000 0.0000 10.2071 0.0000
# 6 0.0000 0.0000 0.0000 0.0000 0.0000 29.0609
#
#
#
# Elastic Compliance Matrix: (Units=1/GPa)
#
#
# Indices 1 2 3 4 5 6 
#
# 1 0.010180 -0.005748 -0.000646 0.000000 0.000000 0.000000
# 2 -0.005748 0.016310 -0.002902 0.000000 0.000000 0.000000
# 3 -0.000646 -0.002902 0.021567 0.000000 0.000000 0.000000
# 4 0.000000 0.000000 0.000000 0.005286 0.000000 0.000000
# 5 0.000000 0.000000 0.000000 0.000000 0.097971 0.000000
# 6 0.000000 0.000000 0.000000 0.000000 0.000000 0.034411
#
#
# Mechanical properties :
#
#
# Convention : Reuss Voigt Hill
#
# Bulk Modulus (GPa) = 33.94056 43.09191 38.51624
# Shear Modulus (GPa) = 23.34922 58.01626 40.68274
#
# Velocity S-wave (km/s) = 3.20146 5.04647 4.22588
# Velocity P-wave (km/s) = 5.34457 7.27127 6.38106
#
# Compressibility (1/GPa) = 0.02946327
#
# Stress axis : x y z
#
# Youngs Moduli (GPa) = 98.23234 61.31039 46.36727
#
# Poissons Ratio (x) = 0.35244 0.02996
# Poissons Ratio (y) = 0.56468 0.13458
# Poissons Ratio (z) = 0.06347 0.17795
#
# Static dielectric constant tensor:
#      x y z
#    x 1.858830 0.000000 0.000000 
#    y 0.000000 1.866230 0.000000 
#    z 0.000000 0.000000 2.033880 
# 
# From -- ./inp_files/1055.got.cif
#   From: 2010.05.17/outbox.cif.g08.bks.cpg/sg33_1_cif.got.tgz:1055.got - 2010.06.03 17:15:25.
