data_PCOD9346793
_publ_section_title
;
Structure prediction by ZEFSAII (Michael W. Deem and Ramdas Pophale) SiO2 
 PCOD9346793
Probable space group: P N A 21
;
_chemical_formula_sum "Si O2"
_cell_formula_units_Z 20
_cell_length_a 9.120987
_cell_length_b 10.241366
_cell_length_c 7.717995
_cell_angle_alpha 90.000000
_cell_angle_beta 90.000000
_cell_angle_gamma 90.000000
_cell_volume 720.948457
_symmetry_space_group_name_H-M "P N A 21"
_symmetry_group_IT_number 33
_symmetry_cell_setting 'orthorhombic'
loop_
_space_group_symop_operation_xyz
x,y,z
-x,-y,1/2+z
1/2-x,1/2+y,1/2+z
1/2+x,1/2-y,z
loop_
_atom_site_type_symbol
_atom_site_label
_atom_site_fract_x
_atom_site_fract_y
_atom_site_fract_z
Si Si1 0.642778 0.386047 0.715390
Si Si2 0.043011 0.657737 0.051447
Si Si3 0.723640 0.212621 0.012836
Si Si4 0.472332 0.641948 0.623428
Si Si5 0.327115 0.018446 0.248504
O O1 0.810675 0.356729 0.668836
O O2 0.539176 0.292402 0.600107
O O3 0.598824 0.534986 0.687774
O O4 0.337695 0.540832 0.688112
O O5 0.929550 0.542762 0.101029
O O6 0.108284 0.636312 0.861645
O O7 0.633949 0.340488 0.918818
O O8 0.893338 0.229811 0.028773
O O9 0.685064 0.095938 0.890961
O O10 0.370138 0.770061 0.683652
#
# Coordination Sequence:
#
# PCOD9346793 Si02
#       5
#     4   4   4   4   4
#     4  11  24  48  82 113 165 216 273 352 416 495
#     4  11  25  49  76 116 162 211 275 348 411 506
#     4  11  25  50  78 118 164 219 277 352 415 498
#     4  12  26  47  83 113 161 223 273 339 425 502
#     4  11  26  50  77 120 158 217 276 341 423 493
#
# _framework density 27.741235
#
# number of rings (size 3 to 8) (size 9 to 14) (size 15 to 20)
#    0.000    0.800    2.000    6.000    5.600    1.600 
#    0.000    0.000    0.000    0.000    0.000    0.000 
#    0.000    0.000    0.000    0.000    0.000    0.000 
#
# Total GULP energy -111452.285947 kJ/mol
# GULP energy per Si atom -5572.614297 kJ/mol
# Density = 2.767809 g / cm^3
# Si number density = 27.741235 Si / 1000 Ang^3
#
#
#
# Elastic Constant Matrix: (Units=GPa)
#
#
# Indices 1 2 3 4 5 6 
#
# 1 192.4073 42.4936 -11.2494 0.0000 0.0000 0.0000
# 2 42.4936 104.3107 38.0562 0.0000 0.0000 0.0000
# 3 -11.2494 38.0562 59.6847 0.0000 0.0000 0.0000
# 4 0.0000 0.0000 0.0000 58.4836 0.0000 0.0000
# 5 0.0000 0.0000 0.0000 0.0000 8.0690 0.0000
# 6 0.0000 0.0000 0.0000 0.0000 0.0000 50.6255
#
#
#
# Elastic Compliance Matrix: (Units=1/GPa)
#
#
# Indices 1 2 3 4 5 6 
#
# 1 0.006271 -0.003891 0.003663 0.000000 0.000000 0.000000
# 2 -0.003891 0.014907 -0.010238 0.000000 0.000000 0.000000
# 3 0.003663 -0.010238 0.023973 0.000000 0.000000 0.000000
# 4 0.000000 0.000000 0.000000 0.017099 0.000000 0.000000
# 5 0.000000 0.000000 0.000000 0.000000 0.123930 0.000000
# 6 0.000000 0.000000 0.000000 0.000000 0.000000 0.019753
#
#
# Mechanical properties :
#
#
# Convention : Reuss Voigt Hill
#
# Bulk Modulus (GPa) = 41.29120 55.00038 48.14579
# Shear Modulus (GPa) = 21.28210 42.57577 31.92894
#
# Velocity S-wave (km/s) = 2.77278 3.92183 3.39625
# Velocity P-wave (km/s) = 5.01675 6.35429 5.72472
#
# Compressibility (1/GPa) = 0.02421824
#
# Stress axis : x y z
#
# Youngs Moduli (GPa) = 159.46984 67.08187 41.71296
#
# Poissons Ratio (x) = 0.26101 -0.15279
# Poissons Ratio (y) = 0.62048 0.42708
# Poissons Ratio (z) = -0.58411 0.68682
#
# Static dielectric constant tensor:
#      x y z
#    x 2.189880 0.000000 0.000000 
#    y 0.000000 2.243060 0.000000 
#    z 0.000000 0.000000 2.277940 
# 
# From -- ./inp_files/5731.got.cif
#   From: 2010.05.17/outbox.cif.g08.bks.cpg/sg33_3_cif.got.tgz:5731.got - 2010.06.03 17:15:25.
