data_PCOD9346590
_publ_section_title
;
Structure prediction by ZEFSAII (Michael W. Deem and Ramdas Pophale) SiO2 
 PCOD9346590
Probable space group: P N A 21
;
_chemical_formula_sum "Si O2"
_cell_formula_units_Z 20
_cell_length_a 26.877750
_cell_length_b 4.927871
_cell_length_c 5.249430
_cell_angle_alpha 90.000000
_cell_angle_beta 90.000000
_cell_angle_gamma 90.000000
_cell_volume 695.287448
_symmetry_space_group_name_H-M "P N A 21"
_symmetry_group_IT_number 33
_symmetry_cell_setting 'orthorhombic'
loop_
_space_group_symop_operation_xyz
x,y,z
-x,-y,1/2+z
1/2-x,1/2+y,1/2+z
1/2+x,1/2-y,z
loop_
_atom_site_type_symbol
_atom_site_label
_atom_site_fract_x
_atom_site_fract_y
_atom_site_fract_z
Si Si1 0.988664 0.678606 0.678240
Si Si2 0.913238 0.136053 0.091754
Si Si3 0.813462 0.852142 0.089252
Si Si4 0.791791 0.362462 0.794682
Si Si5 0.109254 0.522912 0.082649
O O1 0.929190 0.721983 0.645453
O O2 0.002460 0.470572 0.447619
O O3 0.027958 0.921316 0.627402
O O4 0.870260 0.919158 0.151534
O O5 0.904867 0.354896 0.313709
O O6 0.903052 0.272835 0.818233
O O7 0.765857 0.927966 0.257105
O O8 0.802089 0.046702 0.843661
O O9 0.807644 0.536118 0.038097
O O10 0.830940 0.491251 0.595045
#
# Coordination Sequence:
#
# PCOD9346590 Si02
#       5
#     4   4   4   4   4
#     4   8  14  28  54  84 118 156 200 248 302 362
#     4   9  18  34  58  89 122 161 204 253 307 367
#     4  11  23  40  63  92 126 164 209 258 312 371
#     4  11  23  40  63  92 126 164 209 258 312 371
#     4   9  18  34  58  89 122 161 204 253 307 367
#
# _framework density 28.765077999999999
#
# number of rings (size 3 to 8) (size 9 to 14) (size 15 to 20)
#    0.000    2.400    0.000    2.400    0.000    3.200 
#    0.000    0.000    0.000   33.600    0.000    0.000 
#    0.000    0.000    0.000    0.000    0.000    0.000 
#
# Total GULP energy -111918.492062 kJ/mol
# GULP energy per Si atom -5595.924603 kJ/mol
# Density = 2.869961 g / cm^3
# Si number density = 28.765078 Si / 1000 Ang^3
#
#
#
# Elastic Constant Matrix: (Units=GPa)
#
#
# Indices 1 2 3 4 5 6 
#
# 1 169.1352 55.0930 63.7997 0.0000 0.0000 0.0000
# 2 55.0930 93.5541 40.5454 0.0000 0.0000 0.0000
# 3 63.7997 40.5454 119.8247 0.0000 0.0000 0.0000
# 4 0.0000 0.0000 0.0000 15.3237 0.0000 0.0000
# 5 0.0000 0.0000 0.0000 0.0000 58.3067 0.0000
# 6 0.0000 0.0000 0.0000 0.0000 0.0000 35.6137
#
#
#
# Elastic Compliance Matrix: (Units=1/GPa)
#
#
# Indices 1 2 3 4 5 6 
#
# 1 0.008257 -0.003465 -0.003224 0.000000 0.000000 0.000000
# 2 -0.003465 0.013980 -0.002885 0.000000 0.000000 0.000000
# 3 -0.003224 -0.002885 0.011038 0.000000 0.000000 0.000000
# 4 0.000000 0.000000 0.000000 0.065258 0.000000 0.000000
# 5 0.000000 0.000000 0.000000 0.000000 0.017151 0.000000
# 6 0.000000 0.000000 0.000000 0.000000 0.000000 0.028079
#
#
# Mechanical properties :
#
#
# Convention : Reuss Voigt Hill
#
# Bulk Modulus (GPa) = 70.78905 77.93223 74.36064
# Shear Modulus (GPa) = 29.82891 36.72056 33.27473
#
# Velocity S-wave (km/s) = 3.22372 3.57678 3.40483
# Velocity P-wave (km/s) = 6.20639 6.64901 6.43151
#
# Compressibility (1/GPa) = 0.01412648
#
# Stress axis : x y z
#
# Youngs Moduli (GPa) = 121.10422 71.52947 90.59254
#
# Poissons Ratio (x) = 0.24788 0.29207
# Poissons Ratio (y) = 0.41968 0.26140
# Poissons Ratio (z) = 0.39043 0.20639
#
# Static dielectric constant tensor:
#      x y z
#    x 2.468450 0.000000 0.000000 
#    y 0.000000 2.153630 0.000000 
#    z 0.000000 0.000000 2.256290 
# 
# From -- ./inp_files/2338.got.cif
#   From: 2010.05.17/outbox.cif.g08.bks.cpg/sg33_2_cif.got.tgz:2338.got - 2010.06.03 17:15:25.
