data_PCOD9346908
_publ_section_title
;
Structure prediction by ZEFSAII (Michael W. Deem and Ramdas Pophale) SiO2 
 PCOD9346908
Probable space group: P N A 21
;
_chemical_formula_sum "Si O2"
_cell_formula_units_Z 20
_cell_length_a 9.132431
_cell_length_b 4.935697
_cell_length_c 16.234173
_cell_angle_alpha 90.000000
_cell_angle_beta 90.000000
_cell_angle_gamma 90.000000
_cell_volume 731.753924
_symmetry_space_group_name_H-M "P N A 21"
_symmetry_group_IT_number 33
_symmetry_cell_setting 'orthorhombic'
loop_
_space_group_symop_operation_xyz
x,y,z
-x,-y,1/2+z
1/2-x,1/2+y,1/2+z
1/2+x,1/2-y,z
loop_
_atom_site_type_symbol
_atom_site_label
_atom_site_fract_x
_atom_site_fract_y
_atom_site_fract_z
Si Si1 0.181042 0.102716 0.337850
Si Si2 0.603966 0.083616 0.186755
Si Si3 0.108611 0.451568 0.474977
Si Si4 0.560887 0.232039 0.827734
Si Si5 0.380138 0.457346 0.084936
O O1 0.009665 0.024156 0.338456
O O2 0.202469 0.260863 0.254247
O O3 0.056912 0.225131 0.540518
O O4 0.268174 0.823544 0.330779
O O5 0.502110 0.886433 0.241582
O O6 0.502117 0.301950 0.139589
O O7 0.729543 0.956741 0.129542
O O8 0.216961 0.276149 0.417804
O O9 0.165045 0.717215 0.521420
O O10 0.996822 0.568439 0.407497
#
# Coordination Sequence:
#
# PCOD9346908 Si02
#       5
#     4   4   4   4   4
#     4  11  26  50  77 110 153 204 256 303 373 462
#     4  11  28  46  74 111 149 201 248 310 377 444
#     4  11  28  48  76 111 149 195 248 310 376 440
#     4  11  26  50  77 110 149 210 248 310 367 467
#     4  12  28  48  76 112 152 192 250 317 375 439
#
# _framework density 27.331589999999998
#
# number of rings (size 3 to 8) (size 9 to 14) (size 15 to 20)
#    0.000    0.800    4.000    0.000   14.000    1.600 
#    0.000    0.000    0.000    0.000    0.000    0.000 
#    0.000    0.000    0.000    0.000    0.000    0.000 
#
# Total GULP energy -112064.585036 kJ/mol
# GULP energy per Si atom -5603.229252 kJ/mol
# Density = 2.726938 g / cm^3
# Si number density = 27.331590 Si / 1000 Ang^3
#
#
#
# Elastic Constant Matrix: (Units=GPa)
#
#
# Indices 1 2 3 4 5 6 
#
# 1 88.6146 -2.3929 31.8360 0.0000 0.0000 0.0000
# 2 -2.3929 114.7002 35.9480 0.0000 0.0000 0.0000
# 3 31.8360 35.9480 134.4804 0.0000 0.0000 0.0000
# 4 0.0000 0.0000 0.0000 46.2134 0.0000 0.0000
# 5 0.0000 0.0000 0.0000 0.0000 21.1727 0.0000
# 6 0.0000 0.0000 0.0000 0.0000 0.0000 35.7257
#
#
#
# Elastic Compliance Matrix: (Units=1/GPa)
#
#
# Indices 1 2 3 4 5 6 
#
# 1 0.012508 0.001298 -0.003308 0.000000 0.000000 0.000000
# 2 0.001298 0.009650 -0.002887 0.000000 0.000000 0.000000
# 3 -0.003308 -0.002887 0.008991 0.000000 0.000000 0.000000
# 4 0.000000 0.000000 0.000000 0.021639 0.000000 0.000000
# 5 0.000000 0.000000 0.000000 0.000000 0.047231 0.000000
# 6 0.000000 0.000000 0.000000 0.000000 0.000000 0.027991
#
#
# Mechanical properties :
#
#
# Convention : Reuss Voigt Hill
#
# Bulk Modulus (GPa) = 46.82725 52.06417 49.44571
# Shear Modulus (GPa) = 34.50121 38.78262 36.64192
#
# Velocity S-wave (km/s) = 3.55677 3.77100 3.66545
# Velocity P-wave (km/s) = 5.83418 6.16855 6.00370
#
# Compressibility (1/GPa) = 0.02135509
#
# Stress axis : x y z
#
# Youngs Moduli (GPa) = 79.94682 103.62469 111.22447
#
# Poissons Ratio (x) = -0.13448 0.36793
# Poissons Ratio (y) = -0.10375 0.32108
# Poissons Ratio (z) = 0.26447 0.29915
#
# Static dielectric constant tensor:
#      x y z
#    x 2.089530 0.000000 0.000000 
#    y 0.000000 2.053820 0.000000 
#    z 0.000000 0.000000 2.157540 
# 
# From -- ./inp_files/5688.got.cif
#   From: 2010.05.17/outbox.cif.g08.bks.cpg/sg33_3_cif.got.tgz:5688.got - 2010.06.03 17:15:25.
