data_PCOD9346890
_publ_section_title
;
Structure prediction by ZEFSAII (Michael W. Deem and Ramdas Pophale) SiO2 
 PCOD9346890
Probable space group: P N A 21
;
_chemical_formula_sum "Si O2"
_cell_formula_units_Z 20
_cell_length_a 7.413624
_cell_length_b 7.283975
_cell_length_c 13.906340
_cell_angle_alpha 90.000000
_cell_angle_beta 90.000000
_cell_angle_gamma 90.000000
_cell_volume 750.951425
_symmetry_space_group_name_H-M "P N A 21"
_symmetry_group_IT_number 33
_symmetry_cell_setting 'orthorhombic'
loop_
_space_group_symop_operation_xyz
x,y,z
-x,-y,1/2+z
1/2-x,1/2+y,1/2+z
1/2+x,1/2-y,z
loop_
_atom_site_type_symbol
_atom_site_label
_atom_site_fract_x
_atom_site_fract_y
_atom_site_fract_z
Si Si1 0.211899 0.620719 0.416010
Si Si2 0.691165 0.994231 0.632289
Si Si3 0.111739 0.082152 0.627264
Si Si4 0.105265 0.369155 0.263870
Si Si5 0.617459 0.475143 0.402952
O O1 0.159067 0.587433 0.526075
O O2 0.075598 0.514250 0.348807
O O3 0.405150 0.525633 0.401378
O O4 0.213080 0.831284 0.386017
O O5 0.619932 0.200780 0.648330
O O6 0.907906 0.008599 0.641819
O O7 0.574023 0.865781 0.700527
O O8 0.249964 0.968226 0.692896
O O9 0.161327 0.075335 0.513642
O O10 0.145256 0.186207 0.326456
#
# Coordination Sequence:
#
# PCOD9346890 Si02
#       5
#     4   4   4   4   4
#     4  11  29  55  85 130 183 238 305 382 464 558
#     4  11  25  53  90 132 185 243 303 388 472 549
#     4  11  25  53  89 134 183 239 314 380 465 558
#     4  12  28  56  90 131 182 242 308 382 462 566
#     4  11  29  57  86 129 183 244 302 388 469 555
#
# _framework density 26.632881999999999
#
# number of rings (size 3 to 8) (size 9 to 14) (size 15 to 20)
#    0.000    0.800    4.000    0.000    5.600    3.200 
#   18.000    0.000    0.000    0.000    0.000    0.000 
#    0.000    0.000    0.000    0.000    0.000    0.000 
#
# Total GULP energy -112249.129182 kJ/mol
# GULP energy per Si atom -5612.456459 kJ/mol
# Density = 2.657226 g / cm^3
# Si number density = 26.632882 Si / 1000 Ang^3
#
#
#
# Elastic Constant Matrix: (Units=GPa)
#
#
# Indices 1 2 3 4 5 6 
#
# 1 78.5387 52.2215 98.4853 0.0000 0.0000 0.0000
# 2 52.2215 240.3341 115.8931 0.0000 0.0000 0.0000
# 3 98.4853 115.8931 227.5180 0.0000 0.0000 0.0000
# 4 0.0000 0.0000 0.0000 62.6026 0.0000 0.0000
# 5 0.0000 0.0000 0.0000 0.0000 28.2037 0.0000
# 6 0.0000 0.0000 0.0000 0.0000 0.0000 -45.1110
#
#
#
# Elastic Compliance Matrix: (Units=1/GPa)
#
#
# Indices 1 2 3 4 5 6 
#
# 1 0.027867 -0.000316 -0.011902 0.000000 0.000000 0.000000
# 2 -0.000316 0.005519 -0.002675 0.000000 0.000000 0.000000
# 3 -0.011902 -0.002675 0.010910 0.000000 0.000000 0.000000
# 4 0.000000 0.000000 0.000000 0.015974 0.000000 0.000000
# 5 0.000000 0.000000 0.000000 0.000000 0.035456 0.000000
# 6 0.000000 0.000000 0.000000 0.000000 0.000000 -0.022168
#
#
# Mechanical properties :
#
#
# Convention : Reuss Voigt Hill
#
# Bulk Modulus (GPa) = 68.91211 119.95449 94.43330
# Shear Modulus (GPa) = 46.21877 27.79178 37.00528
#
# Velocity S-wave (km/s) = 4.17034 3.23385 3.73159
# Velocity P-wave (km/s) = 7.00856 7.68645 7.35532
#
# Compressibility (1/GPa) = 0.01451124
#
# Stress axis : x y z
#
# Youngs Moduli (GPa) = 35.88422 181.18287 91.66162
#
# Poissons Ratio (x) = 0.05723 1.09096
# Poissons Ratio (y) = 0.01133 0.24517
# Poissons Ratio (z) = 0.42709 0.48461
#
# Static dielectric constant tensor:
#      x y z
#    x 2.092190 0.000000 0.000000 
#    y 0.000000 2.035660 0.000000 
#    z 0.000000 0.000000 2.054310 
# 
# From -- ./inp_files/7794.got.cif
#   From: 2010.05.17/outbox.cif.g08.bks.cpg/sg33_4_cif.got.tgz:7794.got - 2010.06.03 17:15:25.
