data_PCOD9346023
_publ_section_title
;
Structure prediction by ZEFSAII (Michael W. Deem and Ramdas Pophale) SiO2 
 PCOD9346023
Probable space group: P N A 21
;
_chemical_formula_sum "Si O2"
_cell_formula_units_Z 32
_cell_length_a 29.244613
_cell_length_b 5.196065
_cell_length_c 8.277823
_cell_angle_alpha 90.000000
_cell_angle_beta 90.000000
_cell_angle_gamma 90.000000
_cell_volume 1257.872405
_symmetry_space_group_name_H-M "P N A 21"
_symmetry_group_IT_number 33
_symmetry_cell_setting 'orthorhombic'
loop_
_space_group_symop_operation_xyz
x,y,z
-x,-y,1/2+z
1/2-x,1/2+y,1/2+z
1/2+x,1/2-y,z
loop_
_atom_site_type_symbol
_atom_site_label
_atom_site_fract_x
_atom_site_fract_y
_atom_site_fract_z
Si Si1 0.887874 0.211224 0.282880
Si Si2 0.493545 0.017132 0.037513
Si Si3 0.788602 0.116722 0.381058
Si Si4 0.930585 0.856168 0.525994
Si Si5 0.862535 0.554337 0.733416
Si Si6 0.233180 0.408831 0.073695
Si Si7 0.899945 0.720633 0.069090
Si Si8 0.051478 0.777269 0.287555
O O1 0.841601 0.197772 0.387659
O O2 0.891840 0.485364 0.195532
O O3 0.926154 0.093717 0.404003
O O4 0.885789 0.983583 0.152092
O O5 0.539834 0.126036 0.953275
O O6 0.453797 0.803128 0.021576
O O7 0.518524 0.934970 0.203596
O O8 0.461082 0.253254 0.974871
O O9 0.760598 0.354612 0.453333
O O10 0.775658 0.104243 0.193408
O O11 0.777419 0.854358 0.476942
O O12 0.884333 0.730427 0.591728
O O13 0.955735 0.968084 0.684859
O O14 0.810267 0.518204 0.687721
O O15 0.896320 0.308085 0.751481
O O16 0.870746 0.685347 0.906667
#
# Coordination Sequence:
#
# PCOD9346023 Si02
#       8
#     4   4   4   4   4   4   4   4
#     4  12  27  47  73 105 146 193 245 299 370 435
#     4  10  24  40  62 102 135 187 240 300 350 428
#     4  12  28  49  80 112 151 189 250 294 384 434
#     4  11  24  41  73  92 145 193 242 298 364 437
#     4  10  25  46  69 100 144 189 242 290 376 429
#     4  12  27  50  78 113 148 192 238 311 360 458
#     4  11  28  44  72 106 146 191 245 306 355 434
#     4  10  23  41  65  96 137 186 240 290 363 423
#
# _framework density 25.439781
#
# number of rings (size 3 to 8) (size 9 to 14) (size 15 to 20)
#    0.000    1.000    1.250    3.000   15.750    1.000 
#    0.000    0.000    0.000    0.000    0.000    0.000 
#    0.000    0.000    0.000    0.000    0.000    0.000 
#
# Total GULP energy -178674.259783 kJ/mol
# GULP energy per Si atom -5583.570618 kJ/mol
# Density = 2.538188 g / cm^3
# Si number density = 25.439781 Si / 1000 Ang^3
#
#
#
# Elastic Constant Matrix: (Units=GPa)
#
#
# Indices 1 2 3 4 5 6 
#
# 1 50.8950 11.6671 5.3803 0.0000 0.0000 0.0000
# 2 11.6671 114.4639 35.0416 0.0000 0.0000 0.0000
# 3 5.3803 35.0416 70.2964 0.0000 0.0000 0.0000
# 4 0.0000 0.0000 0.0000 53.0112 0.0000 0.0000
# 5 0.0000 0.0000 0.0000 0.0000 263.0190 0.0000
# 6 0.0000 0.0000 0.0000 0.0000 0.0000 30.7353
#
#
#
# Elastic Compliance Matrix: (Units=1/GPa)
#
#
# Indices 1 2 3 4 5 6 
#
# 1 0.020141 -0.001866 -0.000611 0.000000 0.000000 0.000000
# 2 -0.001866 0.010483 -0.005083 0.000000 0.000000 0.000000
# 3 -0.000611 -0.005083 0.016806 0.000000 0.000000 0.000000
# 4 0.000000 0.000000 0.000000 0.018864 0.000000 0.000000
# 5 0.000000 0.000000 0.000000 0.000000 0.003802 0.000000
# 6 0.000000 0.000000 0.000000 0.000000 0.000000 0.032536
#
#
# Mechanical properties :
#
#
# Convention : Reuss Voigt Hill
#
# Bulk Modulus (GPa) = 30.95065 37.75924 34.35494
# Shear Modulus (GPa) = 38.90441 81.59086 60.24764
#
# Velocity S-wave (km/s) = 3.91484 5.66937 4.87174
# Velocity P-wave (km/s) = 5.71203 7.59806 6.72152
#
# Compressibility (1/GPa) = 0.03230950
#
# Stress axis : x y z
#
# Youngs Moduli (GPa) = 49.65090 95.39704 59.50306
#
# Poissons Ratio (x) = 0.17798 0.03639
# Poissons Ratio (y) = 0.09263 0.30243
# Poissons Ratio (z) = 0.03036 0.48486
#
# Static dielectric constant tensor:
#      x y z
#    x 2.016060 0.000000 0.000000 
#    y 0.000000 1.985360 0.000000 
#    z 0.000000 0.000000 2.123600 
# 
# From -- ./inp_files/5314.got.cif
#   From: 2010.05.17/outbox.cif.g08.bks.cpg/sg33_3_cif.got.tgz:5314.got - 2010.06.03 17:15:25.
