data_PCOD9346263
_publ_section_title
;
Structure prediction by ZEFSAII (Michael W. Deem and Ramdas Pophale) SiO2 
 PCOD9346263
Probable space group: P N A 21
;
_chemical_formula_sum "Si O2"
_cell_formula_units_Z 28
_cell_length_a 13.328159
_cell_length_b 8.706971
_cell_length_c 11.284303
_cell_angle_alpha 90.000000
_cell_angle_beta 90.000000
_cell_angle_gamma 90.000000
_cell_volume 1309.519597
_symmetry_space_group_name_H-M "P N A 21"
_symmetry_group_IT_number 33
_symmetry_cell_setting 'orthorhombic'
loop_
_space_group_symop_operation_xyz
x,y,z
-x,-y,1/2+z
1/2-x,1/2+y,1/2+z
1/2+x,1/2-y,z
loop_
_atom_site_type_symbol
_atom_site_label
_atom_site_fract_x
_atom_site_fract_y
_atom_site_fract_z
Si Si1 0.619310 0.377309 0.101540
Si Si2 0.716835 0.415938 0.847505
Si Si3 0.111703 0.339421 0.311878
Si Si4 0.247196 0.342370 0.673979
Si Si5 0.219007 0.108328 0.463085
Si Si6 0.614737 0.601612 0.640670
Si Si7 0.387522 0.075860 0.263955
O O1 0.634206 0.222863 0.179090
O O2 0.675177 0.519276 0.164272
O O3 0.500909 0.408335 0.103555
O O4 0.664174 0.375762 0.970196
O O5 0.806374 0.539228 0.855892
O O6 0.761368 0.264946 0.786892
O O7 0.639469 0.493349 0.753824
O O8 0.127014 0.189447 0.393495
O O9 0.000586 0.408062 0.309969
O O10 0.253256 0.232572 0.560996
O O11 0.138734 0.424005 0.689436
O O12 0.309150 0.080199 0.372244
O O13 0.182370 0.960119 0.533982
O O14 0.632890 0.775642 0.682159
#
# Coordination Sequence:
#
# PCOD9346263 Si02
#       7
#     4   4   4   4   4   4   4
#     4  11  23  44  72  96 136 184 231 293 349 420
#     4  11  24  45  65 103 141 179 232 294 339 430
#     4  11  24  46  71 101 142 182 232 291 358 416
#     4  11  24  42  66  98 136 177 230 280 347 414
#     4  11  23  44  68  98 139 181 225 291 345 419
#     4  10  24  42  73  99 133 180 236 280 359 410
#     4  11  24  47  67 103 141 181 232 291 353 419
#
# _framework density 21.381888
#
# number of rings (size 3 to 8) (size 9 to 14) (size 15 to 20)
#    0.000    1.143    4.286    0.000    6.000    5.714 
#    7.714    0.000    0.000    0.000    0.000    0.000 
#    0.000    0.000    0.000    0.000    0.000    0.000 
#
# Total GULP energy -156626.800240 kJ/mol
# GULP energy per Si atom -5593.814294 kJ/mol
# Density = 2.133322 g / cm^3
# Si number density = 21.381888 Si / 1000 Ang^3
#
#
#
# Elastic Constant Matrix: (Units=GPa)
#
#
# Indices 1 2 3 4 5 6 
#
# 1 107.9509 -0.6342 37.2142 0.0000 0.0000 0.0000
# 2 -0.6342 26.8321 33.5563 0.0000 0.0000 0.0000
# 3 37.2142 33.5563 117.4829 0.0000 0.0000 0.0000
# 4 0.0000 0.0000 0.0000 38.2504 0.0000 0.0000
# 5 0.0000 0.0000 0.0000 0.0000 28.6602 0.0000
# 6 0.0000 0.0000 0.0000 0.0000 0.0000 17.4704
#
#
#
# Elastic Compliance Matrix: (Units=1/GPa)
#
#
# Indices 1 2 3 4 5 6 
#
# 1 0.011260 0.007354 -0.005667 0.000000 0.000000 0.000000
# 2 0.007354 0.062782 -0.020261 0.000000 0.000000 0.000000
# 3 -0.005667 -0.020261 0.016094 0.000000 0.000000 0.000000
# 4 0.000000 0.000000 0.000000 0.026143 0.000000 0.000000
# 5 0.000000 0.000000 0.000000 0.000000 0.034892 0.000000
# 6 0.000000 0.000000 0.000000 0.000000 0.000000 0.057240
#
#
# Mechanical properties :
#
#
# Convention : Reuss Voigt Hill
#
# Bulk Modulus (GPa) = 18.87289 43.61538 31.24413
# Shear Modulus (GPa) = 18.99529 29.01820 24.00675
#
# Velocity S-wave (km/s) = 2.98381 3.68793 3.35440
# Velocity P-wave (km/s) = 4.55154 6.21104 5.44489
#
# Compressibility (1/GPa) = 0.05298605
#
# Stress axis : x y z
#
# Youngs Moduli (GPa) = 88.80704 15.92824 62.13388
#
# Poissons Ratio (x) = -0.11713 0.35213
# Poissons Ratio (y) = -0.65306 1.25892
# Poissons Ratio (z) = 0.50329 0.32273
#
# Static dielectric constant tensor:
#      x y z
#    x 1.754920 0.000000 0.000000 
#    y 0.000000 1.792420 0.000000 
#    z 0.000000 0.000000 1.794440 
# 
# From -- ./inp_files/6746.got.cif
#   From: 2010.05.17/outbox.cif.g08.bks.cpg/sg33_4_cif.got.tgz:6746.got - 2010.06.03 17:15:25.
