data_PCOD9346952
_publ_section_title
;
Structure prediction by ZEFSAII (Michael W. Deem and Ramdas Pophale) SiO2 
 PCOD9346952
Probable space group: P N A 21
;
_chemical_formula_sum "Si O2"
_cell_formula_units_Z 20
_cell_length_a 9.733565
_cell_length_b 6.584693
_cell_length_c 15.000992
_cell_angle_alpha 90.000000
_cell_angle_beta 90.000000
_cell_angle_gamma 90.000000
_cell_volume 961.451640
_symmetry_space_group_name_H-M "P N A 21"
_symmetry_group_IT_number 33
_symmetry_cell_setting 'orthorhombic'
loop_
_space_group_symop_operation_xyz
x,y,z
-x,-y,1/2+z
1/2-x,1/2+y,1/2+z
1/2+x,1/2-y,z
loop_
_atom_site_type_symbol
_atom_site_label
_atom_site_fract_x
_atom_site_fract_y
_atom_site_fract_z
Si Si1 0.000000 0.772849 0.596830
Si Si2 0.946831 0.556682 0.248299
Si Si3 0.446831 0.056679 0.445360
Si Si4 0.670044 0.633496 0.175245
Si Si5 0.829957 0.866504 0.018412
O O1 0.042843 0.628370 0.678364
O O2 0.957158 0.628368 0.515296
O O3 0.117025 0.921820 0.558496
O O4 0.882973 0.921817 0.635163
O O5 0.040721 0.737302 0.209394
O O6 0.995063 0.500003 0.346829
O O7 0.786271 0.613767 0.250236
O O8 0.286270 0.113761 0.443421
O O9 0.540720 0.237303 0.484261
O O10 0.750001 0.749998 0.096828
#
# Coordination Sequence:
#
# PCOD9346952 Si02
#       5
#     4   4   4   4   4
#     4  12  24  46  76  98 142 190 230 294 354 416
#     4  12  29  44  73 109 142 186 237 296 354 422
#     4  12  29  44  73 109 142 186 237 296 354 422
#     4  12  24  50  71 102 144 184 242 288 352 427
#     4  12  24  50  71 102 144 184 242 288 352 427
#
# _framework density 20.801877000000001
#
# number of rings (size 3 to 8) (size 9 to 14) (size 15 to 20)
#    0.000    0.000    8.000    1.200    5.600    0.000 
#    0.000    0.000    0.000    0.000    0.000    0.000 
#    0.000    0.000    0.000    0.000    0.000    0.000 
#
# Total GULP energy -111874.149996 kJ/mol
# GULP energy per Si atom -5593.707500 kJ/mol
# Density = 2.075453 g / cm^3
# Si number density = 20.801877 Si / 1000 Ang^3
#
#
#
# Elastic Constant Matrix: (Units=GPa)
#
#
# Indices 1 2 3 4 5 6 
#
# 1 130.2321 60.0565 27.5701 0.0000 0.0000 0.0000
# 2 60.0565 125.5933 44.0158 0.0000 0.0000 0.0000
# 3 27.5701 44.0158 122.0538 0.0000 0.0000 0.0000
# 4 0.0000 0.0000 0.0000 25.0015 0.0000 0.0000
# 5 0.0000 0.0000 0.0000 0.0000 30.2441 0.0000
# 6 0.0000 0.0000 0.0000 0.0000 0.0000 31.8269
#
#
#
# Elastic Compliance Matrix: (Units=1/GPa)
#
#
# Indices 1 2 3 4 5 6 
#
# 1 0.009890 -0.004517 -0.000605 0.000000 0.000000 0.000000
# 2 -0.004517 0.011177 -0.003010 0.000000 0.000000 0.000000
# 3 -0.000605 -0.003010 0.009415 0.000000 0.000000 0.000000
# 4 0.000000 0.000000 0.000000 0.039998 0.000000 0.000000
# 5 0.000000 0.000000 0.000000 0.000000 0.033064 0.000000
# 6 0.000000 0.000000 0.000000 0.000000 0.000000 0.031420
#
#
# Mechanical properties :
#
#
# Convention : Reuss Voigt Hill
#
# Bulk Modulus (GPa) = 70.33649 71.24044 70.78846
# Shear Modulus (GPa) = 32.05778 33.83029 32.94403
#
# Velocity S-wave (km/s) = 3.92994 4.03713 3.98390
# Velocity P-wave (km/s) = 7.38096 7.48683 7.43409
#
# Compressibility (1/GPa) = 0.01421737
#
# Stress axis : x y z
#
# Youngs Moduli (GPa) = 101.11510 89.46738 106.20883
#
# Poissons Ratio (x) = 0.40413 0.06425
# Poissons Ratio (y) = 0.45674 0.31974
# Poissons Ratio (z) = 0.06117 0.26934
#
# Static dielectric constant tensor:
#      x y z
#    x 1.781230 0.000000 0.000000 
#    y 0.000000 1.745200 0.000000 
#    z 0.000000 0.000000 1.749510 
# 
# From -- ./inp_files/7784.got.cif
#   From: 2010.05.17/outbox.cif.g08.bks.cpg/sg33_4_cif.got.tgz:7784.got - 2010.06.03 17:15:25.
