data_PCOD9346871
_publ_section_title
;
Structure prediction by ZEFSAII (Michael W. Deem and Ramdas Pophale) SiO2 
 PCOD9346871
Probable space group: P N A 21
;
_chemical_formula_sum "Si O2"
_cell_formula_units_Z 24
_cell_length_a 5.428940
_cell_length_b 31.981179
_cell_length_c 4.838562
_cell_angle_alpha 90.000000
_cell_angle_beta 90.000000
_cell_angle_gamma 90.000000
_cell_volume 840.090014
_symmetry_space_group_name_H-M "P N A 21"
_symmetry_group_IT_number 33
_symmetry_cell_setting 'orthorhombic'
loop_
_space_group_symop_operation_xyz
x,y,z
-x,-y,1/2+z
1/2-x,1/2+y,1/2+z
1/2+x,1/2-y,z
loop_
_atom_site_type_symbol
_atom_site_label
_atom_site_fract_x
_atom_site_fract_y
_atom_site_fract_z
Si Si1 0.912546 0.476133 0.411540
Si Si2 0.798195 0.681522 0.917957
Si Si3 0.706703 0.339455 0.081085
Si Si4 0.211642 0.403898 0.665742
Si Si5 0.472313 0.573734 0.659141
Si Si6 0.305668 0.738845 0.304809
O O1 0.997805 0.431017 0.525654
O O2 0.098012 0.497035 0.191066
O O3 0.703122 0.576852 0.453715
O O4 0.672131 0.468525 0.224134
O O5 0.546273 0.672334 0.747566
O O6 0.555207 0.750199 0.457759
O O7 0.043410 0.672670 0.739795
O O8 0.818117 0.645878 0.157727
O O9 0.701627 0.389145 0.040903
O O10 0.693747 0.311208 0.802659
O O11 0.436217 0.412360 0.458094
O O12 0.299679 0.771943 0.051974
#
# Coordination Sequence:
#
# PCOD9346871 Si02
#       6
#     4   4   4   4   4   4
#     4  12  26  48  80 122 158 206 276 346 426 520
#     4  11  25  48  76 110 161 214 280 339 413 496
#     4  11  25  48  76 110 161 214 280 339 413 496
#     4  11  25  49  78 115 159 215 267 338 420 503
#     4  11  25  49  78 115 159 215 267 338 420 503
#     4  12  26  44  68 110 148 204 270 336 398 474
#
# _framework density 28.568366999999999
#
# number of rings (size 3 to 8) (size 9 to 14) (size 15 to 20)
#    0.000    0.667    1.667    5.000    0.000    9.333 
#    3.000    1.667    0.000    0.000    0.000    0.000 
#    0.000    0.000    0.000    0.000    0.000    0.000 
#
# Total GULP energy -134410.834469 kJ/mol
# GULP energy per Si atom -5600.451436 kJ/mol
# Density = 2.850334 g / cm^3
# Si number density = 28.568367 Si / 1000 Ang^3
#
#
#
# Elastic Constant Matrix: (Units=GPa)
#
#
# Indices 1 2 3 4 5 6 
#
# 1 179.3626 28.3557 46.7845 0.0000 0.0000 0.0000
# 2 28.3557 78.9736 70.7737 0.0000 0.0000 0.0000
# 3 46.7845 70.7737 150.3680 0.0000 0.0000 0.0000
# 4 0.0000 0.0000 0.0000 64.6323 0.0000 0.0000
# 5 0.0000 0.0000 0.0000 0.0000 25.9529 0.0000
# 6 0.0000 0.0000 0.0000 0.0000 0.0000 54.1522
#
#
#
# Elastic Compliance Matrix: (Units=1/GPa)
#
#
# Indices 1 2 3 4 5 6 
#
# 1 0.006100 -0.000846 -0.001500 0.000000 0.000000 0.000000
# 2 -0.000846 0.022017 -0.010100 0.000000 0.000000 0.000000
# 3 -0.001500 -0.010100 0.011870 0.000000 0.000000 0.000000
# 4 0.000000 0.000000 0.000000 0.015472 0.000000 0.000000
# 5 0.000000 0.000000 0.000000 0.000000 0.038531 0.000000
# 6 0.000000 0.000000 0.000000 0.000000 0.000000 0.018466
#
#
# Mechanical properties :
#
#
# Convention : Reuss Voigt Hill
#
# Bulk Modulus (GPa) = 66.23875 77.83690 72.03782
# Shear Modulus (GPa) = 35.11700 46.46684 40.79192
#
# Velocity S-wave (km/s) = 3.50984 4.03738 3.78282
# Velocity P-wave (km/s) = 6.29775 7.00278 6.65960
#
# Compressibility (1/GPa) = 0.01509690
#
# Stress axis : x y z
#
# Youngs Moduli (GPa) = 163.92728 45.41898 84.24271
#
# Poissons Ratio (x) = 0.03844 0.12633
# Poissons Ratio (y) = 0.13875 0.85081
# Poissons Ratio (z) = 0.24583 0.45871
#
# Static dielectric constant tensor:
#      x y z
#    x 2.255260 0.000000 0.000000 
#    y 0.000000 2.253160 0.000000 
#    z 0.000000 0.000000 2.109850 
# 
# From -- ./inp_files/5633.got.cif
#   From: 2010.05.17/outbox.cif.g08.bks.cpg/sg33_3_cif.got.tgz:5633.got - 2010.06.03 17:15:25.
