data_PCOD9346039
_publ_section_title
;
Structure prediction by ZEFSAII (Michael W. Deem and Ramdas Pophale) SiO2 
 PCOD9346039
Probable space group: P N A 21
;
_chemical_formula_sum "Si O2"
_cell_formula_units_Z 28
_cell_length_a 10.582200
_cell_length_b 5.676249
_cell_length_c 17.020830
_cell_angle_alpha 90.000000
_cell_angle_beta 90.000000
_cell_angle_gamma 90.000000
_cell_volume 1022.393637
_symmetry_space_group_name_H-M "P N A 21"
_symmetry_group_IT_number 33
_symmetry_cell_setting 'orthorhombic'
loop_
_space_group_symop_operation_xyz
x,y,z
-x,-y,1/2+z
1/2-x,1/2+y,1/2+z
1/2+x,1/2-y,z
loop_
_atom_site_type_symbol
_atom_site_label
_atom_site_fract_x
_atom_site_fract_y
_atom_site_fract_z
Si Si1 0.189382 0.555349 0.765470
Si Si2 0.683547 0.803682 0.354508
Si Si3 0.870122 0.823419 0.007765
Si Si4 0.122702 0.135126 0.135767
Si Si5 0.963695 0.375970 0.698650
Si Si6 0.876460 0.166588 0.407699
Si Si7 0.334363 0.173972 0.031842
O O1 0.297735 0.457967 0.822634
O O2 0.254685 0.672632 0.691828
O O3 0.105751 0.704190 0.824434
O O4 0.105069 0.345579 0.731236
O O5 0.619272 0.914767 0.278526
O O6 0.620950 0.817026 0.440024
O O7 0.816651 0.921273 0.378117
O O8 0.736231 0.788696 0.960812
O O9 0.992944 0.831295 0.953195
O O10 0.879154 0.584085 0.057315
O O11 0.870179 0.063304 0.057551
O O12 0.043270 0.368505 0.155508
O O13 0.183257 0.158068 0.049187
O O14 0.080760 0.865712 0.155656
#
# Coordination Sequence:
#
# PCOD9346039 Si02
#       7
#     4   4   4   4   4   4   4
#     4  11  23  41  70 100 141 181 243 293 359 419
#     4  10  23  41  71  99 138 181 244 295 352 414
#     4  11  26  43  74 103 143 179 242 294 358 406
#     4  11  26  48  67 100 146 185 236 284 368 430
#     4  11  25  44  71 102 138 187 236 296 350 425
#     4  11  23  42  71 108 136 184 237 307 342 419
#     4  11  24  49  68 104 138 189 234 299 355 435
#
# _framework density 27.386714000000001
#
# number of rings (size 3 to 8) (size 9 to 14) (size 15 to 20)
#    0.000    1.143    2.857    2.571    6.000    0.000 
#   12.857    0.000    0.000    0.000    0.000    0.000 
#    0.000    0.000    0.000    0.000    0.000    0.000 
#
# Total GULP energy -156383.713244 kJ/mol
# GULP energy per Si atom -5585.132616 kJ/mol
# Density = 2.732438 g / cm^3
# Si number density = 27.386714 Si / 1000 Ang^3
#
#
#
# Elastic Constant Matrix: (Units=GPa)
#
#
# Indices 1 2 3 4 5 6 
#
# 1 109.2863 53.1247 27.1048 0.0000 0.0000 0.0000
# 2 53.1247 187.2411 76.2044 0.0000 0.0000 0.0000
# 3 27.1048 76.2044 109.2554 0.0000 0.0000 0.0000
# 4 0.0000 0.0000 0.0000 47.8408 0.0000 0.0000
# 5 0.0000 0.0000 0.0000 0.0000 49.4177 0.0000
# 6 0.0000 0.0000 0.0000 0.0000 0.0000 48.1768
#
#
#
# Elastic Compliance Matrix: (Units=1/GPa)
#
#
# Indices 1 2 3 4 5 6 
#
# 1 0.010658 -0.002720 -0.000747 0.000000 0.000000 0.000000
# 2 -0.002720 0.008152 -0.005011 0.000000 0.000000 0.000000
# 3 -0.000747 -0.005011 0.012833 0.000000 0.000000 0.000000
# 4 0.000000 0.000000 0.000000 0.020903 0.000000 0.000000
# 5 0.000000 0.000000 0.000000 0.000000 0.020236 0.000000
# 6 0.000000 0.000000 0.000000 0.000000 0.000000 0.020757
#
#
# Mechanical properties :
#
#
# Convention : Reuss Voigt Hill
#
# Bulk Modulus (GPa) = 68.08691 79.85007 73.96849
# Shear Modulus (GPa) = 43.33153 45.71030 44.52092
#
# Velocity S-wave (km/s) = 3.98202 4.08986 4.03630
# Velocity P-wave (km/s) = 6.78654 7.17791 6.98497
#
# Compressibility (1/GPa) = 0.01468711
#
# Stress axis : x y z
#
# Youngs Moduli (GPa) = 93.82925 122.67217 77.92208
#
# Poissons Ratio (x) = 0.33365 0.05821
# Poissons Ratio (y) = 0.25520 0.39047
# Poissons Ratio (z) = 0.07009 0.61472
#
# Static dielectric constant tensor:
#      x y z
#    x 2.123100 0.000000 0.000000 
#    y 0.000000 2.212340 0.000000 
#    z 0.000000 0.000000 2.214170 
# 
# From -- ./inp_files/8648.got.cif
#   From: 2010.05.17/outbox.cif.g08.bks.cpg/sg33_5_cif.got.tgz:8648.got - 2010.06.03 17:15:25.
