data_PCOD9346811
_publ_section_title
;
Structure prediction by ZEFSAII (Michael W. Deem and Ramdas Pophale) SiO2 
 PCOD9346811
Probable space group: P N A 21
;
_chemical_formula_sum "Si O2"
_cell_formula_units_Z 28
_cell_length_a 8.284600
_cell_length_b 24.632430
_cell_length_c 5.327913
_cell_angle_alpha 90.000000
_cell_angle_beta 90.000000
_cell_angle_gamma 90.000000
_cell_volume 1087.266298
_symmetry_space_group_name_H-M "P N A 21"
_symmetry_group_IT_number 33
_symmetry_cell_setting 'orthorhombic'
loop_
_space_group_symop_operation_xyz
x,y,z
-x,-y,1/2+z
1/2-x,1/2+y,1/2+z
1/2+x,1/2-y,z
loop_
_atom_site_type_symbol
_atom_site_label
_atom_site_fract_x
_atom_site_fract_y
_atom_site_fract_z
Si Si1 0.099834 0.735164 0.254100
Si Si2 0.960574 0.658215 0.607866
Si Si3 0.470869 0.581901 0.739918
Si Si4 0.731476 0.500837 0.951242
Si Si5 0.800701 0.365604 0.504047
Si Si6 0.042962 0.441694 0.789412
Si Si7 0.139429 0.803606 0.758486
O O1 0.957367 0.696360 0.361407
O O2 0.225941 0.687464 0.173976
O O3 0.132177 0.768913 0.504603
O O4 0.079309 0.772158 0.006902
O O5 0.927079 0.596924 0.525944
O O6 0.826158 0.680325 0.794578
O O7 0.135977 0.657416 0.737338
O O8 0.357869 0.554414 0.530933
O O9 0.545939 0.640876 0.696481
O O10 0.608788 0.538621 0.803097
O O11 0.349279 0.594906 0.969680
O O12 0.790062 0.533631 0.197277
O O13 0.904983 0.486459 0.834013
O O14 0.951213 0.401376 0.598034
#
# Coordination Sequence:
#
# PCOD9346811 Si02
#       7
#     4   4   4   4   4   4   4
#     4  11  28  49  80 116 163 214 268 329 415 483
#     4  11  26  51  80 117 154 220 266 331 403 512
#     4  12  29  47  80 121 165 200 280 342 413 463
#     4  12  27  50  79 117 160 220 265 347 407 484
#     4  11  24  52  77 119 158 208 267 339 401 498
#     4  11  26  48  83 108 161 214 278 316 416 497
#     4  12  30  47  81 118 165 212 270 336 407 499
#
# _framework density 25.752658
#
# number of rings (size 3 to 8) (size 9 to 14) (size 15 to 20)
#    0.000    0.571    2.857    2.571   14.000    1.143 
#    0.000    0.000    0.000    0.000    0.000    0.000 
#    0.000    0.000    0.000    0.000    0.000    0.000 
#
# Total GULP energy -156718.017007 kJ/mol
# GULP energy per Si atom -5597.072036 kJ/mol
# Density = 2.569404 g / cm^3
# Si number density = 25.752658 Si / 1000 Ang^3
#
#
#
# Elastic Constant Matrix: (Units=GPa)
#
#
# Indices 1 2 3 4 5 6 
#
# 1 86.9753 22.6426 24.2467 0.0000 0.0000 0.0000
# 2 22.6426 141.8344 56.7758 0.0000 0.0000 0.0000
# 3 24.2467 56.7758 128.8725 0.0000 0.0000 0.0000
# 4 0.0000 0.0000 0.0000 38.3835 0.0000 0.0000
# 5 0.0000 0.0000 0.0000 0.0000 22.3111 0.0000
# 6 0.0000 0.0000 0.0000 0.0000 0.0000 25.9454
#
#
#
# Elastic Compliance Matrix: (Units=1/GPa)
#
#
# Indices 1 2 3 4 5 6 
#
# 1 0.012317 -0.001261 -0.001762 0.000000 0.000000 0.000000
# 2 -0.001261 0.008689 -0.003591 0.000000 0.000000 0.000000
# 3 -0.001762 -0.003591 0.009673 0.000000 0.000000 0.000000
# 4 0.000000 0.000000 0.000000 0.026053 0.000000 0.000000
# 5 0.000000 0.000000 0.000000 0.000000 0.044821 0.000000
# 6 0.000000 0.000000 0.000000 0.000000 0.000000 0.038542
#
#
# Mechanical properties :
#
#
# Convention : Reuss Voigt Hill
#
# Bulk Modulus (GPa) = 57.30060 62.77916 60.03988
# Shear Modulus (GPa) = 31.41888 34.26248 32.84068
#
# Velocity S-wave (km/s) = 3.49667 3.65148 3.57492
# Velocity P-wave (km/s) = 6.21297 6.49680 6.35647
#
# Compressibility (1/GPa) = 0.01745182
#
# Stress axis : x y z
#
# Youngs Moduli (GPa) = 81.18891 115.08558 103.38006
#
# Poissons Ratio (x) = 0.14513 0.18214
# Poissons Ratio (y) = 0.10238 0.37122
# Poissons Ratio (z) = 0.14304 0.41325
#
# Static dielectric constant tensor:
#      x y z
#    x 2.033740 0.000000 0.000000 
#    y 0.000000 2.041960 0.000000 
#    z 0.000000 0.000000 2.108460 
# 
# From -- ./inp_files/475.got.cif
#   From: 2010.05.17/outbox.cif.g08.bks.cpg/sg33_1_cif.got.tgz:475.got - 2010.06.03 17:15:25.
