data_PCOD9346748
_publ_section_title
;
Structure prediction by ZEFSAII (Michael W. Deem and Ramdas Pophale) SiO2 
 PCOD9346748
Probable space group: P N A 21
;
_chemical_formula_sum "Si O2"
_cell_formula_units_Z 28
_cell_length_a 15.753782
_cell_length_b 13.171234
_cell_length_c 5.055267
_cell_angle_alpha 90.000000
_cell_angle_beta 90.000000
_cell_angle_gamma 90.000000
_cell_volume 1048.951468
_symmetry_space_group_name_H-M "P N A 21"
_symmetry_group_IT_number 33
_symmetry_cell_setting 'orthorhombic'
loop_
_space_group_symop_operation_xyz
x,y,z
-x,-y,1/2+z
1/2-x,1/2+y,1/2+z
1/2+x,1/2-y,z
loop_
_atom_site_type_symbol
_atom_site_label
_atom_site_fract_x
_atom_site_fract_y
_atom_site_fract_z
Si Si1 0.032188 0.284285 0.649930
Si Si2 0.794487 0.434912 0.273779
Si Si3 0.125442 0.716858 0.381377
Si Si4 0.948401 0.537269 0.525494
Si Si5 0.705866 0.269889 0.631950
Si Si6 0.636085 0.456462 0.971559
Si Si7 0.470896 0.375509 0.252481
O O1 0.050637 0.345418 0.926456
O O2 0.127499 0.297688 0.530151
O O3 0.932951 0.320572 0.636184
O O4 0.006591 0.174752 0.522591
O O5 0.852760 0.500339 0.466834
O O6 0.747475 0.340098 0.410418
O O7 0.850411 0.381930 0.047544
O O8 0.717254 0.492640 0.135427
O O9 0.211555 0.770325 0.284806
O O10 0.067276 0.791848 0.553288
O O11 0.989232 0.521793 0.814237
O O12 0.661212 0.351529 0.828035
O O13 0.552762 0.431095 0.138231
O O14 0.605179 0.546068 0.786177
#
# Coordination Sequence:
#
# PCOD9346748 Si02
#       7
#     4   4   4   4   4   4   4
#     4  12  25  46  74 104 149 198 253 313 381 465
#     4  11  25  49  72 108 152 193 252 319 382 464
#     4  11  24  45  71 105 146 191 245 312 375 455
#     4  12  27  48  76 110 152 207 254 316 395 467
#     4  11  24  46  72 107 145 197 249 313 380 464
#     4  11  26  44  73 106 151 192 247 315 386 468
#     4  12  25  46  72 108 149 196 248 312 395 459
#
# _framework density 26.693325000000002
#
# number of rings (size 3 to 8) (size 9 to 14) (size 15 to 20)
#    0.000    0.571    4.286    3.429    2.000    3.429 
#    0.000    0.000    0.000    0.000    0.000    0.000 
#    0.000    0.000    0.000    0.000    0.000    0.000 
#
# Total GULP energy -156318.021452 kJ/mol
# GULP energy per Si atom -5582.786480 kJ/mol
# Density = 2.663257 g / cm^3
# Si number density = 26.693325 Si / 1000 Ang^3
#
#
#
# Elastic Constant Matrix: (Units=GPa)
#
#
# Indices 1 2 3 4 5 6 
#
# 1 221.3716 46.6589 38.2589 0.0000 0.0000 0.0000
# 2 46.6589 91.0302 35.2978 0.0000 0.0000 0.0000
# 3 38.2589 35.2978 85.1639 0.0000 0.0000 0.0000
# 4 0.0000 0.0000 0.0000 46.5103 0.0000 0.0000
# 5 0.0000 0.0000 0.0000 0.0000 57.1703 0.0000
# 6 0.0000 0.0000 0.0000 0.0000 0.0000 12.3801
#
#
#
# Elastic Compliance Matrix: (Units=1/GPa)
#
#
# Indices 1 2 3 4 5 6 
#
# 1 0.005215 -0.002102 -0.001471 0.000000 0.000000 0.000000
# 2 -0.002102 0.013937 -0.004832 0.000000 0.000000 0.000000
# 3 -0.001471 -0.004832 0.014406 0.000000 0.000000 0.000000
# 4 0.000000 0.000000 0.000000 0.021501 0.000000 0.000000
# 5 0.000000 0.000000 0.000000 0.000000 0.017492 0.000000
# 6 0.000000 0.000000 0.000000 0.000000 0.000000 0.080775
#
#
# Mechanical properties :
#
#
# Convention : Reuss Voigt Hill
#
# Bulk Modulus (GPa) = 59.71576 70.88853 65.30215
# Shear Modulus (GPa) = 28.45489 41.70213 35.07851
#
# Velocity S-wave (km/s) = 3.26850 3.95684 3.62903
# Velocity P-wave (km/s) = 6.05506 6.89128 6.48666
#
# Compressibility (1/GPa) = 0.01674600
#
# Stress axis : x y z
#
# Youngs Moduli (GPa) = 191.76607 71.75378 69.41717
#
# Poissons Ratio (x) = 0.15085 0.10213
# Poissons Ratio (y) = 0.40316 0.33541
# Poissons Ratio (z) = 0.28214 0.34670
#
# Static dielectric constant tensor:
#      x y z
#    x 2.160560 0.000000 0.000000 
#    y 0.000000 2.284220 0.000000 
#    z 0.000000 0.000000 2.230450 
# 
# From -- ./inp_files/1423.got.cif
#   From: 2010.05.17/outbox.cif.g08.bks.cpg/sg33_1_cif.got.tgz:1423.got - 2010.06.03 17:15:25.
