data_PCOD9346460
_publ_section_title
;
Structure prediction by ZEFSAII (Michael W. Deem and Ramdas Pophale) SiO2 
 PCOD9346460
Probable space group: P N A 21
;
_chemical_formula_sum "Si O2"
_cell_formula_units_Z 16
_cell_length_a 5.415876
_cell_length_b 13.929217
_cell_length_c 7.371237
_cell_angle_alpha 90.000000
_cell_angle_beta 90.000000
_cell_angle_gamma 90.000000
_cell_volume 556.078100
_symmetry_space_group_name_H-M "P N A 21"
_symmetry_group_IT_number 33
_symmetry_cell_setting 'orthorhombic'
loop_
_space_group_symop_operation_xyz
x,y,z
-x,-y,1/2+z
1/2-x,1/2+y,1/2+z
1/2+x,1/2-y,z
loop_
_atom_site_type_symbol
_atom_site_label
_atom_site_fract_x
_atom_site_fract_y
_atom_site_fract_z
Si Si1 0.293017 0.652368 0.151020
Si Si2 0.684515 0.666393 0.402518
Si Si3 0.512047 0.367832 0.267088
Si Si4 0.975657 0.538596 0.654927
O O1 0.497255 0.604251 0.281616
O O2 0.232987 0.745572 0.269481
O O3 0.082795 0.573147 0.120618
O O4 0.411204 0.678596 0.956885
O O5 0.546274 0.697367 0.589757
O O6 0.753097 0.428763 0.209742
O O7 0.248780 0.422238 0.283529
O O8 0.901527 0.597637 0.472101
#
# Coordination Sequence:
#
# PCOD9346460 Si02
#       4
#     4   4   4   4
#     4  12  26  51  90 119 176 236 280 369 453 505
#     4  10  29  48  79 132 167 224 303 355 429 541
#     4  10  27  52  78 125 172 223 293 358 433 535
#     4  10  26  55  83 120 177 221 290 366 431 531
#
# _framework density 28.772932999999998
#
# number of rings (size 3 to 8) (size 9 to 14) (size 15 to 20)
#    1.500    0.000    0.000    1.500    7.000    6.000 
#    0.000    0.000    5.500    0.000    0.000    0.000 
#    0.000    0.000    0.000    0.000    0.000    0.000 
#
# Total GULP energy -89575.780626 kJ/mol
# GULP energy per Si atom -5598.486289 kJ/mol
# Density = 2.870744 g / cm^3
# Si number density = 28.772933 Si / 1000 Ang^3
#
#
#
# Elastic Constant Matrix: (Units=GPa)
#
#
# Indices 1 2 3 4 5 6 
#
# 1 192.6020 61.5205 58.2796 0.0000 0.0000 0.0000
# 2 61.5205 167.9773 82.2622 0.0000 0.0000 0.0000
# 3 58.2796 82.2622 272.4822 0.0000 0.0000 0.0000
# 4 0.0000 0.0000 0.0000 22.4922 0.0000 0.0000
# 5 0.0000 0.0000 0.0000 0.0000 76.0445 0.0000
# 6 0.0000 0.0000 0.0000 0.0000 0.0000 38.9818
#
#
#
# Elastic Compliance Matrix: (Units=1/GPa)
#
#
# Indices 1 2 3 4 5 6 
#
# 1 0.006000 -0.001841 -0.000727 0.000000 0.000000 0.000000
# 2 -0.001841 0.007551 -0.001886 0.000000 0.000000 0.000000
# 3 -0.000727 -0.001886 0.004395 0.000000 0.000000 0.000000
# 4 0.000000 0.000000 0.000000 0.044460 0.000000 0.000000
# 5 0.000000 0.000000 0.000000 0.000000 0.013150 0.000000
# 6 0.000000 0.000000 0.000000 0.000000 0.000000 0.025653
#
#
# Mechanical properties :
#
#
# Convention : Reuss Voigt Hill
#
# Bulk Modulus (GPa) = 110.65568 115.24289 112.94929
# Shear Modulus (GPa) = 44.19656 56.23699 50.21677
#
# Velocity S-wave (km/s) = 3.92349 4.42578 4.18218
# Velocity P-wave (km/s) = 7.68549 8.13979 7.91590
#
# Compressibility (1/GPa) = 0.00903704
#
# Stress axis : x y z
#
# Youngs Moduli (GPa) = 166.65742 132.43125 227.53672
#
# Poissons Ratio (x) = 0.24385 0.16553
# Poissons Ratio (y) = 0.30687 0.42910
# Poissons Ratio (z) = 0.12124 0.24974
#
# Static dielectric constant tensor:
#      x y z
#    x 2.506680 0.000000 0.000000 
#    y 0.000000 2.276450 0.000000 
#    z 0.000000 0.000000 2.255440 
# 
# From -- ./inp_files/134.got.cif
#   From: 2010.05.17/outbox.cif.g08.bks.cpg/sg33_1_cif.got.tgz:134.got - 2010.06.03 17:15:25.
