data_PCOD9346159
_publ_section_title
;
Structure prediction by ZEFSAII (Michael W. Deem and Ramdas Pophale) SiO2 
 PCOD9346159
Probable space group: P N A 21
;
_chemical_formula_sum "Si O2"
_cell_formula_units_Z 32
_cell_length_a 14.390023
_cell_length_b 11.679451
_cell_length_c 8.526976
_cell_angle_alpha 90.000000
_cell_angle_beta 90.000000
_cell_angle_gamma 90.000000
_cell_volume 1433.108123
_symmetry_space_group_name_H-M "P N A 21"
_symmetry_group_IT_number 33
_symmetry_cell_setting 'orthorhombic'
loop_
_space_group_symop_operation_xyz
x,y,z
-x,-y,1/2+z
1/2-x,1/2+y,1/2+z
1/2+x,1/2-y,z
loop_
_atom_site_type_symbol
_atom_site_label
_atom_site_fract_x
_atom_site_fract_y
_atom_site_fract_z
Si Si1 0.393750 0.965626 0.752290
Si Si2 0.790363 0.115623 0.793715
Si Si3 0.818281 0.421187 0.445902
Si Si4 0.453796 0.432245 0.033780
Si Si5 0.253172 0.815031 0.941583
Si Si6 0.064477 0.688627 0.707318
Si Si7 0.694665 0.858833 0.440497
Si Si8 0.629128 0.508129 0.842432
O O1 0.483361 0.905293 0.680742
O O2 0.332859 0.012688 0.608087
O O3 0.394619 0.081207 0.856932
O O4 0.343762 0.871255 0.863630
O O5 0.780638 0.138466 0.609780
O O6 0.775284 0.238044 0.872607
O O7 0.713955 0.021617 0.832877
O O8 0.885299 0.078703 0.883244
O O9 0.741962 0.320832 0.454146
O O10 0.908396 0.349578 0.386934
O O11 0.468579 0.308687 0.123887
O O12 0.408567 0.512484 0.167685
O O13 0.547968 0.484603 0.965637
O O14 0.169156 0.862440 0.833352
O O15 0.160037 0.659143 0.615758
O O16 0.782146 0.938068 0.402574
#
# Coordination Sequence:
#
# PCOD9346159 Si02
#       8
#     4   4   4   4   4   4   4   4
#     4  11  24  44  72 101 142 187 241 303 372 437
#     4  11  24  44  70 103 139 194 239 307 366 442
#     4  12  24  43  71 101 143 189 240 298 374 437
#     4  11  25  44  72 108 145 194 249 305 373 437
#     4  11  24  45  68 104 140 188 247 300 364 452
#     4  11  25  44  68 107 145 187 243 309 368 445
#     4  10  23  45  71 100 145 190 245 297 371 449
#     4  11  23  45  68 104 145 191 240 307 360 441
#
# _framework density 22.329090999999998
#
# number of rings (size 3 to 8) (size 9 to 14) (size 15 to 20)
#    0.000    1.000    2.500    4.500    3.500    2.000 
#    0.000    0.000    0.000    0.000    0.000    0.000 
#    0.000    0.000    0.000    0.000    0.000    0.000 
#
# Total GULP energy -178290.048162 kJ/mol
# GULP energy per Si atom -5571.564005 kJ/mol
# Density = 2.227827 g / cm^3
# Si number density = 22.329091 Si / 1000 Ang^3
#
#
#
# Elastic Constant Matrix: (Units=GPa)
#
#
# Indices 1 2 3 4 5 6 
#
# 1 67.6522 30.4088 24.8538 0.0000 0.0000 0.0000
# 2 30.4088 105.5991 20.3217 0.0000 0.0000 0.0000
# 3 24.8538 20.3217 108.9488 0.0000 0.0000 0.0000
# 4 0.0000 0.0000 0.0000 33.2582 0.0000 0.0000
# 5 0.0000 0.0000 0.0000 0.0000 -0.7909 0.0000
# 6 0.0000 0.0000 0.0000 0.0000 0.0000 -148.1335
#
#
#
# Elastic Compliance Matrix: (Units=1/GPa)
#
#
# Indices 1 2 3 4 5 6 
#
# 1 0.018032 -0.004565 -0.003262 0.000000 0.000000 0.000000
# 2 -0.004565 0.010978 -0.001006 0.000000 0.000000 0.000000
# 3 -0.003262 -0.001006 0.010110 0.000000 0.000000 0.000000
# 4 0.000000 0.000000 0.000000 0.030068 0.000000 0.000000
# 5 0.000000 0.000000 0.000000 0.000000 -1.264392 0.000000
# 6 0.000000 0.000000 0.000000 0.000000 0.000000 -0.006751
#
#
# Mechanical properties :
#
#
# Convention : Reuss Voigt Hill
#
# Bulk Modulus (GPa) = 46.61156 48.15206 47.38181
# Shear Modulus (GPa) = -4.24759 -9.35886 -6.80322
#
# Velocity S-wave (km/s) = -1.38072 -2.04949 -1.74740
# Velocity P-wave (km/s) = 4.28699 4.00137 4.14664
#
# Compressibility (1/GPa) = 0.02145390
#
# Stress axis : x y z
#
# Youngs Moduli (GPa) = 55.45799 91.09197 98.90735
#
# Poissons Ratio (x) = 0.41581 0.32264
# Poissons Ratio (y) = 0.25315 0.09953
# Poissons Ratio (z) = 0.18090 0.09167
#
# Static dielectric constant tensor:
#      x y z
#    x 1.842090 0.000000 0.000000 
#    y 0.000000 1.933440 0.000000 
#    z 0.000000 0.000000 1.951740 
# 
# From -- ./inp_files/4455.got.cif
#   From: 2010.05.17/outbox.cif.g08.bks.cpg/sg33_3_cif.got.tgz:4455.got - 2010.06.03 17:15:25.
