data_PCOD9346137
_publ_section_title
;
Structure prediction by ZEFSAII (Michael W. Deem and Ramdas Pophale) SiO2 
 PCOD9346137
Probable space group: P N A 21
;
_chemical_formula_sum "Si O2"
_cell_formula_units_Z 28
_cell_length_a 11.162596
_cell_length_b 12.456505
_cell_length_c 9.190959
_cell_angle_alpha 90.000000
_cell_angle_beta 90.000000
_cell_angle_gamma 90.000000
_cell_volume 1277.974659
_symmetry_space_group_name_H-M "P N A 21"
_symmetry_group_IT_number 33
_symmetry_cell_setting 'orthorhombic'
loop_
_space_group_symop_operation_xyz
x,y,z
-x,-y,1/2+z
1/2-x,1/2+y,1/2+z
1/2+x,1/2-y,z
loop_
_atom_site_type_symbol
_atom_site_label
_atom_site_fract_x
_atom_site_fract_y
_atom_site_fract_z
Si Si1 0.443250 0.655702 0.876840
Si Si2 0.626248 0.052940 0.895520
Si Si3 0.564641 0.125095 0.362548
Si Si4 0.168490 0.948726 0.869599
Si Si5 0.961509 0.292618 0.051554
Si Si6 0.260042 0.569973 0.642884
Si Si7 0.374957 0.451237 0.056324
O O1 0.411560 0.766761 0.953609
O O2 0.588740 0.659518 0.866377
O O3 0.348986 0.637909 0.745208
O O4 0.427128 0.543436 0.956553
O O5 0.535223 0.953928 0.925552
O O6 0.686567 0.017188 0.741407
O O7 0.544098 0.157976 0.923125
O O8 0.737327 0.061388 0.005297
O O9 0.690981 0.068800 0.346855
O O10 0.521873 0.170242 0.205080
O O11 0.119804 0.997755 0.719803
O O12 0.163835 0.010113 0.020808
O O13 0.833673 0.352563 0.061932
O O14 0.936827 0.165485 0.042372
#
# Coordination Sequence:
#
# PCOD9346137 Si02
#       7
#     4   4   4   4   4   4   4
#     4  11  25  43  66 101 141 182 237 286 352 416
#     4  10  23  44  71 103 136 180 239 290 349 422
#     4  11  23  42  74  96 134 188 233 287 351 431
#     4  12  22  41  69 101 133 189 228 287 356 409
#     4  11  21  44  75  97 133 183 238 280 356 427
#     4  10  24  43  69 104 141 177 237 292 345 426
#     4  11  24  41  72 102 138 185 230 294 349 425
#
# _framework density 21.909669000000001
#
# number of rings (size 3 to 8) (size 9 to 14) (size 15 to 20)
#    0.000    1.143    4.286    1.714    4.000    0.000 
#    0.000    7.143    0.000    0.000    0.000    0.000 
#    0.000    0.000    0.000    0.000    0.000    0.000 
#
# Total GULP energy -156072.988055 kJ/mol
# GULP energy per Si atom -5574.035288 kJ/mol
# Density = 2.185980 g / cm^3
# Si number density = 21.909669 Si / 1000 Ang^3
#
#
#
# Elastic Constant Matrix: (Units=GPa)
#
#
# Indices 1 2 3 4 5 6 
#
# 1 108.9261 34.6488 16.0828 0.0000 0.0000 0.0000
# 2 34.6488 110.3471 33.9180 0.0000 0.0000 0.0000
# 3 16.0828 33.9180 50.2122 0.0000 0.0000 0.0000
# 4 0.0000 0.0000 0.0000 17.8863 0.0000 0.0000
# 5 0.0000 0.0000 0.0000 0.0000 28.8150 0.0000
# 6 0.0000 0.0000 0.0000 0.0000 0.0000 2.8636
#
#
#
# Elastic Compliance Matrix: (Units=1/GPa)
#
#
# Indices 1 2 3 4 5 6 
#
# 1 0.010277 -0.002796 -0.001403 0.000000 0.000000 0.000000
# 2 -0.002796 0.012197 -0.007344 0.000000 0.000000 0.000000
# 3 -0.001403 -0.007344 0.025326 0.000000 0.000000 0.000000
# 4 0.000000 0.000000 0.000000 0.055909 0.000000 0.000000
# 5 0.000000 0.000000 0.000000 0.000000 0.034704 0.000000
# 6 0.000000 0.000000 0.000000 0.000000 0.000000 0.349214
#
#
# Mechanical properties :
#
#
# Convention : Reuss Voigt Hill
#
# Bulk Modulus (GPa) = 40.46188 48.75383 44.60785
# Shear Modulus (GPa) = 9.63483 22.23537 15.93510
#
# Velocity S-wave (km/s) = 2.09930 3.18915 2.69979
# Velocity P-wave (km/s) = 4.93799 5.98844 5.48841
#
# Compressibility (1/GPa) = 0.02471462
#
# Stress axis : x y z
#
# Youngs Moduli (GPa) = 97.30466 81.98426 39.48563
#
# Poissons Ratio (x) = 0.22920 0.05541
# Poissons Ratio (y) = 0.27203 0.28998
# Poissons Ratio (z) = 0.13654 0.60208
#
# Static dielectric constant tensor:
#      x y z
#    x 1.847760 0.000000 0.000000 
#    y 0.000000 1.841330 0.000000 
#    z 0.000000 0.000000 1.882210 
# 
# From -- ./inp_files/3844.got.cif
#   From: 2010.05.17/outbox.cif.g08.bks.cpg/sg33_2_cif.got.tgz:3844.got - 2010.06.03 17:15:25.
