data_PCOD9346480
_publ_section_title
;
Structure prediction by ZEFSAII (Michael W. Deem and Ramdas Pophale) SiO2 
 PCOD9346480
Probable space group: P N A 21
;
_chemical_formula_sum "Si O2"
_cell_formula_units_Z 24
_cell_length_a 9.343450
_cell_length_b 12.493797
_cell_length_c 8.004229
_cell_angle_alpha 90.000000
_cell_angle_beta 90.000000
_cell_angle_gamma 90.000000
_cell_volume 934.375014
_symmetry_space_group_name_H-M "P N A 21"
_symmetry_group_IT_number 33
_symmetry_cell_setting 'orthorhombic'
loop_
_space_group_symop_operation_xyz
x,y,z
-x,-y,1/2+z
1/2-x,1/2+y,1/2+z
1/2+x,1/2-y,z
loop_
_atom_site_type_symbol
_atom_site_label
_atom_site_fract_x
_atom_site_fract_y
_atom_site_fract_z
Si Si1 0.286106 0.801640 0.713460
Si Si2 0.079908 0.054103 0.831236
Si Si3 0.365291 0.867031 0.073703
Si Si4 0.695900 0.448851 0.204687
Si Si5 0.954762 0.251626 0.985733
Si Si6 0.185361 0.658547 0.183248
O O1 0.269807 0.673210 0.751325
O O2 0.140069 0.818905 0.612206
O O3 0.419639 0.807513 0.587502
O O4 0.319934 0.868769 0.877986
O O5 0.200116 0.061914 0.687072
O O6 0.943119 0.981165 0.807799
O O7 0.017844 0.174475 0.845044
O O8 0.141059 0.038022 0.014957
O O9 0.323545 0.965029 0.197770
O O10 0.268971 0.766244 0.133348
O O11 0.537069 0.854289 0.084764
O O12 0.858270 0.331257 0.879395
#
# Coordination Sequence:
#
# PCOD9346480 Si02
#       6
#     4   4   4   4   4   4
#     4  11  26  44  71 101 140 189 241 294 374 432
#     4  11  25  44  71 100 140 185 243 297 363 439
#     4  12  25  45  72 105 145 188 242 305 366 443
#     4  11  26  45  68 107 140 188 246 300 363 446
#     4  11  20  45  67  96 135 185 232 294 358 430
#     4  12  22  45  71  99 140 191 234 296 382 426
#
# _framework density 25.685618999999999
#
# number of rings (size 3 to 8) (size 9 to 14) (size 15 to 20)
#    0.000    0.667    6.667    1.000    9.333    0.000 
#    6.000    0.000    0.000    0.000    0.000    0.000 
#    0.000    0.000    0.000    0.000    0.000    0.000 
#
# Total GULP energy -134262.949779 kJ/mol
# GULP energy per Si atom -5594.289574 kJ/mol
# Density = 2.562716 g / cm^3
# Si number density = 25.685619 Si / 1000 Ang^3
#
#
#
# Elastic Constant Matrix: (Units=GPa)
#
#
# Indices 1 2 3 4 5 6 
#
# 1 132.9721 16.9005 34.8378 0.0000 0.0000 0.0000
# 2 16.9005 76.4765 8.2256 0.0000 0.0000 0.0000
# 3 34.8378 8.2256 64.3401 0.0000 0.0000 0.0000
# 4 0.0000 0.0000 0.0000 33.4463 0.0000 0.0000
# 5 0.0000 0.0000 0.0000 0.0000 41.3676 0.0000
# 6 0.0000 0.0000 0.0000 0.0000 0.0000 -11.6306
#
#
#
# Elastic Compliance Matrix: (Units=1/GPa)
#
#
# Indices 1 2 3 4 5 6 
#
# 1 0.008924 -0.001473 -0.004644 0.000000 0.000000 0.000000
# 2 -0.001473 0.013501 -0.000929 0.000000 0.000000 0.000000
# 3 -0.004644 -0.000929 0.018176 0.000000 0.000000 0.000000
# 4 0.000000 0.000000 0.000000 0.029899 0.000000 0.000000
# 5 0.000000 0.000000 0.000000 0.000000 0.024174 0.000000
# 6 0.000000 0.000000 0.000000 0.000000 0.000000 -0.085980
#
#
# Mechanical properties :
#
#
# Convention : Reuss Voigt Hill
#
# Bulk Modulus (GPa) = 37.72070 43.74629 40.73349
# Shear Modulus (GPa) = 158.12681 26.89164 92.50923
#
# Velocity S-wave (km/s) = 7.85468 3.23918 6.00784
# Velocity P-wave (km/s) = 9.84778 5.57298 8.00115
#
# Compressibility (1/GPa) = 0.02651064
#
# Stress axis : x y z
#
# Youngs Moduli (GPa) = 112.05474 74.06721 55.01881
#
# Poissons Ratio (x) = 0.10908 0.25550
# Poissons Ratio (y) = 0.16502 0.05109
# Poissons Ratio (z) = 0.52037 0.06878
#
# Static dielectric constant tensor:
#      x y z
#    x 2.079470 0.000000 0.000000 
#    y 0.000000 2.163160 0.000000 
#    z 0.000000 0.000000 2.014580 
# 
# From -- ./inp_files/3155.got.cif
#   From: 2010.05.17/outbox.cif.g08.bks.cpg/sg33_2_cif.got.tgz:3155.got - 2010.06.03 17:15:25.
