data_PCOD9346605
_publ_section_title
;
Structure prediction by ZEFSAII (Michael W. Deem and Ramdas Pophale) SiO2 
 PCOD9346605
Probable space group: P N A 21
;
_chemical_formula_sum "Si O2"
_cell_formula_units_Z 32
_cell_length_a 11.736021
_cell_length_b 5.132236
_cell_length_c 21.106952
_cell_angle_alpha 90.000000
_cell_angle_beta 90.000000
_cell_angle_gamma 90.000000
_cell_volume 1271.314555
_symmetry_space_group_name_H-M "P N A 21"
_symmetry_group_IT_number 33
_symmetry_cell_setting 'orthorhombic'
loop_
_space_group_symop_operation_xyz
x,y,z
-x,-y,1/2+z
1/2-x,1/2+y,1/2+z
1/2+x,1/2-y,z
loop_
_atom_site_type_symbol
_atom_site_label
_atom_site_fract_x
_atom_site_fract_y
_atom_site_fract_z
Si Si1 0.531948 0.459321 0.720480
Si Si2 0.534972 0.984362 0.643206
Si Si3 0.820766 0.859215 0.498420
Si Si4 0.295024 0.903005 0.627545
Si Si5 0.335333 0.766256 0.037194
Si Si6 0.428249 0.372528 0.950382
Si Si7 0.267507 0.281513 0.273027
Si Si8 0.343391 0.297693 0.813253
O O1 0.521229 0.694355 0.670171
O O2 0.608980 0.590386 0.774247
O O3 0.415361 0.380671 0.752379
O O4 0.584838 0.190882 0.693580
O O5 0.406092 0.082430 0.634361
O O6 0.602882 0.007827 0.578004
O O7 0.831372 0.798331 0.573257
O O8 0.699047 0.743037 0.471690
O O9 0.941630 0.784505 0.467641
O O10 0.781098 0.160420 0.500775
O O11 0.261195 0.794332 0.696629
O O12 0.197573 0.063731 0.592030
O O13 0.420833 0.649454 0.986145
O O14 0.414298 0.357952 0.875667
O O15 0.259469 0.004673 0.306952
O O16 0.187339 0.495082 0.306786
#
# Coordination Sequence:
#
# PCOD9346605 Si02
#       8
#     4   4   4   4   4   4   4   4
#     4  12  25  44  71 110 148 200 242 319 379 473
#     4  12  24  41  73 111 154 185 254 310 406 458
#     4  11  26  50  78 112 153 205 270 329 408 463
#     4  11  23  41  73 107 147 191 246 331 388 472
#     4  11  25  43  74 112 146 207 250 336 391 469
#     4  11  29  50  76 112 155 215 273 327 392 485
#     4  12  26  46  74 109 149 195 255 311 397 453
#     4  12  28  49  73 107 150 208 256 317 379 471
#
# _framework density 25.170794999999998
#
# number of rings (size 3 to 8) (size 9 to 14) (size 15 to 20)
#    0.000    0.500    3.750    3.000   10.500    1.000 
#    0.000    0.000    0.000    0.000    0.000    0.000 
#    0.000    0.000    0.000    0.000    0.000    0.000 
#
# Total GULP energy -178561.061172 kJ/mol
# GULP energy per Si atom -5580.033162 kJ/mol
# Density = 2.511350 g / cm^3
# Si number density = 25.170795 Si / 1000 Ang^3
#
#
#
# Elastic Constant Matrix: (Units=GPa)
#
#
# Indices 1 2 3 4 5 6 
#
# 1 95.2007 16.0587 26.2570 0.0000 0.0000 0.0000
# 2 16.0587 75.2690 43.0009 0.0000 0.0000 0.0000
# 3 26.2570 43.0009 83.2715 0.0000 0.0000 0.0000
# 4 0.0000 0.0000 0.0000 18.1827 0.0000 0.0000
# 5 0.0000 0.0000 0.0000 0.0000 32.2390 0.0000
# 6 0.0000 0.0000 0.0000 0.0000 0.0000 20.2878
#
#
#
# Elastic Compliance Matrix: (Units=1/GPa)
#
#
# Indices 1 2 3 4 5 6 
#
# 1 0.011520 -0.000543 -0.003352 0.000000 0.000000 0.000000
# 2 -0.000543 0.018871 -0.009574 0.000000 0.000000 0.000000
# 3 -0.003352 -0.009574 0.018010 0.000000 0.000000 0.000000
# 4 0.000000 0.000000 0.000000 0.054997 0.000000 0.000000
# 5 0.000000 0.000000 0.000000 0.000000 0.031018 0.000000
# 6 0.000000 0.000000 0.000000 0.000000 0.000000 0.049291
#
#
# Mechanical properties :
#
#
# Convention : Reuss Voigt Hill
#
# Bulk Modulus (GPa) = 46.59069 47.15271 46.87170
# Shear Modulus (GPa) = 22.95693 25.37020 24.16356
#
# Velocity S-wave (km/s) = 3.02329 3.17822 3.10172
# Velocity P-wave (km/s) = 5.54410 5.67820 5.61155
#
# Compressibility (1/GPa) = 0.02146351
#
# Stress axis : x y z
#
# Youngs Moduli (GPa) = 86.80365 52.99165 55.52547
#
# Poissons Ratio (x) = 0.02876 0.18614
# Poissons Ratio (y) = 0.04711 0.53158
# Poissons Ratio (z) = 0.29099 0.50733
#
# Static dielectric constant tensor:
#      x y z
#    x 2.143670 0.000000 0.000000 
#    y 0.000000 2.170530 0.000000 
#    z 0.000000 0.000000 1.961540 
# 
# From -- ./inp_files/9125.got.cif
#   From: 2010.05.17/outbox.cif.g08.bks.cpg/sg33_5_cif.got.tgz:9125.got - 2010.06.03 17:15:25.
