data_PCOD9346002
_publ_section_title
;
Structure prediction by ZEFSAII (Michael W. Deem and Ramdas Pophale) SiO2 
 PCOD9346002
Probable space group: P N A 21
;
_chemical_formula_sum "Si O2"
_cell_formula_units_Z 32
_cell_length_a 13.295235
_cell_length_b 11.168424
_cell_length_c 10.116232
_cell_angle_alpha 90.000000
_cell_angle_beta 90.000000
_cell_angle_gamma 90.000000
_cell_volume 1502.127137
_symmetry_space_group_name_H-M "P N A 21"
_symmetry_group_IT_number 33
_symmetry_cell_setting 'orthorhombic'
loop_
_space_group_symop_operation_xyz
x,y,z
-x,-y,1/2+z
1/2-x,1/2+y,1/2+z
1/2+x,1/2-y,z
loop_
_atom_site_type_symbol
_atom_site_label
_atom_site_fract_x
_atom_site_fract_y
_atom_site_fract_z
Si Si1 0.655666 0.831784 0.901830
Si Si2 0.984506 0.656332 0.696719
Si Si3 0.817561 0.348363 0.875994
Si Si4 0.622249 0.270203 0.754731
Si Si5 0.315929 0.520152 0.060030
Si Si6 0.469986 0.326234 0.988150
Si Si7 0.277483 0.898989 0.820323
Si Si8 0.471934 0.101983 0.636183
O O1 0.590047 0.856115 0.772004
O O2 0.714333 0.708425 0.880816
O O3 0.571402 0.823486 0.015530
O O4 0.733587 0.932628 0.954920
O O5 0.972756 0.780640 0.618553
O O6 0.891941 0.642519 0.798303
O O7 0.975013 0.538568 0.603978
O O8 0.727520 0.262226 0.830856
O O9 0.885401 0.277692 0.977217
O O10 0.774488 0.479626 0.907809
O O11 0.890474 0.377403 0.752301
O O12 0.643022 0.365025 0.639192
O O13 0.541356 0.319112 0.860996
O O14 0.576343 0.151434 0.691412
O O15 0.266330 0.437329 0.175611
O O16 0.409187 0.448360 0.999620
#
# Coordination Sequence:
#
# PCOD9346002 Si02
#       8
#     4   4   4   4   4   4   4   4
#     4  12  24  41  71  96 135 181 215 294 338 400
#     4  11  25  40  69 100 128 182 229 279 341 408
#     4   9  21  43  63  93 133 175 214 287 334 396
#     4  10  23  41  66  91 134 176 212 282 345 393
#     4  11  24  46  61  99 141 172 226 288 339 410
#     4  11  25  41  67  97 134 174 231 272 341 416
#     4  10  23  44  64  96 136 168 230 275 342 406
#     4  10  23  40  65 100 127 172 239 265 340 413
#
# _framework density 21.303122999999999
#
# number of rings (size 3 to 8) (size 9 to 14) (size 15 to 20)
#    0.000    1.500    5.000    0.000   10.500    3.000 
#    0.000    0.000    0.000    0.000    0.000    0.000 
#    0.000    0.000    0.000    0.000    0.000    0.000 
#
# Total GULP energy -178679.117756 kJ/mol
# GULP energy per Si atom -5583.722430 kJ/mol
# Density = 2.125464 g / cm^3
# Si number density = 21.303123 Si / 1000 Ang^3
#
#
#
# Elastic Constant Matrix: (Units=GPa)
#
#
# Indices 1 2 3 4 5 6 
#
# 1 78.3885 26.8152 -0.0809 0.0000 0.0000 0.0000
# 2 26.8152 42.8839 5.1725 0.0000 0.0000 0.0000
# 3 -0.0809 5.1725 35.3045 0.0000 0.0000 0.0000
# 4 0.0000 0.0000 0.0000 25.1745 0.0000 0.0000
# 5 0.0000 0.0000 0.0000 0.0000 26.1950 0.0000
# 6 0.0000 0.0000 0.0000 0.0000 0.0000 34.0202
#
#
#
# Elastic Compliance Matrix: (Units=1/GPa)
#
#
# Indices 1 2 3 4 5 6 
#
# 1 0.016312 -0.010388 0.001559 0.000000 0.000000 0.000000
# 2 -0.010388 0.030354 -0.004471 0.000000 0.000000 0.000000
# 3 0.001559 -0.004471 0.028984 0.000000 0.000000 0.000000
# 4 0.000000 0.000000 0.000000 0.039723 0.000000 0.000000
# 5 0.000000 0.000000 0.000000 0.000000 0.038175 0.000000
# 6 0.000000 0.000000 0.000000 0.000000 0.000000 0.029394
#
#
# Mechanical properties :
#
#
# Convention : Reuss Voigt Hill
#
# Bulk Modulus (GPa) = 20.38730 24.48783 22.43757
# Shear Modulus (GPa) = 22.13457 25.38929 23.76193
#
# Velocity S-wave (km/s) = 3.22689 3.45601 3.34341
# Velocity P-wave (km/s) = 4.84507 5.23882 5.04578
#
# Compressibility (1/GPa) = 0.04905015
#
# Stress axis : x y z
#
# Youngs Moduli (GPa) = 61.30401 32.94492 34.50224
#
# Poissons Ratio (x) = 0.34223 -0.05380
# Poissons Ratio (y) = 0.63683 0.15426
# Poissons Ratio (z) = -0.09559 0.14729
#
# Static dielectric constant tensor:
#      x y z
#    x 1.789590 0.000000 0.000000 
#    y 0.000000 1.770240 0.000000 
#    z 0.000000 0.000000 1.788210 
# 
# From -- ./inp_files/6450.got.cif
#   From: 2010.05.17/outbox.cif.g08.bks.cpg/sg33_4_cif.got.tgz:6450.got - 2010.06.03 17:15:25.
