data_PCOD9346100
_publ_section_title
;
Structure prediction by ZEFSAII (Michael W. Deem and Ramdas Pophale) SiO2 
 PCOD9346100
Probable space group: P N A 21
;
_chemical_formula_sum "Si O2"
_cell_formula_units_Z 32
_cell_length_a 19.387977
_cell_length_b 6.944653
_cell_length_c 10.259259
_cell_angle_alpha 90.000000
_cell_angle_beta 90.000000
_cell_angle_gamma 90.000000
_cell_volume 1381.335077
_symmetry_space_group_name_H-M "P N A 21"
_symmetry_group_IT_number 33
_symmetry_cell_setting 'orthorhombic'
loop_
_space_group_symop_operation_xyz
x,y,z
-x,-y,1/2+z
1/2-x,1/2+y,1/2+z
1/2+x,1/2-y,z
loop_
_atom_site_type_symbol
_atom_site_label
_atom_site_fract_x
_atom_site_fract_y
_atom_site_fract_z
Si Si1 0.223708 0.413064 0.920160
Si Si2 0.866380 0.243722 0.991652
Si Si3 0.843893 0.579293 0.147140
Si Si4 0.005635 0.041627 0.923429
Si Si5 0.292326 0.252545 0.580756
Si Si6 0.632503 0.351464 0.090311
Si Si7 0.619679 0.001329 0.253411
Si Si8 0.495735 0.741535 0.146199
O O1 0.305367 0.388216 0.936029
O O2 0.193910 0.368473 0.781034
O O3 0.193945 0.622306 0.955178
O O4 0.194312 0.258200 0.020310
O O5 0.879751 0.431240 0.900714
O O6 0.848568 0.349284 0.125959
O O7 0.935864 0.125891 0.984669
O O8 0.784910 0.672338 0.056457
O O9 0.919489 0.669355 0.145202
O O10 0.069711 0.154615 0.988127
O O11 0.011100 0.838035 0.000251
O O12 0.002774 0.082439 0.766824
O O13 0.341850 0.432093 0.609999
O O14 0.311313 0.097227 0.692859
O O15 0.616871 0.226020 0.218697
O O16 0.553861 0.897649 0.185478
#
# Coordination Sequence:
#
# PCOD9346100 Si02
#       8
#     4   4   4   4   4   4   4   4
#     4  11  24  44  66  97 139 174 234 289 344 426
#     4  11  24  44  65 105 140 182 233 297 358 418
#     4  12  24  43  67 101 139 182 234 292 354 426
#     4  11  24  43  71 101 148 182 241 297 353 428
#     4  11  23  42  72  97 131 185 229 282 354 416
#     4  11  22  45  69 101 131 189 229 279 354 422
#     4  10  23  43  70  94 143 178 231 286 348 430
#     4  11  24  44  68 106 143 186 239 296 357 430
#
# _framework density 23.165991999999999
#
# number of rings (size 3 to 8) (size 9 to 14) (size 15 to 20)
#    0.000    1.000    5.000    1.500    0.000    3.000 
#    2.250    0.000    0.000    0.000    0.000    0.000 
#    0.000    0.000    0.000    0.000    0.000    0.000 
#
# Total GULP energy -178582.320876 kJ/mol
# GULP energy per Si atom -5580.697527 kJ/mol
# Density = 2.311326 g / cm^3
# Si number density = 23.165992 Si / 1000 Ang^3
#
#
#
# Elastic Constant Matrix: (Units=GPa)
#
#
# Indices 1 2 3 4 5 6 
#
# 1 130.8215 19.8369 -12.0801 0.0000 0.0000 0.0000
# 2 19.8369 96.7966 13.3231 0.0000 0.0000 0.0000
# 3 -12.0801 13.3231 31.0344 0.0000 0.0000 0.0000
# 4 0.0000 0.0000 0.0000 25.3729 0.0000 0.0000
# 5 0.0000 0.0000 0.0000 0.0000 21.4840 0.0000
# 6 0.0000 0.0000 0.0000 0.0000 0.0000 10.0282
#
#
#
# Elastic Compliance Matrix: (Units=1/GPa)
#
#
# Indices 1 2 3 4 5 6 
#
# 1 0.008386 -0.002304 0.004253 0.000000 0.000000 0.000000
# 2 -0.002304 0.011613 -0.005882 0.000000 0.000000 0.000000
# 3 0.004253 -0.005882 0.036403 0.000000 0.000000 0.000000
# 4 0.000000 0.000000 0.000000 0.039412 0.000000 0.000000
# 5 0.000000 0.000000 0.000000 0.000000 0.046546 0.000000
# 6 0.000000 0.000000 0.000000 0.000000 0.000000 0.099719
#
#
# Mechanical properties :
#
#
# Convention : Reuss Voigt Hill
#
# Bulk Modulus (GPa) = 20.60308 33.42359 27.01333
# Shear Modulus (GPa) = 18.78825 27.21519 23.00172
#
# Velocity S-wave (km/s) = 2.85094 3.43124 3.15446
# Velocity P-wave (km/s) = 4.44411 5.49155 4.99536
#
# Compressibility (1/GPa) = 0.04853644
#
# Stress axis : x y z
#
# Youngs Moduli (GPa) = 119.24448 86.11226 27.47008
#
# Poissons Ratio (x) = 0.19841 -0.11684
# Poissons Ratio (y) = 0.27474 0.16159
# Poissons Ratio (z) = -0.50720 0.50653
#
# Static dielectric constant tensor:
#      x y z
#    x 1.901000 0.000000 0.000000 
#    y 0.000000 1.887280 0.000000 
#    z 0.000000 0.000000 2.008780 
# 
# From -- ./inp_files/7180.got.cif
#   From: 2010.05.17/outbox.cif.g08.bks.cpg/sg33_4_cif.got.tgz:7180.got - 2010.06.03 17:15:25.
