data_PCOD9346832
_publ_section_title
;
Structure prediction by ZEFSAII (Michael W. Deem and Ramdas Pophale) SiO2 
 PCOD9346832
Probable space group: P N A 21
;
_chemical_formula_sum "Si O2"
_cell_formula_units_Z 24
_cell_length_a 18.783257
_cell_length_b 4.855386
_cell_length_c 10.059177
_cell_angle_alpha 90.000000
_cell_angle_beta 90.000000
_cell_angle_gamma 90.000000
_cell_volume 917.396571
_symmetry_space_group_name_H-M "P N A 21"
_symmetry_group_IT_number 33
_symmetry_cell_setting 'orthorhombic'
loop_
_space_group_symop_operation_xyz
x,y,z
-x,-y,1/2+z
1/2-x,1/2+y,1/2+z
1/2+x,1/2-y,z
loop_
_atom_site_type_symbol
_atom_site_label
_atom_site_fract_x
_atom_site_fract_y
_atom_site_fract_z
Si Si1 0.463612 0.520615 0.052730
Si Si2 0.626907 0.486353 0.094076
Si Si3 0.716722 0.187679 0.311139
Si Si4 0.552607 0.969922 0.728390
Si Si5 0.404850 0.144296 0.834452
Si Si6 0.693537 0.228128 0.847412
O O1 0.546951 0.442095 0.042264
O O2 0.457189 0.833660 0.099613
O O3 0.436530 0.337797 0.177314
O O4 0.423797 0.410845 0.923442
O O5 0.661540 0.283595 0.199648
O O6 0.618234 0.753240 0.186950
O O7 0.678338 0.434646 0.970240
O O8 0.754236 0.465007 0.363352
O O9 0.661460 0.013806 0.401756
O O10 0.770116 0.955328 0.252216
O O11 0.479728 0.988764 0.811914
O O12 0.620044 0.088206 0.805198
#
# Coordination Sequence:
#
# PCOD9346832 Si02
#       6
#     4   4   4   4   4   4
#     4  11  25  44  82 106 153 190 260 325 378 456
#     4  11  26  51  74 111 153 197 250 328 385 453
#     4  12  27  47  72 109 151 201 250 306 389 468
#     4  11  25  46  73 116 145 198 259 316 384 467
#     4  11  25  50  78 113 148 206 264 317 395 461
#     4  12  28  48  75 109 156 200 249 316 395 459
#
# _framework density 26.160985
#
# number of rings (size 3 to 8) (size 9 to 14) (size 15 to 20)
#    0.000    0.667    5.000    1.000    4.667    4.000 
#    0.000    0.000    0.000    0.000    0.000    0.000 
#    0.000    0.000    0.000    0.000    0.000    0.000 
#
# Total GULP energy -134203.968430 kJ/mol
# GULP energy per Si atom -5591.832018 kJ/mol
# Density = 2.610144 g / cm^3
# Si number density = 26.160985 Si / 1000 Ang^3
#
#
#
# Elastic Constant Matrix: (Units=GPa)
#
#
# Indices 1 2 3 4 5 6 
#
# 1 170.1963 58.4245 27.6683 0.0000 0.0000 0.0000
# 2 58.4245 120.6132 22.4762 0.0000 0.0000 0.0000
# 3 27.6683 22.4762 57.7767 0.0000 0.0000 0.0000
# 4 0.0000 0.0000 0.0000 27.6269 0.0000 0.0000
# 5 0.0000 0.0000 0.0000 0.0000 8.8489 0.0000
# 6 0.0000 0.0000 0.0000 0.0000 0.0000 28.7309
#
#
#
# Elastic Compliance Matrix: (Units=1/GPa)
#
#
# Indices 1 2 3 4 5 6 
#
# 1 0.007318 -0.003118 -0.002292 0.000000 0.000000 0.000000
# 2 -0.003118 0.010267 -0.002501 0.000000 0.000000 0.000000
# 3 -0.002292 -0.002501 0.019378 0.000000 0.000000 0.000000
# 4 0.000000 0.000000 0.000000 0.036197 0.000000 0.000000
# 5 0.000000 0.000000 0.000000 0.000000 0.113008 0.000000
# 6 0.000000 0.000000 0.000000 0.000000 0.000000 0.034806
#
#
# Mechanical properties :
#
#
# Convention : Reuss Voigt Hill
#
# Bulk Modulus (GPa) = 47.29754 62.85826 55.07790
# Shear Modulus (GPa) = 20.50491 29.04248 24.77370
#
# Velocity S-wave (km/s) = 2.80268 3.33550 3.08063
# Velocity P-wave (km/s) = 5.34715 6.23809 5.80972
#
# Compressibility (1/GPa) = 0.02114275
#
# Stress axis : x y z
#
# Youngs Moduli (GPa) = 136.64082 97.39596 51.60371
#
# Poissons Ratio (x) = 0.30368 0.11826
# Poissons Ratio (y) = 0.42604 0.12906
# Poissons Ratio (z) = 0.31315 0.24359
#
# Static dielectric constant tensor:
#      x y z
#    x 2.210050 0.000000 0.000000 
#    y 0.000000 2.105250 0.000000 
#    z 0.000000 0.000000 2.099690 
# 
# From -- ./inp_files/7102.got.cif
#   From: 2010.05.17/outbox.cif.g08.bks.cpg/sg33_4_cif.got.tgz:7102.got - 2010.06.03 17:15:25.
