data_PCOD9346828
_publ_section_title
;
Structure prediction by ZEFSAII (Michael W. Deem and Ramdas Pophale) SiO2 
 PCOD9346828
Probable space group: P N A 21
;
_chemical_formula_sum "Si O2"
_cell_formula_units_Z 32
_cell_length_a 14.836093
_cell_length_b 11.877904
_cell_length_c 7.241781
_cell_angle_alpha 90.000000
_cell_angle_beta 90.000000
_cell_angle_gamma 90.000000
_cell_volume 1276.158875
_symmetry_space_group_name_H-M "P N A 21"
_symmetry_group_IT_number 33
_symmetry_cell_setting 'orthorhombic'
loop_
_space_group_symop_operation_xyz
x,y,z
-x,-y,1/2+z
1/2-x,1/2+y,1/2+z
1/2+x,1/2-y,z
loop_
_atom_site_type_symbol
_atom_site_label
_atom_site_fract_x
_atom_site_fract_y
_atom_site_fract_z
Si Si1 0.236813 0.856598 0.725600
Si Si2 0.167220 0.766293 0.349259
Si Si3 0.723734 0.403339 0.311900
Si Si4 0.421042 0.092955 0.356317
Si Si5 0.110313 0.006327 0.978886
Si Si6 0.603798 0.967027 0.271660
Si Si7 0.346170 0.682268 0.176026
Si Si8 0.026574 0.800979 0.021583
O O1 0.266804 0.730075 0.773848
O O2 0.174170 0.914358 0.878731
O O3 0.325656 0.933616 0.738157
O O4 0.194730 0.095761 0.525731
O O5 0.186286 0.841317 0.528673
O O6 0.139124 0.636073 0.398856
O O7 0.263342 0.756092 0.246282
O O8 0.092699 0.803894 0.200756
O O9 0.825325 0.448236 0.280572
O O10 0.653621 0.457442 0.172153
O O11 0.506377 0.016466 0.317250
O O12 0.443788 0.226351 0.343510
O O13 0.406175 0.090804 0.574718
O O14 0.113274 0.114705 0.848858
O O15 0.018412 0.935096 0.982703
O O16 0.429188 0.745184 0.081720
#
# Coordination Sequence:
#
# PCOD9346828 Si02
#       8
#     4   4   4   4   4   4   4   4
#     4  12  23  46  77 104 150 201 245 304 384 449
#     4  11  25  50  71 112 151 193 254 308 378 455
#     4  12  25  50  74 106 154 195 249 316 370 458
#     4  11  25  47  72 109 147 189 250 313 372 444
#     4  12  27  45  75 109 143 202 245 304 380 445
#     4  11  25  44  73 111 142 200 251 307 382 441
#     4  12  25  51  72 105 153 192 253 307 376 453
#     4  11  27  47  74 110 148 194 247 311 374 449
#
# _framework density 25.075247000000001
#
# number of rings (size 3 to 8) (size 9 to 14) (size 15 to 20)
#    0.000    0.500    6.250    0.750    8.750    2.000 
#    0.000    0.000    0.000    0.000    0.000    0.000 
#    0.000    0.000    0.000    0.000    0.000    0.000 
#
# Total GULP energy -178999.236206 kJ/mol
# GULP energy per Si atom -5593.726131 kJ/mol
# Density = 2.501817 g / cm^3
# Si number density = 25.075247 Si / 1000 Ang^3
#
#
#
# Elastic Constant Matrix: (Units=GPa)
#
#
# Indices 1 2 3 4 5 6 
#
# 1 101.5983 5.8025 1.9494 0.0000 0.0000 0.0000
# 2 5.8025 71.4837 -10.6809 0.0000 0.0000 0.0000
# 3 1.9494 -10.6809 94.9732 0.0000 0.0000 0.0000
# 4 0.0000 0.0000 0.0000 35.6736 0.0000 0.0000
# 5 0.0000 0.0000 0.0000 0.0000 32.1568 0.0000
# 6 0.0000 0.0000 0.0000 0.0000 0.0000 29.6826
#
#
#
# Elastic Compliance Matrix: (Units=1/GPa)
#
#
# Indices 1 2 3 4 5 6 
#
# 1 0.009897 -0.000848 -0.000299 0.000000 0.000000 0.000000
# 2 -0.000848 0.014301 0.001626 0.000000 0.000000 0.000000
# 3 -0.000299 0.001626 0.010718 0.000000 0.000000 0.000000
# 4 0.000000 0.000000 0.000000 0.028032 0.000000 0.000000
# 5 0.000000 0.000000 0.000000 0.000000 0.031098 0.000000
# 6 0.000000 0.000000 0.000000 0.000000 0.000000 0.033690
#
#
# Mechanical properties :
#
#
# Convention : Reuss Voigt Hill
#
# Bulk Modulus (GPa) = 27.87491 29.13302 28.50397
# Shear Modulus (GPa) = 36.03993 37.56822 36.80407
#
# Velocity S-wave (km/s) = 3.79525 3.87488 3.83527
# Velocity P-wave (km/s) = 5.50871 5.62700 5.56817
#
# Compressibility (1/GPa) = 0.03587456
#
# Stress axis : x y z
#
# Youngs Moduli (GPa) = 101.04235 69.92548 93.29887
#
# Poissons Ratio (x) = 0.05929 0.02785
# Poissons Ratio (y) = 0.08568 -0.15168
# Poissons Ratio (z) = 0.03016 -0.11368
#
# Static dielectric constant tensor:
#      x y z
#    x 2.056410 0.000000 0.000000 
#    y 0.000000 2.181890 0.000000 
#    z 0.000000 0.000000 2.001070 
# 
# From -- ./inp_files/4406.got.cif
#   From: 2010.05.17/outbox.cif.g08.bks.cpg/sg33_3_cif.got.tgz:4406.got - 2010.06.03 17:15:25.
