data_PCOD9346268
_publ_section_title
;
Structure prediction by ZEFSAII (Michael W. Deem and Ramdas Pophale) SiO2 
 PCOD9346268
Probable space group: P N A 21
;
_chemical_formula_sum "Si O2"
_cell_formula_units_Z 28
_cell_length_a 14.021407
_cell_length_b 14.602356
_cell_length_c 4.964926
_cell_angle_alpha 90.000000
_cell_angle_beta 90.000000
_cell_angle_gamma 90.000000
_cell_volume 1016.546637
_symmetry_space_group_name_H-M "P N A 21"
_symmetry_group_IT_number 33
_symmetry_cell_setting 'orthorhombic'
loop_
_space_group_symop_operation_xyz
x,y,z
-x,-y,1/2+z
1/2-x,1/2+y,1/2+z
1/2+x,1/2-y,z
loop_
_atom_site_type_symbol
_atom_site_label
_atom_site_fract_x
_atom_site_fract_y
_atom_site_fract_z
Si Si1 0.778786 0.236422 0.939630
Si Si2 0.933560 0.306532 0.212792
Si Si3 0.733952 0.895016 0.066703
Si Si4 0.250508 0.944022 0.198724
Si Si5 0.440046 0.532637 0.483258
Si Si6 0.532060 0.054133 0.816172
Si Si7 0.607781 0.285924 0.273505
O O1 0.786175 0.342793 0.845722
O O2 0.776831 0.162034 0.708899
O O3 0.874177 0.220532 0.104891
O O4 0.683924 0.224462 0.112945
O O5 0.851317 0.360012 0.372245
O O6 0.985318 0.358619 0.964790
O O7 0.021540 0.272354 0.390638
O O8 0.830383 0.842138 0.983730
O O9 0.752415 0.999776 0.984147
O O10 0.365480 0.942226 0.164932
O O11 0.168447 0.993765 0.023906
O O12 0.489815 0.515928 0.198681
O O13 0.431946 0.638617 0.566776
O O14 0.534118 0.988262 0.081874
#
# Coordination Sequence:
#
# PCOD9346268 Si02
#       7
#     4   4   4   4   4   4   4
#     4  11  24  44  71 100 143 197 243 306 381 447
#     4  11  23  44  65 102 146 186 246 308 367 445
#     4  10  24  44  68 103 145 192 244 312 366 456
#     4  11  24  48  72 110 146 200 251 308 380 456
#     4  11  27  47  74 107 144 195 246 305 373 446
#     4  12  26  46  74 110 149 197 247 310 380 453
#     4  10  24  43  66 102 143 181 247 305 365 443
#
# _framework density 27.544236999999999
#
# number of rings (size 3 to 8) (size 9 to 14) (size 15 to 20)
#    0.000    1.143    2.857    1.714    6.000    3.429 
#    0.000    0.000    0.000    0.000    0.000    0.000 
#    0.000    0.000    0.000    0.000    0.000    0.000 
#
# Total GULP energy -156594.028466 kJ/mol
# GULP energy per Si atom -5592.643874 kJ/mol
# Density = 2.748155 g / cm^3
# Si number density = 27.544237 Si / 1000 Ang^3
#
#
#
# Elastic Constant Matrix: (Units=GPa)
#
#
# Indices 1 2 3 4 5 6 
#
# 1 202.0871 40.1579 47.4344 0.0000 0.0000 0.0000
# 2 40.1579 73.0864 -1.2051 0.0000 0.0000 0.0000
# 3 47.4344 -1.2051 98.2575 0.0000 0.0000 0.0000
# 4 0.0000 0.0000 0.0000 13.1158 0.0000 0.0000
# 5 0.0000 0.0000 0.0000 0.0000 39.3083 0.0000
# 6 0.0000 0.0000 0.0000 0.0000 0.0000 42.5522
#
#
#
# Elastic Compliance Matrix: (Units=1/GPa)
#
#
# Indices 1 2 3 4 5 6 
#
# 1 0.006391 -0.003563 -0.003129 0.000000 0.000000 0.000000
# 2 -0.003563 0.015672 0.001912 0.000000 0.000000 0.000000
# 3 -0.003129 0.001912 0.011711 0.000000 0.000000 0.000000
# 4 0.000000 0.000000 0.000000 0.076244 0.000000 0.000000
# 5 0.000000 0.000000 0.000000 0.000000 0.025440 0.000000
# 6 0.000000 0.000000 0.000000 0.000000 0.000000 0.023501
#
#
# Mechanical properties :
#
#
# Convention : Reuss Voigt Hill
#
# Bulk Modulus (GPa) = 41.29758 60.68948 50.99353
# Shear Modulus (GPa) = 28.31431 38.13151 33.22291
#
# Velocity S-wave (km/s) = 3.20966 3.72475 3.47676
# Velocity P-wave (km/s) = 5.36298 6.37022 5.88818
#
# Compressibility (1/GPa) = 0.02421449
#
# Stress axis : x y z
#
# Youngs Moduli (GPa) = 156.47425 63.80913 85.38767
#
# Poissons Ratio (x) = 0.22736 0.26717
# Poissons Ratio (y) = 0.55753 -0.16329
# Poissons Ratio (z) = 0.48959 -0.12202
#
# Static dielectric constant tensor:
#      x y z
#    x 2.133050 0.000000 0.000000 
#    y 0.000000 2.151280 0.000000 
#    z 0.000000 0.000000 2.146620 
# 
# From -- ./inp_files/912.got.cif
#   From: 2010.05.17/outbox.cif.g08.bks.cpg/sg33_1_cif.got.tgz:912.got - 2010.06.03 17:15:25.
