data_PCOD9346964
_publ_section_title
;
Structure prediction by ZEFSAII (Michael W. Deem and Ramdas Pophale) SiO2 
 PCOD9346964
Probable space group: P N A 21
;
_chemical_formula_sum "Si O2"
_cell_formula_units_Z 20
_cell_length_a 4.770064
_cell_length_b 12.744468
_cell_length_c 11.562639
_cell_angle_alpha 90.000000
_cell_angle_beta 90.000000
_cell_angle_gamma 90.000000
_cell_volume 702.915118
_symmetry_space_group_name_H-M "P N A 21"
_symmetry_group_IT_number 33
_symmetry_cell_setting 'orthorhombic'
loop_
_space_group_symop_operation_xyz
x,y,z
-x,-y,1/2+z
1/2-x,1/2+y,1/2+z
1/2+x,1/2-y,z
loop_
_atom_site_type_symbol
_atom_site_label
_atom_site_fract_x
_atom_site_fract_y
_atom_site_fract_z
Si Si1 0.749328 0.638846 0.454440
Si Si2 0.001192 0.691587 0.216166
Si Si3 0.371141 0.500000 0.286928
Si Si4 0.501192 0.191587 0.357689
Si Si5 0.750671 0.861155 0.619415
O O1 0.499999 0.683990 0.536928
O O2 0.911138 0.700557 0.351925
O O3 0.574083 0.553612 0.380502
O O4 1.000000 0.597253 0.536927
O O5 0.196716 0.784228 0.166537
O O6 0.172336 0.584103 0.221451
O O7 0.574082 0.446388 0.193353
O O8 0.172337 0.415897 0.352404
O O9 0.696716 0.284228 0.407318
O O10 0.411139 0.200557 0.221930
#
# Coordination Sequence:
#
# PCOD9346964 Si02
#       5
#     4   4   4   4   4
#     4  12  25  43  70 104 142 186 229 284 354 419
#     4  12  25  43  71 105 141 183 228 287 355 419
#     4  12  26  48  68 102 148 184 232 286 352 414
#     4  12  25  43  71 105 141 183 228 287 355 419
#     4  12  25  43  70 104 142 186 229 284 354 419
#
# _framework density 28.452940000000002
#
# number of rings (size 3 to 8) (size 9 to 14) (size 15 to 20)
#    0.000    0.000    8.000    1.200    0.000    4.800 
#    0.000    0.000    0.000    7.200    0.000    0.000 
#    0.000    0.000    0.000    0.000    0.000    0.000 
#
# Total GULP energy -111720.728063 kJ/mol
# GULP energy per Si atom -5586.036403 kJ/mol
# Density = 2.838818 g / cm^3
# Si number density = 28.452940 Si / 1000 Ang^3
#
#
#
# Elastic Constant Matrix: (Units=GPa)
#
#
# Indices 1 2 3 4 5 6 
#
# 1 244.3761 62.3670 20.7631 0.0000 0.0000 0.0000
# 2 62.3670 117.1520 9.9570 0.0000 0.0000 0.0000
# 3 20.7631 9.9570 124.2044 0.0000 0.0000 0.0000
# 4 0.0000 0.0000 0.0000 45.0983 0.0000 0.0000
# 5 0.0000 0.0000 0.0000 0.0000 44.3498 0.0000
# 6 0.0000 0.0000 0.0000 0.0000 0.0000 100.4920
#
#
#
# Elastic Compliance Matrix: (Units=1/GPa)
#
#
# Indices 1 2 3 4 5 6 
#
# 1 0.004779 -0.002493 -0.000599 0.000000 0.000000 0.000000
# 2 -0.002493 0.009895 -0.000376 0.000000 0.000000 0.000000
# 3 -0.000599 -0.000376 0.008182 0.000000 0.000000 0.000000
# 4 0.000000 0.000000 0.000000 0.022174 0.000000 0.000000
# 5 0.000000 0.000000 0.000000 0.000000 0.022548 0.000000
# 6 0.000000 0.000000 0.000000 0.000000 0.000000 0.009951
#
#
# Mechanical properties :
#
#
# Convention : Reuss Voigt Hill
#
# Bulk Modulus (GPa) = 62.82060 74.65631 68.73846
# Shear Modulus (GPa) = 55.69608 64.16438 59.93023
#
# Velocity S-wave (km/s) = 4.42914 4.75395 4.59442
# Velocity P-wave (km/s) = 6.94860 7.51191 7.23574
#
# Compressibility (1/GPa) = 0.01591835
#
# Stress axis : x y z
#
# Youngs Moduli (GPa) = 209.23630 101.05814 122.22596
#
# Poissons Ratio (x) = 0.25198 0.07322
# Poissons Ratio (y) = 0.52171 0.04601
# Poissons Ratio (z) = 0.12535 0.03804
#
# Static dielectric constant tensor:
#      x y z
#    x 2.285250 0.000000 0.000000 
#    y 0.000000 2.365500 0.000000 
#    z 0.000000 0.000000 2.337200 
# 
# From -- ./inp_files/7385.got.cif
#   From: 2010.05.17/outbox.cif.g08.bks.cpg/sg33_4_cif.got.tgz:7385.got - 2010.06.03 17:15:25.
