data_PCOD9346121
_publ_section_title
;
Structure prediction by ZEFSAII (Michael W. Deem and Ramdas Pophale) SiO2 
 PCOD9346121
Probable space group: P N A 21
;
_chemical_formula_sum "Si O2"
_cell_formula_units_Z 20
_cell_length_a 15.229873
_cell_length_b 7.142220
_cell_length_c 7.680791
_cell_angle_alpha 90.000000
_cell_angle_beta 90.000000
_cell_angle_gamma 90.000000
_cell_volume 835.478836
_symmetry_space_group_name_H-M "P N A 21"
_symmetry_group_IT_number 33
_symmetry_cell_setting 'orthorhombic'
loop_
_space_group_symop_operation_xyz
x,y,z
-x,-y,1/2+z
1/2-x,1/2+y,1/2+z
1/2+x,1/2-y,z
loop_
_atom_site_type_symbol
_atom_site_label
_atom_site_fract_x
_atom_site_fract_y
_atom_site_fract_z
Si Si1 0.810886 0.394832 0.185340
Si Si2 0.615403 0.900319 0.044066
Si Si3 0.933058 0.527037 0.901680
Si Si4 0.060791 0.878252 0.527733
Si Si5 0.376143 0.505096 0.685066
O O1 0.824465 0.461132 0.383095
O O2 0.866850 0.202866 0.161683
O O3 0.709740 0.377805 0.138369
O O4 0.858214 0.534016 0.047962
O O5 0.598950 0.042623 0.204328
O O6 0.648513 0.706825 0.127315
O O7 0.519660 0.864869 0.956862
O O8 0.963120 0.308105 0.916042
O O9 0.107451 0.014664 0.392172
O O10 0.970511 0.949841 0.604636
#
# Coordination Sequence:
#
# PCOD9346121 Si02
#       5
#     4   4   4   4   4
#     4  10  23  44  65 101 138 176 225 276 339 405
#     4  11  20  43  70  96 134 181 222 281 336 393
#     4   9  20  41  68  97 132 177 221 271 349 390
#     4   9  22  43  66  97 136 177 216 286 331 394
#     4  11  23  45  69 103 136 179 234 274 339 408
#
# _framework density 23.938371
#
# number of rings (size 3 to 8) (size 9 to 14) (size 15 to 20)
#    1.200    0.800    2.000    1.200    0.000    1.600 
#   18.000    0.000    0.000    0.000    0.000    0.000 
#    0.000    0.000    0.000    0.000    0.000    0.000 
#
# Total GULP energy -111643.703231 kJ/mol
# GULP energy per Si atom -5582.185162 kJ/mol
# Density = 2.388389 g / cm^3
# Si number density = 23.938371 Si / 1000 Ang^3
#
#
#
# Elastic Constant Matrix: (Units=GPa)
#
#
# Indices 1 2 3 4 5 6 
#
# 1 153.1518 19.8710 34.7843 0.0000 0.0000 0.0000
# 2 19.8710 22.2195 5.2130 0.0000 0.0000 0.0000
# 3 34.7843 5.2130 137.5194 0.0000 0.0000 0.0000
# 4 0.0000 0.0000 0.0000 31.1329 0.0000 0.0000
# 5 0.0000 0.0000 0.0000 0.0000 22.1708 0.0000
# 6 0.0000 0.0000 0.0000 0.0000 0.0000 19.4026
#
#
#
# Elastic Compliance Matrix: (Units=1/GPa)
#
#
# Indices 1 2 3 4 5 6 
#
# 1 0.007769 -0.006545 -0.001717 0.000000 0.000000 0.000000
# 2 -0.006545 0.050923 -0.000275 0.000000 0.000000 0.000000
# 3 -0.001717 -0.000275 0.007716 0.000000 0.000000 0.000000
# 4 0.000000 0.000000 0.000000 0.032120 0.000000 0.000000
# 5 0.000000 0.000000 0.000000 0.000000 0.045104 0.000000
# 6 0.000000 0.000000 0.000000 0.000000 0.000000 0.051539
#
#
# Mechanical properties :
#
#
# Convention : Reuss Voigt Hill
#
# Bulk Modulus (GPa) = 20.26959 48.06971 34.16965
# Shear Modulus (GPa) = 21.86364 31.40943 26.63654
#
# Velocity S-wave (km/s) = 3.02541 3.62622 3.33935
# Velocity P-wave (km/s) = 4.54862 6.13651 5.40124
#
# Compressibility (1/GPa) = 0.04933499
#
# Stress axis : x y z
#
# Youngs Moduli (GPa) = 128.72378 19.63746 129.59417
#
# Poissons Ratio (x) = 0.12852 0.22250
# Poissons Ratio (y) = 0.84246 0.03563
# Poissons Ratio (z) = 0.22101 0.00540
#
# Static dielectric constant tensor:
#      x y z
#    x 1.865170 0.000000 0.000000 
#    y 0.000000 1.963520 0.000000 
#    z 0.000000 0.000000 1.947730 
# 
# From -- ./inp_files/4194.got.cif
#   From: 2010.05.17/outbox.cif.g08.bks.cpg/sg33_3_cif.got.tgz:4194.got - 2010.06.03 17:15:25.
