data_PCOD9346249
_publ_section_title
;
Structure prediction by ZEFSAII (Michael W. Deem and Ramdas Pophale) SiO2 
 PCOD9346249
Probable space group: P N A 21
;
_chemical_formula_sum "Si O2"
_cell_formula_units_Z 20
_cell_length_a 5.601597
_cell_length_b 22.918002
_cell_length_c 5.264784
_cell_angle_alpha 90.000000
_cell_angle_beta 90.000000
_cell_angle_gamma 90.000000
_cell_volume 675.879341
_symmetry_space_group_name_H-M "P N A 21"
_symmetry_group_IT_number 33
_symmetry_cell_setting 'orthorhombic'
loop_
_space_group_symop_operation_xyz
x,y,z
-x,-y,1/2+z
1/2-x,1/2+y,1/2+z
1/2+x,1/2-y,z
loop_
_atom_site_type_symbol
_atom_site_label
_atom_site_fract_x
_atom_site_fract_y
_atom_site_fract_z
Si Si1 0.727178 0.529112 0.486070
Si Si2 0.724439 0.924647 0.708090
Si Si3 0.269613 0.872314 0.147068
Si Si4 0.564524 0.773768 0.023973
Si Si5 0.516335 0.677022 0.645881
O O1 0.746349 0.459464 0.473508
O O2 0.462508 0.548238 0.570799
O O3 0.764255 0.560249 0.212166
O O4 0.958448 0.555916 0.627492
O O5 0.762425 0.856177 0.646141
O O6 0.519753 0.840977 0.088624
O O7 0.155036 0.841530 0.395295
O O8 0.127666 0.855265 0.894598
O O9 0.821439 0.756174 0.131988
O O10 0.541171 0.743730 0.741527
#
# Coordination Sequence:
#
# PCOD9346249 Si02
#       5
#     4   4   4   4   4
#     4  11  24  43  71 106 146 188 238 296 361 430
#     4  11  24  43  71 106 146 188 238 296 361 430
#     4  10  24  46  72 104 144 189 239 296 357 423
#     4  10  24  42  68  98 136 184 236 290 346 414
#     4  10  24  46  72 104 144 189 239 296 357 423
#
# _framework density 29.591082
#
# number of rings (size 3 to 8) (size 9 to 14) (size 15 to 20)
#    0.000    1.600    0.000    2.400    0.000   24.000 
#    0.000    2.000    0.000    0.000    0.000    0.000 
#    0.000    0.000    0.000    0.000    0.000    0.000 
#
# Total GULP energy -111720.314590 kJ/mol
# GULP energy per Si atom -5586.015729 kJ/mol
# Density = 2.952373 g / cm^3
# Si number density = 29.591082 Si / 1000 Ang^3
#
#
#
# Elastic Constant Matrix: (Units=GPa)
#
#
# Indices 1 2 3 4 5 6 
#
# 1 204.7995 43.0084 42.1249 0.0000 0.0000 0.0000
# 2 43.0084 193.9404 26.7835 0.0000 0.0000 0.0000
# 3 42.1249 26.7835 133.9901 0.0000 0.0000 0.0000
# 4 0.0000 0.0000 0.0000 57.1031 0.0000 0.0000
# 5 0.0000 0.0000 0.0000 0.0000 74.1078 0.0000
# 6 0.0000 0.0000 0.0000 0.0000 0.0000 58.3558
#
#
#
# Elastic Compliance Matrix: (Units=1/GPa)
#
#
# Indices 1 2 3 4 5 6 
#
# 1 0.005399 -0.000990 -0.001500 0.000000 0.000000 0.000000
# 2 -0.000990 0.005484 -0.000785 0.000000 0.000000 0.000000
# 3 -0.001500 -0.000785 0.008092 0.000000 0.000000 0.000000
# 4 0.000000 0.000000 0.000000 0.017512 0.000000 0.000000
# 5 0.000000 0.000000 0.000000 0.000000 0.013494 0.000000
# 6 0.000000 0.000000 0.000000 0.000000 0.000000 0.017136
#
#
# Mechanical properties :
#
#
# Convention : Reuss Voigt Hill
#
# Bulk Modulus (GPa) = 80.47881 84.06263 82.27072
# Shear Modulus (GPa) = 64.26028 65.96753 65.11391
#
# Velocity S-wave (km/s) = 4.66511 4.72667 4.69599
# Velocity P-wave (km/s) = 7.50158 7.63272 7.56743
#
# Compressibility (1/GPa) = 0.01242563
#
# Stress axis : x y z
#
# Youngs Moduli (GPa) = 185.21222 182.34121 123.58548
#
# Poissons Ratio (x) = 0.18056 0.18532
# Poissons Ratio (y) = 0.18341 0.09701
# Poissons Ratio (z) = 0.27773 0.14312
#
# Static dielectric constant tensor:
#      x y z
#    x 2.341660 0.000000 0.000000 
#    y 0.000000 2.659640 0.000000 
#    z 0.000000 0.000000 2.427530 
# 
# From -- ./inp_files/210.got.cif
#   From: 2010.05.17/outbox.cif.g08.bks.cpg/sg33_1_cif.got.tgz:210.got - 2010.06.03 17:15:25.
