data_PCOD9346512
_publ_section_title
;
Structure prediction by ZEFSAII (Michael W. Deem and Ramdas Pophale) SiO2 
 PCOD9346512
Probable space group: P N A 21
;
_chemical_formula_sum "Si O2"
_cell_formula_units_Z 20
_cell_length_a 6.797140
_cell_length_b 10.904092
_cell_length_c 8.883234
_cell_angle_alpha 90.000000
_cell_angle_beta 90.000000
_cell_angle_gamma 90.000000
_cell_volume 658.395455
_symmetry_space_group_name_H-M "P N A 21"
_symmetry_group_IT_number 33
_symmetry_cell_setting 'orthorhombic'
loop_
_space_group_symop_operation_xyz
x,y,z
-x,-y,1/2+z
1/2-x,1/2+y,1/2+z
1/2+x,1/2-y,z
loop_
_atom_site_type_symbol
_atom_site_label
_atom_site_fract_x
_atom_site_fract_y
_atom_site_fract_z
Si Si1 0.022216 0.315046 0.934290
Si Si2 0.720544 0.758301 0.000402
Si Si3 0.465667 0.773920 0.764561
Si Si4 0.628973 0.594913 0.261132
Si Si5 0.236291 0.531679 0.251853
O O1 0.207749 0.398735 0.889583
O O2 0.003866 0.213486 0.803560
O O3 0.834776 0.399138 0.902468
O O4 0.021658 0.241946 0.087708
O O5 0.469732 0.750921 0.956056
O O6 0.716728 0.631563 0.101261
O O7 0.720031 0.879684 0.107046
O O8 0.719128 0.772396 0.804308
O O9 0.410500 0.918813 0.741774
O O10 0.465378 0.489299 0.264485
#
# Coordination Sequence:
#
# PCOD9346512 Si02
#       5
#     4   4   4   4   4
#     4  11  22  41  67  98 134 184 226 284 347 408
#     4  11  22  45  69  97 143 181 226 295 347 406
#     4  12  25  42  69 104 137 177 236 297 338 413
#     4  11  21  43  70  90 138 187 221 282 358 405
#     4  11  24  45  69  99 138 187 233 274 360 424
#
# _framework density 30.376878000000001
#
# number of rings (size 3 to 8) (size 9 to 14) (size 15 to 20)
#    0.000    0.800    6.000    3.600    0.000    1.600 
#    3.600    0.000    0.000    0.000    0.000    0.000 
#    0.000    0.000    0.000    0.000    0.000    0.000 
#
# Total GULP energy -111925.020745 kJ/mol
# GULP energy per Si atom -5596.251037 kJ/mol
# Density = 3.030774 g / cm^3
# Si number density = 30.376878 Si / 1000 Ang^3
#
#
#
# Elastic Constant Matrix: (Units=GPa)
#
#
# Indices 1 2 3 4 5 6 
#
# 1 264.8904 30.5996 97.2488 0.0000 0.0000 0.0000
# 2 30.5996 80.6294 53.7586 0.0000 0.0000 0.0000
# 3 97.2488 53.7586 236.4372 0.0000 0.0000 0.0000
# 4 0.0000 0.0000 0.0000 118.8185 0.0000 0.0000
# 5 0.0000 0.0000 0.0000 0.0000 90.9342 0.0000
# 6 0.0000 0.0000 0.0000 0.0000 0.0000 55.9519
#
#
#
# Elastic Compliance Matrix: (Units=1/GPa)
#
#
# Indices 1 2 3 4 5 6 
#
# 1 0.004468 -0.000554 -0.001711 0.000000 0.000000 0.000000
# 2 -0.000554 0.014687 -0.003111 0.000000 0.000000 0.000000
# 3 -0.001711 -0.003111 0.005641 0.000000 0.000000 0.000000
# 4 0.000000 0.000000 0.000000 0.008416 0.000000 0.000000
# 5 0.000000 0.000000 0.000000 0.000000 0.010997 0.000000
# 6 0.000000 0.000000 0.000000 0.000000 0.000000 0.017872
#
#
# Mechanical properties :
#
#
# Convention : Reuss Voigt Hill
#
# Bulk Modulus (GPa) = 71.21931 105.01899 88.11915
# Shear Modulus (GPa) = 64.50259 79.83093 72.16676
#
# Velocity S-wave (km/s) = 4.61305 5.13198 4.87942
# Velocity P-wave (km/s) = 7.20206 8.35245 7.79850
#
# Compressibility (1/GPa) = 0.01404114
#
# Stress axis : x y z
#
# Youngs Moduli (GPa) = 223.83789 68.08591 177.27827
#
# Poissons Ratio (x) = 0.03774 0.30341
# Poissons Ratio (y) = 0.12408 0.55159
# Poissons Ratio (z) = 0.38310 0.21185
#
# Static dielectric constant tensor:
#      x y z
#    x 2.652160 0.000000 0.000000 
#    y 0.000000 2.033350 0.000000 
#    z 0.000000 0.000000 2.221730 
# 
# From -- ./inp_files/5402.got.cif
#   From: 2010.05.17/outbox.cif.g08.bks.cpg/sg33_3_cif.got.tgz:5402.got - 2010.06.03 17:15:25.
