data_PCOD9346374
_publ_section_title
;
Structure prediction by ZEFSAII (Michael W. Deem and Ramdas Pophale) SiO2 
 PCOD9346374
Probable space group: P N A 21
;
_chemical_formula_sum "Si O2"
_cell_formula_units_Z 12
_cell_length_a 9.732472
_cell_length_b 8.260236
_cell_length_c 5.359523
_cell_angle_alpha 90.000000
_cell_angle_beta 90.000000
_cell_angle_gamma 90.000000
_cell_volume 430.865536
_symmetry_space_group_name_H-M "P N A 21"
_symmetry_group_IT_number 33
_symmetry_cell_setting 'orthorhombic'
loop_
_space_group_symop_operation_xyz
x,y,z
-x,-y,1/2+z
1/2-x,1/2+y,1/2+z
1/2+x,1/2-y,z
loop_
_atom_site_type_symbol
_atom_site_label
_atom_site_fract_x
_atom_site_fract_y
_atom_site_fract_z
Si Si1 0.915951 0.344208 0.549950
Si Si2 0.036981 0.095487 0.897227
Si Si3 0.715229 0.076806 0.336872
O O1 0.816274 0.221615 0.406500
O O2 0.829993 0.510026 0.567807
O O3 0.958786 0.256412 0.812277
O O4 0.065749 0.376808 0.439770
O O5 0.201030 0.081953 0.938317
O O6 0.020886 0.986414 0.645609
#
# Coordination Sequence:
#
# PCOD9346374 Si02
#       3
#     4   4   4
#     4  11  25  51  79 123 167 227 285 359 427 523
#     4  10  24  50  79 116 164 217 280 350 421 506
#     4  11  25  51  80 123 165 228 281 359 428 517
#
# _framework density 27.850918
#
# number of rings (size 3 to 8) (size 9 to 14) (size 15 to 20)
#    0.000    1.333    3.333    0.000    0.000   10.667 
#   30.000    0.000    0.000    0.000    0.000    0.000 
#    0.000    0.000    0.000    0.000    0.000    0.000 
#
# Total GULP energy -66989.525043 kJ/mol
# GULP energy per Si atom -5582.460420 kJ/mol
# Density = 2.778753 g / cm^3
# Si number density = 27.850918 Si / 1000 Ang^3
#
#
#
# Elastic Constant Matrix: (Units=GPa)
#
#
# Indices 1 2 3 4 5 6 
#
# 1 277.6266 100.7369 46.8426 0.0000 0.0000 0.0000
# 2 100.7369 136.0756 67.8283 0.0000 0.0000 0.0000
# 3 46.8426 67.8283 114.2694 0.0000 0.0000 0.0000
# 4 0.0000 0.0000 0.0000 71.0211 0.0000 0.0000
# 5 0.0000 0.0000 0.0000 0.0000 42.5109 0.0000
# 6 0.0000 0.0000 0.0000 0.0000 0.0000 50.1078
#
#
#
# Elastic Compliance Matrix: (Units=1/GPa)
#
#
# Indices 1 2 3 4 5 6 
#
# 1 0.004928 -0.003751 0.000206 0.000000 0.000000 0.000000
# 2 -0.003751 0.013292 -0.006352 0.000000 0.000000 0.000000
# 3 0.000206 -0.006352 0.012437 0.000000 0.000000 0.000000
# 4 0.000000 0.000000 0.000000 0.014080 0.000000 0.000000
# 5 0.000000 0.000000 0.000000 0.000000 0.023523 0.000000
# 6 0.000000 0.000000 0.000000 0.000000 0.000000 0.019957
#
#
# Mechanical properties :
#
#
# Convention : Reuss Voigt Hill
#
# Bulk Modulus (GPa) = 92.05129 106.53190 99.29159
# Shear Modulus (GPa) = 44.78919 53.56556 49.17737
#
# Velocity S-wave (km/s) = 4.01456 4.39030 4.20663
# Velocity P-wave (km/s) = 7.39000 8.00209 7.70213
#
# Compressibility (1/GPa) = 0.01086351
#
# Stress axis : x y z
#
# Youngs Moduli (GPa) = 202.90981 75.23126 80.40375
#
# Poissons Ratio (x) = 0.28222 -0.01660
# Poissons Ratio (y) = 0.76118 0.51075
# Poissons Ratio (z) = -0.04189 0.47789
#
# Static dielectric constant tensor:
#      x y z
#    x 2.239500 0.000000 0.000000 
#    y 0.000000 2.268110 0.000000 
#    z 0.000000 0.000000 2.321810 
# 
# From -- ./inp_files/238.got.cif
#   From: 2010.05.17/outbox.cif.g08.bks.cpg/sg33_1_cif.got.tgz:238.got - 2010.06.03 17:15:25.
