data_PCOD9346466
_publ_section_title
;
Structure prediction by ZEFSAII (Michael W. Deem and Ramdas Pophale) SiO2 
 PCOD9346466
Probable space group: P N A 21
;
_chemical_formula_sum "Si O2"
_cell_formula_units_Z 28
_cell_length_a 8.625461
_cell_length_b 17.575678
_cell_length_c 8.238876
_cell_angle_alpha 90.000000
_cell_angle_beta 90.000000
_cell_angle_gamma 90.000000
_cell_volume 1248.999803
_symmetry_space_group_name_H-M "P N A 21"
_symmetry_group_IT_number 33
_symmetry_cell_setting 'orthorhombic'
loop_
_space_group_symop_operation_xyz
x,y,z
-x,-y,1/2+z
1/2-x,1/2+y,1/2+z
1/2+x,1/2-y,z
loop_
_atom_site_type_symbol
_atom_site_label
_atom_site_fract_x
_atom_site_fract_y
_atom_site_fract_z
Si Si1 0.611927 0.684137 0.698980
Si Si2 0.251516 0.890686 0.001394
Si Si3 0.404571 0.093783 0.587151
Si Si4 0.792083 0.037415 0.024256
Si Si5 0.756462 0.345091 0.252661
Si Si6 0.735061 0.930422 0.432361
Si Si7 0.480930 0.434716 0.743338
O O1 0.714327 0.662684 0.854325
O O2 0.684113 0.625556 0.566497
O O3 0.430097 0.668192 0.736966
O O4 0.649377 0.772370 0.683229
O O5 0.420994 0.879589 0.070101
O O6 0.249888 0.977957 0.937225
O O7 0.112456 0.879703 0.127677
O O8 0.307099 0.134268 0.439177
O O9 0.362002 0.099569 0.778027
O O10 0.371577 0.003706 0.551440
O O11 0.848651 0.022160 0.842503
O O12 0.913154 0.990108 0.135895
O O13 0.800506 0.406377 0.114411
O O14 0.905526 0.900717 0.377895
#
# Coordination Sequence:
#
# PCOD9346466 Si02
#       7
#     4   4   4   4   4   4   4
#     4  12  24  47  70 102 140 191 229 293 360 424
#     4  12  24  42  72 104 141 187 239 291 353 418
#     4  11  26  43  69 107 142 180 236 298 345 425
#     4  11  20  39  71 100 134 181 234 287 351 412
#     4  12  27  48  74 101 150 185 237 294 365 419
#     4  11  24  44  72 105 139 183 240 295 348 422
#     4  11  19  39  68 101 132 179 237 284 342 418
#
# _framework density 22.417936999999998
#
# number of rings (size 3 to 8) (size 9 to 14) (size 15 to 20)
#    0.000    0.571    5.714    4.286    4.000    1.143 
#    2.571    0.000    0.000    0.000    0.000    0.000 
#    0.000    0.000    0.000    0.000    0.000    0.000 
#
# Total GULP energy -156212.360680 kJ/mol
# GULP energy per Si atom -5579.012881 kJ/mol
# Density = 2.236691 g / cm^3
# Si number density = 22.417937 Si / 1000 Ang^3
#
#
#
# Elastic Constant Matrix: (Units=GPa)
#
#
# Indices 1 2 3 4 5 6 
#
# 1 66.8161 -3.8890 -4.9166 0.0000 0.0000 0.0000
# 2 -3.8890 38.2088 1.9761 0.0000 0.0000 0.0000
# 3 -4.9166 1.9761 84.8822 0.0000 0.0000 0.0000
# 4 0.0000 0.0000 0.0000 22.8143 0.0000 0.0000
# 5 0.0000 0.0000 0.0000 0.0000 25.0392 0.0000
# 6 0.0000 0.0000 0.0000 0.0000 0.0000 25.8724
#
#
#
# Elastic Compliance Matrix: (Units=1/GPa)
#
#
# Indices 1 2 3 4 5 6 
#
# 1 0.015115 0.001495 0.000841 0.000000 0.000000 0.000000
# 2 0.001495 0.026351 -0.000527 0.000000 0.000000 0.000000
# 3 0.000841 -0.000527 0.011842 0.000000 0.000000 0.000000
# 4 0.000000 0.000000 0.000000 0.043832 0.000000 0.000000
# 5 0.000000 0.000000 0.000000 0.000000 0.039937 0.000000
# 6 0.000000 0.000000 0.000000 0.000000 0.000000 0.038651
#
#
# Mechanical properties :
#
#
# Convention : Reuss Voigt Hill
#
# Bulk Modulus (GPa) = 17.56654 19.58313 18.57484
# Shear Modulus (GPa) = 26.16605 27.86095 27.01350
#
# Velocity S-wave (km/s) = 3.42013 3.52916 3.47507
# Velocity P-wave (km/s) = 4.84245 5.03597 4.94016
#
# Compressibility (1/GPa) = 0.05692640
#
# Stress axis : x y z
#
# Youngs Moduli (GPa) = 66.15802 37.94862 84.44522
#
# Poissons Ratio (x) = -0.05673 -0.07099
# Poissons Ratio (y) = -0.09891 0.04449
# Poissons Ratio (z) = -0.05562 0.01999
#
# Static dielectric constant tensor:
#      x y z
#    x 1.894390 0.000000 0.000000 
#    y 0.000000 1.838050 0.000000 
#    z 0.000000 0.000000 1.875500 
# 
# From -- ./inp_files/3343.got.cif
#   From: 2010.05.17/outbox.cif.g08.bks.cpg/sg33_2_cif.got.tgz:3343.got - 2010.06.03 17:15:25.
