data_PCOD9346067
_publ_section_title
;
Structure prediction by ZEFSAII (Michael W. Deem and Ramdas Pophale) SiO2 
 PCOD9346067
Probable space group: P N A 21
;
_chemical_formula_sum "Si O2"
_cell_formula_units_Z 32
_cell_length_a 12.481580
_cell_length_b 20.303998
_cell_length_c 5.201770
_cell_angle_alpha 90.000000
_cell_angle_beta 90.000000
_cell_angle_gamma 90.000000
_cell_volume 1318.263636
_symmetry_space_group_name_H-M "P N A 21"
_symmetry_group_IT_number 33
_symmetry_cell_setting 'orthorhombic'
loop_
_space_group_symop_operation_xyz
x,y,z
-x,-y,1/2+z
1/2-x,1/2+y,1/2+z
1/2+x,1/2-y,z
loop_
_atom_site_type_symbol
_atom_site_label
_atom_site_fract_x
_atom_site_fract_y
_atom_site_fract_z
Si Si1 0.382110 0.712625 0.995570
Si Si2 0.197311 0.967664 0.956953
Si Si3 0.395753 0.600407 0.353465
Si Si4 0.315511 0.265487 0.790341
Si Si5 0.975947 0.327572 0.461113
Si Si6 0.212092 0.659686 0.640008
Si Si7 0.053975 0.468587 0.596702
Si Si8 0.622480 0.593981 0.471874
O O1 0.450535 0.768260 0.851369
O O2 0.309181 0.663353 0.834707
O O3 0.439987 0.658744 0.171483
O O4 0.300228 0.755383 0.165154
O O5 0.321363 0.981255 0.026369
O O6 0.189583 0.912260 0.735515
O O7 0.132218 0.024837 0.803763
O O8 0.142131 0.957426 0.236328
O O9 0.273293 0.624295 0.411547
O O10 0.496790 0.596584 0.546498
O O11 0.398786 0.215582 0.649459
O O12 0.342385 0.340126 0.824966
O O13 0.309201 0.235306 0.073814
O O14 0.898549 0.363089 0.254720
O O15 0.035485 0.388922 0.592009
O O16 0.016857 0.496818 0.872425
#
# Coordination Sequence:
#
# PCOD9346067 Si02
#       8
#     4   4   4   4   4   4   4   4
#     4  10  23  42  71 103 139 190 242 312 367 448
#     4  12  29  48  74 108 152 196 250 313 366 459
#     4  11  25  45  71 104 145 195 248 297 384 446
#     4  10  24  42  66 103 141 184 247 306 371 445
#     4  11  24  44  71 101 145 188 249 307 376 442
#     4  10  25  40  72 100 141 189 244 309 371 455
#     4  12  29  50  77 109 151 203 251 308 380 455
#     4  12  27  47  74 108 148 195 247 312 377 442
#
# _framework density 24.274355
#
# number of rings (size 3 to 8) (size 9 to 14) (size 15 to 20)
#    0.000    1.000    1.250    3.000   17.500    0.000 
#    0.000    0.000    0.000    0.000    0.000    0.000 
#    0.000    0.000    0.000    0.000    0.000    0.000 
#
# Total GULP energy -178269.607160 kJ/mol
# GULP energy per Si atom -5570.925224 kJ/mol
# Density = 2.421911 g / cm^3
# Si number density = 24.274355 Si / 1000 Ang^3
#
#
#
# Elastic Constant Matrix: (Units=GPa)
#
#
# Indices 1 2 3 4 5 6 
#
# 1 66.3684 -5.7565 9.9693 0.0000 0.0000 0.0000
# 2 -5.7565 45.1385 8.4382 0.0000 0.0000 0.0000
# 3 9.9693 8.4382 69.0259 0.0000 0.0000 0.0000
# 4 0.0000 0.0000 0.0000 8.5103 0.0000 0.0000
# 5 0.0000 0.0000 0.0000 0.0000 27.9427 0.0000
# 6 0.0000 0.0000 0.0000 0.0000 0.0000 48.0941
#
#
#
# Elastic Compliance Matrix: (Units=1/GPa)
#
#
# Indices 1 2 3 4 5 6 
#
# 1 0.015668 0.002478 -0.002566 0.000000 0.000000 0.000000
# 2 0.002478 0.023064 -0.003177 0.000000 0.000000 0.000000
# 3 -0.002566 -0.003177 0.015246 0.000000 0.000000 0.000000
# 4 0.000000 0.000000 0.000000 0.117505 0.000000 0.000000
# 5 0.000000 0.000000 0.000000 0.000000 0.035787 0.000000
# 6 0.000000 0.000000 0.000000 0.000000 0.000000 0.020793
#
#
# Mechanical properties :
#
#
# Convention : Reuss Voigt Hill
#
# Bulk Modulus (GPa) = 21.07601 22.87052 21.97326
# Shear Modulus (GPa) = 19.96728 28.10154 24.03441
#
# Velocity S-wave (km/s) = 2.87115 3.40614 3.15002
# Velocity P-wave (km/s) = 4.43764 4.99111 4.72249
#
# Compressibility (1/GPa) = 0.04744732
#
# Stress axis : x y z
#
# Youngs Moduli (GPa) = 63.82549 43.35759 65.58963
#
# Poissons Ratio (x) = -0.10743 0.16829
# Poissons Ratio (y) = -0.15814 0.20840
# Poissons Ratio (z) = 0.16376 0.13776
#
# Static dielectric constant tensor:
#      x y z
#    x 2.045750 0.000000 0.000000 
#    y 0.000000 2.037990 0.000000 
#    z 0.000000 0.000000 2.103380 
# 
# From -- ./inp_files/1054.got.cif
#   From: 2010.05.17/outbox.cif.g08.bks.cpg/sg33_1_cif.got.tgz:1054.got - 2010.06.03 17:15:25.
