data_PCOD9346907
_publ_section_title
;
Structure prediction by ZEFSAII (Michael W. Deem and Ramdas Pophale) SiO2 
 PCOD9346907
Probable space group: P N A 21
;
_chemical_formula_sum "Si O2"
_cell_formula_units_Z 24
_cell_length_a 11.043645
_cell_length_b 8.663470
_cell_length_c 9.896644
_cell_angle_alpha 90.000000
_cell_angle_beta 90.000000
_cell_angle_gamma 90.000000
_cell_volume 946.874153
_symmetry_space_group_name_H-M "P N A 21"
_symmetry_group_IT_number 33
_symmetry_cell_setting 'orthorhombic'
loop_
_space_group_symop_operation_xyz
x,y,z
-x,-y,1/2+z
1/2-x,1/2+y,1/2+z
1/2+x,1/2-y,z
loop_
_atom_site_type_symbol
_atom_site_label
_atom_site_fract_x
_atom_site_fract_y
_atom_site_fract_z
Si Si1 0.376939 0.027469 0.930380
Si Si2 0.060235 0.000906 0.258302
Si Si3 0.701533 0.020727 0.935103
Si Si4 0.940513 0.648447 0.660087
Si Si5 0.168567 0.188882 0.795738
Si Si6 0.306060 0.282453 0.550230
O O1 0.431747 0.948804 0.796650
O O2 0.291089 0.164836 0.879879
O O3 0.278967 0.903735 0.979488
O O4 0.458925 0.085303 0.054497
O O5 0.167134 0.007441 0.369323
O O6 0.101073 0.876018 0.144144
O O7 0.936986 0.932620 0.320589
O O8 0.046178 0.170598 0.193688
O O9 0.633717 0.136639 0.831698
O O10 0.682908 0.112009 0.076093
O O11 0.642555 0.850836 0.954608
O O12 0.213062 0.185503 0.643289
#
# Coordination Sequence:
#
# PCOD9346907 Si02
#       6
#     4   4   4   4   4   4
#     4  12  29  52  83 123 163 223 282 348 427 508
#     4  11  28  54  83 121 167 230 284 356 434 513
#     4  11  26  49  80 119 166 219 284 355 434 509
#     4  12  29  53  86 120 176 223 289 357 427 520
#     4  11  28  50  82 118 164 217 285 349 422 519
#     4  11  26  50  78 119 164 214 282 349 426 515
#
# _framework density 25.346558000000002
#
# number of rings (size 3 to 8) (size 9 to 14) (size 15 to 20)
#    0.000    0.667    3.333    1.000   14.000    4.000 
#    0.000    0.000    0.000    0.000    0.000    0.000 
#    0.000    0.000    0.000    0.000    0.000    0.000 
#
# Total GULP energy -134325.559992 kJ/mol
# GULP energy per Si atom -5596.898333 kJ/mol
# Density = 2.528887 g / cm^3
# Si number density = 25.346558 Si / 1000 Ang^3
#
#
#
# Elastic Constant Matrix: (Units=GPa)
#
#
# Indices 1 2 3 4 5 6 
#
# 1 101.7929 67.4024 80.2527 0.0000 0.0000 0.0000
# 2 67.4024 182.0090 52.2809 0.0000 0.0000 0.0000
# 3 80.2527 52.2809 115.6789 0.0000 0.0000 0.0000
# 4 0.0000 0.0000 0.0000 58.7642 0.0000 0.0000
# 5 0.0000 0.0000 0.0000 0.0000 49.0512 0.0000
# 6 0.0000 0.0000 0.0000 0.0000 0.0000 29.3230
#
#
#
# Elastic Compliance Matrix: (Units=1/GPa)
#
#
# Indices 1 2 3 4 5 6 
#
# 1 0.025001 -0.004914 -0.015124 0.000000 0.000000 0.000000
# 2 -0.004914 0.007280 0.000119 0.000000 0.000000 0.000000
# 3 -0.015124 0.000119 0.019083 0.000000 0.000000 0.000000
# 4 0.000000 0.000000 0.000000 0.017017 0.000000 0.000000
# 5 0.000000 0.000000 0.000000 0.000000 0.020387 0.000000
# 6 0.000000 0.000000 0.000000 0.000000 0.000000 0.034103
#
#
# Mechanical properties :
#
#
# Convention : Reuss Voigt Hill
#
# Bulk Modulus (GPa) = 86.75772 88.81698 87.78735
# Shear Modulus (GPa) = 30.02079 40.73065 35.37572
#
# Velocity S-wave (km/s) = 3.44526 4.01303 3.73993
# Velocity P-wave (km/s) = 7.08021 7.52261 7.30476
#
# Compressibility (1/GPa) = 0.01152635
#
# Stress axis : x y z
#
# Youngs Moduli (GPa) = 39.99769 137.36420 52.40297
#
# Poissons Ratio (x) = 0.67507 0.79253
# Poissons Ratio (y) = 0.19657 -0.00625
# Poissons Ratio (z) = 0.60492 -0.01638
#
# Static dielectric constant tensor:
#      x y z
#    x 2.079250 0.000000 0.000000 
#    y 0.000000 2.045700 0.000000 
#    z 0.000000 0.000000 2.021750 
# 
# From -- ./inp_files/6696.got.cif
#   From: 2010.05.17/outbox.cif.g08.bks.cpg/sg33_4_cif.got.tgz:6696.got - 2010.06.03 17:15:25.
