data_PCOD9346245
_publ_section_title
;
Structure prediction by ZEFSAII (Michael W. Deem and Ramdas Pophale) SiO2 
 PCOD9346245
Probable space group: P N A 21
;
_chemical_formula_sum "Si O2"
_cell_formula_units_Z 20
_cell_length_a 21.046198
_cell_length_b 8.047811
_cell_length_c 4.907899
_cell_angle_alpha 90.000000
_cell_angle_beta 90.000000
_cell_angle_gamma 90.000000
_cell_volume 831.279436
_symmetry_space_group_name_H-M "P N A 21"
_symmetry_group_IT_number 33
_symmetry_cell_setting 'orthorhombic'
loop_
_space_group_symop_operation_xyz
x,y,z
-x,-y,1/2+z
1/2-x,1/2+y,1/2+z
1/2+x,1/2-y,z
loop_
_atom_site_type_symbol
_atom_site_label
_atom_site_fract_x
_atom_site_fract_y
_atom_site_fract_z
Si Si1 0.464722 0.060521 0.879070
Si Si2 0.531410 0.570934 0.613220
Si Si3 0.163235 0.422204 0.619481
Si Si4 0.770436 0.880043 0.891014
Si Si5 0.847100 0.918174 0.381952
O O1 0.485306 0.040800 0.567244
O O2 0.394794 0.993115 0.947710
O O3 0.468934 0.248811 0.981100
O O4 0.520347 0.449385 0.354663
O O5 0.595373 0.525012 0.771790
O O6 0.211624 0.311774 0.438011
O O7 0.202993 0.563862 0.776030
O O8 0.138031 0.277990 0.827185
O O9 0.824286 0.946985 0.685334
O O10 0.787062 0.949433 0.185945
#
# Coordination Sequence:
#
# PCOD9346245 Si02
#       5
#     4   4   4   4   4
#     4  12  28  46  74 106 141 188 240 300 360 424
#     4  12  25  45  71 101 142 191 240 294 359 427
#     4  10  26  45  72 101 145 184 240 292 352 432
#     4  10  25  40  72  97 145 178 239 288 357 409
#     4  10  24  42  67 101 137 183 237 290 346 426
#
# _framework density 24.059298999999999
#
# number of rings (size 3 to 8) (size 9 to 14) (size 15 to 20)
#    1.200    0.000    0.000    4.800   11.200    0.000 
#    0.000    0.000    0.000    0.000    0.000    0.000 
#    0.000    0.000    0.000    0.000    0.000    0.000 
#
# Total GULP energy -111818.538359 kJ/mol
# GULP energy per Si atom -5590.926918 kJ/mol
# Density = 2.400454 g / cm^3
# Si number density = 24.059299 Si / 1000 Ang^3
#
#
#
# Elastic Constant Matrix: (Units=GPa)
#
#
# Indices 1 2 3 4 5 6 
#
# 1 78.2125 25.5262 -13.3924 0.0000 0.0000 0.0000
# 2 25.5262 84.2074 8.8213 0.0000 0.0000 0.0000
# 3 -13.3924 8.8213 60.5047 0.0000 0.0000 0.0000
# 4 0.0000 0.0000 0.0000 29.8819 0.0000 0.0000
# 5 0.0000 0.0000 0.0000 0.0000 11.0130 0.0000
# 6 0.0000 0.0000 0.0000 0.0000 0.0000 38.7647
#
#
#
# Elastic Compliance Matrix: (Units=1/GPa)
#
#
# Indices 1 2 3 4 5 6 
#
# 1 0.015119 -0.005010 0.004077 0.000000 0.000000 0.000000
# 2 -0.005010 0.013720 -0.003109 0.000000 0.000000 0.000000
# 3 0.004077 -0.003109 0.017883 0.000000 0.000000 0.000000
# 4 0.000000 0.000000 0.000000 0.033465 0.000000 0.000000
# 5 0.000000 0.000000 0.000000 0.000000 0.090802 0.000000
# 6 0.000000 0.000000 0.000000 0.000000 0.000000 0.025797
#
#
# Mechanical properties :
#
#
# Convention : Reuss Voigt Hill
#
# Bulk Modulus (GPa) = 25.88175 29.42610 27.65392
# Shear Modulus (GPa) = 22.96215 29.39655 26.17935
#
# Velocity S-wave (km/s) = 3.09269 3.49927 3.30224
# Velocity P-wave (km/s) = 4.85116 5.34638 5.10478
#
# Compressibility (1/GPa) = 0.03863726
#
# Stress axis : x y z
#
# Youngs Moduli (GPa) = 66.14218 72.88673 55.91783
#
# Poissons Ratio (x) = 0.36518 -0.22797
# Poissons Ratio (y) = 0.33138 0.17386
# Poissons Ratio (z) = -0.26966 0.22662
#
# Static dielectric constant tensor:
#      x y z
#    x 2.024090 0.000000 0.000000 
#    y 0.000000 1.940440 0.000000 
#    z 0.000000 0.000000 1.876770 
# 
# From -- ./inp_files/1646.got.cif
#   From: 2010.05.17/outbox.cif.g08.bks.cpg/sg33_1_cif.got.tgz:1646.got - 2010.06.03 17:15:25.
