data_PCOD9346797
_publ_section_title
;
Structure prediction by ZEFSAII (Michael W. Deem and Ramdas Pophale) SiO2 
 PCOD9346797
Probable space group: P N A 21
;
_chemical_formula_sum "Si O2"
_cell_formula_units_Z 16
_cell_length_a 9.219489
_cell_length_b 4.807150
_cell_length_c 12.946244
_cell_angle_alpha 90.000000
_cell_angle_beta 90.000000
_cell_angle_gamma 90.000000
_cell_volume 573.770628
_symmetry_space_group_name_H-M "P N A 21"
_symmetry_group_IT_number 33
_symmetry_cell_setting 'orthorhombic'
loop_
_space_group_symop_operation_xyz
x,y,z
-x,-y,1/2+z
1/2-x,1/2+y,1/2+z
1/2+x,1/2-y,z
loop_
_atom_site_type_symbol
_atom_site_label
_atom_site_fract_x
_atom_site_fract_y
_atom_site_fract_z
Si Si1 0.435762 0.758123 0.748180
Si Si2 0.244224 0.979398 0.068512
Si Si3 0.182750 0.133954 0.748180
Si Si4 0.755776 0.020602 0.927848
O O1 0.373395 0.616504 0.643776
O O2 0.601006 0.658061 0.748180
O O3 0.373395 0.616505 0.852584
O O4 0.354237 0.054918 0.748180
O O5 0.349223 0.812566 0.146532
O O6 0.190305 0.734627 0.992650
O O7 0.309695 0.234627 0.003710
O O8 0.150777 0.312567 0.849828
#
# Coordination Sequence:
#
# PCOD9346797 Si02
#       4
#     4   4   4   4
#     4  11  26  47  74 108 147 185 238 298 354 425
#     4  11  24  49  70 108 140 191 238 295 352 420
#     4  11  26  47  74 108 147 185 238 298 354 425
#     4  11  24  49  70 108 140 191 238 295 352 420
#
# _framework density 27.88571
#
# number of rings (size 3 to 8) (size 9 to 14) (size 15 to 20)
#    0.000    1.000    5.000    0.000    0.000   12.000 
#    0.000    0.000    0.000    0.000    0.000    0.000 
#    0.000    0.000    0.000    0.000    0.000    0.000 
#
# Total GULP energy -89606.502032 kJ/mol
# GULP energy per Si atom -5600.406377 kJ/mol
# Density = 2.782224 g / cm^3
# Si number density = 27.885710 Si / 1000 Ang^3
#
#
#
# Elastic Constant Matrix: (Units=GPa)
#
#
# Indices 1 2 3 4 5 6 
#
# 1 65.7868 -17.7123 15.8864 0.0000 0.0000 0.0000
# 2 -17.7123 180.9523 71.3484 0.0000 0.0000 0.0000
# 3 15.8864 71.3484 178.8516 0.0000 0.0000 0.0000
# 4 0.0000 0.0000 0.0000 10.6637 0.0000 0.0000
# 5 0.0000 0.0000 0.0000 0.0000 20.4667 0.0000
# 6 0.0000 0.0000 0.0000 0.0000 0.0000 18.8834
#
#
#
# Elastic Compliance Matrix: (Units=1/GPa)
#
#
# Indices 1 2 3 4 5 6 
#
# 1 0.016506 0.002603 -0.002505 0.000000 0.000000 0.000000
# 2 0.002603 0.006968 -0.003011 0.000000 0.000000 0.000000
# 3 -0.002505 -0.003011 0.007015 0.000000 0.000000 0.000000
# 4 0.000000 0.000000 0.000000 0.093776 0.000000 0.000000
# 5 0.000000 0.000000 0.000000 0.000000 0.048860 0.000000
# 6 0.000000 0.000000 0.000000 0.000000 0.000000 0.052957
#
#
# Mechanical properties :
#
#
# Convention : Reuss Voigt Hill
#
# Bulk Modulus (GPa) = 40.54384 62.73730 51.64057
# Shear Modulus (GPa) = 20.82212 33.74063 27.28137
#
# Velocity S-wave (km/s) = 2.73554 3.48222 3.13122
# Velocity P-wave (km/s) = 4.95463 6.22211 5.62419
#
# Compressibility (1/GPa) = 0.02466466
#
# Stress axis : x y z
#
# Youngs Moduli (GPa) = 60.58273 143.50498 142.55352
#
# Poissons Ratio (x) = -0.37358 0.35705
# Poissons Ratio (y) = -0.15771 0.42924
# Poissons Ratio (z) = 0.15174 0.43211
#
# Static dielectric constant tensor:
#      x y z
#    x 2.259580 0.000000 0.000000 
#    y 0.000000 2.095120 0.000000 
#    z 0.000000 0.000000 2.166320 
# 
# From -- ./inp_files/6172.got.cif
#   From: 2010.05.17/outbox.cif.g08.bks.cpg/sg33_4_cif.got.tgz:6172.got - 2010.06.03 17:15:25.
