data_PCOD9346735
_publ_section_title
;
Structure prediction by ZEFSAII (Michael W. Deem and Ramdas Pophale) SiO2 
 PCOD9346735
Probable space group: P N A 21
;
_chemical_formula_sum "Si O2"
_cell_formula_units_Z 24
_cell_length_a 11.831700
_cell_length_b 9.660028
_cell_length_c 9.128054
_cell_angle_alpha 90.000000
_cell_angle_beta 90.000000
_cell_angle_gamma 90.000000
_cell_volume 1043.286854
_symmetry_space_group_name_H-M "P N A 21"
_symmetry_group_IT_number 33
_symmetry_cell_setting 'orthorhombic'
loop_
_space_group_symop_operation_xyz
x,y,z
-x,-y,1/2+z
1/2-x,1/2+y,1/2+z
1/2+x,1/2-y,z
loop_
_atom_site_type_symbol
_atom_site_label
_atom_site_fract_x
_atom_site_fract_y
_atom_site_fract_z
Si Si1 0.445358 0.410321 0.850680
Si Si2 0.981581 0.657733 0.497201
Si Si3 0.252094 0.488689 0.082176
Si Si4 0.814869 0.205318 0.575899
Si Si5 0.485946 0.279089 0.310994
Si Si6 0.163440 0.442145 0.393949
O O1 0.388319 0.332056 0.715441
O O2 0.488568 0.558321 0.796089
O O3 0.537190 0.303668 0.915372
O O4 0.353289 0.436492 0.979819
O O5 0.030841 0.700674 0.656701
O O6 0.073999 0.566099 0.410734
O O7 0.866612 0.571022 0.517355
O O8 0.253343 0.653869 0.093752
O O9 0.243503 0.446619 0.252187
O O10 0.890738 0.234159 0.433280
O O11 0.736669 0.074454 0.539269
O O12 0.593657 0.198972 0.375995
#
# Coordination Sequence:
#
# PCOD9346735 Si02
#       6
#     4   4   4   4   4   4
#     4  12  26  45  71 108 136 180 235 292 347 419
#     4  11  25  46  73 100 140 184 234 287 350 418
#     4  11  25  47  69 102 140 184 234 282 352 422
#     4  12  25  43  73 100 139 183 228 285 351 413
#     4  11  25  45  68 102 143 177 231 291 347 412
#     4  11  24  44  72 100 136 186 232 285 345 414
#
# _framework density 23.004218999999999
#
# number of rings (size 3 to 8) (size 9 to 14) (size 15 to 20)
#    0.000    0.667    5.000    2.000    2.333    5.333 
#    3.000    0.000    0.000    0.000    0.000    0.000 
#    0.000    0.000    0.000    0.000    0.000    0.000 
#
# Total GULP energy -134242.363027 kJ/mol
# GULP energy per Si atom -5593.431793 kJ/mol
# Density = 2.295186 g / cm^3
# Si number density = 23.004219 Si / 1000 Ang^3
#
#
#
# Elastic Constant Matrix: (Units=GPa)
#
#
# Indices 1 2 3 4 5 6 
#
# 1 33.0652 10.7791 14.3876 0.0000 0.0000 0.0000
# 2 10.7791 101.7455 12.7033 0.0000 0.0000 0.0000
# 3 14.3876 12.7033 60.5097 0.0000 0.0000 0.0000
# 4 0.0000 0.0000 0.0000 20.0992 0.0000 0.0000
# 5 0.0000 0.0000 0.0000 0.0000 29.3616 0.0000
# 6 0.0000 0.0000 0.0000 0.0000 0.0000 29.1809
#
#
#
# Elastic Compliance Matrix: (Units=1/GPa)
#
#
# Indices 1 2 3 4 5 6 
#
# 1 0.034439 -0.002697 -0.007623 0.000000 0.000000 0.000000
# 2 -0.002697 0.010304 -0.001522 0.000000 0.000000 0.000000
# 3 -0.007623 -0.001522 0.018658 0.000000 0.000000 0.000000
# 4 0.000000 0.000000 0.000000 0.049753 0.000000 0.000000
# 5 0.000000 0.000000 0.000000 0.000000 0.034058 0.000000
# 6 0.000000 0.000000 0.000000 0.000000 0.000000 0.034269
#
#
# Mechanical properties :
#
#
# Convention : Reuss Voigt Hill
#
# Bulk Modulus (GPa) = 25.17698 30.11782 27.64740
# Shear Modulus (GPa) = 22.89332 26.22504 24.55918
#
# Velocity S-wave (km/s) = 3.15807 3.38007 3.27095
# Velocity P-wave (km/s) = 4.92607 5.32483 5.12933
#
# Compressibility (1/GPa) = 0.03971882
#
# Stress axis : x y z
#
# Youngs Moduli (GPa) = 29.03670 97.04801 53.59566
#
# Poissons Ratio (x) = 0.26172 0.40853
# Poissons Ratio (y) = 0.07831 0.08157
# Poissons Ratio (z) = 0.22133 0.14771
#
# Static dielectric constant tensor:
#      x y z
#    x 1.852770 0.000000 0.000000 
#    y 0.000000 1.830750 0.000000 
#    z 0.000000 0.000000 1.854840 
# 
# From -- ./inp_files/3713.got.cif
#   From: 2010.05.17/outbox.cif.g08.bks.cpg/sg33_2_cif.got.tgz:3713.got - 2010.06.03 17:15:25.
