data_PCOD9346515
_publ_section_title
;
Structure prediction by ZEFSAII (Michael W. Deem and Ramdas Pophale) SiO2 
 PCOD9346515
Probable space group: P N A 21
;
_chemical_formula_sum "Si O2"
_cell_formula_units_Z 32
_cell_length_a 9.608572
_cell_length_b 18.442502
_cell_length_c 8.019016
_cell_angle_alpha 90.000000
_cell_angle_beta 90.000000
_cell_angle_gamma 90.000000
_cell_volume 1421.018618
_symmetry_space_group_name_H-M "P N A 21"
_symmetry_group_IT_number 33
_symmetry_cell_setting 'orthorhombic'
loop_
_space_group_symop_operation_xyz
x,y,z
-x,-y,1/2+z
1/2-x,1/2+y,1/2+z
1/2+x,1/2-y,z
loop_
_atom_site_type_symbol
_atom_site_label
_atom_site_fract_x
_atom_site_fract_y
_atom_site_fract_z
Si Si1 0.911290 0.193185 0.247920
Si Si2 0.138630 0.822855 0.376777
Si Si3 0.845841 0.619441 0.930976
Si Si4 0.844840 0.861162 0.972263
Si Si5 0.713364 0.467937 0.021400
Si Si6 0.098084 0.268349 0.713804
Si Si7 0.106084 0.634873 0.727949
Si Si8 0.497341 0.542727 0.215406
O O1 0.791504 0.161785 0.367456
O O2 0.893456 0.278468 0.216055
O O3 0.057415 0.177394 0.335189
O O4 0.898085 0.159406 0.065877
O O5 0.296062 0.798675 0.350765
O O6 0.100929 0.893296 0.270530
O O7 0.040823 0.759835 0.301119
O O8 0.950947 0.610654 0.775722
O O9 0.800290 0.542135 0.002977
O O10 0.915932 0.670294 0.072003
O O11 0.700662 0.881719 0.889655
O O12 0.836043 0.801878 0.120534
O O13 0.923336 0.930201 0.046994
O O14 0.818113 0.403990 0.073225
O O15 0.596596 0.476564 0.166425
O O16 0.623552 0.461922 0.852463
#
# Coordination Sequence:
#
# PCOD9346515 Si02
#       8
#     4   4   4   4   4   4   4   4
#     4  12  24  46  73 108 137 188 245 304 357 433
#     4  11  26  39  72 107 139 174 242 307 356 425
#     4  12  25  49  73 101 152 191 237 299 379 434
#     4  11  22  44  77 101 136 189 242 295 367 430
#     4  12  27  47  68 107 147 195 249 290 375 444
#     4  11  21  44  68 107 137 180 235 298 367 417
#     4  12  26  44  72 106 142 187 240 304 360 434
#     4  11  25  47  73 101 140 194 240 299 347 453
#
# _framework density 22.519055999999999
#
# number of rings (size 3 to 8) (size 9 to 14) (size 15 to 20)
#    0.000    0.500    5.000    3.000    8.750    1.000 
#    4.500    0.000    0.000    0.000    0.000    0.000 
#    0.000    0.000    0.000    0.000    0.000    0.000 
#
# Total GULP energy -179158.901187 kJ/mol
# GULP energy per Si atom -5598.715662 kJ/mol
# Density = 2.246780 g / cm^3
# Si number density = 22.519056 Si / 1000 Ang^3
#
#
#
# Elastic Constant Matrix: (Units=GPa)
#
#
# Indices 1 2 3 4 5 6 
#
# 1 54.0919 18.2218 0.7690 0.0000 0.0000 0.0000
# 2 18.2218 84.1887 -2.4600 0.0000 0.0000 0.0000
# 3 0.7690 -2.4600 70.2362 0.0000 0.0000 0.0000
# 4 0.0000 0.0000 0.0000 15.6838 0.0000 0.0000
# 5 0.0000 0.0000 0.0000 0.0000 36.3602 0.0000
# 6 0.0000 0.0000 0.0000 0.0000 0.0000 21.5717
#
#
#
# Elastic Compliance Matrix: (Units=1/GPa)
#
#
# Indices 1 2 3 4 5 6 
#
# 1 0.019951 -0.004329 -0.000370 0.000000 0.000000 0.000000
# 2 -0.004329 0.012830 0.000497 0.000000 0.000000 0.000000
# 3 -0.000370 0.000497 0.014259 0.000000 0.000000 0.000000
# 4 0.000000 0.000000 0.000000 0.063760 0.000000 0.000000
# 5 0.000000 0.000000 0.000000 0.000000 0.027503 0.000000
# 6 0.000000 0.000000 0.000000 0.000000 0.000000 0.046357
#
#
# Mechanical properties :
#
#
# Convention : Reuss Voigt Hill
#
# Bulk Modulus (GPa) = 25.88341 26.84205 26.36273
# Shear Modulus (GPa) = 24.27873 27.52222 25.90048
#
# Velocity S-wave (km/s) = 3.28707 3.49975 3.39508
# Velocity P-wave (km/s) = 5.09170 5.31758 5.20586
#
# Compressibility (1/GPa) = 0.03863479
#
# Stress axis : x y z
#
# Youngs Moduli (GPa) = 50.12387 77.94506 70.13059
#
# Poissons Ratio (x) = 0.33742 0.02595
# Poissons Ratio (y) = 0.21698 -0.03484
# Poissons Ratio (z) = 0.01855 -0.03872
#
# Static dielectric constant tensor:
#      x y z
#    x 1.797810 0.000000 0.000000 
#    y 0.000000 1.841350 0.000000 
#    z 0.000000 0.000000 1.847590 
# 
# From -- ./inp_files/3520.got.cif
#   From: 2010.05.17/outbox.cif.g08.bks.cpg/sg33_2_cif.got.tgz:3520.got - 2010.06.03 17:15:25.
