data_PCOD9346475
_publ_section_title
;
Structure prediction by ZEFSAII (Michael W. Deem and Ramdas Pophale) SiO2 
 PCOD9346475
Probable space group: P N A 21
;
_chemical_formula_sum "Si O2"
_cell_formula_units_Z 32
_cell_length_a 8.415709
_cell_length_b 9.855594
_cell_length_c 14.011758
_cell_angle_alpha 90.000000
_cell_angle_beta 90.000000
_cell_angle_gamma 90.000000
_cell_volume 1162.160586
_symmetry_space_group_name_H-M "P N A 21"
_symmetry_group_IT_number 33
_symmetry_cell_setting 'orthorhombic'
loop_
_space_group_symop_operation_xyz
x,y,z
-x,-y,1/2+z
1/2-x,1/2+y,1/2+z
1/2+x,1/2-y,z
loop_
_atom_site_type_symbol
_atom_site_label
_atom_site_fract_x
_atom_site_fract_y
_atom_site_fract_z
Si Si1 0.085443 0.416508 0.296570
Si Si2 0.418625 0.982551 0.460158
Si Si3 0.611164 0.417571 0.826579
Si Si4 0.249882 0.772972 0.168701
Si Si5 0.553934 0.578209 0.509343
Si Si6 0.582444 0.365712 0.217927
Si Si7 0.494210 0.722549 0.039221
Si Si8 0.893291 0.434026 0.129848
O O1 0.252676 0.466512 0.335161
O O2 0.057751 0.255075 0.294283
O O3 0.953294 0.509101 0.348119
O O4 0.061302 0.442370 0.183938
O O5 0.467535 0.140826 0.483932
O O6 0.241859 0.933929 0.486342
O O7 0.556819 0.907777 0.521682
O O8 0.699667 0.306048 0.761771
O O9 0.541197 0.352283 0.922503
O O10 0.467722 0.497473 0.773069
O O11 0.310391 0.708820 0.068055
O O12 0.064179 0.764613 0.146769
O O13 0.307110 0.924439 0.149739
O O14 0.513893 0.629084 0.616609
O O15 0.473660 0.426810 0.501196
O O16 0.763324 0.341689 0.181812
#
# Coordination Sequence:
#
# PCOD9346475 Si02
#       8
#     4   4   4   4   4   4   4   4
#     4  12  27  45  71 109 155 195 243 308 381 454
#     4  11  25  45  72 113 144 194 254 307 363 449
#     4  12  25  43  72 107 149 196 250 304 371 449
#     4  11  21  42  71 101 136 184 247 298 359 428
#     4  12  24  43  74 109 147 194 247 310 379 443
#     4  12  24  46  72 111 150 196 241 309 387 448
#     4  11  20  38  72  99 137 184 241 305 356 422
#     4  11  24  46  76 103 148 191 245 311 370 439
#
# _framework density 27.534918999999999
#
# number of rings (size 3 to 8) (size 9 to 14) (size 15 to 20)
#    0.000    0.500    3.750    5.250    1.750    2.000 
#    2.250    1.250    5.500    0.000    0.000    0.000 
#    0.000    0.000    0.000    0.000    0.000    0.000 
#
# Total GULP energy -178770.960966 kJ/mol
# GULP energy per Si atom -5586.592530 kJ/mol
# Density = 2.747225 g / cm^3
# Si number density = 27.534919 Si / 1000 Ang^3
#
#
#
# Elastic Constant Matrix: (Units=GPa)
#
#
# Indices 1 2 3 4 5 6 
#
# 1 118.4943 -1.5023 36.1183 0.0000 0.0000 0.0000
# 2 -1.5023 49.9333 -3.2467 0.0000 0.0000 0.0000
# 3 36.1183 -3.2467 110.8138 0.0000 0.0000 0.0000
# 4 0.0000 0.0000 0.0000 47.9653 0.0000 0.0000
# 5 0.0000 0.0000 0.0000 0.0000 39.2219 0.0000
# 6 0.0000 0.0000 0.0000 0.0000 0.0000 36.1387
#
#
#
# Elastic Compliance Matrix: (Units=1/GPa)
#
#
# Indices 1 2 3 4 5 6 
#
# 1 0.009370 0.000083 -0.003052 0.000000 0.000000 0.000000
# 2 0.000083 0.020066 0.000561 0.000000 0.000000 0.000000
# 3 -0.003052 0.000561 0.010035 0.000000 0.000000 0.000000
# 4 0.000000 0.000000 0.000000 0.020848 0.000000 0.000000
# 5 0.000000 0.000000 0.000000 0.000000 0.025496 0.000000
# 6 0.000000 0.000000 0.000000 0.000000 0.000000 0.027671
#
#
# Mechanical properties :
#
#
# Convention : Reuss Voigt Hill
#
# Bulk Modulus (GPa) = 28.85482 37.99780 33.42631
# Shear Modulus (GPa) = 38.50470 41.18995 39.84733
#
# Velocity S-wave (km/s) = 3.74357 3.87190 3.80828
# Velocity P-wave (km/s) = 5.40258 5.81538 5.61278
#
# Compressibility (1/GPa) = 0.03465626
#
# Stress axis : x y z
#
# Youngs Moduli (GPa) = 106.71805 49.83636 99.64870
#
# Poissons Ratio (x) = -0.00416 0.30410
# Poissons Ratio (y) = -0.00891 -0.05587
# Poissons Ratio (z) = 0.32568 -0.02794
#
# Static dielectric constant tensor:
#      x y z
#    x 2.148010 0.000000 0.000000 
#    y 0.000000 2.341480 0.000000 
#    z 0.000000 0.000000 2.177220 
# 
# From -- ./inp_files/7697.got.cif
#   From: 2010.05.17/outbox.cif.g08.bks.cpg/sg33_4_cif.got.tgz:7697.got - 2010.06.03 17:15:25.
