data_PCOD9346176
_publ_section_title
;
Structure prediction by ZEFSAII (Michael W. Deem and Ramdas Pophale) SiO2 
 PCOD9346176
Probable space group: P N A 21
;
_chemical_formula_sum "Si O2"
_cell_formula_units_Z 28
_cell_length_a 16.376120
_cell_length_b 6.369465
_cell_length_c 11.637925
_cell_angle_alpha 90.000000
_cell_angle_beta 90.000000
_cell_angle_gamma 90.000000
_cell_volume 1213.918476
_symmetry_space_group_name_H-M "P N A 21"
_symmetry_group_IT_number 33
_symmetry_cell_setting 'orthorhombic'
loop_
_space_group_symop_operation_xyz
x,y,z
-x,-y,1/2+z
1/2-x,1/2+y,1/2+z
1/2+x,1/2-y,z
loop_
_atom_site_type_symbol
_atom_site_label
_atom_site_fract_x
_atom_site_fract_y
_atom_site_fract_z
Si Si1 0.408642 0.016450 0.170470
Si Si2 0.676110 0.943229 0.171568
Si Si3 0.077120 0.733325 0.370000
Si Si4 0.179866 0.215206 0.805918
Si Si5 0.029374 0.606448 0.001662
Si Si6 0.779045 0.261417 0.029811
Si Si7 0.467357 0.408620 0.288042
O O1 0.371437 0.927286 0.287935
O O2 0.465002 0.852770 0.104474
O O3 0.331496 0.060530 0.090507
O O4 0.462418 0.223384 0.194619
O O5 0.618620 0.940632 0.285444
O O6 0.745122 0.782468 0.216430
O O7 0.616756 0.903414 0.064098
O O8 0.731342 0.136629 0.128500
O O9 0.146718 0.835971 0.452084
O O10 0.009201 0.606878 0.444215
O O11 0.037880 0.917349 0.293741
O O12 0.118228 0.028755 0.777653
O O13 0.213829 0.180925 0.932851
O O14 0.027968 0.788720 0.909084
#
# Coordination Sequence:
#
# PCOD9346176 Si02
#       7
#     4   4   4   4   4   4   4
#     4  11  25  47  69  99 144 188 235 294 348 434
#     4  11  22  45  70 102 141 183 235 296 356 405
#     4  10  25  45  68 104 144 188 247 286 345 447
#     4  11  25  44  69 107 139 174 247 290 350 431
#     4  11  25  43  70 101 142 189 237 290 353 428
#     4  10  23  46  68 103 142 184 230 296 359 410
#     4  12  23  44  72  98 142 190 233 292 353 421
#
# _framework density 23.065801
#
# number of rings (size 3 to 8) (size 9 to 14) (size 15 to 20)
#    0.000    1.143    1.429    4.286    4.000    2.286 
#   10.286    1.429    0.000    0.000    0.000    0.000 
#    0.000    0.000    0.000    0.000    0.000    0.000 
#
# Total GULP energy -156175.181722 kJ/mol
# GULP energy per Si atom -5577.685061 kJ/mol
# Density = 2.301330 g / cm^3
# Si number density = 23.065801 Si / 1000 Ang^3
#
#
#
# Elastic Constant Matrix: (Units=GPa)
#
#
# Indices 1 2 3 4 5 6 
#
# 1 111.7837 31.4335 44.1864 0.0000 0.0000 0.0000
# 2 31.4335 46.9529 25.6714 0.0000 0.0000 0.0000
# 3 44.1864 25.6714 92.4593 0.0000 0.0000 0.0000
# 4 0.0000 0.0000 0.0000 38.1524 0.0000 0.0000
# 5 0.0000 0.0000 0.0000 0.0000 62.4802 0.0000
# 6 0.0000 0.0000 0.0000 0.0000 0.0000 19.4215
#
#
#
# Elastic Compliance Matrix: (Units=1/GPa)
#
#
# Indices 1 2 3 4 5 6 
#
# 1 0.012278 -0.005909 -0.004227 0.000000 0.000000 0.000000
# 2 -0.005909 0.027953 -0.004937 0.000000 0.000000 0.000000
# 3 -0.004227 -0.004937 0.014207 0.000000 0.000000 0.000000
# 4 0.000000 0.000000 0.000000 0.026211 0.000000 0.000000
# 5 0.000000 0.000000 0.000000 0.000000 0.016005 0.000000
# 6 0.000000 0.000000 0.000000 0.000000 0.000000 0.051489
#
#
# Mechanical properties :
#
#
# Convention : Reuss Voigt Hill
#
# Bulk Modulus (GPa) = 41.16696 50.41986 45.79341
# Shear Modulus (GPa) = 26.82587 34.00447 30.41517
#
# Velocity S-wave (km/s) = 3.41400 3.84375 3.63523
# Velocity P-wave (km/s) = 5.78160 6.45025 6.12506
#
# Compressibility (1/GPa) = 0.02429132
#
# Stress axis : x y z
#
# Youngs Moduli (GPa) = 81.44410 35.77414 70.38951
#
# Poissons Ratio (x) = 0.21138 0.29756
# Poissons Ratio (y) = 0.48123 0.34754
# Poissons Ratio (z) = 0.34429 0.17663
#
# Static dielectric constant tensor:
#      x y z
#    x 1.879150 0.000000 0.000000 
#    y 0.000000 1.860390 0.000000 
#    z 0.000000 0.000000 1.913290 
# 
# From -- ./inp_files/6962.got.cif
#   From: 2010.05.17/outbox.cif.g08.bks.cpg/sg33_4_cif.got.tgz:6962.got - 2010.06.03 17:15:25.
