data_PCOD9346953
_publ_section_title
;
Structure prediction by ZEFSAII (Michael W. Deem and Ramdas Pophale) SiO2 
 PCOD9346953
Probable space group: P N A 21
;
_chemical_formula_sum "Si O2"
_cell_formula_units_Z 28
_cell_length_a 16.777195
_cell_length_b 6.334237
_cell_length_c 11.644908
_cell_angle_alpha 90.000000
_cell_angle_beta 90.000000
_cell_angle_gamma 90.000000
_cell_volume 1237.512866
_symmetry_space_group_name_H-M "P N A 21"
_symmetry_group_IT_number 33
_symmetry_cell_setting 'orthorhombic'
loop_
_space_group_symop_operation_xyz
x,y,z
-x,-y,1/2+z
1/2-x,1/2+y,1/2+z
1/2+x,1/2-y,z
loop_
_atom_site_type_symbol
_atom_site_label
_atom_site_fract_x
_atom_site_fract_y
_atom_site_fract_z
Si Si1 0.049239 0.270155 0.035900
Si Si2 0.713951 0.750000 0.397147
Si Si3 0.825117 0.396253 0.506816
Si Si4 0.549239 0.270155 0.758394
Si Si5 0.825117 0.103747 0.287478
Si Si6 0.124911 0.895003 0.184815
Si Si7 0.375089 0.104997 0.109478
O O1 0.095654 0.487995 0.048676
O O2 0.960410 0.286004 0.083525
O O3 0.099502 0.095722 0.107061
O O4 0.047336 0.250000 0.897147
O O5 0.766042 0.582514 0.469630
O O6 0.663194 0.600993 0.311450
O O7 0.663194 0.899007 0.482844
O O8 0.766042 0.917486 0.324664
O O9 0.839876 0.250000 0.397147
O O10 0.810010 0.234932 0.610129
O O11 0.595654 0.487995 0.745617
O O12 0.460410 0.286004 0.710769
O O13 0.599502 0.095722 0.687232
O O14 0.810010 0.265068 0.184165
#
# Coordination Sequence:
#
# PCOD9346953 Si02
#       7
#     4   4   4   4   4   4   4
#     4  12  24  47  75 110 147 194 257 312 371 445
#     4  12  28  46  70 112 156 192 248 302 396 448
#     4  12  25  47  73 106 153 196 242 313 375 449
#     4  12  24  47  75 110 147 194 257 312 371 445
#     4  12  25  47  73 106 153 196 242 313 375 449
#     4  12  26  45  79 108 145 197 254 312 372 451
#     4  12  26  45  79 108 145 197 254 312 372 451
#
# _framework density 22.626027000000001
#
# number of rings (size 3 to 8) (size 9 to 14) (size 15 to 20)
#    0.000    0.000    8.571    0.857    0.000    6.857 
#    0.000    4.286    0.000    0.000    0.000    0.000 
#    0.000    0.000    0.000    0.000    0.000    0.000 
#
# Total GULP energy -156200.774169 kJ/mol
# GULP energy per Si atom -5578.599077 kJ/mol
# Density = 2.257453 g / cm^3
# Si number density = 22.626027 Si / 1000 Ang^3
#
#
#
# Elastic Constant Matrix: (Units=GPa)
#
#
# Indices 1 2 3 4 5 6 
#
# 1 97.0900 41.9990 51.0052 0.0000 0.0000 0.0000
# 2 41.9990 77.9620 59.4182 0.0000 0.0000 0.0000
# 3 51.0052 59.4182 158.1782 0.0000 0.0000 0.0000
# 4 0.0000 0.0000 0.0000 45.4314 0.0000 0.0000
# 5 0.0000 0.0000 0.0000 0.0000-1916.3635 0.0000
# 6 0.0000 0.0000 0.0000 0.0000 0.0000 -8.0613
#
#
#
# Elastic Compliance Matrix: (Units=1/GPa)
#
#
# Indices 1 2 3 4 5 6 
#
# 1 0.014031 -0.005759 -0.002361 0.000000 0.000000 0.000000
# 2 -0.005759 0.020336 -0.005782 0.000000 0.000000 0.000000
# 3 -0.002361 -0.005782 0.009255 0.000000 0.000000 0.000000
# 4 0.000000 0.000000 0.000000 0.022011 0.000000 0.000000
# 5 0.000000 0.000000 0.000000 0.000000 -0.000522 0.000000
# 6 0.000000 0.000000 0.000000 0.000000 0.000000 -0.124049
#
#
# Mechanical properties :
#
#
# Convention : Reuss Voigt Hill
#
# Bulk Modulus (GPa) = 63.21910 70.89722 67.05816
# Shear Modulus (GPa) = -193.35531 -363.74484 -278.55007
#
# Velocity S-wave (km/s) = -9.25433 -12.69303 -11.10755
# Velocity P-wave (km/s) = 9.28378 13.54307 11.61041
#
# Compressibility (1/GPa) = 0.01581801
#
# Stress axis : x y z
#
# Youngs Moduli (GPa) = 71.26835 49.17359 108.04710
#
# Poissons Ratio (x) = 0.28321 0.25510
# Poissons Ratio (y) = 0.41047 0.62472
# Poissons Ratio (z) = 0.16826 0.28432
#
# Static dielectric constant tensor:
#      x y z
#    x 1.813560 0.000000 0.000000 
#    y 0.000000 1.964810 0.000000 
#    z 0.000000 0.000000 1.940320 
# 
# From -- ./inp_files/6977.got.cif
#   From: 2010.05.17/outbox.cif.g08.bks.cpg/sg33_4_cif.got.tgz:6977.got - 2010.06.03 17:15:25.
