data_PCOD9346259
_publ_section_title
;
Structure prediction by ZEFSAII (Michael W. Deem and Ramdas Pophale) SiO2 
 PCOD9346259
Probable space group: P N A 21
;
_chemical_formula_sum "Si O2"
_cell_formula_units_Z 28
_cell_length_a 26.782159
_cell_length_b 8.862881
_cell_length_c 5.408803
_cell_angle_alpha 90.000000
_cell_angle_beta 90.000000
_cell_angle_gamma 90.000000
_cell_volume 1283.871818
_symmetry_space_group_name_H-M "P N A 21"
_symmetry_group_IT_number 33
_symmetry_cell_setting 'orthorhombic'
loop_
_space_group_symop_operation_xyz
x,y,z
-x,-y,1/2+z
1/2-x,1/2+y,1/2+z
1/2+x,1/2-y,z
loop_
_atom_site_type_symbol
_atom_site_label
_atom_site_fract_x
_atom_site_fract_y
_atom_site_fract_z
Si Si1 0.231905 0.779616 0.022100
Si Si2 0.115798 0.458925 0.825761
Si Si3 0.530006 0.155211 0.092465
Si Si4 0.382006 0.294632 0.545287
Si Si5 0.970635 0.981155 0.572750
Si Si6 0.279283 0.913993 0.523859
Si Si7 0.077819 0.598277 0.431090
O O1 0.174775 0.838619 0.003579
O O2 0.253331 0.841530 0.281360
O O3 0.229954 0.595905 0.026933
O O4 0.260871 0.839303 0.779158
O O5 0.161599 0.391658 0.971472
O O6 0.120906 0.488299 0.536486
O O7 0.063748 0.370795 0.849324
O O8 0.110759 0.634716 0.906632
O O9 0.545485 0.319423 0.181790
O O10 0.548469 0.012498 0.245750
O O11 0.470498 0.154330 0.081951
O O12 0.424111 0.416446 0.492937
O O13 0.393655 0.241555 0.824569
O O14 0.000263 0.950921 0.312814
#
# Coordination Sequence:
#
# PCOD9346259 Si02
#       7
#     4   4   4   4   4   4   4
#     4  11  26  47  77 106 141 189 242 307 367 439
#     4  10  24  42  71  95 136 181 238 283 353 419
#     4  11  23  37  66  98 133 181 233 279 333 416
#     4  10  25  44  69  96 139 189 233 284 363 420
#     4  12  27  42  63  99 142 182 226 285 345 412
#     4  11  26  47  75 106 141 183 241 303 372 430
#     4  11  21  41  67  98 134 187 235 285 339 434
#
# _framework density 21.809031999999998
#
# number of rings (size 3 to 8) (size 9 to 14) (size 15 to 20)
#    0.000    1.143    2.857    1.714   14.000    2.286 
#    0.000    0.000    0.000    0.000    0.000    0.000 
#    0.000    0.000    0.000    0.000    0.000    0.000 
#
# Total GULP energy -155921.115387 kJ/mol
# GULP energy per Si atom -5568.611264 kJ/mol
# Density = 2.175939 g / cm^3
# Si number density = 21.809032 Si / 1000 Ang^3
#
#
#
# Elastic Constant Matrix: (Units=GPa)
#
#
# Indices 1 2 3 4 5 6 
#
# 1 98.7367 12.8841 32.1671 0.0000 0.0000 0.0000
# 2 12.8841 45.5950 0.9118 0.0000 0.0000 0.0000
# 3 32.1671 0.9118 66.5755 0.0000 0.0000 0.0000
# 4 0.0000 0.0000 0.0000 37.1265 0.0000 0.0000
# 5 0.0000 0.0000 0.0000 0.0000 28.9469 0.0000
# 6 0.0000 0.0000 0.0000 0.0000 0.0000 34.2453
#
#
#
# Elastic Compliance Matrix: (Units=1/GPa)
#
#
# Indices 1 2 3 4 5 6 
#
# 1 0.012532 -0.003421 -0.006008 0.000000 0.000000 0.000000
# 2 -0.003421 0.022872 0.001340 0.000000 0.000000 0.000000
# 3 -0.006008 0.001340 0.017905 0.000000 0.000000 0.000000
# 4 0.000000 0.000000 0.000000 0.026935 0.000000 0.000000
# 5 0.000000 0.000000 0.000000 0.000000 0.034546 0.000000
# 6 0.000000 0.000000 0.000000 0.000000 0.000000 0.029201
#
#
# Mechanical properties :
#
#
# Convention : Reuss Voigt Hill
#
# Bulk Modulus (GPa) = 26.93233 33.64816 30.29024
# Shear Modulus (GPa) = 28.97770 31.06001 30.01885
#
# Velocity S-wave (km/s) = 3.64909 3.77793 3.71407
# Velocity P-wave (km/s) = 5.48912 5.87302 5.68431
#
# Compressibility (1/GPa) = 0.03713010
#
# Stress axis : x y z
#
# Youngs Moduli (GPa) = 79.79757 43.72133 55.85003
#
# Poissons Ratio (x) = 0.14957 0.33555
# Poissons Ratio (y) = 0.27299 -0.07482
# Poissons Ratio (z) = 0.47943 -0.05857
#
# Static dielectric constant tensor:
#      x y z
#    x 1.889450 0.000000 0.000000 
#    y 0.000000 1.811060 0.000000 
#    z 0.000000 0.000000 2.286790 
# 
# From -- ./inp_files/2227.got.cif
#   From: 2010.05.17/outbox.cif.g08.bks.cpg/sg33_2_cif.got.tgz:2227.got - 2010.06.03 17:15:25.
