data_PCOD9346262
_publ_section_title
;
Structure prediction by ZEFSAII (Michael W. Deem and Ramdas Pophale) SiO2 
 PCOD9346262
Probable space group: P N A 21
;
_chemical_formula_sum "Si O2"
_cell_formula_units_Z 28
_cell_length_a 17.423316
_cell_length_b 5.881806
_cell_length_c 10.789136
_cell_angle_alpha 90.000000
_cell_angle_beta 90.000000
_cell_angle_gamma 90.000000
_cell_volume 1105.676749
_symmetry_space_group_name_H-M "P N A 21"
_symmetry_group_IT_number 33
_symmetry_cell_setting 'orthorhombic'
loop_
_space_group_symop_operation_xyz
x,y,z
-x,-y,1/2+z
1/2-x,1/2+y,1/2+z
1/2+x,1/2-y,z
loop_
_atom_site_type_symbol
_atom_site_label
_atom_site_fract_x
_atom_site_fract_y
_atom_site_fract_z
Si Si1 0.211115 0.732606 0.345850
Si Si2 0.865441 0.536018 0.347103
Si Si3 0.362366 0.305996 0.124277
Si Si4 0.806865 0.529773 0.593015
Si Si5 0.532764 0.305587 0.700704
Si Si6 0.579921 0.027375 0.458885
Si Si7 0.106955 0.118602 0.256172
O O1 0.300791 0.770937 0.363582
O O2 0.199308 0.640886 0.206659
O O3 0.171027 0.533668 0.428326
O O4 0.168951 0.978827 0.336813
O O5 0.846256 0.390977 0.225045
O O6 0.852923 0.418064 0.478733
O O7 0.948160 0.643063 0.317863
O O8 0.281279 0.391554 0.070447
O O9 0.402140 0.504272 0.199701
O O10 0.426750 0.224631 0.023397
O O11 0.853815 0.746400 0.644169
O O12 0.547852 0.173928 0.573044
O O13 0.452812 0.428511 0.713645
O O14 0.565375 0.189128 0.340632
#
# Coordination Sequence:
#
# PCOD9346262 Si02
#       7
#     4   4   4   4   4   4   4
#     4  11  22  44  70  98 133 175 229 276 341 401
#     4  11  24  41  70 102 129 177 227 278 334 403
#     4  11  22  44  70  98 133 175 229 276 341 401
#     4  11  24  41  70 102 129 177 227 278 334 403
#     4  11  26  46  66 101 142 177 222 281 345 403
#     4  10  24  42  72  94 134 184 220 276 346 394
#     4  11  26  46  66 101 142 177 222 281 345 403
#
# _framework density 25.323858000000001
#
# number of rings (size 3 to 8) (size 9 to 14) (size 15 to 20)
#    0.000    1.143    4.286    0.857    2.000    5.714 
#    5.143    0.000    0.000    0.000    0.000    0.000 
#    0.000    0.000    0.000    0.000    0.000    0.000 
#
# Total GULP energy -156111.265014 kJ/mol
# GULP energy per Si atom -5575.402322 kJ/mol
# Density = 2.526622 g / cm^3
# Si number density = 25.323858 Si / 1000 Ang^3
#
#
#
# Elastic Constant Matrix: (Units=GPa)
#
#
# Indices 1 2 3 4 5 6 
#
# 1 55.8798 14.8272 -9.7607 0.0000 0.0000 0.0000
# 2 14.8272 50.7373 -22.0704 0.0000 0.0000 0.0000
# 3 -9.7607 -22.0704 54.6787 0.0000 0.0000 0.0000
# 4 0.0000 0.0000 0.0000 14.3685 0.0000 0.0000
# 5 0.0000 0.0000 0.0000 0.0000 5.9068 0.0000
# 6 0.0000 0.0000 0.0000 0.0000 0.0000 -62.8329
#
#
#
# Elastic Compliance Matrix: (Units=1/GPa)
#
#
# Indices 1 2 3 4 5 6 
#
# 1 0.019492 -0.005073 0.001432 0.000000 0.000000 0.000000
# 2 -0.005073 0.025227 0.009277 0.000000 0.000000 0.000000
# 3 0.001432 0.009277 0.022289 0.000000 0.000000 0.000000
# 4 0.000000 0.000000 0.000000 0.069597 0.000000 0.000000
# 5 0.000000 0.000000 0.000000 0.000000 0.169298 0.000000
# 6 0.000000 0.000000 0.000000 0.000000 0.000000 -0.015915
#
#
# Mechanical properties :
#
#
# Convention : Reuss Voigt Hill
#
# Bulk Modulus (GPa) = 12.77486 14.14312 13.45899
# Shear Modulus (GPa) = 16.40369 3.37513 9.88941
#
# Velocity S-wave (km/s) = 2.54787 1.15572 1.97830
# Velocity P-wave (km/s) = 3.70284 2.71623 3.24723
#
# Compressibility (1/GPa) = 0.07827877
#
# Stress axis : x y z
#
# Youngs Moduli (GPa) = 51.30364 39.63935 44.86558
#
# Poissons Ratio (x) = 0.20111 -0.06423
# Poissons Ratio (y) = 0.26028 -0.41622
# Poissons Ratio (z) = -0.07345 -0.36774
#
# Static dielectric constant tensor:
#      x y z
#    x 2.062220 0.000000 0.000000 
#    y 0.000000 2.010650 0.000000 
#    z 0.000000 0.000000 2.244380 
# 
# From -- ./inp_files/6940.got.cif
#   From: 2010.05.17/outbox.cif.g08.bks.cpg/sg33_4_cif.got.tgz:6940.got - 2010.06.03 17:15:25.
