data_PCOD9346084
_publ_section_title
;
Structure prediction by ZEFSAII (Michael W. Deem and Ramdas Pophale) SiO2 
 PCOD9346084
Probable space group: P N A 21
;
_chemical_formula_sum "Si O2"
_cell_formula_units_Z 28
_cell_length_a 23.281993
_cell_length_b 5.392948
_cell_length_c 9.134743
_cell_angle_alpha 90.000000
_cell_angle_beta 90.000000
_cell_angle_gamma 90.000000
_cell_volume 1146.945338
_symmetry_space_group_name_H-M "P N A 21"
_symmetry_group_IT_number 33
_symmetry_cell_setting 'orthorhombic'
loop_
_space_group_symop_operation_xyz
x,y,z
-x,-y,1/2+z
1/2-x,1/2+y,1/2+z
1/2+x,1/2-y,z
loop_
_atom_site_type_symbol
_atom_site_label
_atom_site_fract_x
_atom_site_fract_y
_atom_site_fract_z
Si Si1 0.781894 0.775310 0.406950
Si Si2 0.839469 0.116503 0.870368
Si Si3 0.537352 0.466058 0.739201
Si Si4 0.559201 0.851175 0.512807
Si Si5 0.847952 0.734135 0.117525
Si Si6 0.834577 0.274865 0.534033
Si Si7 0.032414 0.729940 0.002686
O O1 0.713383 0.786466 0.426118
O O2 0.798669 0.704697 0.238662
O O3 0.803595 0.540100 0.505002
O O4 0.808963 0.044884 0.440638
O O5 0.834373 0.156048 0.696761
O O6 0.905854 0.171748 0.906351
O O7 0.829793 0.865882 0.965609
O O8 0.530110 0.720585 0.650452
O O9 0.602709 0.394579 0.701261
O O10 0.493541 0.283592 0.661298
O O11 0.528394 0.519917 0.907363
O O12 0.614065 0.998285 0.577857
O O13 0.512911 0.032124 0.441911
O O14 0.901188 0.336811 0.498123
#
# Coordination Sequence:
#
# PCOD9346084 Si02
#       7
#     4   4   4   4   4   4   4
#     4  12  28  50  77 108 153 196 253 315 379 449
#     4  11  28  46  76 108 149 197 258 311 383 450
#     4  10  23  43  65 103 142 192 242 301 373 445
#     4  10  25  42  73 100 147 195 244 307 374 450
#     4  10  23  48  70 101 145 200 247 304 384 446
#     4  12  30  49  77 115 149 197 257 319 376 457
#     4  11  25  42  72 103 149 189 249 305 377 445
#
# _framework density 24.412671
#
# number of rings (size 3 to 8) (size 9 to 14) (size 15 to 20)
#    0.000    1.143    1.429    1.714   18.000    1.143 
#    0.000    0.000    0.000    0.000    0.000    0.000 
#    0.000    0.000    0.000    0.000    0.000    0.000 
#
# Total GULP energy -156344.876203 kJ/mol
# GULP energy per Si atom -5583.745579 kJ/mol
# Density = 2.435711 g / cm^3
# Si number density = 24.412671 Si / 1000 Ang^3
#
#
#
# Elastic Constant Matrix: (Units=GPa)
#
#
# Indices 1 2 3 4 5 6 
#
# 1 142.0926 20.1976 8.9494 0.0000 0.0000 0.0000
# 2 20.1976 71.5595 7.9578 0.0000 0.0000 0.0000
# 3 8.9494 7.9578 97.9348 0.0000 0.0000 0.0000
# 4 0.0000 0.0000 0.0000 21.5656 0.0000 0.0000
# 5 0.0000 0.0000 0.0000 0.0000 24.8216 0.0000
# 6 0.0000 0.0000 0.0000 0.0000 0.0000 31.6980
#
#
#
# Elastic Compliance Matrix: (Units=1/GPa)
#
#
# Indices 1 2 3 4 5 6 
#
# 1 0.007357 -0.002020 -0.000508 0.000000 0.000000 0.000000
# 2 -0.002020 0.014656 -0.001006 0.000000 0.000000 0.000000
# 3 -0.000508 -0.001006 0.010339 0.000000 0.000000 0.000000
# 4 0.000000 0.000000 0.000000 0.046370 0.000000 0.000000
# 5 0.000000 0.000000 0.000000 0.000000 0.040287 0.000000
# 6 0.000000 0.000000 0.000000 0.000000 0.000000 0.031548
#
#
# Mechanical properties :
#
#
# Convention : Reuss Voigt Hill
#
# Bulk Modulus (GPa) = 39.55155 42.86628 41.20892
# Shear Modulus (GPa) = 30.11062 33.91584 32.01323
#
# Velocity S-wave (km/s) = 3.51579 3.73134 3.62517
# Velocity P-wave (km/s) = 5.71992 6.01340 5.86849
#
# Compressibility (1/GPa) = 0.02528346
#
# Stress axis : x y z
#
# Youngs Moduli (GPa) = 135.92882 68.22947 96.72040
#
# Poissons Ratio (x) = 0.13782 0.04915
# Poissons Ratio (y) = 0.27457 0.09733
# Poissons Ratio (z) = 0.06907 0.06866
#
# Static dielectric constant tensor:
#      x y z
#    x 1.913480 0.000000 0.000000 
#    y 0.000000 2.006940 0.000000 
#    z 0.000000 0.000000 1.961900 
# 
# From -- ./inp_files/5164.got.cif
#   From: 2010.05.17/outbox.cif.g08.bks.cpg/sg33_3_cif.got.tgz:5164.got - 2010.06.03 17:15:25.
