data_PCOD9346849
_publ_section_title
;
Structure prediction by ZEFSAII (Michael W. Deem and Ramdas Pophale) SiO2 
 PCOD9346849
Probable space group: P N A 21
;
_chemical_formula_sum "Si O2"
_cell_formula_units_Z 20
_cell_length_a 10.232247
_cell_length_b 14.122997
_cell_length_c 5.115661
_cell_angle_alpha 90.000000
_cell_angle_beta 90.000000
_cell_angle_gamma 90.000000
_cell_volume 739.264139
_symmetry_space_group_name_H-M "P N A 21"
_symmetry_group_IT_number 33
_symmetry_cell_setting 'orthorhombic'
loop_
_space_group_symop_operation_xyz
x,y,z
-x,-y,1/2+z
1/2-x,1/2+y,1/2+z
1/2+x,1/2-y,z
loop_
_atom_site_type_symbol
_atom_site_label
_atom_site_fract_x
_atom_site_fract_y
_atom_site_fract_z
Si Si1 0.246193 0.740398 0.488240
Si Si2 0.431163 0.257040 0.493529
Si Si3 0.295541 0.029339 0.042680
Si Si4 0.576170 0.106789 0.203055
Si Si5 0.548330 0.549338 0.236934
O O1 0.141482 0.771175 0.714254
O O2 0.274411 0.630794 0.548223
O O3 0.365064 0.812769 0.515783
O O4 0.178657 0.735062 0.207643
O O5 0.530227 0.170678 0.450042
O O6 0.495080 0.350847 0.613582
O O7 0.317376 0.971922 0.775610
O O8 0.443738 0.054115 0.121072
O O9 0.204890 0.960406 0.210572
O O10 0.509001 0.525365 0.528833
#
# Coordination Sequence:
#
# PCOD9346849 Si02
#       5
#     4   4   4   4   4
#     4  11  25  46  75 110 160 202 259 331 408 478
#     4  11  25  47  72 111 156 204 258 329 404 481
#     4  11  26  46  79 118 154 208 268 326 407 481
#     4  11  25  47  81 120 160 210 272 348 400 503
#     4  12  27  48  75 107 156 204 259 320 399 483
#
# _framework density 27.053933000000001
#
# number of rings (size 3 to 8) (size 9 to 14) (size 15 to 20)
#    0.000    0.800    2.000    3.600    2.800    9.600 
#    0.000    0.000    0.000    0.000    0.000    0.000 
#    0.000    0.000    0.000    0.000    0.000    0.000 
#
# Total GULP energy -112088.748066 kJ/mol
# GULP energy per Si atom -5604.437403 kJ/mol
# Density = 2.699236 g / cm^3
# Si number density = 27.053933 Si / 1000 Ang^3
#
#
#
# Elastic Constant Matrix: (Units=GPa)
#
#
# Indices 1 2 3 4 5 6 
#
# 1 73.5916 4.2815 54.9571 0.0000 0.0000 0.0000
# 2 4.2815 132.6199 20.4653 0.0000 0.0000 0.0000
# 3 54.9571 20.4653 100.1196 0.0000 0.0000 0.0000
# 4 0.0000 0.0000 0.0000 39.2175 0.0000 0.0000
# 5 0.0000 0.0000 0.0000 0.0000 53.7847 0.0000
# 6 0.0000 0.0000 0.0000 0.0000 0.0000 44.4387
#
#
#
# Elastic Compliance Matrix: (Units=1/GPa)
#
#
# Indices 1 2 3 4 5 6 
#
# 1 0.023230 0.001257 -0.013008 0.000000 0.000000 0.000000
# 2 0.001257 0.007854 -0.002296 0.000000 0.000000 0.000000
# 3 -0.013008 -0.002296 0.017598 0.000000 0.000000 0.000000
# 4 0.000000 0.000000 0.000000 0.025499 0.000000 0.000000
# 5 0.000000 0.000000 0.000000 0.000000 0.018593 0.000000
# 6 0.000000 0.000000 0.000000 0.000000 0.000000 0.022503
#
#
# Mechanical properties :
#
#
# Convention : Reuss Voigt Hill
#
# Bulk Modulus (GPa) = 48.57057 51.74876 50.15967
# Shear Modulus (GPa) = 33.28206 42.59668 37.93937
#
# Velocity S-wave (km/s) = 3.51124 3.97231 3.74887
# Velocity P-wave (km/s) = 5.86776 6.34102 6.10898
#
# Compressibility (1/GPa) = 0.02058860
#
# Stress axis : x y z
#
# Youngs Moduli (GPa) = 43.04851 127.32363 56.82581
#
# Poissons Ratio (x) = -0.16010 0.73920
# Poissons Ratio (y) = -0.05413 0.13045
# Poissons Ratio (z) = 0.55998 0.29229
#
# Static dielectric constant tensor:
#      x y z
#    x 2.122440 0.000000 0.000000 
#    y 0.000000 2.117520 0.000000 
#    z 0.000000 0.000000 2.082790 
# 
# From -- ./inp_files/731.got.cif
#   From: 2010.05.17/outbox.cif.g08.bks.cpg/sg33_1_cif.got.tgz:731.got - 2010.06.03 17:15:25.
