data_PCOD9346034
_publ_section_title
;
Structure prediction by ZEFSAII (Michael W. Deem and Ramdas Pophale) SiO2 
 PCOD9346034
Probable space group: P N A 21
;
_chemical_formula_sum "Si O2"
_cell_formula_units_Z 32
_cell_length_a 9.147590
_cell_length_b 27.439086
_cell_length_c 5.991540
_cell_angle_alpha 90.000000
_cell_angle_beta 90.000000
_cell_angle_gamma 90.000000
_cell_volume 1503.885579
_symmetry_space_group_name_H-M "P N A 21"
_symmetry_group_IT_number 33
_symmetry_cell_setting 'orthorhombic'
loop_
_space_group_symop_operation_xyz
x,y,z
-x,-y,1/2+z
1/2-x,1/2+y,1/2+z
1/2+x,1/2-y,z
loop_
_atom_site_type_symbol
_atom_site_label
_atom_site_fract_x
_atom_site_fract_y
_atom_site_fract_z
Si Si1 0.125475 0.288732 0.139940
Si Si2 0.455243 0.428255 0.032378
Si Si3 0.488975 0.385269 0.613038
Si Si4 0.127281 0.745317 0.334932
Si Si5 0.848424 0.969686 0.882935
Si Si6 0.377413 0.708929 0.026923
Si Si7 0.016371 0.526141 0.940263
Si Si8 0.787670 0.612288 0.871387
O O1 0.128466 0.244209 0.315745
O O2 0.141944 0.339202 0.271326
O O3 0.262861 0.279442 0.975832
O O4 0.975152 0.285441 0.001588
O O5 0.511203 0.385124 0.876208
O O6 0.371544 0.472945 0.913775
O O7 0.596129 0.452978 0.142748
O O8 0.335637 0.407564 0.201491
O O9 0.544696 0.438623 0.541726
O O10 0.583307 0.346699 0.475775
O O11 0.317085 0.376319 0.579651
O O12 0.230897 0.714246 0.171588
O O13 0.013042 0.774264 0.181395
O O14 0.683473 0.956687 0.936072
O O15 0.001697 0.498897 0.691299
O O16 0.902061 0.570311 0.926469
#
# Coordination Sequence:
#
# PCOD9346034 Si02
#       8
#     4   4   4   4   4   4   4   4
#     4  11  23  44  69  96 141 179 236 288 357 430
#     4  11  22  43  67  95 132 172 235 285 352 424
#     4  11  24  41  70  96 133 176 233 285 355 427
#     4  10  23  41  68  97 134 178 226 293 354 418
#     4  11  24  40  68  96 129 181 227 289 344 424
#     4  11  23  43  67 102 135 177 231 290 356 429
#     4  12  28  47  69 103 145 184 235 297 360 430
#     4  11  25  43  68  99 133 189 227 289 362 428
#
# _framework density 21.278213999999998
#
# number of rings (size 3 to 8) (size 9 to 14) (size 15 to 20)
#    0.000    1.000    2.500    3.750    3.500    7.000 
#    0.000    0.000    0.000    0.000    0.000    0.000 
#    0.000    0.000    0.000    0.000    0.000    0.000 
#
# Total GULP energy -178611.031234 kJ/mol
# GULP energy per Si atom -5581.594726 kJ/mol
# Density = 2.122978 g / cm^3
# Si number density = 21.278214 Si / 1000 Ang^3
#
#
#
# Elastic Constant Matrix: (Units=GPa)
#
#
# Indices 1 2 3 4 5 6 
#
# 1 105.1940 4.9609 14.0092 0.0000 0.0000 0.0000
# 2 4.9609 56.5896 4.8343 0.0000 0.0000 0.0000
# 3 14.0092 4.8343 69.8185 0.0000 0.0000 0.0000
# 4 0.0000 0.0000 0.0000 28.1043 0.0000 0.0000
# 5 0.0000 0.0000 0.0000 0.0000 26.9421 0.0000
# 6 0.0000 0.0000 0.0000 0.0000 0.0000 27.2950
#
#
#
# Elastic Compliance Matrix: (Units=1/GPa)
#
#
# Indices 1 2 3 4 5 6 
#
# 1 0.009794 -0.000695 -0.001917 0.000000 0.000000 0.000000
# 2 -0.000695 0.017826 -0.001095 0.000000 0.000000 0.000000
# 3 -0.001917 -0.001095 0.014783 0.000000 0.000000 0.000000
# 4 0.000000 0.000000 0.000000 0.035582 0.000000 0.000000
# 5 0.000000 0.000000 0.000000 0.000000 0.037117 0.000000
# 6 0.000000 0.000000 0.000000 0.000000 0.000000 0.036637
#
#
# Mechanical properties :
#
#
# Convention : Reuss Voigt Hill
#
# Bulk Modulus (GPa) = 28.57995 31.02344 29.80170
# Shear Modulus (GPa) = 29.27142 30.32147 29.79645
#
# Velocity S-wave (km/s) = 3.71300 3.77901 3.74615
# Velocity P-wave (km/s) = 5.64292 5.80110 5.72256
#
# Compressibility (1/GPa) = 0.03498956
#
# Stress axis : x y z
#
# Youngs Moduli (GPa) = 102.09987 56.09932 67.64368
#
# Poissons Ratio (x) = 0.03898 0.12968
# Poissons Ratio (y) = 0.07094 0.07406
# Poissons Ratio (z) = 0.19574 0.06142
#
# Static dielectric constant tensor:
#      x y z
#    x 1.792780 0.000000 0.000000 
#    y 0.000000 1.772940 0.000000 
#    z 0.000000 0.000000 1.884380 
# 
# From -- ./inp_files/563.got.cif
#   From: 2010.05.17/outbox.cif.g08.bks.cpg/sg33_1_cif.got.tgz:563.got - 2010.06.03 17:15:25.
