data_PCOD9346719
_publ_section_title
;
Structure prediction by ZEFSAII (Michael W. Deem and Ramdas Pophale) SiO2 
 PCOD9346719
Probable space group: P N A 21
;
_chemical_formula_sum "Si O2"
_cell_formula_units_Z 24
_cell_length_a 9.274698
_cell_length_b 20.146690
_cell_length_c 5.015093
_cell_angle_alpha 90.000000
_cell_angle_beta 90.000000
_cell_angle_gamma 90.000000
_cell_volume 937.092522
_symmetry_space_group_name_H-M "P N A 21"
_symmetry_group_IT_number 33
_symmetry_cell_setting 'orthorhombic'
loop_
_space_group_symop_operation_xyz
x,y,z
-x,-y,1/2+z
1/2-x,1/2+y,1/2+z
1/2+x,1/2-y,z
loop_
_atom_site_type_symbol
_atom_site_label
_atom_site_fract_x
_atom_site_fract_y
_atom_site_fract_z
Si Si1 0.585542 0.750000 0.838460
Si Si2 0.744802 0.135533 0.642934
Si Si3 0.496126 0.457283 0.625587
Si Si4 0.673842 0.250000 0.002480
Si Si5 0.996126 0.457284 0.625587
Si Si6 0.255198 0.635533 0.142933
O O1 0.417028 0.750000 0.775959
O O2 0.653789 0.750000 0.544480
O O3 0.656479 0.685481 0.969939
O O4 0.656479 0.814519 0.969939
O O5 0.654251 0.182148 0.844256
O O6 0.621873 0.090466 0.511720
O O7 0.863825 0.084484 0.749595
O O8 0.444542 0.499774 0.372265
O O9 0.621873 0.409534 0.511720
O O10 0.654251 0.317852 0.844256
O O11 0.944542 0.499774 0.372266
O O12 0.863825 0.415516 0.749595
#
# Coordination Sequence:
#
# PCOD9346719 Si02
#       6
#     4   4   4   4   4   4
#     4  11  24  43  76 105 145 190 240 321 379 444
#     4  11  26  46  70 110 144 191 256 308 380 451
#     4  12  28  47  74 105 148 202 250 308 372 450
#     4  11  24  43  76 105 145 190 240 321 379 444
#     4  12  28  47  74 105 148 202 250 308 372 450
#     4  11  26  46  70 110 144 191 256 308 380 451
#
# _framework density 25.611131
#
# number of rings (size 3 to 8) (size 9 to 14) (size 15 to 20)
#    0.000    0.667    0.000    6.000   14.000    5.333 
#    0.000    0.000    0.000    0.000    0.000    0.000 
#    0.000    0.000    0.000    0.000    0.000    0.000 
#
# Total GULP energy -134147.731476 kJ/mol
# GULP energy per Si atom -5589.488812 kJ/mol
# Density = 2.555284 g / cm^3
# Si number density = 25.611131 Si / 1000 Ang^3
#
#
#
# Elastic Constant Matrix: (Units=GPa)
#
#
# Indices 1 2 3 4 5 6 
#
# 1 136.1649 49.9700 13.5275 0.0000 0.0000 0.0000
# 2 49.9700 122.6337 40.9708 0.0000 0.0000 0.0000
# 3 13.5275 40.9708 85.5961 0.0000 0.0000 0.0000
# 4 0.0000 0.0000 0.0000 8.6509 0.0000 0.0000
# 5 0.0000 0.0000 0.0000 0.0000 50.8343 0.0000
# 6 0.0000 0.0000 0.0000 0.0000 0.0000 19.7280
#
#
#
# Elastic Compliance Matrix: (Units=1/GPa)
#
#
# Indices 1 2 3 4 5 6 
#
# 1 0.008646 -0.003650 0.000381 0.000000 0.000000 0.000000
# 2 -0.003650 0.011248 -0.004807 0.000000 0.000000 0.000000
# 3 0.000381 -0.004807 0.013923 0.000000 0.000000 0.000000
# 4 0.000000 0.000000 0.000000 0.115595 0.000000 0.000000
# 5 0.000000 0.000000 0.000000 0.000000 0.019672 0.000000
# 6 0.000000 0.000000 0.000000 0.000000 0.000000 0.050689
#
#
# Mechanical properties :
#
#
# Convention : Reuss Voigt Hill
#
# Bulk Modulus (GPa) = 56.61107 61.48125 59.04616
# Shear Modulus (GPa) = 20.67713 31.83773 26.25743
#
# Velocity S-wave (km/s) = 2.84447 3.52962 3.20540
# Velocity P-wave (km/s) = 5.73935 6.37720 6.06666
#
# Compressibility (1/GPa) = 0.01766439
#
# Stress axis : x y z
#
# Youngs Moduli (GPa) = 115.66392 88.90766 71.82151
#
# Poissons Ratio (x) = 0.32452 -0.02735
# Poissons Ratio (y) = 0.42219 0.34523
# Poissons Ratio (z) = -0.04404 0.42737
#
# Static dielectric constant tensor:
#      x y z
#    x 1.967470 0.000000 0.000000 
#    y 0.000000 2.009970 0.000000 
#    z 0.000000 0.000000 2.047200 
# 
# From -- ./inp_files/400.got.cif
#   From: 2010.05.17/outbox.cif.g08.bks.cpg/sg33_1_cif.got.tgz:400.got - 2010.06.03 17:15:25.
