data_PCOD9346508
_publ_section_title
;
Structure prediction by ZEFSAII (Michael W. Deem and Ramdas Pophale) SiO2 
 PCOD9346508
Probable space group: P N A 21
;
_chemical_formula_sum "Si O2"
_cell_formula_units_Z 20
_cell_length_a 7.788389
_cell_length_b 8.490447
_cell_length_c 11.911839
_cell_angle_alpha 90.000000
_cell_angle_beta 90.000000
_cell_angle_gamma 90.000000
_cell_volume 787.693034
_symmetry_space_group_name_H-M "P N A 21"
_symmetry_group_IT_number 33
_symmetry_cell_setting 'orthorhombic'
loop_
_space_group_symop_operation_xyz
x,y,z
-x,-y,1/2+z
1/2-x,1/2+y,1/2+z
1/2+x,1/2-y,z
loop_
_atom_site_type_symbol
_atom_site_label
_atom_site_fract_x
_atom_site_fract_y
_atom_site_fract_z
Si Si1 0.672801 0.418103 0.247940
Si Si2 0.462184 0.666225 0.316769
Si Si3 0.355745 0.098545 0.952841
Si Si4 0.513736 0.096089 0.630275
Si Si5 0.198704 0.860487 0.647488
O O1 0.600844 0.531213 0.344671
O O2 0.840294 0.507864 0.203227
O O3 0.731860 0.238811 0.255121
O O4 0.497725 0.409144 0.171154
O O5 0.485764 0.816142 0.395469
O O6 0.282427 0.595526 0.353792
O O7 0.497016 0.736117 0.191897
O O8 0.302208 0.225314 0.050214
O O9 0.405633 0.932282 0.007183
O O10 0.334516 0.999933 0.626710
#
# Coordination Sequence:
#
# PCOD9346508 Si02
#       5
#     4   4   4   4   4
#     4  11  22  39  68 104 132 186 236 287 362 432
#     4  12  23  41  73 102 137 189 248 289 365 443
#     4  11  21  42  70  99 136 190 235 293 370 430
#     4  11  23  42  70 100 141 191 233 300 363 429
#     4  11  21  42  71  93 142 184 226 299 362 420
#
# _framework density 25.390601
#
# number of rings (size 3 to 8) (size 9 to 14) (size 15 to 20)
#    0.000    0.800    8.000    2.400    0.000    0.000 
#    0.000    0.000   30.800    0.000    0.000    0.000 
#    0.000    0.000    0.000    0.000    0.000    0.000 
#
# Total GULP energy -111480.657875 kJ/mol
# GULP energy per Si atom -5574.032894 kJ/mol
# Density = 2.533281 g / cm^3
# Si number density = 25.390601 Si / 1000 Ang^3
#
#
#
# Elastic Constant Matrix: (Units=GPa)
#
#
# Indices 1 2 3 4 5 6 
#
# 1 141.0512 27.9514 9.1103 0.0000 0.0000 0.0000
# 2 27.9514 117.8761 40.0032 0.0000 0.0000 0.0000
# 3 9.1103 40.0032 72.9125 0.0000 0.0000 0.0000
# 4 0.0000 0.0000 0.0000 41.9045 0.0000 0.0000
# 5 0.0000 0.0000 0.0000 0.0000 40.2258 0.0000
# 6 0.0000 0.0000 0.0000 0.0000 0.0000 21.4254
#
#
#
# Elastic Compliance Matrix: (Units=1/GPa)
#
#
# Indices 1 2 3 4 5 6 
#
# 1 0.007439 -0.001780 0.000047 0.000000 0.000000 0.000000
# 2 -0.001780 0.010850 -0.005731 0.000000 0.000000 0.000000
# 3 0.000047 -0.005731 0.016853 0.000000 0.000000 0.000000
# 4 0.000000 0.000000 0.000000 0.023864 0.000000 0.000000
# 5 0.000000 0.000000 0.000000 0.000000 0.024860 0.000000
# 6 0.000000 0.000000 0.000000 0.000000 0.000000 0.046674
#
#
# Mechanical properties :
#
#
# Convention : Reuss Voigt Hill
#
# Bulk Modulus (GPa) = 49.46620 53.99664 51.73142
# Shear Modulus (GPa) = 32.85028 37.69612 35.27320
#
# Velocity S-wave (km/s) = 3.60084 3.85729 3.73127
# Velocity P-wave (km/s) = 6.06733 6.41489 6.24353
#
# Compressibility (1/GPa) = 0.02021583
#
# Stress axis : x y z
#
# Youngs Moduli (GPa) = 134.42083 92.16290 59.33569
#
# Poissons Ratio (x) = 0.16405 -0.00279
# Poissons Ratio (y) = 0.23927 0.34003
# Poissons Ratio (z) = -0.00633 0.52815
#
# Static dielectric constant tensor:
#      x y z
#    x 2.009130 0.000000 0.000000 
#    y 0.000000 2.060480 0.000000 
#    z 0.000000 0.000000 2.190040 
# 
# From -- ./inp_files/5696.got.cif
#   From: 2010.05.17/outbox.cif.g08.bks.cpg/sg33_3_cif.got.tgz:5696.got - 2010.06.03 17:15:25.
