data_PCOD9346780
_publ_section_title
;
Structure prediction by ZEFSAII (Michael W. Deem and Ramdas Pophale) SiO2 
 PCOD9346780
Probable space group: P N A 21
;
_chemical_formula_sum "Si O2"
_cell_formula_units_Z 28
_cell_length_a 10.884261
_cell_length_b 12.214222
_cell_length_c 9.287084
_cell_angle_alpha 90.000000
_cell_angle_beta 90.000000
_cell_angle_gamma 90.000000
_cell_volume 1234.650767
_symmetry_space_group_name_H-M "P N A 21"
_symmetry_group_IT_number 33
_symmetry_cell_setting 'orthorhombic'
loop_
_space_group_symop_operation_xyz
x,y,z
-x,-y,1/2+z
1/2-x,1/2+y,1/2+z
1/2+x,1/2-y,z
loop_
_atom_site_type_symbol
_atom_site_label
_atom_site_fract_x
_atom_site_fract_y
_atom_site_fract_z
Si Si1 0.126640 0.966107 0.988010
Si Si2 0.057385 0.546424 0.117700
Si Si3 0.527868 0.416319 0.221189
Si Si4 0.438925 0.193255 0.132441
Si Si5 0.678870 0.202848 0.609246
Si Si6 0.715090 0.841234 0.364472
Si Si7 0.758325 0.376558 0.380427
O O1 0.079078 0.926071 0.835719
O O2 0.202078 0.076489 0.957270
O O3 0.209954 0.877136 0.065697
O O4 0.014055 0.000415 0.090007
O O5 0.134223 0.583252 0.257350
O O6 0.004538 0.424561 0.126977
O O7 0.945533 0.633015 0.105444
O O8 0.146577 0.558386 0.980549
O O9 0.530140 0.291704 0.168215
O O10 0.656630 0.445607 0.296509
O O11 0.338548 0.184605 0.259533
O O12 0.373241 0.216219 0.980056
O O13 0.707835 0.260052 0.762139
O O14 0.684057 0.294959 0.485404
#
# Coordination Sequence:
#
# PCOD9346780 Si02
#       7
#     4   4   4   4   4   4   4
#     4  12  28  52  69 110 145 192 240 301 369 439
#     4  11  25  45  78 105 146 190 240 300 366 423
#     4  12  29  46  76 102 151 189 241 298 371 434
#     4  12  24  47  72 108 141 189 247 302 348 436
#     4  11  25  48  74 103 152 186 240 297 365 438
#     4  11  27  45  73 112 141 190 247 296 365 430
#     4  11  24  47  72 108 142 194 235 294 364 428
#
# _framework density 22.678477000000001
#
# number of rings (size 3 to 8) (size 9 to 14) (size 15 to 20)
#    0.000    0.571    4.286    1.714   12.000    0.000 
#    0.000    0.000    0.000    0.000    0.000    0.000 
#    0.000    0.000    0.000    0.000    0.000    0.000 
#
# Total GULP energy -156822.723807 kJ/mol
# GULP energy per Si atom -5600.811565 kJ/mol
# Density = 2.262686 g / cm^3
# Si number density = 22.678477 Si / 1000 Ang^3
#
#
#
# Elastic Constant Matrix: (Units=GPa)
#
#
# Indices 1 2 3 4 5 6 
#
# 1 29.2330 20.1944 1.1236 0.0000 0.0000 0.0000
# 2 20.1944 76.3854 18.6446 0.0000 0.0000 0.0000
# 3 1.1236 18.6446 104.6073 0.0000 0.0000 0.0000
# 4 0.0000 0.0000 0.0000 23.4693 0.0000 0.0000
# 5 0.0000 0.0000 0.0000 0.0000 36.0265 0.0000
# 6 0.0000 0.0000 0.0000 0.0000 0.0000 27.3657
#
#
#
# Elastic Compliance Matrix: (Units=1/GPa)
#
#
# Indices 1 2 3 4 5 6 
#
# 1 0.042106 -0.011523 0.001601 0.000000 0.000000 0.000000
# 2 -0.011523 0.016840 -0.002878 0.000000 0.000000 0.000000
# 3 0.001601 -0.002878 0.010055 0.000000 0.000000 0.000000
# 4 0.000000 0.000000 0.000000 0.042609 0.000000 0.000000
# 5 0.000000 0.000000 0.000000 0.000000 0.027757 0.000000
# 6 0.000000 0.000000 0.000000 0.000000 0.000000 0.036542
#
#
# Mechanical properties :
#
#
# Convention : Reuss Voigt Hill
#
# Bulk Modulus (GPa) = 23.03942 32.23898 27.63920
# Shear Modulus (GPa) = 23.15068 28.72315 25.93691
#
# Velocity S-wave (km/s) = 3.19850 3.56271 3.38550
# Velocity P-wave (km/s) = 4.88075 5.58304 5.24367
#
# Compressibility (1/GPa) = 0.04340386
#
# Stress axis : x y z
#
# Youngs Moduli (GPa) = 23.74936 59.38149 99.45028
#
# Poissons Ratio (x) = 0.68424 -0.15927
# Poissons Ratio (y) = 0.27366 0.28619
# Poissons Ratio (z) = -0.03803 0.17088
#
# Static dielectric constant tensor:
#      x y z
#    x 1.821790 0.000000 0.000000 
#    y 0.000000 1.803030 0.000000 
#    z 0.000000 0.000000 1.916590 
# 
# From -- ./inp_files/3830.got.cif
#   From: 2010.05.17/outbox.cif.g08.bks.cpg/sg33_2_cif.got.tgz:3830.got - 2010.06.03 17:15:25.
