data_PCOD9346191
_publ_section_title
;
Structure prediction by ZEFSAII (Michael W. Deem and Ramdas Pophale) SiO2 
 PCOD9346191
Probable space group: P N A 21
;
_chemical_formula_sum "Si O2"
_cell_formula_units_Z 32
_cell_length_a 11.843191
_cell_length_b 21.612150
_cell_length_c 5.683163
_cell_angle_alpha 90.000000
_cell_angle_beta 90.000000
_cell_angle_gamma 90.000000
_cell_volume 1454.644331
_symmetry_space_group_name_H-M "P N A 21"
_symmetry_group_IT_number 33
_symmetry_cell_setting 'orthorhombic'
loop_
_space_group_symop_operation_xyz
x,y,z
-x,-y,1/2+z
1/2-x,1/2+y,1/2+z
1/2+x,1/2-y,z
loop_
_atom_site_type_symbol
_atom_site_label
_atom_site_fract_x
_atom_site_fract_y
_atom_site_fract_z
Si Si1 0.617362 0.153187 0.600140
Si Si2 0.007819 0.739304 0.417139
Si Si3 0.362900 0.308259 0.517567
Si Si4 0.260002 0.567018 0.802276
Si Si5 0.395535 0.177568 0.304792
Si Si6 0.060898 0.982566 0.508504
Si Si7 0.437949 0.986495 0.154491
Si Si8 0.479841 0.637264 0.667155
O O1 0.595693 0.207190 0.787844
O O2 0.745005 0.157347 0.517403
O O3 0.520146 0.168350 0.410959
O O4 0.592347 0.084968 0.690698
O O5 0.091756 0.778463 0.255287
O O6 0.080102 0.683136 0.528121
O O7 0.962044 0.792677 0.586181
O O8 0.349722 0.245786 0.362705
O O9 0.460081 0.353189 0.418156
O O10 0.183782 0.623409 0.897022
O O11 0.175768 0.527148 0.643860
O O12 0.361891 0.601773 0.671405
O O13 0.321893 0.519729 0.979814
O O14 0.063269 0.907852 0.521675
O O15 0.993817 0.998354 0.263075
O O16 0.500117 0.006918 0.399639
#
# Coordination Sequence:
#
# PCOD9346191 Si02
#       8
#     4   4   4   4   4   4   4   4
#     4  11  25  45  73 100 151 183 251 305 375 437
#     4  10  24  43  72 107 144 187 248 304 380 446
#     4  10  25  42  71 108 140 191 235 316 372 439
#     4  11  25  46  77 100 151 196 247 308 365 450
#     4  10  23  47  67 108 137 192 246 298 371 452
#     4  10  25  46  71 109 148 196 246 301 371 446
#     4  12  28  51  72 108 147 200 254 300 369 446
#     4  10  25  44  71 108 150 185 251 300 387 442
#
# _framework density 21.998505000000002
#
# number of rings (size 3 to 8) (size 9 to 14) (size 15 to 20)
#    0.000    1.500    1.250    0.750   12.250    6.000 
#    6.750    0.000    0.000    0.000    0.000    0.000 
#    0.000    0.000    0.000    0.000    0.000    0.000 
#
# Total GULP energy -178395.319825 kJ/mol
# GULP energy per Si atom -5574.853745 kJ/mol
# Density = 2.194844 g / cm^3
# Si number density = 21.998505 Si / 1000 Ang^3
#
#
#
# Elastic Constant Matrix: (Units=GPa)
#
#
# Indices 1 2 3 4 5 6 
#
# 1 110.2218 43.2808 34.3573 0.0000 0.0000 0.0000
# 2 43.2808 126.7168 22.9791 0.0000 0.0000 0.0000
# 3 34.3573 22.9791 69.8339 0.0000 0.0000 0.0000
# 4 0.0000 0.0000 0.0000 28.5753 0.0000 0.0000
# 5 0.0000 0.0000 0.0000 0.0000 -4.9134 0.0000
# 6 0.0000 0.0000 0.0000 0.0000 0.0000 47.2510
#
#
#
# Elastic Compliance Matrix: (Units=1/GPa)
#
#
# Indices 1 2 3 4 5 6 
#
# 1 0.011801 -0.003167 -0.004764 0.000000 0.000000 0.000000
# 2 -0.003167 0.009242 -0.001483 0.000000 0.000000 0.000000
# 3 -0.004764 -0.001483 0.017151 0.000000 0.000000 0.000000
# 4 0.000000 0.000000 0.000000 0.034995 0.000000 0.000000
# 5 0.000000 0.000000 0.000000 0.000000 -0.203526 0.000000
# 6 0.000000 0.000000 0.000000 0.000000 0.000000 0.021164
#
#
# Mechanical properties :
#
#
# Convention : Reuss Voigt Hill
#
# Bulk Modulus (GPa) = 51.63414 56.44520 54.03967
# Shear Modulus (GPa) = -59.60258 27.92627 -15.83815
#
# Velocity S-wave (km/s) = -5.21083 3.56682 -2.68613
# Velocity P-wave (km/s) = 3.56105 6.53278 3.87274
#
# Compressibility (1/GPa) = 0.01936703
#
# Stress axis : x y z
#
# Youngs Moduli (GPa) = 84.73799 108.19919 58.30397
#
# Poissons Ratio (x) = 0.34265 0.27775
# Poissons Ratio (y) = 0.26835 0.08647
# Poissons Ratio (z) = 0.40368 0.16048
#
# Static dielectric constant tensor:
#      x y z
#    x 1.796760 0.000000 0.000000 
#    y 0.000000 1.819300 0.000000 
#    z 0.000000 0.000000 1.928060 
# 
# From -- ./inp_files/1159.got.cif
#   From: 2010.05.17/outbox.cif.g08.bks.cpg/sg33_1_cif.got.tgz:1159.got - 2010.06.03 17:15:25.
