data_PCOD9346059
_publ_section_title
;
Structure prediction by ZEFSAII (Michael W. Deem and Ramdas Pophale) SiO2 
 PCOD9346059
Probable space group: P N A 21
;
_chemical_formula_sum "Si O2"
_cell_formula_units_Z 28
_cell_length_a 24.148038
_cell_length_b 9.255499
_cell_length_c 5.301002
_cell_angle_alpha 90.000000
_cell_angle_beta 90.000000
_cell_angle_gamma 90.000000
_cell_volume 1184.785299
_symmetry_space_group_name_H-M "P N A 21"
_symmetry_group_IT_number 33
_symmetry_cell_setting 'orthorhombic'
loop_
_space_group_symop_operation_xyz
x,y,z
-x,-y,1/2+z
1/2-x,1/2+y,1/2+z
1/2+x,1/2-y,z
loop_
_atom_site_type_symbol
_atom_site_label
_atom_site_fract_x
_atom_site_fract_y
_atom_site_fract_z
Si Si1 0.913463 0.719099 0.412820
Si Si2 0.221732 0.816159 0.277134
Si Si3 0.485455 0.409431 0.842227
Si Si4 0.267556 0.011942 0.633929
Si Si5 0.378052 0.943072 0.914678
Si Si6 0.847306 0.012905 0.420015
Si Si7 0.116401 0.761950 0.557398
O O1 0.976830 0.767457 0.376269
O O2 0.905072 0.614110 0.652731
O O3 0.882032 0.870187 0.460512
O O4 0.890145 0.661374 0.147576
O O5 0.272663 0.895047 0.409935
O O6 0.225140 0.683167 0.082749
O O7 0.181224 0.752705 0.488632
O O8 0.186260 0.944528 0.164501
O O9 0.500246 0.515484 0.076899
O O10 0.422162 0.360296 0.878663
O O11 0.313165 0.960629 0.837180
O O12 0.204377 0.011425 0.730254
O O13 0.401128 0.097134 0.015338
O O14 0.883152 0.148532 0.317611
#
# Coordination Sequence:
#
# PCOD9346059 Si02
#       7
#     4   4   4   4   4   4   4
#     4  12  27  46  73 109 144 188 253 309 370 439
#     4  10  23  42  68 102 139 192 243 296 360 436
#     4  12  25  46  79 108 142 197 246 309 368 440
#     4  10  24  41  67  99 142 190 235 293 365 434
#     4  11  28  46  70 107 150 190 235 313 374 440
#     4  11  24  43  72 100 140 190 247 295 355 448
#     4  10  25  46  69 105 145 191 245 299 372 443
#
# _framework density 23.632971999999999
#
# number of rings (size 3 to 8) (size 9 to 14) (size 15 to 20)
#    0.000    1.143    1.429    2.571   12.000    3.429 
#    0.000    0.000    0.000    0.000    0.000    0.000 
#    0.000    0.000    0.000    0.000    0.000    0.000 
#
# Total GULP energy -156269.633686 kJ/mol
# GULP energy per Si atom -5581.058346 kJ/mol
# Density = 2.357918 g / cm^3
# Si number density = 23.632972 Si / 1000 Ang^3
#
#
#
# Elastic Constant Matrix: (Units=GPa)
#
#
# Indices 1 2 3 4 5 6 
#
# 1 66.8610 14.5841 11.7418 0.0000 0.0000 0.0000
# 2 14.5841 103.7470 37.6979 0.0000 0.0000 0.0000
# 3 11.7418 37.6979 108.1040 0.0000 0.0000 0.0000
# 4 0.0000 0.0000 0.0000 17.7424 0.0000 0.0000
# 5 0.0000 0.0000 0.0000 0.0000 25.7394 0.0000
# 6 0.0000 0.0000 0.0000 0.0000 0.0000 36.5886
#
#
#
# Elastic Compliance Matrix: (Units=1/GPa)
#
#
# Indices 1 2 3 4 5 6 
#
# 1 0.015535 -0.001799 -0.001060 0.000000 0.000000 0.000000
# 2 -0.001799 0.011246 -0.003726 0.000000 0.000000 0.000000
# 3 -0.001060 -0.003726 0.010665 0.000000 0.000000 0.000000
# 4 0.000000 0.000000 0.000000 0.056362 0.000000 0.000000
# 5 0.000000 0.000000 0.000000 0.000000 0.038851 0.000000
# 6 0.000000 0.000000 0.000000 0.000000 0.000000 0.027331
#
#
# Mechanical properties :
#
#
# Convention : Reuss Voigt Hill
#
# Bulk Modulus (GPa) = 41.19364 45.19548 43.19456
# Shear Modulus (GPa) = 27.58601 30.32663 28.95632
#
# Velocity S-wave (km/s) = 3.42024 3.58611 3.50416
# Velocity P-wave (km/s) = 5.75029 6.02597 5.88974
#
# Compressibility (1/GPa) = 0.02427559
#
# Stress axis : x y z
#
# Youngs Moduli (GPa) = 64.37118 88.92340 93.76554
#
# Poissons Ratio (x) = 0.15994 0.09940
# Poissons Ratio (y) = 0.11578 0.34939
# Poissons Ratio (z) = 0.06824 0.33135
#
# Static dielectric constant tensor:
#      x y z
#    x 1.936160 0.000000 0.000000 
#    y 0.000000 1.930050 0.000000 
#    z 0.000000 0.000000 1.915560 
# 
# From -- ./inp_files/2234.got.cif
#   From: 2010.05.17/outbox.cif.g08.bks.cpg/sg33_2_cif.got.tgz:2234.got - 2010.06.03 17:15:25.
