data_PCOD9346996
_publ_section_title
;
Structure prediction by ZEFSAII (Michael W. Deem and Ramdas Pophale) SiO2 
 PCOD9346996
Probable space group: P N A 21
;
_chemical_formula_sum "Si O2"
_cell_formula_units_Z 20
_cell_length_a 5.270145
_cell_length_b 17.688883
_cell_length_c 8.078324
_cell_angle_alpha 90.000000
_cell_angle_beta 90.000000
_cell_angle_gamma 90.000000
_cell_volume 753.085423
_symmetry_space_group_name_H-M "P N A 21"
_symmetry_group_IT_number 33
_symmetry_cell_setting 'orthorhombic'
loop_
_space_group_symop_operation_xyz
x,y,z
-x,-y,1/2+z
1/2-x,1/2+y,1/2+z
1/2+x,1/2-y,z
loop_
_atom_site_type_symbol
_atom_site_label
_atom_site_fract_x
_atom_site_fract_y
_atom_site_fract_z
Si Si1 0.749691 0.801040 0.031190
Si Si2 0.750319 0.198960 0.031187
Si Si3 0.565819 0.098860 0.742386
Si Si4 0.934179 0.901138 0.742387
Si Si5 0.249996 1.000000 0.957756
O O1 0.509977 0.745112 0.038597
O O2 0.689021 0.857752 0.182235
O O3 0.771215 0.848244 0.861404
O O4 0.990044 0.254883 0.038591
O O5 0.810979 0.142249 0.182237
O O6 0.728784 0.151753 0.861406
O O7 0.479157 0.025066 0.842407
O O8 0.803384 0.928734 0.574933
O O9 0.696619 0.071265 0.574934
O O10 0.020832 0.974931 0.842411
#
# Coordination Sequence:
#
# PCOD9346996 Si02
#       5
#     4   4   4   4   4
#     4  12  27  49  78 113 153 200 252 314 380 452
#     4  12  27  49  78 113 153 200 252 314 380 452
#     4  12  26  48  76 112 152 200 254 314 378 452
#     4  12  26  48  76 112 152 200 254 314 378 452
#     4  12  26  48  76 110 150 200 252 312 376 448
#
# _framework density 26.557414000000001
#
# number of rings (size 3 to 8) (size 9 to 14) (size 15 to 20)
#    0.000    0.000    0.000    9.600    0.000    6.400 
#    0.000    0.000    0.000    0.000    0.000    0.000 
#    0.000    0.000    0.000    0.000    0.000    0.000 
#
# Total GULP energy -112385.726069 kJ/mol
# GULP energy per Si atom -5619.286303 kJ/mol
# Density = 2.649697 g / cm^3
# Si number density = 26.557414 Si / 1000 Ang^3
#
#
#
# Elastic Constant Matrix: (Units=GPa)
#
#
# Indices 1 2 3 4 5 6 
#
# 1 150.6704 43.8144 48.9831 0.0000 0.0000 0.0000
# 2 43.8144 96.0002 36.9329 0.0000 0.0000 0.0000
# 3 48.9831 36.9329 136.9338 0.0000 0.0000 0.0000
# 4 0.0000 0.0000 0.0000 47.2501 0.0000 0.0000
# 5 0.0000 0.0000 0.0000 0.0000 40.9155 0.0000
# 6 0.0000 0.0000 0.0000 0.0000 0.0000 33.0099
#
#
#
# Elastic Compliance Matrix: (Units=1/GPa)
#
#
# Indices 1 2 3 4 5 6 
#
# 1 0.008179 -0.002909 -0.002141 0.000000 0.000000 0.000000
# 2 -0.002909 0.012657 -0.002373 0.000000 0.000000 0.000000
# 3 -0.002141 -0.002373 0.008709 0.000000 0.000000 0.000000
# 4 0.000000 0.000000 0.000000 0.021164 0.000000 0.000000
# 5 0.000000 0.000000 0.000000 0.000000 0.024441 0.000000
# 6 0.000000 0.000000 0.000000 0.000000 0.000000 0.030294
#
#
# Mechanical properties :
#
#
# Convention : Reuss Voigt Hill
#
# Bulk Modulus (GPa) = 68.03545 71.45168 69.74356
# Shear Modulus (GPa) = 39.93921 41.16004 40.54962
#
# Velocity S-wave (km/s) = 3.88220 3.94109 3.91175
# Velocity P-wave (km/s) = 6.76529 6.90453 6.83527
#
# Compressibility (1/GPa) = 0.01469822
#
# Stress axis : x y z
#
# Youngs Moduli (GPa) = 122.26338 79.00511 114.82644
#
# Poissons Ratio (x) = 0.22984 0.24586
# Poissons Ratio (y) = 0.35569 0.27251
# Poissons Ratio (z) = 0.26178 0.18750
#
# Static dielectric constant tensor:
#      x y z
#    x 2.027040 0.000000 0.000000 
#    y 0.000000 2.084980 0.000000 
#    z 0.000000 0.000000 1.994370 
# 
# From -- ./inp_files/5373.got.cif
#   From: 2010.05.17/outbox.cif.g08.bks.cpg/sg33_3_cif.got.tgz:5373.got - 2010.06.03 17:15:25.
