data_PCOD9346511
_publ_section_title
;
Structure prediction by ZEFSAII (Michael W. Deem and Ramdas Pophale) SiO2 
 PCOD9346511
Probable space group: P N A 21
;
_chemical_formula_sum "Si O2"
_cell_formula_units_Z 32
_cell_length_a 11.722015
_cell_length_b 15.055814
_cell_length_c 8.575328
_cell_angle_alpha 90.000000
_cell_angle_beta 90.000000
_cell_angle_gamma 90.000000
_cell_volume 1513.412282
_symmetry_space_group_name_H-M "P N A 21"
_symmetry_group_IT_number 33
_symmetry_cell_setting 'orthorhombic'
loop_
_space_group_symop_operation_xyz
x,y,z
-x,-y,1/2+z
1/2-x,1/2+y,1/2+z
1/2+x,1/2-y,z
loop_
_atom_site_type_symbol
_atom_site_label
_atom_site_fract_x
_atom_site_fract_y
_atom_site_fract_z
Si Si1 0.261719 0.946495 0.741990
Si Si2 0.777579 0.252421 0.684623
Si Si3 0.535092 0.163266 0.381782
Si Si4 0.068983 0.850592 0.934791
Si Si5 0.116701 0.613530 0.402358
Si Si6 0.816494 0.418833 0.236696
Si Si7 0.661932 0.417891 0.508301
Si Si8 0.391165 0.886726 0.233975
O O1 0.364362 0.874587 0.769139
O O2 0.148807 0.902656 0.814492
O O3 0.309107 0.031025 0.839410
O O4 0.223732 0.994422 0.579971
O O5 0.844811 0.193234 0.559847
O O6 0.863692 0.300471 0.798441
O O7 0.708646 0.331531 0.600130
O O8 0.692778 0.191153 0.782247
O O9 0.501850 0.266686 0.365375
O O10 0.419665 0.109732 0.348593
O O11 0.564078 0.144418 0.563347
O O12 0.974727 0.914659 0.012921
O O13 0.156257 0.630688 0.576850
O O14 0.985471 0.592535 0.364604
O O15 0.701602 0.404588 0.330445
O O16 0.826440 0.522442 0.201066
#
# Coordination Sequence:
#
# PCOD9346511 Si02
#       8
#     4   4   4   4   4   4   4   4
#     4  11  24  42  71  99 133 189 238 289 353 439
#     4  11  21  43  69  99 135 187 231 283 359 435
#     4  12  22  41  71  99 138 177 237 286 356 420
#     4  12  22  44  74  98 142 188 235 293 361 435
#     4  11  23  41  65 102 136 173 235 290 350 422
#     4  12  24  41  66 103 135 177 235 298 347 421
#     4  11  25  44  69  99 142 188 238 291 362 428
#     4  12  21  42  71  99 129 185 229 294 348 428
#
# _framework density 21.144271
#
# number of rings (size 3 to 8) (size 9 to 14) (size 15 to 20)
#    0.000    0.500    7.500    0.750    1.750    2.000 
#    4.500    0.000    0.000    0.000    0.000    0.000 
#    0.000    0.000    0.000    0.000    0.000    0.000 
#
# Total GULP energy -178675.025538 kJ/mol
# GULP energy per Si atom -5583.594548 kJ/mol
# Density = 2.109615 g / cm^3
# Si number density = 21.144271 Si / 1000 Ang^3
#
#
#
# Elastic Constant Matrix: (Units=GPa)
#
#
# Indices 1 2 3 4 5 6 
#
# 1 77.8505 28.8489 17.1087 0.0000 0.0000 0.0000
# 2 28.8489 74.0592 20.3010 0.0000 0.0000 0.0000
# 3 17.1087 20.3010 38.8567 0.0000 0.0000 0.0000
# 4 0.0000 0.0000 0.0000 24.3346 0.0000 0.0000
# 5 0.0000 0.0000 0.0000 0.0000 22.4585 0.0000
# 6 0.0000 0.0000 0.0000 0.0000 0.0000 44.5273
#
#
#
# Elastic Compliance Matrix: (Units=1/GPa)
#
#
# Indices 1 2 3 4 5 6 
#
# 1 0.015608 -0.004897 -0.004313 0.000000 0.000000 0.000000
# 2 -0.004897 0.017296 -0.006880 0.000000 0.000000 0.000000
# 3 -0.004313 -0.006880 0.031229 0.000000 0.000000 0.000000
# 4 0.000000 0.000000 0.000000 0.041094 0.000000 0.000000
# 5 0.000000 0.000000 0.000000 0.000000 0.044527 0.000000
# 6 0.000000 0.000000 0.000000 0.000000 0.000000 0.022458
#
#
# Mechanical properties :
#
#
# Convention : Reuss Voigt Hill
#
# Bulk Modulus (GPa) = 31.29759 35.92039 33.60899
# Shear Modulus (GPa) = 23.25092 26.56460 24.90776
#
# Velocity S-wave (km/s) = 3.31967 3.54835 3.43591
# Velocity P-wave (km/s) = 5.43393 5.81488 5.62763
#
# Compressibility (1/GPa) = 0.03195135
#
# Stress axis : x y z
#
# Youngs Moduli (GPa) = 64.07000 57.81521 32.02105
#
# Poissons Ratio (x) = 0.28315 0.13812
# Poissons Ratio (y) = 0.31378 0.22031
# Poissons Ratio (z) = 0.27637 0.39779
#
# Static dielectric constant tensor:
#      x y z
#    x 1.784520 0.000000 0.000000 
#    y 0.000000 1.756880 0.000000 
#    z 0.000000 0.000000 1.794570 
# 
# From -- ./inp_files/3962.got.cif
#   From: 2010.05.17/outbox.cif.g08.bks.cpg/sg33_2_cif.got.tgz:3962.got - 2010.06.03 17:15:25.
