data_PCOD9346214
_publ_section_title
;
Structure prediction by ZEFSAII (Michael W. Deem and Ramdas Pophale) SiO2 
 PCOD9346214
Probable space group: P N A 21
;
_chemical_formula_sum "Si O2"
_cell_formula_units_Z 28
_cell_length_a 8.764861
_cell_length_b 9.176715
_cell_length_c 14.139529
_cell_angle_alpha 90.000000
_cell_angle_beta 90.000000
_cell_angle_gamma 90.000000
_cell_volume 1137.279524
_symmetry_space_group_name_H-M "P N A 21"
_symmetry_group_IT_number 33
_symmetry_cell_setting 'orthorhombic'
loop_
_space_group_symop_operation_xyz
x,y,z
-x,-y,1/2+z
1/2-x,1/2+y,1/2+z
1/2+x,1/2-y,z
loop_
_atom_site_type_symbol
_atom_site_label
_atom_site_fract_x
_atom_site_fract_y
_atom_site_fract_z
Si Si1 0.066347 0.538615 0.720280
Si Si2 0.818044 0.750000 0.787372
Si Si3 0.910270 0.564420 0.429654
Si Si4 0.910270 0.935580 0.145091
Si Si5 0.066348 0.961384 0.854465
Si Si6 0.079742 0.833046 0.496239
Si Si7 0.579742 0.833045 0.078506
O O1 0.923843 0.649166 0.722585
O O2 0.045322 0.426119 0.636626
O O3 0.214979 0.639383 0.726867
O O4 0.061030 0.449413 0.818779
O O5 0.923844 0.850834 0.852159
O O6 0.714980 0.639384 0.847877
O O7 0.743729 0.630895 0.450619
O O8 0.915637 0.403261 0.474845
O O9 0.031823 0.667370 0.482077
O O10 0.743729 0.869104 0.124125
O O11 0.031824 0.832630 0.092668
O O12 0.938969 0.949412 0.255966
O O13 0.915636 0.096738 0.099900
O O14 0.045322 0.073880 0.938120
#
# Coordination Sequence:
#
# PCOD9346214 Si02
#       7
#     4   4   4   4   4   4   4
#     4  11  23  44  68  98 136 176 216 276 328 398
#     4  10  24  38  74  98 132 172 226 266 340 382
#     4  11  27  45  68  99 135 175 223 274 332 394
#     4  11  27  45  68  99 135 175 223 274 332 394
#     4  11  23  44  68  98 136 176 216 276 328 398
#     4  11  27  45  68  99 135 175 223 274 332 394
#     4  11  27  45  68  99 135 175 223 274 332 394
#
# _framework density 24.620159999999998
#
# number of rings (size 3 to 8) (size 9 to 14) (size 15 to 20)
#    0.000    1.143    2.857    0.857   12.000    3.429 
#    0.000    0.000    0.000    0.000    0.000    0.000 
#    0.000    0.000    0.000    0.000    0.000    0.000 
#
# Total GULP energy -157025.080249 kJ/mol
# GULP energy per Si atom -5608.038580 kJ/mol
# Density = 2.456412 g / cm^3
# Si number density = 24.620160 Si / 1000 Ang^3
#
#
#
# Elastic Constant Matrix: (Units=GPa)
#
#
# Indices 1 2 3 4 5 6 
#
# 1 91.3718 31.2399 -8.7230 0.0000 0.0000 0.0000
# 2 31.2399 103.7033 20.5502 0.0000 0.0000 0.0000
# 3 -8.7230 20.5502 52.6186 0.0000 0.0000 0.0000
# 4 0.0000 0.0000 0.0000 50.6831 0.0000 0.0000
# 5 0.0000 0.0000 0.0000 0.0000 10.5376 0.0000
# 6 0.0000 0.0000 0.0000 0.0000 0.0000 22.4084
#
#
#
# Elastic Compliance Matrix: (Units=1/GPa)
#
#
# Indices 1 2 3 4 5 6 
#
# 1 0.012923 -0.004680 0.003970 0.000000 0.000000 0.000000
# 2 -0.004680 0.012146 -0.005520 0.000000 0.000000 0.000000
# 3 0.003970 -0.005520 0.021819 0.000000 0.000000 0.000000
# 4 0.000000 0.000000 0.000000 0.019730 0.000000 0.000000
# 5 0.000000 0.000000 0.000000 0.000000 0.094898 0.000000
# 6 0.000000 0.000000 0.000000 0.000000 0.000000 0.044626
#
#
# Mechanical properties :
#
#
# Convention : Reuss Voigt Hill
#
# Bulk Modulus (GPa) = 29.04469 37.09198 33.06834
# Shear Modulus (GPa) = 21.73171 30.36758 26.04965
#
# Velocity S-wave (km/s) = 2.97422 3.51585 3.25631
# Velocity P-wave (km/s) = 4.85977 5.61961 5.25344
#
# Compressibility (1/GPa) = 0.03442970
#
# Stress axis : x y z
#
# Youngs Moduli (GPa) = 77.37947 82.32872 45.83261
#
# Poissons Ratio (x) = 0.38528 -0.18196
# Poissons Ratio (y) = 0.36212 0.25298
# Poissons Ratio (z) = -0.30720 0.45442
#
# Static dielectric constant tensor:
#      x y z
#    x 1.944000 0.000000 0.000000 
#    y 0.000000 1.937290 0.000000 
#    z 0.000000 0.000000 1.920760 
# 
# From -- ./inp_files/7575.got.cif
#   From: 2010.05.17/outbox.cif.g08.bks.cpg/sg33_4_cif.got.tgz:7575.got - 2010.06.03 17:15:25.
