data_PCOD9346247
_publ_section_title
;
Structure prediction by ZEFSAII (Michael W. Deem and Ramdas Pophale) SiO2 
 PCOD9346247
Probable space group: P N A 21
;
_chemical_formula_sum "Si O2"
_cell_formula_units_Z 28
_cell_length_a 8.544651
_cell_length_b 6.333495
_cell_length_c 21.051903
_cell_angle_alpha 90.000000
_cell_angle_beta 90.000000
_cell_angle_gamma 90.000000
_cell_volume 1139.276453
_symmetry_space_group_name_H-M "P N A 21"
_symmetry_group_IT_number 33
_symmetry_cell_setting 'orthorhombic'
loop_
_space_group_symop_operation_xyz
x,y,z
-x,-y,1/2+z
1/2-x,1/2+y,1/2+z
1/2+x,1/2-y,z
loop_
_atom_site_type_symbol
_atom_site_label
_atom_site_fract_x
_atom_site_fract_y
_atom_site_fract_z
Si Si1 0.525303 0.469559 0.951140
Si Si2 0.750734 0.577480 0.158757
Si Si3 0.572440 0.684992 0.669992
Si Si4 0.230113 0.688030 0.926792
Si Si5 0.512192 0.111829 0.856985
Si Si6 0.809945 0.933637 0.058641
Si Si7 0.778837 0.908246 0.271500
O O1 0.410633 0.637456 0.916421
O O2 0.693477 0.567257 0.937505
O O3 0.484671 0.244283 0.922234
O O4 0.474057 0.509376 0.023372
O O5 0.593840 0.432408 0.160083
O O6 0.906383 0.435517 0.169131
O O7 0.784613 0.714487 0.095525
O O8 0.731820 0.743323 0.216131
O O9 0.689700 0.605508 0.613842
O O10 0.643834 0.603860 0.735944
O O11 0.135259 0.568661 0.873351
O O12 0.199906 0.574763 0.996230
O O13 0.364864 0.036188 0.816892
O O14 0.595210 0.288614 0.814101
#
# Coordination Sequence:
#
# PCOD9346247 Si02
#       7
#     4   4   4   4   4   4   4
#     4  10  24  42  67  99 133 181 228 282 346 410
#     4  11  25  43  70 102 137 183 230 289 343 411
#     4  11  25  43  71 102 134 187 231 279 352 412
#     4  10  24  42  68  96 136 181 227 285 344 409
#     4  12  24  46  68 102 137 184 232 287 345 413
#     4   9  23  45  67  98 139 177 228 288 338 410
#     4  11  25  45  67  95 146 175 236 286 340 407
#
# _framework density 24.577000999999999
#
# number of rings (size 3 to 8) (size 9 to 14) (size 15 to 20)
#    0.857    0.571    2.857    0.857    4.000    8.000 
#    0.000    0.000    0.000    0.000    0.000    0.000 
#    0.000    0.000    0.000    0.000    0.000    0.000 
#
# Total GULP energy -156309.007227 kJ/mol
# GULP energy per Si atom -5582.464544 kJ/mol
# Density = 2.452106 g / cm^3
# Si number density = 24.577001 Si / 1000 Ang^3
#
#
#
# Elastic Constant Matrix: (Units=GPa)
#
#
# Indices 1 2 3 4 5 6 
#
# 1 39.8597 8.0911 26.4009 0.0000 0.0000 0.0000
# 2 8.0911 47.4882 29.5980 0.0000 0.0000 0.0000
# 3 26.4009 29.5980 109.7077 0.0000 0.0000 0.0000
# 4 0.0000 0.0000 0.0000 26.2744 0.0000 0.0000
# 5 0.0000 0.0000 0.0000 0.0000 37.6248 0.0000
# 6 0.0000 0.0000 0.0000 0.0000 0.0000 41.5006
#
#
#
# Elastic Compliance Matrix: (Units=1/GPa)
#
#
# Indices 1 2 3 4 5 6 
#
# 1 0.029866 -0.000732 -0.006990 0.000000 0.000000 0.000000
# 2 -0.000732 0.025333 -0.006658 0.000000 0.000000 0.000000
# 3 -0.006990 -0.006658 0.012594 0.000000 0.000000 0.000000
# 4 0.000000 0.000000 0.000000 0.038060 0.000000 0.000000
# 5 0.000000 0.000000 0.000000 0.000000 0.026578 0.000000
# 6 0.000000 0.000000 0.000000 0.000000 0.000000 0.024096
#
#
# Mechanical properties :
#
#
# Convention : Reuss Voigt Hill
#
# Bulk Modulus (GPa) = 25.62002 36.13729 30.87865
# Shear Modulus (GPa) = 25.21468 29.94434 27.57951
#
# Velocity S-wave (km/s) = 3.20651 3.49433 3.35351
# Velocity P-wave (km/s) = 4.91488 5.56921 5.25224
#
# Compressibility (1/GPa) = 0.03903198
#
# Stress axis : x y z
#
# Youngs Moduli (GPa) = 33.48266 39.47498 79.40590
#
# Poissons Ratio (x) = 0.02890 0.55502
# Poissons Ratio (y) = 0.02451 0.52870
# Poissons Ratio (z) = 0.23403 0.26283
#
# Static dielectric constant tensor:
#      x y z
#    x 1.996570 0.000000 0.000000 
#    y 0.000000 1.921600 0.000000 
#    z 0.000000 0.000000 1.956890 
# 
# From -- ./inp_files/9247.got.cif
#   From: 2010.05.17/outbox.cif.g08.bks.cpg/sg33_5_cif.got.tgz:9247.got - 2010.06.03 17:15:25.
