data_PCOD9346502
_publ_section_title
;
Structure prediction by ZEFSAII (Michael W. Deem and Ramdas Pophale) SiO2 
 PCOD9346502
Probable space group: P N A 21
;
_chemical_formula_sum "Si O2"
_cell_formula_units_Z 32
_cell_length_a 17.666821
_cell_length_b 5.765689
_cell_length_c 12.575536
_cell_angle_alpha 90.000000
_cell_angle_beta 90.000000
_cell_angle_gamma 90.000000
_cell_volume 1280.961646
_symmetry_space_group_name_H-M "P N A 21"
_symmetry_group_IT_number 33
_symmetry_cell_setting 'orthorhombic'
loop_
_space_group_symop_operation_xyz
x,y,z
-x,-y,1/2+z
1/2-x,1/2+y,1/2+z
1/2+x,1/2-y,z
loop_
_atom_site_type_symbol
_atom_site_label
_atom_site_fract_x
_atom_site_fract_y
_atom_site_fract_z
Si Si1 0.709611 0.720992 0.821500
Si Si2 0.888560 0.293502 0.518375
Si Si3 0.240564 0.760626 0.402895
Si Si4 0.908071 0.017461 0.964803
Si Si5 0.471022 0.829609 0.377158
Si Si6 0.288511 0.870522 0.622203
Si Si7 0.473530 0.605002 0.169535
Si Si8 0.430157 0.792171 0.769643
O O1 0.640918 0.680393 0.906402
O O2 0.756431 0.481090 0.842136
O O3 0.715812 0.700875 0.693052
O O4 0.735103 0.990218 0.848766
O O5 0.929802 0.512582 0.462129
O O6 0.811988 0.368303 0.582894
O O7 0.951223 0.204331 0.605078
O O8 0.156322 0.799079 0.445373
O O9 0.287538 0.736431 0.511232
O O10 0.989519 0.128376 0.943054
O O11 0.898732 0.832341 0.873380
O O12 0.910660 0.911340 0.079827
O O13 0.433468 0.729668 0.270594
O O14 0.535958 0.972915 0.314807
O O15 0.362541 0.803331 0.687782
O O16 0.503464 0.362018 0.217194
#
# Coordination Sequence:
#
# PCOD9346502 Si02
#       8
#     4   4   4   4   4   4   4   4
#     4  11  26  47  72 102 142 192 255 301 362 454
#     4  11  24  46  72 108 145 194 253 311 377 457
#     4  11  26  46  71 106 140 191 248 302 364 449
#     4  11  24  42  68 104 146 183 250 302 367 450
#     4  11  24  44  70 106 143 190 244 306 378 456
#     4  11  23  46  72 100 141 202 234 307 372 435
#     4  11  24  40  72 105 142 191 232 309 383 436
#     4  11  21  41  69  97 139 187 238 290 371 447
#
# _framework density 24.981228999999999
#
# number of rings (size 3 to 8) (size 9 to 14) (size 15 to 20)
#    0.000    1.000    3.750    2.250    1.750    4.000 
#    6.750    0.000    0.000    0.000    0.000    0.000 
#    0.000    0.000    0.000    0.000    0.000    0.000 
#
# Total GULP energy -178316.532617 kJ/mol
# GULP energy per Si atom -5572.391644 kJ/mol
# Density = 2.492437 g / cm^3
# Si number density = 24.981229 Si / 1000 Ang^3
#
#
#
# Elastic Constant Matrix: (Units=GPa)
#
#
# Indices 1 2 3 4 5 6 
#
# 1 32.3318 8.5039 9.3203 0.0000 0.0000 0.0000
# 2 8.5039 62.7041 39.3185 0.0000 0.0000 0.0000
# 3 9.3203 39.3185 121.2678 0.0000 0.0000 0.0000
# 4 0.0000 0.0000 0.0000 35.2273 0.0000 0.0000
# 5 0.0000 0.0000 0.0000 0.0000 54.8450 0.0000
# 6 0.0000 0.0000 0.0000 0.0000 0.0000 35.3952
#
#
#
# Elastic Compliance Matrix: (Units=1/GPa)
#
#
# Indices 1 2 3 4 5 6 
#
# 1 0.032244 -0.003538 -0.001331 0.000000 0.000000 0.000000
# 2 -0.003538 0.020406 -0.006344 0.000000 0.000000 0.000000
# 3 -0.001331 -0.006344 0.010405 0.000000 0.000000 0.000000
# 4 0.000000 0.000000 0.000000 0.028387 0.000000 0.000000
# 5 0.000000 0.000000 0.000000 0.000000 0.018233 0.000000
# 6 0.000000 0.000000 0.000000 0.000000 0.000000 0.028252
#
#
# Mechanical properties :
#
#
# Convention : Reuss Voigt Hill
#
# Bulk Modulus (GPa) = 24.61351 36.73211 30.67281
# Shear Modulus (GPa) = 28.75257 35.70423 32.22840
#
# Velocity S-wave (km/s) = 3.39627 3.78463 3.59570
# Velocity P-wave (km/s) = 5.02531 5.81668 5.43541
#
# Compressibility (1/GPa) = 0.04062810
#
# Stress axis : x y z
#
# Youngs Moduli (GPa) = 31.01384 49.00534 96.10308
#
# Poissons Ratio (x) = 0.17340 0.12791
# Poissons Ratio (y) = 0.10974 0.60970
# Poissons Ratio (z) = 0.04128 0.31090
#
# Static dielectric constant tensor:
#      x y z
#    x 2.176080 0.000000 0.000000 
#    y 0.000000 2.045900 0.000000 
#    z 0.000000 0.000000 2.003790 
# 
# From -- ./inp_files/7214.got.cif
#   From: 2010.05.17/outbox.cif.g08.bks.cpg/sg33_4_cif.got.tgz:7214.got - 2010.06.03 17:15:25.
