data_PCOD9346540
_publ_section_title
;
Structure prediction by ZEFSAII (Michael W. Deem and Ramdas Pophale) SiO2 
 PCOD9346540
Probable space group: P N A 21
;
_chemical_formula_sum "Si O2"
_cell_formula_units_Z 32
_cell_length_a 8.929110
_cell_length_b 11.586373
_cell_length_c 14.140454
_cell_angle_alpha 90.000000
_cell_angle_beta 90.000000
_cell_angle_gamma 90.000000
_cell_volume 1462.914795
_symmetry_space_group_name_H-M "P N A 21"
_symmetry_group_IT_number 33
_symmetry_cell_setting 'orthorhombic'
loop_
_space_group_symop_operation_xyz
x,y,z
-x,-y,1/2+z
1/2-x,1/2+y,1/2+z
1/2+x,1/2-y,z
loop_
_atom_site_type_symbol
_atom_site_label
_atom_site_fract_x
_atom_site_fract_y
_atom_site_fract_z
Si Si1 0.603202 0.222996 0.324560
Si Si2 0.785758 0.564660 0.491717
Si Si3 0.036771 0.064253 0.230045
Si Si4 0.626416 0.989675 0.793628
Si Si5 0.572436 0.994908 0.602772
Si Si6 0.230735 0.811117 0.021817
Si Si7 0.679210 0.733800 0.637167
Si Si8 0.915619 0.886418 0.089348
O O1 0.521042 0.348328 0.319756
O O2 0.476488 0.121828 0.321999
O O3 0.706995 0.216730 0.417057
O O4 0.711768 0.215687 0.229903
O O5 0.831706 0.565230 0.383316
O O6 0.923651 0.503549 0.543074
O O7 0.759933 0.684676 0.544648
O O8 0.645466 0.483855 0.517087
O O9 0.210960 0.035040 0.245530
O O10 0.968067 0.155111 0.154400
O O11 0.957781 0.948592 0.189291
O O12 0.539318 0.046014 0.706620
O O13 0.621958 0.862204 0.618380
O O14 0.697583 0.067008 0.550330
O O15 0.056964 0.825022 0.041224
O O16 0.292069 0.712805 0.092087
#
# Coordination Sequence:
#
# PCOD9346540 Si02
#       8
#     4   4   4   4   4   4   4   4
#     4  12  22  38  73 108 139 183 246 304 355 430
#     4  11  25  45  69 107 146 192 248 304 369 439
#     4  11  22  41  67 102 136 187 239 298 355 426
#     4  12  23  41  69 103 142 188 241 305 359 438
#     4  12  23  44  71 105 148 190 241 300 375 438
#     4  12  26  42  68 111 145 189 242 301 370 434
#     4  11  23  41  72 104 144 190 245 306 364 437
#     4  11  26  44  67 102 152 189 234 302 371 434
#
# _framework density 21.874139
#
# number of rings (size 3 to 8) (size 9 to 14) (size 15 to 20)
#    0.000    0.500    6.250    1.500    5.250    0.000 
#    0.000    1.250    5.500    0.000    0.000    0.000 
#    0.000    0.000    0.000    0.000    0.000    0.000 
#
# Total GULP energy -178299.222658 kJ/mol
# GULP energy per Si atom -5571.850708 kJ/mol
# Density = 2.182435 g / cm^3
# Si number density = 21.874139 Si / 1000 Ang^3
#
#
#
# Elastic Constant Matrix: (Units=GPa)
#
#
# Indices 1 2 3 4 5 6 
#
# 1 82.3343 26.1937 33.0434 0.0000 0.0000 0.0000
# 2 26.1937 74.9611 27.3584 0.0000 0.0000 0.0000
# 3 33.0434 27.3584 110.3013 0.0000 0.0000 0.0000
# 4 0.0000 0.0000 0.0000 32.0822 0.0000 0.0000
# 5 0.0000 0.0000 0.0000 0.0000 33.8244 0.0000
# 6 0.0000 0.0000 0.0000 0.0000 0.0000 35.5419
#
#
#
# Elastic Compliance Matrix: (Units=1/GPa)
#
#
# Indices 1 2 3 4 5 6 
#
# 1 0.014775 -0.003900 -0.003459 0.000000 0.000000 0.000000
# 2 -0.003900 0.015698 -0.002725 0.000000 0.000000 0.000000
# 3 -0.003459 -0.002725 0.010778 0.000000 0.000000 0.000000
# 4 0.000000 0.000000 0.000000 0.031170 0.000000 0.000000
# 5 0.000000 0.000000 0.000000 0.000000 0.029564 0.000000
# 6 0.000000 0.000000 0.000000 0.000000 0.000000 0.028136
#
#
# Mechanical properties :
#
#
# Convention : Reuss Voigt Hill
#
# Bulk Modulus (GPa) = 47.43355 48.97642 48.20498
# Shear Modulus (GPa) = 31.78313 32.35645 32.06979
#
# Velocity S-wave (km/s) = 3.81596 3.85022 3.83313
# Velocity P-wave (km/s) = 6.41461 6.49649 6.45568
#
# Compressibility (1/GPa) = 0.02108212
#
# Stress axis : x y z
#
# Youngs Moduli (GPa) = 67.68405 63.70345 92.78053
#
# Poissons Ratio (x) = 0.24847 0.32090
# Poissons Ratio (y) = 0.26399 0.25284
# Poissons Ratio (z) = 0.23410 0.17360
#
# Static dielectric constant tensor:
#      x y z
#    x 1.944400 0.000000 0.000000 
#    y 0.000000 1.841560 0.000000 
#    z 0.000000 0.000000 1.896960 
# 
# From -- ./inp_files/7675.got.cif
#   From: 2010.05.17/outbox.cif.g08.bks.cpg/sg33_4_cif.got.tgz:7675.got - 2010.06.03 17:15:25.
