data_PCOD9346079
_publ_section_title
;
Structure prediction by ZEFSAII (Michael W. Deem and Ramdas Pophale) SiO2 
 PCOD9346079
Probable space group: P N A 21
;
_chemical_formula_sum "Si O2"
_cell_formula_units_Z 28
_cell_length_a 14.039830
_cell_length_b 10.669516
_cell_length_c 7.028592
_cell_angle_alpha 90.000000
_cell_angle_beta 90.000000
_cell_angle_gamma 90.000000
_cell_volume 1052.870366
_symmetry_space_group_name_H-M "P N A 21"
_symmetry_group_IT_number 33
_symmetry_cell_setting 'orthorhombic'
loop_
_space_group_symop_operation_xyz
x,y,z
-x,-y,1/2+z
1/2-x,1/2+y,1/2+z
1/2+x,1/2-y,z
loop_
_atom_site_type_symbol
_atom_site_label
_atom_site_fract_x
_atom_site_fract_y
_atom_site_fract_z
Si Si1 0.469146 0.176716 0.978350
Si Si2 0.108445 0.039226 0.360820
Si Si3 0.594852 0.607478 0.722162
Si Si4 0.627188 0.168431 0.691078
Si Si5 0.684947 0.942295 0.937797
Si Si6 0.664214 0.687126 0.099301
Si Si7 0.385912 0.936136 0.780732
O O1 0.545381 0.230335 0.820915
O O2 0.411619 0.069829 0.870960
O O3 0.399485 0.272388 0.084663
O O4 0.533280 0.114696 0.140702
O O5 0.214205 0.096607 0.345477
O O6 0.014520 0.109632 0.296351
O O7 0.099547 0.010310 0.583452
O O8 0.113569 0.909195 0.241205
O O9 0.664218 0.608558 0.902317
O O10 0.735273 0.218747 0.700354
O O11 0.615557 0.153135 0.464844
O O12 0.634135 0.028723 0.782639
O O13 0.695523 0.033707 0.122288
O O14 0.629690 0.820406 0.014130
#
# Coordination Sequence:
#
# PCOD9346079 Si02
#       7
#     4   4   4   4   4   4   4
#     4  11  24  38  71 102 138 176 231 287 355 412
#     4  11  25  47  66 101 139 180 238 284 344 426
#     4  12  25  44  72 100 140 189 228 291 356 420
#     4  10  23  43  63 102 137 174 232 288 343 421
#     4  10  24  43  67  97 132 183 230 282 348 411
#     4  11  24  45  70  98 139 186 232 286 354 422
#     4  11  21  42  65  98 139 170 223 290 340 414
#
# _framework density 26.593966999999999
#
# number of rings (size 3 to 8) (size 9 to 14) (size 15 to 20)
#    0.000    1.143    2.857    2.571    4.000    2.286 
#    5.143    0.000    0.000    0.000    0.000    0.000 
#    0.000    0.000    0.000    0.000    0.000    0.000 
#
# Total GULP energy -156466.213502 kJ/mol
# GULP energy per Si atom -5588.079054 kJ/mol
# Density = 2.653344 g / cm^3
# Si number density = 26.593967 Si / 1000 Ang^3
#
#
#
# Elastic Constant Matrix: (Units=GPa)
#
#
# Indices 1 2 3 4 5 6 
#
# 1 61.0145 -2.1970 16.7684 0.0000 0.0000 0.0000
# 2 -2.1970 48.7712 14.7037 0.0000 0.0000 0.0000
# 3 16.7684 14.7037 167.8163 0.0000 0.0000 0.0000
# 4 0.0000 0.0000 0.0000 49.8097 0.0000 0.0000
# 5 0.0000 0.0000 0.0000 0.0000 53.8916 0.0000
# 6 0.0000 0.0000 0.0000 0.0000 0.0000 29.2544
#
#
#
# Elastic Compliance Matrix: (Units=1/GPa)
#
#
# Indices 1 2 3 4 5 6 
#
# 1 0.016933 0.001307 -0.001807 0.000000 0.000000 0.000000
# 2 0.001307 0.021161 -0.001985 0.000000 0.000000 0.000000
# 3 -0.001807 -0.001985 0.006313 0.000000 0.000000 0.000000
# 4 0.000000 0.000000 0.000000 0.020076 0.000000 0.000000
# 5 0.000000 0.000000 0.000000 0.000000 0.018556 0.000000
# 6 0.000000 0.000000 0.000000 0.000000 0.000000 0.034183
#
#
# Mechanical properties :
#
#
# Convention : Reuss Voigt Hill
#
# Bulk Modulus (GPa) = 25.35506 37.35026 31.35266
# Shear Modulus (GPa) = 36.94483 43.14628 40.04555
#
# Velocity S-wave (km/s) = 3.73127 4.03228 3.88469
# Velocity P-wave (km/s) = 5.30264 5.97948 5.65120
#
# Compressibility (1/GPa) = 0.03943987
#
# Stress axis : x y z
#
# Youngs Moduli (GPa) = 59.05595 47.25639 158.39556
#
# Poissons Ratio (x) = -0.06178 0.28615
# Poissons Ratio (y) = -0.07721 0.31437
# Poissons Ratio (z) = 0.10669 0.09379
#
# Static dielectric constant tensor:
#      x y z
#    x 2.148990 0.000000 0.000000 
#    y 0.000000 2.122820 0.000000 
#    z 0.000000 0.000000 2.054480 
# 
# From -- ./inp_files/1750.got.cif
#   From: 2010.05.17/outbox.cif.g08.bks.cpg/sg33_1_cif.got.tgz:1750.got - 2010.06.03 17:15:25.
