data_PCOD9346197
_publ_section_title
;
Structure prediction by ZEFSAII (Michael W. Deem and Ramdas Pophale) SiO2 
 PCOD9346197
Probable space group: P N A 21
;
_chemical_formula_sum "Si O2"
_cell_formula_units_Z 24
_cell_length_a 24.612121
_cell_length_b 8.063799
_cell_length_c 5.744059
_cell_angle_alpha 90.000000
_cell_angle_beta 90.000000
_cell_angle_gamma 90.000000
_cell_volume 1140.007287
_symmetry_space_group_name_H-M "P N A 21"
_symmetry_group_IT_number 33
_symmetry_cell_setting 'orthorhombic'
loop_
_space_group_symop_operation_xyz
x,y,z
-x,-y,1/2+z
1/2-x,1/2+y,1/2+z
1/2+x,1/2-y,z
loop_
_atom_site_type_symbol
_atom_site_label
_atom_site_fract_x
_atom_site_fract_y
_atom_site_fract_z
Si Si1 0.835721 0.492726 0.894350
Si Si2 0.498009 0.403836 0.055156
Si Si3 0.615470 0.306399 0.149231
Si Si4 0.697948 0.185272 0.774040
Si Si5 0.724943 0.514580 0.622409
Si Si6 0.877397 0.144352 0.953804
O O1 0.872037 0.641090 0.795266
O O2 0.773183 0.513009 0.810696
O O3 0.833825 0.529944 0.168754
O O4 0.857512 0.312636 0.832784
O O5 0.498536 0.497508 0.307150
O O6 0.553649 0.300308 0.060099
O O7 0.438183 0.325136 0.043571
O O8 0.622232 0.479060 0.291371
O O9 0.659898 0.290109 0.946023
O O10 0.714459 0.319914 0.580898
O O11 0.749035 0.111359 0.906667
O O12 0.666973 0.602599 0.654022
#
# Coordination Sequence:
#
# PCOD9346197 Si02
#       6
#     4   4   4   4   4   4
#     4  11  25  43  66 105 132 183 241 284 360 425
#     4  10  23  47  76 104 137 192 239 292 367 433
#     4  10  24  47  68  97 141 181 230 302 352 425
#     4  11  24  41  67  95 140 177 232 289 358 419
#     4  11  23  39  65  97 138 182 222 291 348 428
#     4  11  23  45  70 102 138 183 238 290 359 434
#
# _framework density 21.052499000000001
#
# number of rings (size 3 to 8) (size 9 to 14) (size 15 to 20)
#    0.000    1.333    3.333    1.000    7.000    0.000 
#   18.000    0.000    0.000    0.000    0.000    0.000 
#    0.000    0.000    0.000    0.000    0.000    0.000 
#
# Total GULP energy -133723.885581 kJ/mol
# GULP energy per Si atom -5571.828566 kJ/mol
# Density = 2.100458 g / cm^3
# Si number density = 21.052499 Si / 1000 Ang^3
#
#
#
# Elastic Constant Matrix: (Units=GPa)
#
#
# Indices 1 2 3 4 5 6 
#
# 1 138.0655 55.1684 21.3770 0.0000 0.0000 0.0000
# 2 55.1684 135.5042 28.3247 0.0000 0.0000 0.0000
# 3 21.3770 28.3247 46.4494 0.0000 0.0000 0.0000
# 4 0.0000 0.0000 0.0000 17.1682 0.0000 0.0000
# 5 0.0000 0.0000 0.0000 0.0000 12.5771 0.0000
# 6 0.0000 0.0000 0.0000 0.0000 0.0000 2196.8592
#
#
#
# Elastic Compliance Matrix: (Units=1/GPa)
#
#
# Indices 1 2 3 4 5 6 
#
# 1 0.008833 -0.003148 -0.002146 0.000000 0.000000 0.000000
# 2 -0.003148 0.009580 -0.004393 0.000000 0.000000 0.000000
# 3 -0.002146 -0.004393 0.025195 0.000000 0.000000 0.000000
# 4 0.000000 0.000000 0.000000 0.058247 0.000000 0.000000
# 5 0.000000 0.000000 0.000000 0.000000 0.079509 0.000000
# 6 0.000000 0.000000 0.000000 0.000000 0.000000 0.000455
#
#
# Mechanical properties :
#
#
# Convention : Reuss Voigt Hill
#
# Bulk Modulus (GPa) = 41.26262 58.86215 50.06239
# Shear Modulus (GPa) = 23.89252 459.66417 241.77834
#
# Velocity S-wave (km/s) = 3.37248 14.79243 10.72822
# Velocity P-wave (km/s) = 5.89977 17.88225 13.31507
#
# Compressibility (1/GPa) = 0.02423501
#
# Stress axis : x y z
#
# Youngs Moduli (GPa) = 113.21300 104.38789 39.69021
#
# Poissons Ratio (x) = 0.32858 0.08516
# Poissons Ratio (y) = 0.35636 0.17436
# Poissons Ratio (z) = 0.24291 0.45858
#
# Static dielectric constant tensor:
#      x y z
#    x 1.764620 0.000000 0.000000 
#    y 0.000000 1.754360 0.000000 
#    z 0.000000 0.000000 1.847050 
# 
# From -- ./inp_files/2204.got.cif
#   From: 2010.05.17/outbox.cif.g08.bks.cpg/sg33_2_cif.got.tgz:2204.got - 2010.06.03 17:15:25.
