data_PCOD9346860
_publ_section_title
;
Structure prediction by ZEFSAII (Michael W. Deem and Ramdas Pophale) SiO2 
 PCOD9346860
Probable space group: P N A 21
;
_chemical_formula_sum "Si O2"
_cell_formula_units_Z 32
_cell_length_a 28.994864
_cell_length_b 8.952975
_cell_length_c 4.806666
_cell_angle_alpha 90.000000
_cell_angle_beta 90.000000
_cell_angle_gamma 90.000000
_cell_volume 1247.763833
_symmetry_space_group_name_H-M "P N A 21"
_symmetry_group_IT_number 33
_symmetry_cell_setting 'orthorhombic'
loop_
_space_group_symop_operation_xyz
x,y,z
-x,-y,1/2+z
1/2-x,1/2+y,1/2+z
1/2+x,1/2-y,z
loop_
_atom_site_type_symbol
_atom_site_label
_atom_site_fract_x
_atom_site_fract_y
_atom_site_fract_z
Si Si1 0.470102 0.671621 0.765600
Si Si2 0.027069 0.452881 0.919754
Si Si3 0.939205 0.106576 0.538666
Si Si4 0.651821 0.040641 0.694257
Si Si5 0.732360 0.215148 0.356044
Si Si6 0.610056 0.346479 0.690811
Si Si7 0.384052 0.117994 0.665637
Si Si8 0.287634 0.579914 0.305224
O O1 0.469696 0.778119 0.496309
O O2 0.521031 0.699319 0.887120
O O3 0.467629 0.491419 0.757562
O O4 0.422285 0.698511 0.931152
O O5 0.071239 0.536038 0.038961
O O6 0.983908 0.515810 0.100420
O O7 0.898984 0.209611 0.657083
O O8 0.916743 0.974417 0.357722
O O9 0.625228 0.940036 0.471627
O O10 0.692850 0.115348 0.514298
O O11 0.624306 0.184834 0.808169
O O12 0.656991 0.933849 0.960109
O O13 0.744885 0.337989 0.584274
O O14 0.771817 0.091393 0.320500
O O15 0.716326 0.313364 0.084187
O O16 0.661395 0.415940 0.666475
#
# Coordination Sequence:
#
# PCOD9346860 Si02
#       8
#     4   4   4   4   4   4   4   4
#     4  12  26  43  67  95 147 198 246 315 367 444
#     4  12  26  43  71  99 138 195 261 309 373 436
#     4  12  28  41  68 101 146 193 257 306 384 411
#     4  11  25  47  74 101 147 191 247 297 374 451
#     4  11  25  50  80 118 151 197 241 311 393 459
#     4  11  26  46  71 103 142 200 243 298 378 454
#     4  12  26  44  68 106 139 192 249 311 354 441
#     4  11  26  48  83 113 152 194 250 305 389 466
#
# _framework density 25.645878
#
# number of rings (size 3 to 8) (size 9 to 14) (size 15 to 20)
#    0.000    0.500    3.750    3.750    8.750    2.000 
#    0.000    0.000    0.000    0.000    0.000    0.000 
#    0.000    0.000    0.000    0.000    0.000    0.000 
#
# Total GULP energy -178783.358207 kJ/mol
# GULP energy per Si atom -5586.979944 kJ/mol
# Density = 2.558751 g / cm^3
# Si number density = 25.645878 Si / 1000 Ang^3
#
#
#
# Elastic Constant Matrix: (Units=GPa)
#
#
# Indices 1 2 3 4 5 6 
#
# 1 109.7266 32.2013 30.7276 0.0000 0.0000 0.0000
# 2 32.2013 105.8380 17.5705 0.0000 0.0000 0.0000
# 3 30.7276 17.5705 93.0240 0.0000 0.0000 0.0000
# 4 0.0000 0.0000 0.0000 50.8197 0.0000 0.0000
# 5 0.0000 0.0000 0.0000 0.0000 14.2327 0.0000
# 6 0.0000 0.0000 0.0000 0.0000 0.0000 34.3911
#
#
#
# Elastic Compliance Matrix: (Units=1/GPa)
#
#
# Indices 1 2 3 4 5 6 
#
# 1 0.010778 -0.002775 -0.003036 0.000000 0.000000 0.000000
# 2 -0.002775 0.010469 -0.001061 0.000000 0.000000 0.000000
# 3 -0.003036 -0.001061 0.011953 0.000000 0.000000 0.000000
# 4 0.000000 0.000000 0.000000 0.019677 0.000000 0.000000
# 5 0.000000 0.000000 0.000000 0.000000 0.070261 0.000000
# 6 0.000000 0.000000 0.000000 0.000000 0.000000 0.029077
#
#
# Mechanical properties :
#
#
# Convention : Reuss Voigt Hill
#
# Bulk Modulus (GPa) = 51.39731 52.17637 51.78684
# Shear Modulus (GPa) = 28.99473 35.09463 32.04468
#
# Velocity S-wave (km/s) = 3.36606 3.70325 3.53867
# Velocity P-wave (km/s) = 5.93227 6.21888 6.07726
#
# Compressibility (1/GPa) = 0.01945627
#
# Stress axis : x y z
#
# Youngs Moduli (GPa) = 92.77963 95.52141 83.66012
#
# Poissons Ratio (x) = 0.26510 0.25400
# Poissons Ratio (y) = 0.25749 0.08873
# Poissons Ratio (z) = 0.28168 0.10131
#
# Static dielectric constant tensor:
#      x y z
#    x 2.159310 0.000000 0.000000 
#    y 0.000000 2.051030 0.000000 
#    z 0.000000 0.000000 2.110290 
# 
# From -- ./inp_files/2527.got.cif
#   From: 2010.05.17/outbox.cif.g08.bks.cpg/sg33_2_cif.got.tgz:2527.got - 2010.06.03 17:15:25.
