data_PCOD9346212
_publ_section_title
;
Structure prediction by ZEFSAII (Michael W. Deem and Ramdas Pophale) SiO2 
 PCOD9346212
Probable space group: P N A 21
;
_chemical_formula_sum "Si O2"
_cell_formula_units_Z 28
_cell_length_a 5.111038
_cell_length_b 28.344197
_cell_length_c 9.065968
_cell_angle_alpha 90.000000
_cell_angle_beta 90.000000
_cell_angle_gamma 90.000000
_cell_volume 1313.371081
_symmetry_space_group_name_H-M "P N A 21"
_symmetry_group_IT_number 33
_symmetry_cell_setting 'orthorhombic'
loop_
_space_group_symop_operation_xyz
x,y,z
-x,-y,1/2+z
1/2-x,1/2+y,1/2+z
1/2+x,1/2-y,z
loop_
_atom_site_type_symbol
_atom_site_label
_atom_site_fract_x
_atom_site_fract_y
_atom_site_fract_z
Si Si1 0.121199 0.779093 0.319590
Si Si2 0.928794 0.438306 0.606222
Si Si3 0.068666 0.976429 0.203771
Si Si4 0.757897 0.614655 0.336558
Si Si5 0.857193 0.623293 0.683712
Si Si6 0.147042 0.775065 0.678185
Si Si7 0.147924 0.078992 0.313955
O O1 0.358186 0.746043 0.267924
O O2 0.154247 0.834402 0.283962
O O3 0.130799 0.776540 0.499181
O O4 0.728452 0.479630 0.652048
O O5 0.771340 0.413758 0.475301
O O6 0.215112 0.461620 0.579841
O O7 0.995462 0.401368 0.736425
O O8 0.073181 0.930595 0.309424
O O9 0.168345 0.023510 0.278846
O O10 0.812616 0.617799 0.509148
O O11 0.780650 0.676519 0.724585
O O12 0.648005 0.593207 0.777509
O O13 0.154260 0.608627 0.712481
O O14 0.351205 0.734614 0.725893
#
# Coordination Sequence:
#
# PCOD9346212 Si02
#       7
#     4   4   4   4   4   4   4
#     4   9  18  31  56  86 117 145 193 254 303 349
#     4  10  24  42  60  85 121 171 194 254 305 370
#     4  10  24  37  64  81 123 161 209 237 304 364
#     4   9  24  38  64  89 121 158 206 247 308 364
#     4  11  24  38  64  96 122 156 210 262 298 371
#     4   9  17  34  57  86 120 154 193 249 313 358
#     4  12  25  40  61  91 128 161 207 253 311 360
#
# _framework density 21.319182999999999
#
# number of rings (size 3 to 8) (size 9 to 14) (size 15 to 20)
#    0.857    1.143    0.000    2.571    8.000    2.286 
#    0.000    0.000    0.000    5.143    0.000    0.000 
#    0.000    0.000    0.000    0.000    0.000    0.000 
#
# Total GULP energy -156042.984090 kJ/mol
# GULP energy per Si atom -5572.963717 kJ/mol
# Density = 2.127066 g / cm^3
# Si number density = 21.319183 Si / 1000 Ang^3
#
#
#
# Elastic Constant Matrix: (Units=GPa)
#
#
# Indices 1 2 3 4 5 6 
#
# 1 43.4221 -17.2246 6.9155 0.0000 0.0000 0.0000
# 2 -17.2246 69.0592 12.3282 0.0000 0.0000 0.0000
# 3 6.9155 12.3282 39.0472 0.0000 0.0000 0.0000
# 4 0.0000 0.0000 0.0000 11.9349 0.0000 0.0000
# 5 0.0000 0.0000 0.0000 0.0000 15.7308 0.0000
# 6 0.0000 0.0000 0.0000 0.0000 0.0000 40.0804
#
#
#
# Elastic Compliance Matrix: (Units=1/GPa)
#
#
# Indices 1 2 3 4 5 6 
#
# 1 0.027460 0.008178 -0.007445 0.000000 0.000000 0.000000
# 2 0.008178 0.017781 -0.007062 0.000000 0.000000 0.000000
# 3 -0.007445 -0.007062 0.029158 0.000000 0.000000 0.000000
# 4 0.000000 0.000000 0.000000 0.083788 0.000000 0.000000
# 5 0.000000 0.000000 0.000000 0.000000 0.063569 0.000000
# 6 0.000000 0.000000 0.000000 0.000000 0.000000 0.024950
#
#
# Mechanical properties :
#
#
# Convention : Reuss Voigt Hill
#
# Bulk Modulus (GPa) = 16.19702 17.28519 16.74111
# Shear Modulus (GPa) = 17.86065 23.51651 20.68858
#
# Velocity S-wave (km/s) = 2.89757 3.32485 3.11854
# Velocity P-wave (km/s) = 4.33687 4.78173 4.56472
#
# Compressibility (1/GPa) = 0.06173974
#
# Stress axis : x y z
#
# Youngs Moduli (GPa) = 36.41719 56.24036 34.29550
#
# Poissons Ratio (x) = -0.45994 0.25534
# Poissons Ratio (y) = -0.29782 0.24220
# Poissons Ratio (z) = 0.27114 0.39718
#
# Static dielectric constant tensor:
#      x y z
#    x 1.777250 0.000000 0.000000 
#    y 0.000000 1.784730 0.000000 
#    z 0.000000 0.000000 1.812010 
# 
# From -- ./inp_files/2810.got.cif
#   From: 2010.05.17/outbox.cif.g08.bks.cpg/sg33_2_cif.got.tgz:2810.got - 2010.06.03 17:15:25.
