data_PCOD9346700
_publ_section_title
;
Structure prediction by ZEFSAII (Michael W. Deem and Ramdas Pophale) SiO2 
 PCOD9346700
Probable space group: P N A 21
;
_chemical_formula_sum "Si O2"
_cell_formula_units_Z 28
_cell_length_a 17.096131
_cell_length_b 8.865750
_cell_length_c 8.314069
_cell_angle_alpha 90.000000
_cell_angle_beta 90.000000
_cell_angle_gamma 90.000000
_cell_volume 1260.163633
_symmetry_space_group_name_H-M "P N A 21"
_symmetry_group_IT_number 33
_symmetry_cell_setting 'orthorhombic'
loop_
_space_group_symop_operation_xyz
x,y,z
-x,-y,1/2+z
1/2-x,1/2+y,1/2+z
1/2+x,1/2-y,z
loop_
_atom_site_type_symbol
_atom_site_label
_atom_site_fract_x
_atom_site_fract_y
_atom_site_fract_z
Si Si1 0.860540 0.120971 0.536270
Si Si2 0.774504 0.561987 0.813467
Si Si3 0.003606 0.617796 0.607537
Si Si4 0.108227 0.582052 0.888671
Si Si5 0.627435 0.781782 0.376207
Si Si6 0.376808 0.671344 0.730038
Si Si7 0.215283 0.995402 0.491434
O O1 0.772320 0.107700 0.471546
O O2 0.896662 0.235472 0.406076
O O3 0.873679 0.213701 0.698813
O O4 0.882659 0.951201 0.586768
O O5 0.843648 0.452128 0.862606
O O6 0.807764 0.705935 0.719672
O O7 0.721134 0.475436 0.682046
O O8 0.070984 0.542809 0.716540
O O9 0.046321 0.714899 0.469995
O O10 0.945067 0.501253 0.521598
O O11 0.953539 0.727397 0.721719
O O12 0.198951 0.534083 0.916833
O O13 0.689912 0.677451 0.466744
O O14 0.351917 0.585194 0.893558
#
# Coordination Sequence:
#
# PCOD9346700 Si02
#       7
#     4   4   4   4   4   4   4
#     4  11  24  41  73 102 139 180 246 294 362 436
#     4  12  20  43  70 106 134 182 239 313 349 438
#     4  12  27  45  72  99 155 192 245 305 386 437
#     4  12  24  48  68 104 143 199 239 308 369 453
#     4  11  25  43  70 106 138 192 242 303 369 445
#     4  11  24  44  68 104 140 190 238 307 360 436
#     4  11  24  44  73 103 141 183 253 294 363 441
#
# _framework density 22.219336999999999
#
# number of rings (size 3 to 8) (size 9 to 14) (size 15 to 20)
#    0.000    0.571    4.286    3.429    4.000    2.286 
#    2.571    1.429    0.000    0.000    0.000    0.000 
#    0.000    0.000    0.000    0.000    0.000    0.000 
#
# Total GULP energy -156262.209971 kJ/mol
# GULP energy per Si atom -5580.793213 kJ/mol
# Density = 2.216877 g / cm^3
# Si number density = 22.219337 Si / 1000 Ang^3
#
#
#
# Elastic Constant Matrix: (Units=GPa)
#
#
# Indices 1 2 3 4 5 6 
#
# 1 60.4752 25.6310 28.3856 0.0000 0.0000 0.0000
# 2 25.6310 96.3869 0.8506 0.0000 0.0000 0.0000
# 3 28.3856 0.8506 53.3793 0.0000 0.0000 0.0000
# 4 0.0000 0.0000 0.0000 29.7326 0.0000 0.0000
# 5 0.0000 0.0000 0.0000 0.0000 46.4203 0.0000
# 6 0.0000 0.0000 0.0000 0.0000 0.0000 23.9166
#
#
#
# Elastic Compliance Matrix: (Units=1/GPa)
#
#
# Indices 1 2 3 4 5 6 
#
# 1 0.025772 -0.006733 -0.013597 0.000000 0.000000 0.000000
# 2 -0.006733 0.012135 0.003387 0.000000 0.000000 0.000000
# 3 -0.013597 0.003387 0.025911 0.000000 0.000000 0.000000
# 4 0.000000 0.000000 0.000000 0.033633 0.000000 0.000000
# 5 0.000000 0.000000 0.000000 0.000000 0.021542 0.000000
# 6 0.000000 0.000000 0.000000 0.000000 0.000000 0.041812
#
#
# Mechanical properties :
#
#
# Convention : Reuss Voigt Hill
#
# Bulk Modulus (GPa) = 33.41029 35.55288 34.48158
# Shear Modulus (GPa) = 24.42972 30.37217 27.40094
#
# Velocity S-wave (km/s) = 3.31944 3.70121 3.51551
# Velocity P-wave (km/s) = 5.45534 5.85669 5.65958
#
# Compressibility (1/GPa) = 0.02993090
#
# Stress axis : x y z
#
# Youngs Moduli (GPa) = 38.80236 82.40341 38.59428
#
# Poissons Ratio (x) = 0.55483 0.52478
# Poissons Ratio (y) = 0.26126 -0.13072
# Poissons Ratio (z) = 0.52761 -0.27911
#
# Static dielectric constant tensor:
#      x y z
#    x 1.809660 0.000000 0.000000 
#    y 0.000000 1.865330 0.000000 
#    z 0.000000 0.000000 1.867920 
# 
# From -- ./inp_files/4723.got.cif
#   From: 2010.05.17/outbox.cif.g08.bks.cpg/sg33_3_cif.got.tgz:4723.got - 2010.06.03 17:15:25.
