data_PCOD9346850
_publ_section_title
;
Structure prediction by ZEFSAII (Michael W. Deem and Ramdas Pophale) SiO2 
 PCOD9346850
Probable space group: P N A 21
;
_chemical_formula_sum "Si O2"
_cell_formula_units_Z 20
_cell_length_a 17.396690
_cell_length_b 8.761668
_cell_length_c 5.062662
_cell_angle_alpha 90.000000
_cell_angle_beta 90.000000
_cell_angle_gamma 90.000000
_cell_volume 771.671304
_symmetry_space_group_name_H-M "P N A 21"
_symmetry_group_IT_number 33
_symmetry_cell_setting 'orthorhombic'
loop_
_space_group_symop_operation_xyz
x,y,z
-x,-y,1/2+z
1/2-x,1/2+y,1/2+z
1/2+x,1/2-y,z
loop_
_atom_site_type_symbol
_atom_site_label
_atom_site_fract_x
_atom_site_fract_y
_atom_site_fract_z
Si Si1 0.984224 0.599070 0.233110
Si Si2 0.972246 0.164167 0.374755
Si Si3 0.243137 0.520623 0.235663
Si Si4 0.599876 0.344394 0.968307
Si Si5 0.814899 0.311378 0.204297
O O1 0.013737 0.495977 0.467500
O O2 0.906870 0.679651 0.332176
O O3 0.031495 0.750717 0.155965
O O4 0.901535 0.247816 0.231296
O O5 0.951972 0.987631 0.374923
O O6 0.058279 0.182955 0.253256
O O7 0.317890 0.590118 0.388366
O O8 0.183541 0.570243 0.461388
O O9 0.262761 0.343566 0.178516
O O10 0.218071 0.604669 0.966209
#
# Coordination Sequence:
#
# PCOD9346850 Si02
#       5
#     4   4   4   4   4
#     4  12  26  42  66 108 142 174 228 304 362 402
#     4  11  25  46  77 102 143 191 244 290 356 436
#     4  11  27  48  73 104 143 192 237 292 358 430
#     4  11  25  46  77 102 143 191 244 290 356 436
#     4  11  27  48  73 104 143 192 237 292 358 430
#
# _framework density 25.917774999999999
#
# number of rings (size 3 to 8) (size 9 to 14) (size 15 to 20)
#    0.000    0.800    4.000    1.200    5.600    4.800 
#    0.000    0.000    0.000    0.000    0.000    0.000 
#    0.000    0.000    0.000    0.000    0.000    0.000 
#
# Total GULP energy -111670.275866 kJ/mol
# GULP energy per Si atom -5583.513793 kJ/mol
# Density = 2.585878 g / cm^3
# Si number density = 25.917775 Si / 1000 Ang^3
#
#
#
# Elastic Constant Matrix: (Units=GPa)
#
#
# Indices 1 2 3 4 5 6 
#
# 1 46.2703 34.5023 22.6033 0.0000 0.0000 0.0000
# 2 34.5023 160.7993 59.7258 0.0000 0.0000 0.0000
# 3 22.6033 59.7258 129.7316 0.0000 0.0000 0.0000
# 4 0.0000 0.0000 0.0000 52.9690 0.0000 0.0000
# 5 0.0000 0.0000 0.0000 0.0000 24.4460 0.0000
# 6 0.0000 0.0000 0.0000 0.0000 0.0000 42.0295
#
#
#
# Elastic Compliance Matrix: (Units=1/GPa)
#
#
# Indices 1 2 3 4 5 6 
#
# 1 0.026332 -0.004760 -0.002397 0.000000 0.000000 0.000000
# 2 -0.004760 0.008362 -0.003020 0.000000 0.000000 0.000000
# 3 -0.002397 -0.003020 0.009516 0.000000 0.000000 0.000000
# 4 0.000000 0.000000 0.000000 0.018879 0.000000 0.000000
# 5 0.000000 0.000000 0.000000 0.000000 0.040907 0.000000
# 6 0.000000 0.000000 0.000000 0.000000 0.000000 0.023793
#
#
# Mechanical properties :
#
#
# Convention : Reuss Voigt Hill
#
# Bulk Modulus (GPa) = 41.91659 63.38489 52.65074
# Shear Modulus (GPa) = 32.03180 38.55355 35.29268
#
# Velocity S-wave (km/s) = 3.51935 3.86104 3.69415
# Velocity P-wave (km/s) = 5.72036 6.66229 6.20921
#
# Compressibility (1/GPa) = 0.02385690
#
# Stress axis : x y z
#
# Youngs Moduli (GPa) = 37.97640 119.58676 105.08265
#
# Poissons Ratio (x) = 0.56922 0.25183
# Poissons Ratio (y) = 0.18076 0.31740
# Poissons Ratio (z) = 0.09101 0.36120
#
# Static dielectric constant tensor:
#      x y z
#    x 2.115220 0.000000 0.000000 
#    y 0.000000 1.997240 0.000000 
#    z 0.000000 0.000000 2.151860 
# 
# From -- ./inp_files/1622.got.cif
#   From: 2010.05.17/outbox.cif.g08.bks.cpg/sg33_1_cif.got.tgz:1622.got - 2010.06.03 17:15:25.
