data_PCOD9346173
_publ_section_title
;
Structure prediction by ZEFSAII (Michael W. Deem and Ramdas Pophale) SiO2 
 PCOD9346173
Probable space group: P N A 21
;
_chemical_formula_sum "Si O2"
_cell_formula_units_Z 20
_cell_length_a 9.114139
_cell_length_b 7.194788
_cell_length_c 12.319283
_cell_angle_alpha 90.000000
_cell_angle_beta 90.000000
_cell_angle_gamma 90.000000
_cell_volume 807.828333
_symmetry_space_group_name_H-M "P N A 21"
_symmetry_group_IT_number 33
_symmetry_cell_setting 'orthorhombic'
loop_
_space_group_symop_operation_xyz
x,y,z
-x,-y,1/2+z
1/2-x,1/2+y,1/2+z
1/2+x,1/2-y,z
loop_
_atom_site_type_symbol
_atom_site_label
_atom_site_fract_x
_atom_site_fract_y
_atom_site_fract_z
Si Si1 0.805391 0.855634 0.074750
Si Si2 0.215482 0.607279 0.768236
Si Si3 0.915305 0.586834 0.684445
Si Si4 0.226732 0.188494 0.809082
Si Si5 0.604138 0.607632 0.953537
O O1 0.679872 0.014274 0.083063
O O2 0.712387 0.671928 0.049068
O O3 0.865359 0.846062 0.197610
O O4 0.938102 0.880028 0.993336
O O5 0.088177 0.591502 0.677786
O O6 0.252513 0.406097 0.815104
O O7 0.143459 0.741765 0.859776
O O8 0.853212 0.784342 0.720799
O O9 0.869970 0.436563 0.778897
O O10 0.145815 0.092830 0.908137
#
# Coordination Sequence:
#
# PCOD9346173 Si02
#       5
#     4   4   4   4   4
#     4  10  23  46  67 102 144 182 239 296 359 432
#     4  11  21  44  69  97 138 187 233 292 359 425
#     4   9  23  40  69  97 141 189 224 299 355 416
#     4   9  23  42  67  98 142 185 229 301 354 424
#     4  11  22  44  68 104 141 183 241 296 357 437
#
# _framework density 24.757735
#
# number of rings (size 3 to 8) (size 9 to 14) (size 15 to 20)
#    1.200    0.800    0.000    3.600    0.000    6.400 
#   10.800    0.000    0.000    0.000    0.000    0.000 
#    0.000    0.000    0.000    0.000    0.000    0.000 
#
# Total GULP energy -111862.937684 kJ/mol
# GULP energy per Si atom -5593.146884 kJ/mol
# Density = 2.470139 g / cm^3
# Si number density = 24.757735 Si / 1000 Ang^3
#
#
#
# Elastic Constant Matrix: (Units=GPa)
#
#
# Indices 1 2 3 4 5 6 
#
# 1 114.2233 48.2203 13.8607 0.0000 0.0000 0.0000
# 2 48.2203 196.9716 23.0259 0.0000 0.0000 0.0000
# 3 13.8607 23.0259 49.7263 0.0000 0.0000 0.0000
# 4 0.0000 0.0000 0.0000 27.5956 0.0000 0.0000
# 5 0.0000 0.0000 0.0000 0.0000 35.4126 0.0000
# 6 0.0000 0.0000 0.0000 0.0000 0.0000 24.3574
#
#
#
# Elastic Compliance Matrix: (Units=1/GPa)
#
#
# Indices 1 2 3 4 5 6 
#
# 1 0.009903 -0.002222 -0.001731 0.000000 0.000000 0.000000
# 2 -0.002222 0.005866 -0.002097 0.000000 0.000000 0.000000
# 3 -0.001731 -0.002097 0.021564 0.000000 0.000000 0.000000
# 4 0.000000 0.000000 0.000000 0.036238 0.000000 0.000000
# 5 0.000000 0.000000 0.000000 0.000000 0.028239 0.000000
# 6 0.000000 0.000000 0.000000 0.000000 0.000000 0.041055
#
#
# Mechanical properties :
#
#
# Convention : Reuss Voigt Hill
#
# Bulk Modulus (GPa) = 39.63228 59.01501 49.32364
# Shear Modulus (GPa) = 30.60440 35.86073 33.23257
#
# Velocity S-wave (km/s) = 3.51971 3.81000 3.66773
# Velocity P-wave (km/s) = 5.70619 6.57598 6.15647
#
# Compressibility (1/GPa) = 0.02523196
#
# Stress axis : x y z
#
# Youngs Moduli (GPa) = 100.98070 170.47557 46.37422
#
# Poissons Ratio (x) = 0.37878 0.08030
# Poissons Ratio (y) = 0.22437 0.09724
# Poissons Ratio (z) = 0.17485 0.35747
#
# Static dielectric constant tensor:
#      x y z
#    x 1.910340 0.000000 0.000000 
#    y 0.000000 1.956740 0.000000 
#    z 0.000000 0.000000 2.054940 
# 
# From -- ./inp_files/6231.got.cif
#   From: 2010.05.17/outbox.cif.g08.bks.cpg/sg33_4_cif.got.tgz:6231.got - 2010.06.03 17:15:25.
