data_PCOD9346892
_publ_section_title
;
Structure prediction by ZEFSAII (Michael W. Deem and Ramdas Pophale) SiO2 
 PCOD9346892
Probable space group: P N A 21
;
_chemical_formula_sum "Si O2"
_cell_formula_units_Z 28
_cell_length_a 11.873711
_cell_length_b 6.224235
_cell_length_c 16.081274
_cell_angle_alpha 90.000000
_cell_angle_beta 90.000000
_cell_angle_gamma 90.000000
_cell_volume 1188.482817
_symmetry_space_group_name_H-M "P N A 21"
_symmetry_group_IT_number 33
_symmetry_cell_setting 'orthorhombic'
loop_
_space_group_symop_operation_xyz
x,y,z
-x,-y,1/2+z
1/2-x,1/2+y,1/2+z
1/2+x,1/2-y,z
loop_
_atom_site_type_symbol
_atom_site_label
_atom_site_fract_x
_atom_site_fract_y
_atom_site_fract_z
Si Si1 0.000726 0.761318 0.292340
Si Si2 0.955029 0.976153 0.937792
Si Si3 0.471206 0.156888 0.047078
Si Si4 0.624508 0.855854 0.863708
Si Si5 0.645479 0.626154 0.700633
Si Si6 0.286213 0.825642 0.007930
Si Si7 0.645216 0.878312 0.135386
O O1 0.924511 0.593139 0.344992
O O2 0.082411 0.882215 0.358355
O O3 0.075248 0.664621 0.218522
O O4 0.918101 0.928504 0.245881
O O5 0.021865 0.152174 0.991619
O O6 0.016050 0.780371 0.892776
O O7 0.874488 0.872207 0.006467
O O8 0.433889 0.257287 0.134484
O O9 0.361023 0.041685 0.006331
O O10 0.562429 0.976033 0.066237
O O11 0.671636 0.788317 0.774583
O O12 0.713552 0.756638 0.929457
O O13 0.758337 0.546762 0.657754
O O14 0.210017 0.817975 0.090543
#
# Coordination Sequence:
#
# PCOD9346892 Si02
#       7
#     4   4   4   4   4   4   4
#     4  11  26  49  73 109 148 194 257 312 369 458
#     4  11  26  46  71 108 145 195 248 309 369 448
#     4  12  27  49  72 112 151 189 258 309 375 459
#     4  11  27  48  74 103 151 196 252 307 380 454
#     4  11  27  46  75 108 143 198 245 303 387 445
#     4  12  27  44  75 108 146 200 244 310 380 449
#     4  12  26  46  76 104 150 196 238 318 374 451
#
# _framework density 23.559450999999999
#
# number of rings (size 3 to 8) (size 9 to 14) (size 15 to 20)
#    0.000    0.571    2.857    3.429   10.000    1.143 
#    0.000    0.000    0.000    0.000    0.000    0.000 
#    0.000    0.000    0.000    0.000    0.000    0.000 
#
# Total GULP energy -156290.386917 kJ/mol
# GULP energy per Si atom -5581.799533 kJ/mol
# Density = 2.350583 g / cm^3
# Si number density = 23.559451 Si / 1000 Ang^3
#
#
#
# Elastic Constant Matrix: (Units=GPa)
#
#
# Indices 1 2 3 4 5 6 
#
# 1 42.9040 20.3096 9.0940 0.0000 0.0000 0.0000
# 2 20.3096 92.7012 31.4953 0.0000 0.0000 0.0000
# 3 9.0940 31.4953 98.4105 0.0000 0.0000 0.0000
# 4 0.0000 0.0000 0.0000 56.5262 0.0000 0.0000
# 5 0.0000 0.0000 0.0000 0.0000 38.6800 0.0000
# 6 0.0000 0.0000 0.0000 0.0000 0.0000 -15.8748
#
#
#
# Elastic Compliance Matrix: (Units=1/GPa)
#
#
# Indices 1 2 3 4 5 6 
#
# 1 0.026042 -0.005484 -0.000651 0.000000 0.000000 0.000000
# 2 -0.005484 0.013258 -0.003736 0.000000 0.000000 0.000000
# 3 -0.000651 -0.003736 0.011418 0.000000 0.000000 0.000000
# 4 0.000000 0.000000 0.000000 0.017691 0.000000 0.000000
# 5 0.000000 0.000000 0.000000 0.000000 0.025853 0.000000
# 6 0.000000 0.000000 0.000000 0.000000 0.000000 -0.062993
#
#
# Mechanical properties :
#
#
# Convention : Reuss Voigt Hill
#
# Bulk Modulus (GPa) = 32.28519 39.53482 35.91000
# Shear Modulus (GPa) = 81.51623 27.40738 54.46180
#
# Velocity S-wave (km/s) = 5.88858 3.41446 4.81320
# Velocity P-wave (km/s) = 7.74385 5.68876 6.79446
#
# Compressibility (1/GPa) = 0.03097396
#
# Stress axis : x y z
#
# Youngs Moduli (GPa) = 38.39953 75.42442 87.58477
#
# Poissons Ratio (x) = 0.41364 0.05705
# Poissons Ratio (y) = 0.21059 0.32725
# Poissons Ratio (z) = 0.02501 0.28182
#
# Static dielectric constant tensor:
#      x y z
#    x 1.980940 0.000000 0.000000 
#    y 0.000000 1.896590 0.000000 
#    z 0.000000 0.000000 1.895070 
# 
# From -- ./inp_files/8650.got.cif
#   From: 2010.05.17/outbox.cif.g08.bks.cpg/sg33_5_cif.got.tgz:8650.got - 2010.06.03 17:15:25.
