data_PCOD9346267
_publ_section_title
;
Structure prediction by ZEFSAII (Michael W. Deem and Ramdas Pophale) SiO2 
 PCOD9346267
Probable space group: P N A 21
;
_chemical_formula_sum "Si O2"
_cell_formula_units_Z 28
_cell_length_a 9.330704
_cell_length_b 15.045327
_cell_length_c 8.911564
_cell_angle_alpha 90.000000
_cell_angle_beta 90.000000
_cell_angle_gamma 90.000000
_cell_volume 1251.036481
_symmetry_space_group_name_H-M "P N A 21"
_symmetry_group_IT_number 33
_symmetry_cell_setting 'orthorhombic'
loop_
_space_group_symop_operation_xyz
x,y,z
-x,-y,1/2+z
1/2-x,1/2+y,1/2+z
1/2+x,1/2-y,z
loop_
_atom_site_type_symbol
_atom_site_label
_atom_site_fract_x
_atom_site_fract_y
_atom_site_fract_z
Si Si1 0.232478 0.352589 0.481040
Si Si2 0.417239 0.380144 0.741458
Si Si3 0.189806 0.540682 0.762544
Si Si4 0.641572 0.674573 0.560287
Si Si5 0.859704 0.779144 0.718473
Si Si6 0.528656 0.951489 0.078968
Si Si7 0.199370 0.001460 0.739122
O O1 0.363947 0.330356 0.591281
O O2 0.185094 0.280461 0.359677
O O3 0.278986 0.442365 0.389466
O O4 0.086970 0.373038 0.572057
O O5 0.295365 0.456531 0.758078
O O6 0.567422 0.431389 0.735565
O O7 0.414566 0.323274 0.892153
O O8 0.290033 0.625243 0.742634
O O9 0.070472 0.534043 0.631724
O O10 0.102076 0.541828 0.917313
O O11 0.784392 0.730909 0.578860
O O12 0.525841 0.711189 0.679807
O O13 0.672123 0.573314 0.611262
O O14 0.655526 0.947114 0.198901
#
# Coordination Sequence:
#
# PCOD9346267 Si02
#       7
#     4   4   4   4   4   4   4
#     4  10  24  43  65 101 141 177 230 283 352 420
#     4  11  23  42  70 102 129 173 241 291 320 407
#     4  11  23  41  70  99 133 180 230 283 339 406
#     4  11  24  42  69  98 134 177 229 277 351 419
#     4  11  25  45  68  97 144 188 214 280 371 423
#     4  11  22  39  67 101 129 176 233 285 329 411
#     4  11  21  40  69 100 130 175 227 289 340 408
#
# _framework density 22.381440999999999
#
# number of rings (size 3 to 8) (size 9 to 14) (size 15 to 20)
#    0.000    1.143    4.286    1.714    4.000    0.000 
#    0.000   10.000    0.000    0.000    0.000    0.000 
#    0.000    0.000    0.000    0.000    0.000    0.000 
#
# Total GULP energy -156546.766358 kJ/mol
# GULP energy per Si atom -5590.955941 kJ/mol
# Density = 2.233050 g / cm^3
# Si number density = 22.381441 Si / 1000 Ang^3
#
#
#
# Elastic Constant Matrix: (Units=GPa)
#
#
# Indices 1 2 3 4 5 6 
#
# 1 106.3969 9.2765 4.8052 0.0000 0.0000 0.0000
# 2 9.2765 29.4482 4.2991 0.0000 0.0000 0.0000
# 3 4.8052 4.2991 83.3238 0.0000 0.0000 0.0000
# 4 0.0000 0.0000 0.0000 5.4663 0.0000 0.0000
# 5 0.0000 0.0000 0.0000 0.0000 34.2186 0.0000
# 6 0.0000 0.0000 0.0000 0.0000 0.0000 28.0822
#
#
#
# Elastic Compliance Matrix: (Units=1/GPa)
#
#
# Indices 1 2 3 4 5 6 
#
# 1 0.009678 -0.002990 -0.000404 0.000000 0.000000 0.000000
# 2 -0.002990 0.035139 -0.001641 0.000000 0.000000 0.000000
# 3 -0.000404 -0.001641 0.012109 0.000000 0.000000 0.000000
# 4 0.000000 0.000000 0.000000 0.182941 0.000000 0.000000
# 5 0.000000 0.000000 0.000000 0.000000 0.029224 0.000000
# 6 0.000000 0.000000 0.000000 0.000000 0.000000 0.035610
#
#
# Mechanical properties :
#
#
# Convention : Reuss Voigt Hill
#
# Bulk Modulus (GPa) = 21.34106 28.43671 24.88889
# Shear Modulus (GPa) = 15.13373 26.93928 21.03650
#
# Velocity S-wave (km/s) = 2.60315 3.47312 3.06912
# Velocity P-wave (km/s) = 4.31174 5.36810 4.86865
#
# Compressibility (1/GPa) = 0.04685802
#
# Stress axis : x y z
#
# Youngs Moduli (GPa) = 103.33065 28.45828 82.58107
#
# Poissons Ratio (x) = 0.08508 0.03335
# Poissons Ratio (y) = 0.30892 0.13548
# Poissons Ratio (z) = 0.04173 0.04669
#
# Static dielectric constant tensor:
#      x y z
#    x 1.782790 0.000000 0.000000 
#    y 0.000000 1.827960 0.000000 
#    z 0.000000 0.000000 1.881600 
# 
# From -- ./inp_files/3308.got.cif
#   From: 2010.05.17/outbox.cif.g08.bks.cpg/sg33_2_cif.got.tgz:3308.got - 2010.06.03 17:15:25.
