data_PCOD9346024
_publ_section_title
;
Structure prediction by ZEFSAII (Michael W. Deem and Ramdas Pophale) SiO2 
 PCOD9346024
Probable space group: P N A 21
;
_chemical_formula_sum "Si O2"
_cell_formula_units_Z 32
_cell_length_a 22.292044
_cell_length_b 8.287157
_cell_length_c 8.983411
_cell_angle_alpha 90.000000
_cell_angle_beta 90.000000
_cell_angle_gamma 90.000000
_cell_volume 1659.574403
_symmetry_space_group_name_H-M "P N A 21"
_symmetry_group_IT_number 33
_symmetry_cell_setting 'orthorhombic'
loop_
_space_group_symop_operation_xyz
x,y,z
-x,-y,1/2+z
1/2-x,1/2+y,1/2+z
1/2+x,1/2-y,z
loop_
_atom_site_type_symbol
_atom_site_label
_atom_site_fract_x
_atom_site_fract_y
_atom_site_fract_z
Si Si1 0.353850 0.953441 0.942750
Si Si2 0.849168 0.753299 0.658165
Si Si3 0.254833 0.000006 0.188573
Si Si4 0.150831 0.753307 0.218980
Si Si5 0.017435 0.837799 0.267387
Si Si6 0.044020 0.500006 0.688570
Si Si7 0.353851 0.046568 0.434394
Si Si8 0.517439 0.337807 0.109751
O O1 0.355274 0.804338 0.829408
O O2 0.346409 0.104683 0.832908
O O3 0.412977 0.977783 0.044312
O O4 0.298194 0.944970 0.055397
O O5 0.789790 0.858203 0.640255
O O6 0.846414 0.604676 0.544235
O O7 0.910902 0.840808 0.620196
O O8 0.210206 0.858223 0.236888
O O9 0.298193 0.055036 0.321753
O O10 0.089094 0.840799 0.256955
O O11 0.144725 0.695671 0.047737
O O12 0.994335 0.664740 0.204194
O O13 0.999996 0.842027 0.438567
O O14 0.993037 0.999995 0.188564
O O15 0.087023 0.522232 0.832828
O O16 0.005664 0.664750 0.672945
#
# Coordination Sequence:
#
# PCOD9346024 Si02
#       8
#     4   4   4   4   4   4   4   4
#     4  10  23  41  66  93 128 178 221 270 337 399
#     4  11  22  41  64  93 131 171 220 276 333 396
#     4  11  22  40  64  96 130 167 224 276 336 397
#     4  11  22  41  64  93 131 171 220 276 333 396
#     4  12  27  43  68 102 137 178 226 276 341 407
#     4  11  24  44  68  96 138 177 226 276 334 405
#     4  10  23  41  66  93 128 178 221 270 337 399
#     4  12  27  43  68 102 137 178 226 276 341 407
#
# _framework density 19.282050999999999
#
# number of rings (size 3 to 8) (size 9 to 14) (size 15 to 20)
#    0.000    1.000    3.750    3.000    3.500    0.000 
#    0.000    0.000    0.000    0.000    0.000    0.000 
#    0.000    0.000    0.000    0.000    0.000    0.000 
#
# Total GULP energy -178768.337331 kJ/mol
# GULP energy per Si atom -5586.510542 kJ/mol
# Density = 1.923816 g / cm^3
# Si number density = 19.282051 Si / 1000 Ang^3
#
#
#
# Elastic Constant Matrix: (Units=GPa)
#
#
# Indices 1 2 3 4 5 6 
#
# 1 105.8516 23.7220 35.8779 0.0000 0.0000 0.0000
# 2 23.7220 88.7205 21.6172 0.0000 0.0000 0.0000
# 3 35.8779 21.6172 111.9634 0.0000 0.0000 0.0000
# 4 0.0000 0.0000 0.0000 15.4801 0.0000 0.0000
# 5 0.0000 0.0000 0.0000 0.0000 14.2998 0.0000
# 6 0.0000 0.0000 0.0000 0.0000 0.0000 -0.9809
#
#
#
# Elastic Compliance Matrix: (Units=1/GPa)
#
#
# Indices 1 2 3 4 5 6 
#
# 1 0.010987 -0.002182 -0.003099 0.000000 0.000000 0.000000
# 2 -0.002182 0.012261 -0.001668 0.000000 0.000000 0.000000
# 3 -0.003099 -0.001668 0.010247 0.000000 0.000000 0.000000
# 4 0.000000 0.000000 0.000000 0.064599 0.000000 0.000000
# 5 0.000000 0.000000 0.000000 0.000000 0.069931 0.000000
# 6 0.000000 0.000000 0.000000 0.000000 0.000000 -1.019451
#
#
# Mechanical properties :
#
#
# Convention : Reuss Voigt Hill
#
# Bulk Modulus (GPa) = 51.03258 52.10774 51.57016
# Shear Modulus (GPa) = -6.01689 20.78101 7.38206
#
# Velocity S-wave (km/s) = -1.76840 3.28645 1.95877
# Velocity P-wave (km/s) = 4.72802 6.44078 5.64968
#
# Compressibility (1/GPa) = 0.01959532
#
# Stress axis : x y z
#
# Youngs Moduli (GPa) = 91.01853 81.55728 97.59268
#
# Poissons Ratio (x) = 0.17800 0.30246
# Poissons Ratio (y) = 0.19865 0.16278
# Poissons Ratio (z) = 0.28209 0.13604
#
# Static dielectric constant tensor:
#      x y z
#    x 1.642330 0.000000 0.000000 
#    y 0.000000 1.696030 0.000000 
#    z 0.000000 0.000000 1.643700 
# 
# From -- ./inp_files/4976.got.cif
#   From: 2010.05.17/outbox.cif.g08.bks.cpg/sg33_3_cif.got.tgz:4976.got - 2010.06.03 17:15:25.
