data_PCOD9346873
_publ_section_title
;
Structure prediction by ZEFSAII (Michael W. Deem and Ramdas Pophale) SiO2 
 PCOD9346873
Probable space group: P N A 21
;
_chemical_formula_sum "Si O2"
_cell_formula_units_Z 28
_cell_length_a 9.759008
_cell_length_b 11.119954
_cell_length_c 10.376733
_cell_angle_alpha 90.000000
_cell_angle_beta 90.000000
_cell_angle_gamma 90.000000
_cell_volume 1126.080160
_symmetry_space_group_name_H-M "P N A 21"
_symmetry_group_IT_number 33
_symmetry_cell_setting 'orthorhombic'
loop_
_space_group_symop_operation_xyz
x,y,z
-x,-y,1/2+z
1/2-x,1/2+y,1/2+z
1/2+x,1/2-y,z
loop_
_atom_site_type_symbol
_atom_site_label
_atom_site_fract_x
_atom_site_fract_y
_atom_site_fract_z
Si Si1 0.631139 0.377593 0.274630
Si Si2 0.023872 0.716235 0.340271
Si Si3 0.624935 0.011120 0.923361
Si Si4 0.765966 0.236502 0.066765
Si Si5 0.281349 0.696262 0.195610
Si Si6 0.338201 0.447243 0.273180
Si Si7 0.381299 0.846797 0.954656
O O1 0.755589 0.439678 0.351746
O O2 0.676461 0.344541 0.128459
O O3 0.499915 0.462736 0.292166
O O4 0.591740 0.251725 0.343414
O O5 0.111416 0.726874 0.471095
O O6 0.135664 0.748545 0.233839
O O7 0.973257 0.579762 0.321142
O O8 0.886650 0.790975 0.315844
O O9 0.518368 0.919875 0.987367
O O10 0.679653 0.126365 0.003517
O O11 0.831413 0.175951 0.192902
O O12 0.279050 0.553318 0.183288
O O13 0.335715 0.769226 0.076178
O O14 0.242288 0.429108 0.398041
#
# Coordination Sequence:
#
# PCOD9346873 Si02
#       7
#     4   4   4   4   4   4   4
#     4  11  26  48  78 112 149 205 261 323 386 468
#     4  12  27  50  70 109 149 197 253 319 378 468
#     4  12  25  50  79 108 153 207 256 310 405 448
#     4  11  25  50  77 109 150 200 264 323 382 472
#     4  12  28  47  73 109 153 192 259 314 383 468
#     4  11  25  48  77 106 150 198 255 324 391 447
#     4  11  26  47  76 109 152 199 258 321 381 463
#
# _framework density 24.865013999999999
#
# number of rings (size 3 to 8) (size 9 to 14) (size 15 to 20)
#    0.000    0.571    2.857    4.286    6.000    2.286 
#    0.000    0.000    0.000    0.000    0.000    0.000 
#    0.000    0.000    0.000    0.000    0.000    0.000 
#
# Total GULP energy -156632.307532 kJ/mol
# GULP energy per Si atom -5594.010983 kJ/mol
# Density = 2.480842 g / cm^3
# Si number density = 24.865014 Si / 1000 Ang^3
#
#
#
# Elastic Constant Matrix: (Units=GPa)
#
#
# Indices 1 2 3 4 5 6 
#
# 1 162.9368 42.7900 44.3347 0.0000 0.0000 0.0000
# 2 42.7900 92.5564 27.3435 0.0000 0.0000 0.0000
# 3 44.3347 27.3435 90.8295 0.0000 0.0000 0.0000
# 4 0.0000 0.0000 0.0000 46.1724 0.0000 0.0000
# 5 0.0000 0.0000 0.0000 0.0000 36.4151 0.0000
# 6 0.0000 0.0000 0.0000 0.0000 0.0000 49.7455
#
#
#
# Elastic Compliance Matrix: (Units=1/GPa)
#
#
# Indices 1 2 3 4 5 6 
#
# 1 0.007633 -0.002665 -0.002923 0.000000 0.000000 0.000000
# 2 -0.002665 0.012789 -0.002549 0.000000 0.000000 0.000000
# 3 -0.002923 -0.002549 0.013204 0.000000 0.000000 0.000000
# 4 0.000000 0.000000 0.000000 0.021658 0.000000 0.000000
# 5 0.000000 0.000000 0.000000 0.000000 0.027461 0.000000
# 6 0.000000 0.000000 0.000000 0.000000 0.000000 0.020102
#
#
# Mechanical properties :
#
#
# Convention : Reuss Voigt Hill
#
# Bulk Modulus (GPa) = 57.63437 63.91768 60.77602
# Shear Modulus (GPa) = 40.02998 41.92356 40.97677
#
# Velocity S-wave (km/s) = 4.01670 4.11060 4.06392
# Velocity P-wave (km/s) = 6.68887 6.94918 6.82027
#
# Compressibility (1/GPa) = 0.01735076
#
# Stress axis : x y z
#
# Youngs Moduli (GPa) = 131.01600 78.18945 75.73479
#
# Poissons Ratio (x) = 0.20838 0.22139
# Poissons Ratio (y) = 0.34917 0.19307
# Poissons Ratio (z) = 0.38300 0.19933
#
# Static dielectric constant tensor:
#      x y z
#    x 1.991010 0.000000 0.000000 
#    y 0.000000 2.030390 0.000000 
#    z 0.000000 0.000000 2.029660 
# 
# From -- ./inp_files/5860.got.cif
#   From: 2010.05.17/outbox.cif.g08.bks.cpg/sg33_3_cif.got.tgz:5860.got - 2010.06.03 17:15:25.
