data_PCOD9346790
_publ_section_title
;
Structure prediction by ZEFSAII (Michael W. Deem and Ramdas Pophale) SiO2 
 PCOD9346790
Probable space group: P N A 21
;
_chemical_formula_sum "Si O2"
_cell_formula_units_Z 24
_cell_length_a 11.412092
_cell_length_b 9.703765
_cell_length_c 9.235876
_cell_angle_alpha 90.000000
_cell_angle_beta 90.000000
_cell_angle_gamma 90.000000
_cell_volume 1022.783300
_symmetry_space_group_name_H-M "P N A 21"
_symmetry_group_IT_number 33
_symmetry_cell_setting 'orthorhombic'
loop_
_space_group_symop_operation_xyz
x,y,z
-x,-y,1/2+z
1/2-x,1/2+y,1/2+z
1/2+x,1/2-y,z
loop_
_atom_site_type_symbol
_atom_site_label
_atom_site_fract_x
_atom_site_fract_y
_atom_site_fract_z
Si Si1 0.573862 0.811616 0.966100
Si Si2 0.678625 0.308064 0.993026
Si Si3 0.989929 0.187273 0.773386
Si Si4 0.010283 0.902342 0.721303
Si Si5 0.248710 0.988259 0.590222
Si Si6 0.379443 0.038012 0.891339
O O1 0.565957 0.708107 0.830780
O O2 0.479120 0.933883 0.942634
O O3 0.535367 0.728912 0.108868
O O4 0.699123 0.884341 0.997618
O O5 0.622314 0.311630 0.833461
O O6 0.773850 0.430402 0.001689
O O7 0.578981 0.333740 0.111260
O O8 0.726275 0.156367 0.014493
O O9 0.930994 0.310156 0.863358
O O10 0.947621 0.031244 0.800212
O O11 0.113611 0.977957 0.633480
O O12 0.324668 0.988919 0.739443
#
# Coordination Sequence:
#
# PCOD9346790 Si02
#       6
#     4   4   4   4   4   4
#     4  11  26  49  78 108 154 201 259 319 386 467
#     4  12  24  46  76 106 154 194 251 315 383 464
#     4  11  25  45  73 107 148 193 251 318 380 452
#     4  12  26  50  76 114 149 202 256 321 393 459
#     4  11  25  46  76 111 150 198 258 313 386 461
#     4  11  24  48  73 110 151 202 255 314 384 459
#
# _framework density 23.46538
#
# number of rings (size 3 to 8) (size 9 to 14) (size 15 to 20)
#    0.000    0.667    5.000    2.000    0.000    2.667 
#    6.000    0.000    0.000    0.000    0.000    0.000 
#    0.000    0.000    0.000    0.000    0.000    0.000 
#
# Total GULP energy -134294.834952 kJ/mol
# GULP energy per Si atom -5595.618123 kJ/mol
# Density = 2.341197 g / cm^3
# Si number density = 23.465380 Si / 1000 Ang^3
#
#
#
# Elastic Constant Matrix: (Units=GPa)
#
#
# Indices 1 2 3 4 5 6 
#
# 1 75.5431 41.4750 31.1780 0.0000 0.0000 0.0000
# 2 41.4750 146.3728 55.1873 0.0000 0.0000 0.0000
# 3 31.1780 55.1873 88.8673 0.0000 0.0000 0.0000
# 4 0.0000 0.0000 0.0000 47.3927 0.0000 0.0000
# 5 0.0000 0.0000 0.0000 0.0000 29.4924 0.0000
# 6 0.0000 0.0000 0.0000 0.0000 0.0000 29.5091
#
#
#
# Elastic Compliance Matrix: (Units=1/GPa)
#
#
# Indices 1 2 3 4 5 6 
#
# 1 0.016600 -0.003274 -0.003790 0.000000 0.000000 0.000000
# 2 -0.003274 0.009566 -0.004792 0.000000 0.000000 0.000000
# 3 -0.003790 -0.004792 0.015558 0.000000 0.000000 0.000000
# 4 0.000000 0.000000 0.000000 0.021100 0.000000 0.000000
# 5 0.000000 0.000000 0.000000 0.000000 0.033907 0.000000
# 6 0.000000 0.000000 0.000000 0.000000 0.000000 0.033888
#
#
# Mechanical properties :
#
#
# Convention : Reuss Voigt Hill
#
# Bulk Modulus (GPa) = 55.52208 62.94041 59.23125
# Shear Modulus (GPa) = 31.18436 33.47503 32.32969
#
# Velocity S-wave (km/s) = 3.64943 3.78109 3.71585
# Velocity P-wave (km/s) = 6.43976 6.77814 6.61111
#
# Compressibility (1/GPa) = 0.01801085
#
# Stress axis : x y z
#
# Youngs Moduli (GPa) = 60.24256 104.53194 64.27387
#
# Poissons Ratio (x) = 0.34228 0.24362
# Poissons Ratio (y) = 0.19726 0.30800
# Poissons Ratio (z) = 0.22834 0.50092
#
# Static dielectric constant tensor:
#      x y z
#    x 1.950240 0.000000 0.000000 
#    y 0.000000 1.883290 0.000000 
#    z 0.000000 0.000000 1.922070 
# 
# From -- ./inp_files/3722.got.cif
#   From: 2010.05.17/outbox.cif.g08.bks.cpg/sg33_2_cif.got.tgz:3722.got - 2010.06.03 17:15:25.
