data_PCOD9346303
_publ_section_title
;
Structure prediction by ZEFSAII (Michael W. Deem and Ramdas Pophale) SiO2 
 PCOD9346303
Probable space group: P N A 21
;
_chemical_formula_sum "Si O2"
_cell_formula_units_Z 24
_cell_length_a 17.616341
_cell_length_b 6.060063
_cell_length_c 8.929894
_cell_angle_alpha 90.000000
_cell_angle_beta 90.000000
_cell_angle_gamma 90.000000
_cell_volume 953.320981
_symmetry_space_group_name_H-M "P N A 21"
_symmetry_group_IT_number 33
_symmetry_cell_setting 'orthorhombic'
loop_
_space_group_symop_operation_xyz
x,y,z
-x,-y,1/2+z
1/2-x,1/2+y,1/2+z
1/2+x,1/2-y,z
loop_
_atom_site_type_symbol
_atom_site_label
_atom_site_fract_x
_atom_site_fract_y
_atom_site_fract_z
Si Si1 0.038757 0.713570 0.377420
Si Si2 0.235998 0.663620 0.809658
Si Si3 0.025906 0.049657 0.615182
Si Si4 0.080015 0.636318 0.922762
Si Si5 0.198825 0.200237 0.647977
Si Si6 0.159415 0.444951 0.214142
O O1 0.115431 0.581600 0.339984
O O2 0.021938 0.915550 0.265935
O O3 0.972658 0.540087 0.341871
O O4 0.033131 0.806835 0.544364
O O5 0.215407 0.416427 0.746032
O O6 0.320297 0.690814 0.728415
O O7 0.146674 0.740035 0.825603
O O8 0.266055 0.706352 0.980612
O O9 0.110587 0.145310 0.632479
O O10 0.976376 0.193227 0.499920
O O11 0.121010 0.508240 0.060006
O O12 0.250522 0.006732 0.722443
#
# Coordination Sequence:
#
# PCOD9346303 Si02
#       6
#     4   4   4   4   4   4
#     4  11  24  46  71 109 147 193 251 309 379 458
#     4  11  24  44  72 102 148 191 251 312 377 452
#     4  11  25  43  72 104 148 196 247 306 383 453
#     4  10  24  44  70 104 144 192 250 308 374 456
#     4  11  24  44  69 106 141 193 249 304 383 454
#     4  10  25  43  70 103 142 189 244 309 372 447
#
# _framework density 25.175153000000002
#
# number of rings (size 3 to 8) (size 9 to 14) (size 15 to 20)
#    0.000    1.333    1.667    2.000    2.333   13.333 
#    0.000    0.000    0.000    0.000    0.000    0.000 
#    0.000    0.000    0.000    0.000    0.000    0.000 
#
# Total GULP energy -133852.430131 kJ/mol
# GULP energy per Si atom -5577.184589 kJ/mol
# Density = 2.511785 g / cm^3
# Si number density = 25.175153 Si / 1000 Ang^3
#
#
#
# Elastic Constant Matrix: (Units=GPa)
#
#
# Indices 1 2 3 4 5 6 
#
# 1 203.1605 48.0234 31.9757 0.0000 0.0000 0.0000
# 2 48.0234 -134.6615 80.7981 0.0000 0.0000 0.0000
# 3 31.9757 80.7981 45.3803 0.0000 0.0000 0.0000
# 4 0.0000 0.0000 0.0000 46.0285 0.0000 0.0000
# 5 0.0000 0.0000 0.0000 0.0000 38.1807 0.0000
# 6 0.0000 0.0000 0.0000 0.0000 0.0000 52.8880
#
#
#
# Elastic Compliance Matrix: (Units=1/GPa)
#
#
# Indices 1 2 3 4 5 6 
#
# 1 0.005527 -0.000177 -0.003580 0.000000 0.000000 0.000000
# 2 -0.000177 -0.003585 0.006507 0.000000 0.000000 0.000000
# 3 -0.003580 0.006507 0.012973 0.000000 0.000000 0.000000
# 4 0.000000 0.000000 0.000000 0.021726 0.000000 0.000000
# 5 0.000000 0.000000 0.000000 0.000000 0.026191 0.000000
# 6 0.000000 0.000000 0.000000 0.000000 0.000000 0.018908
#
#
# Mechanical properties :
#
#
# Convention : Reuss Voigt Hill
#
# Bulk Modulus (GPa) = 48.98065 48.38597 48.68331
# Shear Modulus (GPa) = 60.20830 24.29159 42.24994
#
# Velocity S-wave (km/s) = 4.89568 3.10966 4.10108
# Velocity P-wave (km/s) = 7.17322 5.67052 6.46567
#
# Compressibility (1/GPa) = 0.02041623
#
# Stress axis : x y z
#
# Youngs Moduli (GPa) = 180.91484 -278.95922 77.08422
#
# Poissons Ratio (x) = -0.04932 0.27596
# Poissons Ratio (y) = 0.03198 -0.50160
# Poissons Ratio (z) = 0.64767 1.81522
#
# Static dielectric constant tensor:
#      x y z
#    x 1.958700 0.000000 0.000000 
#    y 0.000000 2.209450 0.000000 
#    z 0.000000 0.000000 2.225260 
# 
# From -- ./inp_files/4622.got.cif
#   From: 2010.05.17/outbox.cif.g08.bks.cpg/sg33_3_cif.got.tgz:4622.got - 2010.06.03 17:15:25.
