data_PCOD9346287
_publ_section_title
;
Structure prediction by ZEFSAII (Michael W. Deem and Ramdas Pophale) SiO2 
 PCOD9346287
Probable space group: P N A 21
;
_chemical_formula_sum "Si O2"
_cell_formula_units_Z 32
_cell_length_a 18.161495
_cell_length_b 5.151355
_cell_length_c 14.063569
_cell_angle_alpha 90.000000
_cell_angle_beta 90.000000
_cell_angle_gamma 90.000000
_cell_volume 1315.735594
_symmetry_space_group_name_H-M "P N A 21"
_symmetry_group_IT_number 33
_symmetry_cell_setting 'orthorhombic'
loop_
_space_group_symop_operation_xyz
x,y,z
-x,-y,1/2+z
1/2-x,1/2+y,1/2+z
1/2+x,1/2-y,z
loop_
_atom_site_type_symbol
_atom_site_label
_atom_site_fract_x
_atom_site_fract_y
_atom_site_fract_z
Si Si1 0.424411 0.123014 0.311740
Si Si2 0.907061 0.039104 0.081190
Si Si3 0.477327 0.501407 0.733110
Si Si4 0.018477 0.245825 0.934502
Si Si5 0.281066 0.302926 0.393878
Si Si6 0.820086 0.718476 0.509390
Si Si7 0.188592 0.133942 0.217209
Si Si8 0.834642 0.570078 0.155848
O O1 0.490320 0.207183 0.243432
O O2 0.358553 0.322670 0.335138
O O3 0.378675 0.902116 0.255958
O O4 0.465970 0.046049 0.408190
O O5 0.860530 0.280545 0.124442
O O6 0.975936 0.920345 0.141955
O O7 0.854296 0.790140 0.080069
O O8 0.947626 0.164178 0.992433
O O9 0.504092 0.374966 0.830927
O O10 0.390634 0.504134 0.727305
O O11 0.095452 0.191289 0.987787
O O12 0.272484 0.548015 0.463001
O O13 0.217680 0.264208 0.314686
O O14 0.296249 0.041772 0.454730
O O15 0.814249 0.688423 0.622610
O O16 0.250633 0.928024 0.187095
#
# Coordination Sequence:
#
# PCOD9346287 Si02
#       8
#     4   4   4   4   4   4   4   4
#     4   9  20  40  67  93 135 184 225 286 358 413
#     4  11  24  44  71  98 134 189 228 285 350 439
#     4  11  22  44  68 106 135 179 244 297 345 424
#     4  11  22  41  72 103 136 181 240 295 353 416
#     4  10  24  45  72 100 147 195 233 295 371 433
#     4  11  24  46  72 104 146 193 241 296 371 433
#     4  11  26  46  73 109 144 194 244 305 363 441
#     4  10  24  44  65  95 141 181 227 281 363 417
#
# _framework density 24.320997999999999
#
# number of rings (size 3 to 8) (size 9 to 14) (size 15 to 20)
#    0.000    1.500    3.750    0.000    1.750    4.000 
#    6.750    0.000    0.000    0.000    0.000    0.000 
#    0.000    0.000    0.000    0.000    0.000    0.000 
#
# Total GULP energy -178531.622274 kJ/mol
# GULP energy per Si atom -5579.113196 kJ/mol
# Density = 2.426564 g / cm^3
# Si number density = 24.320998 Si / 1000 Ang^3
#
#
#
# Elastic Constant Matrix: (Units=GPa)
#
#
# Indices 1 2 3 4 5 6 
#
# 1 161.9721 20.8977 15.8320 0.0000 0.0000 0.0000
# 2 20.8977 81.2028 1.4167 0.0000 0.0000 0.0000
# 3 15.8320 1.4167 68.6453 0.0000 0.0000 0.0000
# 4 0.0000 0.0000 0.0000 20.1986 0.0000 0.0000
# 5 0.0000 0.0000 0.0000 0.0000 44.1816 0.0000
# 6 0.0000 0.0000 0.0000 0.0000 0.0000 16.1419
#
#
#
# Elastic Compliance Matrix: (Units=1/GPa)
#
#
# Indices 1 2 3 4 5 6 
#
# 1 0.006531 -0.001655 -0.001472 0.000000 0.000000 0.000000
# 2 -0.001655 0.012739 0.000119 0.000000 0.000000 0.000000
# 3 -0.001472 0.000119 0.014905 0.000000 0.000000 0.000000
# 4 0.000000 0.000000 0.000000 0.049508 0.000000 0.000000
# 5 0.000000 0.000000 0.000000 0.000000 0.022634 0.000000
# 6 0.000000 0.000000 0.000000 0.000000 0.000000 0.061950
#
#
# Mechanical properties :
#
#
# Convention : Reuss Voigt Hill
#
# Bulk Modulus (GPa) = 35.51419 43.12366 39.31892
# Shear Modulus (GPa) = 27.22265 34.34933 30.78599
#
# Velocity S-wave (km/s) = 3.34923 3.76218 3.56170
# Velocity P-wave (km/s) = 5.43971 6.05322 5.75465
#
# Compressibility (1/GPa) = 0.02815776
#
# Stress axis : x y z
#
# Youngs Moduli (GPa) = 153.10758 78.50069 67.09277
#
# Poissons Ratio (x) = 0.12993 0.09877
# Poissons Ratio (y) = 0.25342 -0.00797
# Poissons Ratio (z) = 0.22540 -0.00933
#
# Static dielectric constant tensor:
#      x y z
#    x 1.930180 0.000000 0.000000 
#    y 0.000000 2.152180 0.000000 
#    z 0.000000 0.000000 2.040370 
# 
# From -- ./inp_files/8252.got.cif
#   From: 2010.05.17/outbox.cif.g08.bks.cpg/sg33_5_cif.got.tgz:8252.got - 2010.06.03 17:15:25.
