data_PCOD9346195
_publ_section_title
;
Structure prediction by ZEFSAII (Michael W. Deem and Ramdas Pophale) SiO2 
 PCOD9346195
Probable space group: P N A 21
;
_chemical_formula_sum "Si O2"
_cell_formula_units_Z 28
_cell_length_a 28.471660
_cell_length_b 5.059917
_cell_length_c 7.591484
_cell_angle_alpha 90.000000
_cell_angle_beta 90.000000
_cell_angle_gamma 90.000000
_cell_volume 1093.661346
_symmetry_space_group_name_H-M "P N A 21"
_symmetry_group_IT_number 33
_symmetry_cell_setting 'orthorhombic'
loop_
_space_group_symop_operation_xyz
x,y,z
-x,-y,1/2+z
1/2-x,1/2+y,1/2+z
1/2+x,1/2-y,z
loop_
_atom_site_type_symbol
_atom_site_label
_atom_site_fract_x
_atom_site_fract_y
_atom_site_fract_z
Si Si1 0.500646 0.623763 0.888240
Si Si2 0.364691 0.569190 0.616913
Si Si3 0.099096 0.916368 0.480725
Si Si4 0.151462 0.430638 0.593144
Si Si5 0.191489 0.715613 0.903883
Si Si6 0.285704 0.933201 0.758555
Si Si7 0.045288 0.357165 0.035522
O O1 0.452941 0.531234 0.984862
O O2 0.482420 0.755889 0.708564
O O3 0.531009 0.355295 0.885139
O O4 0.529909 0.849478 0.987997
O O5 0.388318 0.400132 0.772718
O O6 0.352967 0.396107 0.448697
O O7 0.400088 0.808098 0.576232
O O8 0.316044 0.683703 0.691398
O O9 0.133945 0.136480 0.558887
O O10 0.108106 0.634900 0.569407
O O11 0.175480 0.477216 0.779795
O O12 0.187790 0.515302 0.438088
O O13 0.232659 0.866110 0.803534
O O14 0.210995 0.626601 0.093198
#
# Coordination Sequence:
#
# PCOD9346195 Si02
#       7
#     4   4   4   4   4   4   4
#     4  11  24  44  72 107 145 193 236 301 355 433
#     4  10  25  45  71 101 148 192 240 305 368 427
#     4  10  23  47  70 104 148 192 238 304 363 434
#     4  11  25  44  75 103 148 194 243 296 369 430
#     4  12  27  45  76 104 142 194 248 302 368 438
#     4  11  27  47  71 104 148 188 246 305 364 435
#     4  11  25  44  73 105 149 189 241 297 363 429
#
# _framework density 25.602072
#
# number of rings (size 3 to 8) (size 9 to 14) (size 15 to 20)
#    0.000    1.143    1.429    2.571    8.000    8.000 
#    0.000    0.000    0.000    0.000    0.000    0.000 
#    0.000    0.000    0.000    0.000    0.000    0.000 
#
# Total GULP energy -157074.706092 kJ/mol
# GULP energy per Si atom -5609.810932 kJ/mol
# Density = 2.554380 g / cm^3
# Si number density = 25.602072 Si / 1000 Ang^3
#
#
#
# Elastic Constant Matrix: (Units=GPa)
#
#
# Indices 1 2 3 4 5 6 
#
# 1 85.9378 18.1153 38.0182 0.0000 0.0000 0.0000
# 2 18.1153 86.3349 19.1332 0.0000 0.0000 0.0000
# 3 38.0182 19.1332 121.2719 0.0000 0.0000 0.0000
# 4 0.0000 0.0000 0.0000 37.7614 0.0000 0.0000
# 5 0.0000 0.0000 0.0000 0.0000 31.4382 0.0000
# 6 0.0000 0.0000 0.0000 0.0000 0.0000 38.8637
#
#
#
# Elastic Compliance Matrix: (Units=1/GPa)
#
#
# Indices 1 2 3 4 5 6 
#
# 1 0.013839 -0.002013 -0.004021 0.000000 0.000000 0.000000
# 2 -0.002013 0.012295 -0.001309 0.000000 0.000000 0.000000
# 3 -0.004021 -0.001309 0.009713 0.000000 0.000000 0.000000
# 4 0.000000 0.000000 0.000000 0.026482 0.000000 0.000000
# 5 0.000000 0.000000 0.000000 0.000000 0.031808 0.000000
# 6 0.000000 0.000000 0.000000 0.000000 0.000000 0.025731
#
#
# Mechanical properties :
#
#
# Convention : Reuss Voigt Hill
#
# Bulk Modulus (GPa) = 47.25363 49.34199 48.29781
# Shear Modulus (GPa) = 35.30860 36.16452 35.73656
#
# Velocity S-wave (km/s) = 3.71769 3.76248 3.74016
# Velocity P-wave (km/s) = 6.07662 6.17977 6.12841
#
# Compressibility (1/GPa) = 0.02116239
#
# Stress axis : x y z
#
# Youngs Moduli (GPa) = 72.25701 81.33262 102.95462
#
# Poissons Ratio (x) = 0.16370 0.41399
# Poissons Ratio (y) = 0.14543 0.13475
# Poissons Ratio (z) = 0.29055 0.10645
#
# Static dielectric constant tensor:
#      x y z
#    x 1.991600 0.000000 0.000000 
#    y 0.000000 1.974180 0.000000 
#    z 0.000000 0.000000 2.039980 
# 
# From -- ./inp_files/5263.got.cif
#   From: 2010.05.17/outbox.cif.g08.bks.cpg/sg33_3_cif.got.tgz:5263.got - 2010.06.03 17:15:25.
