data_PCOD9346168
_publ_section_title
;
Structure prediction by ZEFSAII (Michael W. Deem and Ramdas Pophale) SiO2 
 PCOD9346168
Probable space group: P N A 21
;
_chemical_formula_sum "Si O2"
_cell_formula_units_Z 20
_cell_length_a 10.090081
_cell_length_b 13.999470
_cell_length_c 5.445341
_cell_angle_alpha 90.000000
_cell_angle_beta 90.000000
_cell_angle_gamma 90.000000
_cell_volume 769.185924
_symmetry_space_group_name_H-M "P N A 21"
_symmetry_group_IT_number 33
_symmetry_cell_setting 'orthorhombic'
loop_
_space_group_symop_operation_xyz
x,y,z
-x,-y,1/2+z
1/2-x,1/2+y,1/2+z
1/2+x,1/2-y,z
loop_
_atom_site_type_symbol
_atom_site_label
_atom_site_fract_x
_atom_site_fract_y
_atom_site_fract_z
Si Si1 0.269513 0.137452 0.404670
Si Si2 0.464579 0.767917 0.766036
Si Si3 0.839342 0.019646 0.574598
Si Si4 0.604738 0.596855 0.566592
Si Si5 0.919224 0.522660 0.629274
O O1 0.404432 0.196966 0.407168
O O2 0.143017 0.206849 0.419400
O O3 0.242931 0.075505 0.153276
O O4 0.297871 0.053421 0.599706
O O5 0.525839 0.695535 0.568907
O O6 0.405740 0.862681 0.643417
O O7 0.825264 0.081977 0.330488
O O8 0.818792 0.086514 0.811683
O O9 0.991595 0.984996 0.562515
O O10 0.994989 0.497356 0.882612
#
# Coordination Sequence:
#
# PCOD9346168 Si02
#       5
#     4   4   4   4   4
#     4  10  23  45  74 112 152 204 255 319 390 469
#     4  10  23  45  75 111 150 200 260 311 390 471
#     4   9  19  37  63  97 138 183 235 308 364 429
#     4   9  19  37  64  96 137 185 242 296 365 446
#     4  10  24  48  74 108 159 206 254 326 395 461
#
# _framework density 26.001512000000002
#
# number of rings (size 3 to 8) (size 9 to 14) (size 15 to 20)
#    0.000    2.400    0.000    0.000    2.800    6.400 
#    7.200   16.000    0.000    0.000    0.000    0.000 
#    0.000    0.000    0.000    0.000    0.000    0.000 
#
# Total GULP energy -111630.123126 kJ/mol
# GULP energy per Si atom -5581.506156 kJ/mol
# Density = 2.594233 g / cm^3
# Si number density = 26.001512 Si / 1000 Ang^3
#
#
#
# Elastic Constant Matrix: (Units=GPa)
#
#
# Indices 1 2 3 4 5 6 
#
# 1 131.9125 72.3534 46.0807 0.0000 0.0000 0.0000
# 2 72.3534 191.1999 76.5527 0.0000 0.0000 0.0000
# 3 46.0807 76.5527 148.8703 0.0000 0.0000 0.0000
# 4 0.0000 0.0000 0.0000 25.6036 0.0000 0.0000
# 5 0.0000 0.0000 0.0000 0.0000 33.6935 0.0000
# 6 0.0000 0.0000 0.0000 0.0000 0.0000 69.8506
#
#
#
# Elastic Compliance Matrix: (Units=1/GPa)
#
#
# Indices 1 2 3 4 5 6 
#
# 1 0.009799 -0.003140 -0.001418 0.000000 0.000000 0.000000
# 2 -0.003140 0.007592 -0.002932 0.000000 0.000000 0.000000
# 3 -0.001418 -0.002932 0.008664 0.000000 0.000000 0.000000
# 4 0.000000 0.000000 0.000000 0.039057 0.000000 0.000000
# 5 0.000000 0.000000 0.000000 0.000000 0.029679 0.000000
# 6 0.000000 0.000000 0.000000 0.000000 0.000000 0.014316
#
#
# Mechanical properties :
#
#
# Convention : Reuss Voigt Hill
#
# Bulk Modulus (GPa) = 90.30302 95.77293 93.03797
# Shear Modulus (GPa) = 39.12974 44.29594 41.71284
#
# Velocity S-wave (km/s) = 3.88352 4.13194 4.00965
# Velocity P-wave (km/s) = 7.41041 7.72512 7.56940
#
# Compressibility (1/GPa) = 0.01107383
#
# Stress axis : x y z
#
# Youngs Moduli (GPa) = 102.05588 131.71074 115.41892
#
# Poissons Ratio (x) = 0.41358 0.16370
# Poissons Ratio (y) = 0.32046 0.33843
# Poissons Ratio (z) = 0.14475 0.38621
#
# Static dielectric constant tensor:
#      x y z
#    x 2.258780 0.000000 0.000000 
#    y 0.000000 2.079350 0.000000 
#    z 0.000000 0.000000 2.081380 
# 
# From -- ./inp_files/772.got.cif
#   From: 2010.05.17/outbox.cif.g08.bks.cpg/sg33_1_cif.got.tgz:772.got - 2010.06.03 17:15:25.
