data_PCOD9346431
_publ_section_title
;
Structure prediction by ZEFSAII (Michael W. Deem and Ramdas Pophale) SiO2 
 PCOD9346431
Probable space group: P N A 21
;
_chemical_formula_sum "Si O2"
_cell_formula_units_Z 24
_cell_length_a 9.876514
_cell_length_b 5.177278
_cell_length_c 19.491196
_cell_angle_alpha 90.000000
_cell_angle_beta 90.000000
_cell_angle_gamma 90.000000
_cell_volume 996.652265
_symmetry_space_group_name_H-M "P N A 21"
_symmetry_group_IT_number 33
_symmetry_cell_setting 'orthorhombic'
loop_
_space_group_symop_operation_xyz
x,y,z
-x,-y,1/2+z
1/2-x,1/2+y,1/2+z
1/2+x,1/2-y,z
loop_
_atom_site_type_symbol
_atom_site_label
_atom_site_fract_x
_atom_site_fract_y
_atom_site_fract_z
Si Si1 0.011397 0.917260 0.541690
Si Si2 0.755082 0.734504 0.613804
Si Si3 0.372641 0.707301 0.399782
Si Si4 0.208747 0.714204 0.834834
Si Si5 0.472189 0.484040 0.777160
Si Si6 0.607884 0.244621 0.649552
O O1 0.910037 0.780163 0.595997
O O2 0.938625 0.887221 0.470067
O O3 0.161721 0.797675 0.544924
O O4 0.034787 0.198579 0.576033
O O5 0.722149 0.470659 0.652550
O O6 0.684852 0.977451 0.649398
O O7 0.267761 0.487774 0.373105
O O8 0.490794 0.690089 0.342628
O O9 0.318577 0.996400 0.392459
O O10 0.326151 0.604463 0.787253
O O11 0.078706 0.781475 0.788281
O O12 0.506601 0.319085 0.710289
#
# Coordination Sequence:
#
# PCOD9346431 Si02
#       6
#     4   4   4   4   4   4
#     4  10  26  42  69  97 139 176 228 277 337 400
#     4  10  26  42  68  97 132 178 222 278 335 401
#     4  10  26  39  69  96 138 175 224 274 339 400
#     4  10  26  41  69  96 133 175 221 279 333 406
#     4  10  26  45  71  98 137 172 231 275 344 394
#     4  10  26  41  72  96 137 172 226 277 336 401
#
# _framework density 24.080615000000002
#
# number of rings (size 3 to 8) (size 9 to 14) (size 15 to 20)
#    2.000    0.000    0.000    0.000   14.000    1.333 
#    0.000    0.000    0.000    0.000    0.000    0.000 
#    0.000    0.000    0.000    0.000    0.000    0.000 
#
# Total GULP energy -133899.627226 kJ/mol
# GULP energy per Si atom -5579.151134 kJ/mol
# Density = 2.402581 g / cm^3
# Si number density = 24.080615 Si / 1000 Ang^3
#
#
#
# Elastic Constant Matrix: (Units=GPa)
#
#
# Indices 1 2 3 4 5 6 
#
# 1 61.1313 0.1291 -18.2471 0.0000 0.0000 0.0000
# 2 0.1291 118.3374 9.6703 0.0000 0.0000 0.0000
# 3 -18.2471 9.6703 82.1149 0.0000 0.0000 0.0000
# 4 0.0000 0.0000 0.0000 23.4485 0.0000 0.0000
# 5 0.0000 0.0000 0.0000 0.0000 19.0837 0.0000
# 6 0.0000 0.0000 0.0000 0.0000 0.0000 27.0034
#
#
#
# Elastic Compliance Matrix: (Units=1/GPa)
#
#
# Indices 1 2 3 4 5 6 
#
# 1 0.017534 -0.000341 0.003936 0.000000 0.000000 0.000000
# 2 -0.000341 0.008539 -0.001081 0.000000 0.000000 0.000000
# 3 0.003936 -0.001081 0.013180 0.000000 0.000000 0.000000
# 4 0.000000 0.000000 0.000000 0.042647 0.000000 0.000000
# 5 0.000000 0.000000 0.000000 0.000000 0.052401 0.000000
# 6 0.000000 0.000000 0.000000 0.000000 0.000000 0.037032
#
#
# Mechanical properties :
#
#
# Convention : Reuss Voigt Hill
#
# Bulk Modulus (GPa) = 22.58264 27.18755 24.88509
# Shear Modulus (GPa) = 27.61438 31.90920 29.76179
#
# Velocity S-wave (km/s) = 3.39004 3.64414 3.51938
# Velocity P-wave (km/s) = 4.97207 5.38712 5.18375
#
# Compressibility (1/GPa) = 0.04428181
#
# Stress axis : x y z
#
# Youngs Moduli (GPa) = 57.03222 117.10763 75.87172
#
# Poissons Ratio (x) = 0.03991 -0.29866
# Poissons Ratio (y) = 0.01944 0.08204
# Poissons Ratio (z) = -0.22450 0.12663
#
# Static dielectric constant tensor:
#      x y z
#    x 1.905790 0.000000 0.000000 
#    y 0.000000 1.910250 0.000000 
#    z 0.000000 0.000000 1.948980 
# 
# From -- ./inp_files/9016.got.cif
#   From: 2010.05.17/outbox.cif.g08.bks.cpg/sg33_5_cif.got.tgz:9016.got - 2010.06.03 17:15:25.
