data_PCOD9346499
_publ_section_title
;
Structure prediction by ZEFSAII (Michael W. Deem and Ramdas Pophale) SiO2 
 PCOD9346499
Probable space group: P N A 21
;
_chemical_formula_sum "Si O2"
_cell_formula_units_Z 32
_cell_length_a 13.594173
_cell_length_b 5.543647
_cell_length_c 18.130337
_cell_angle_alpha 90.000000
_cell_angle_beta 90.000000
_cell_angle_gamma 90.000000
_cell_volume 1366.325700
_symmetry_space_group_name_H-M "P N A 21"
_symmetry_group_IT_number 33
_symmetry_cell_setting 'orthorhombic'
loop_
_space_group_symop_operation_xyz
x,y,z
-x,-y,1/2+z
1/2-x,1/2+y,1/2+z
1/2+x,1/2-y,z
loop_
_atom_site_type_symbol
_atom_site_label
_atom_site_fract_x
_atom_site_fract_y
_atom_site_fract_z
Si Si1 0.014730 0.977994 0.150280
Si Si2 0.604578 0.404835 0.003277
Si Si3 0.890616 0.282279 0.390276
Si Si4 0.861024 0.706680 0.053003
Si Si5 0.670533 0.608642 0.742733
Si Si6 0.229964 0.887965 0.190582
Si Si7 0.554666 0.898956 0.420350
Si Si8 0.776803 0.107968 0.942335
O O1 0.062885 0.131574 0.084158
O O2 0.932283 0.112266 0.197624
O O3 0.111328 0.887243 0.192661
O O4 0.950429 0.776425 0.107464
O O5 0.605822 0.677310 0.973142
O O6 0.529288 0.279964 0.947269
O O7 0.709035 0.288217 0.988612
O O8 0.860327 0.096114 0.328127
O O9 0.799569 0.463445 0.392765
O O10 0.995916 0.402975 0.374016
O O11 0.771480 0.627392 0.105883
O O12 0.900085 0.517292 0.993851
O O13 0.830378 0.934527 0.001618
O O14 0.727940 0.362678 0.723475
O O15 0.728000 0.858382 0.723383
O O16 0.644943 0.744774 0.391059
#
# Coordination Sequence:
#
# PCOD9346499 Si02
#       8
#     4   4   4   4   4   4   4   4
#     4  11  23  47  74 108 148 196 250 315 379 444
#     4  11  23  40  74 103 143 186 247 313 374 435
#     4  11  25  47  69 105 151 193 253 311 373 452
#     4  11  23  43  71 114 142 181 252 316 376 449
#     4  11  29  52  72 107 156 204 258 308 372 469
#     4  11  27  47  75 105 149 202 249 308 382 453
#     4  11  21  40  71 105 141 183 241 312 378 436
#     4  11  23  40  70 107 142 187 232 321 374 448
#
# _framework density 23.420479
#
# number of rings (size 3 to 8) (size 9 to 14) (size 15 to 20)
#    0.000    1.000    2.500    3.000   10.500    2.000 
#    6.750    0.000    0.000    0.000    0.000    0.000 
#    0.000    0.000    0.000    0.000    0.000    0.000 
#
# Total GULP energy -178869.225852 kJ/mol
# GULP energy per Si atom -5589.663308 kJ/mol
# Density = 2.336717 g / cm^3
# Si number density = 23.420479 Si / 1000 Ang^3
#
#
#
# Elastic Constant Matrix: (Units=GPa)
#
#
# Indices 1 2 3 4 5 6 
#
# 1 162.2706 47.3378 12.9310 0.0000 0.0000 0.0000
# 2 47.3378 84.6727 9.3581 0.0000 0.0000 0.0000
# 3 12.9310 9.3581 56.0370 0.0000 0.0000 0.0000
# 4 0.0000 0.0000 0.0000 27.5037 0.0000 0.0000
# 5 0.0000 0.0000 0.0000 0.0000 13.5959 0.0000
# 6 0.0000 0.0000 0.0000 0.0000 0.0000 21.3971
#
#
#
# Elastic Compliance Matrix: (Units=1/GPa)
#
#
# Indices 1 2 3 4 5 6 
#
# 1 0.007422 -0.004035 -0.001039 0.000000 0.000000 0.000000
# 2 -0.004035 0.014226 -0.001445 0.000000 0.000000 0.000000
# 3 -0.001039 -0.001445 0.018326 0.000000 0.000000 0.000000
# 4 0.000000 0.000000 0.000000 0.036359 0.000000 0.000000
# 5 0.000000 0.000000 0.000000 0.000000 0.073552 0.000000
# 6 0.000000 0.000000 0.000000 0.000000 0.000000 0.046735
#
#
# Mechanical properties :
#
#
# Convention : Reuss Voigt Hill
#
# Bulk Modulus (GPa) = 37.12282 49.13711 43.12996
# Shear Modulus (GPa) = 22.86906 28.05623 25.46265
#
# Velocity S-wave (km/s) = 3.12822 3.46488 3.30084
# Velocity P-wave (km/s) = 5.37891 6.08548 5.74307
#
# Compressibility (1/GPa) = 0.02693761
#
# Stress axis : x y z
#
# Youngs Moduli (GPa) = 134.72786 70.29607 54.56621
#
# Poissons Ratio (x) = 0.28363 0.05669
# Poissons Ratio (y) = 0.54360 0.07883
# Poissons Ratio (z) = 0.13998 0.10155
#
# Static dielectric constant tensor:
#      x y z
#    x 1.884710 0.000000 0.000000 
#    y 0.000000 1.960660 0.000000 
#    z 0.000000 0.000000 1.877600 
# 
# From -- ./inp_files/9120.got.cif
#   From: 2010.05.17/outbox.cif.g08.bks.cpg/sg33_5_cif.got.tgz:9120.got - 2010.06.03 17:15:25.
