data_PCOD9346851
_publ_section_title
;
Structure prediction by ZEFSAII (Michael W. Deem and Ramdas Pophale) SiO2 
 PCOD9346851
Probable space group: P N A 21
;
_chemical_formula_sum "Si O2"
_cell_formula_units_Z 28
_cell_length_a 23.367743
_cell_length_b 8.943561
_cell_length_c 5.426130
_cell_angle_alpha 90.000000
_cell_angle_beta 90.000000
_cell_angle_gamma 90.000000
_cell_volume 1134.011439
_symmetry_space_group_name_H-M "P N A 21"
_symmetry_group_IT_number 33
_symmetry_cell_setting 'orthorhombic'
loop_
_space_group_symop_operation_xyz
x,y,z
-x,-y,1/2+z
1/2-x,1/2+y,1/2+z
1/2+x,1/2-y,z
loop_
_atom_site_type_symbol
_atom_site_label
_atom_site_fract_x
_atom_site_fract_y
_atom_site_fract_z
Si Si1 0.610457 0.744002 0.496040
Si Si2 0.036365 0.014758 0.317872
Si Si3 0.781569 0.438685 0.047195
Si Si4 0.897060 0.751551 0.586075
Si Si5 0.501221 0.077183 0.945761
Si Si6 0.297236 0.753647 0.896264
Si Si7 0.165322 0.017550 0.756776
O O1 0.583933 0.617664 0.314677
O O2 0.662938 0.855723 0.434623
O O3 0.553910 0.837358 0.557227
O O4 0.638208 0.642198 0.709268
O O5 0.062015 0.181086 0.296753
O O6 0.003965 0.001442 0.578609
O O7 0.791849 0.616188 0.103883
O O8 0.729768 0.468372 0.856661
O O9 0.755653 0.327461 0.256704
O O10 0.840868 0.675480 0.696718
O O11 0.874258 0.893574 0.440991
O O12 0.939258 0.663209 0.411693
O O13 0.516921 0.968880 0.172297
O O14 0.330280 0.612270 0.007752
#
# Coordination Sequence:
#
# PCOD9346851 Si02
#       7
#     4   4   4   4   4   4   4
#     4  12  26  49  82 113 161 212 270 338 414 486
#     4  12  26  47  80 118 152 205 263 329 397 493
#     4  11  26  49  72 115 152 216 265 339 400 490
#     4  11  26  45  77 105 159 200 258 333 401 484
#     4  12  31  50  75 118 161 208 263 329 415 490
#     4  11  25  46  77 107 160 201 271 331 408 480
#     4  11  26  48  77 112 151 212 272 327 403 477
#
# _framework density 24.691109999999998
#
# number of rings (size 3 to 8) (size 9 to 14) (size 15 to 20)
#    0.000    0.571    4.286    1.714    8.000    0.000 
#    5.143    0.000    0.000    0.000    0.000    0.000 
#    0.000    0.000    0.000    0.000    0.000    0.000 
#
# Total GULP energy -156219.830051 kJ/mol
# GULP energy per Si atom -5579.279645 kJ/mol
# Density = 2.463491 g / cm^3
# Si number density = 24.691110 Si / 1000 Ang^3
#
#
#
# Elastic Constant Matrix: (Units=GPa)
#
#
# Indices 1 2 3 4 5 6 
#
# 1 75.5030 2.7257 6.2271 0.0000 0.0000 0.0000
# 2 2.7257 65.1994 1.1109 0.0000 0.0000 0.0000
# 3 6.2271 1.1109 70.7698 0.0000 0.0000 0.0000
# 4 0.0000 0.0000 0.0000 29.3813 0.0000 0.0000
# 5 0.0000 0.0000 0.0000 0.0000 18.6068 0.0000
# 6 0.0000 0.0000 0.0000 0.0000 0.0000 21.3132
#
#
#
# Elastic Compliance Matrix: (Units=1/GPa)
#
#
# Indices 1 2 3 4 5 6 
#
# 1 0.013360 -0.000539 -0.001167 0.000000 0.000000 0.000000
# 2 -0.000539 0.015363 -0.000194 0.000000 0.000000 0.000000
# 3 -0.001167 -0.000194 0.014236 0.000000 0.000000 0.000000
# 4 0.000000 0.000000 0.000000 0.034035 0.000000 0.000000
# 5 0.000000 0.000000 0.000000 0.000000 0.053744 0.000000
# 6 0.000000 0.000000 0.000000 0.000000 0.000000 0.046919
#
#
# Mechanical properties :
#
#
# Convention : Reuss Voigt Hill
#
# Bulk Modulus (GPa) = 25.53591 25.73332 25.63461
# Shear Modulus (GPa) = 25.70553 27.28749 26.49651
#
# Velocity S-wave (km/s) = 3.23008 3.32799 3.27940
# Velocity P-wave (km/s) = 4.92705 5.02117 4.97433
#
# Compressibility (1/GPa) = 0.03916054
#
# Stress axis : x y z
#
# Youngs Moduli (GPa) = 74.84913 65.08980 70.24419
#
# Poissons Ratio (x) = 0.03506 0.08198
# Poissons Ratio (y) = 0.04032 0.01361
# Poissons Ratio (z) = 0.08736 0.01261
#
# Static dielectric constant tensor:
#      x y z
#    x 2.065530 0.000000 0.000000 
#    y 0.000000 2.055600 0.000000 
#    z 0.000000 0.000000 2.034100 
# 
# From -- ./inp_files/2264.got.cif
#   From: 2010.05.17/outbox.cif.g08.bks.cpg/sg33_2_cif.got.tgz:2264.got - 2010.06.03 17:15:25.
