data_PCOD9346246
_publ_section_title
;
Structure prediction by ZEFSAII (Michael W. Deem and Ramdas Pophale) SiO2 
 PCOD9346246
Probable space group: P N A 21
;
_chemical_formula_sum "Si O2"
_cell_formula_units_Z 32
_cell_length_a 31.216517
_cell_length_b 4.635885
_cell_length_c 7.736791
_cell_angle_alpha 90.000000
_cell_angle_beta 90.000000
_cell_angle_gamma 90.000000
_cell_volume 1119.638862
_symmetry_space_group_name_H-M "P N A 21"
_symmetry_group_IT_number 33
_symmetry_cell_setting 'orthorhombic'
loop_
_space_group_symop_operation_xyz
x,y,z
-x,-y,1/2+z
1/2-x,1/2+y,1/2+z
1/2+x,1/2-y,z
loop_
_atom_site_type_symbol
_atom_site_label
_atom_site_fract_x
_atom_site_fract_y
_atom_site_fract_z
Si Si1 0.236514 0.816329 0.507840
Si Si2 0.883442 0.812656 0.119126
Si Si3 0.499931 0.563275 0.956487
Si Si4 0.711694 0.756324 0.110354
Si Si5 0.932824 0.025186 0.722276
Si Si6 0.702932 0.145734 0.750111
Si Si7 0.126349 0.436031 0.241067
Si Si8 0.943921 0.314081 0.156323
O O1 0.214278 0.854992 0.319211
O O2 0.275002 0.551444 0.518879
O O3 0.202859 0.615513 0.613795
O O4 0.235077 0.107162 0.648574
O O5 0.843716 0.776013 0.248493
O O6 0.924584 0.627001 0.180527
O O7 0.900992 0.133971 0.117457
O O8 0.866998 0.717374 0.927740
O O9 0.455099 0.662484 0.873875
O O10 0.535651 0.670698 0.824532
O O11 0.524519 0.643850 0.130763
O O12 0.481591 0.243279 0.013934
O O13 0.780329 0.475696 0.423977
O O14 0.667541 0.935447 0.147639
O O15 0.904556 0.294756 0.767256
O O16 0.900790 0.800760 0.631223
#
# Coordination Sequence:
#
# PCOD9346246 Si02
#       8
#     4   4   4   4   4   4   4   4
#     4  10  24  42  67 102 130 196 236 295 359 429
#     4  12  23  45  68 107 136 183 234 291 350 421
#     4  10  24  48  69 103 139 184 230 291 371 431
#     4  10  26  43  72  97 144 188 241 293 361 430
#     4  11  26  43  74 102 141 185 234 296 357 438
#     4  10  25  43  70  98 141 189 236 295 356 432
#     4  12  24  46  71 107 141 185 242 292 359 425
#     4  11  26  42  73  98 140 178 233 287 355 428
#
# _framework density 28.580643999999999
#
# number of rings (size 3 to 8) (size 9 to 14) (size 15 to 20)
#    0.750    0.500    3.750    0.000    5.250   10.000 
#    0.000    0.000    0.000    0.000    0.000    0.000 
#    0.000    0.000    0.000    0.000    0.000    0.000 
#
# Total GULP energy -178213.960869 kJ/mol
# GULP energy per Si atom -5569.186277 kJ/mol
# Density = 2.851559 g / cm^3
# Si number density = 28.580644 Si / 1000 Ang^3
#
#
#
# Elastic Constant Matrix: (Units=GPa)
#
#
# Indices 1 2 3 4 5 6 
#
# 1 132.0539 16.6632 55.6549 0.0000 0.0000 0.0000
# 2 16.6632 142.3970 24.4098 0.0000 0.0000 0.0000
# 3 55.6549 24.4098 135.1907 0.0000 0.0000 0.0000
# 4 0.0000 0.0000 0.0000 8.8276 0.0000 0.0000
# 5 0.0000 0.0000 0.0000 0.0000 51.3582 0.0000
# 6 0.0000 0.0000 0.0000 0.0000 0.0000 53.8822
#
#
#
# Elastic Compliance Matrix: (Units=1/GPa)
#
#
# Indices 1 2 3 4 5 6 
#
# 1 0.009189 -0.000440 -0.003703 0.000000 0.000000 0.000000
# 2 -0.000440 0.007268 -0.001131 0.000000 0.000000 0.000000
# 3 -0.003703 -0.001131 0.009126 0.000000 0.000000 0.000000
# 4 0.000000 0.000000 0.000000 0.113281 0.000000 0.000000
# 5 0.000000 0.000000 0.000000 0.000000 0.019471 0.000000
# 6 0.000000 0.000000 0.000000 0.000000 0.000000 0.018559
#
#
# Mechanical properties :
#
#
# Convention : Reuss Voigt Hill
#
# Bulk Modulus (GPa) = 66.51942 67.01081 66.76511
# Shear Modulus (GPa) = 25.98020 43.67454 34.82737
#
# Velocity S-wave (km/s) = 3.01826 3.91335 3.49458
# Velocity P-wave (km/s) = 5.95578 6.62693 6.30030
#
# Compressibility (1/GPa) = 0.01503320
#
# Stress axis : x y z
#
# Youngs Moduli (GPa) = 108.82510 137.58876 109.57982
#
# Poissons Ratio (x) = 0.06060 0.40582
# Poissons Ratio (y) = 0.04793 0.12393
# Poissons Ratio (z) = 0.40302 0.15561
#
# Static dielectric constant tensor:
#      x y z
#    x 2.295140 0.000000 0.000000 
#    y 0.000000 2.203470 0.000000 
#    z 0.000000 0.000000 2.405120 
# 
# From -- ./inp_files/5327.got.cif
#   From: 2010.05.17/outbox.cif.g08.bks.cpg/sg33_3_cif.got.tgz:5327.got - 2010.06.03 17:15:25.
