data_PCOD9346666
_publ_section_title
;
Structure prediction by ZEFSAII (Michael W. Deem and Ramdas Pophale) SiO2 
 PCOD9346666
Probable space group: P N A 21
;
_chemical_formula_sum "Si O2"
_cell_formula_units_Z 32
_cell_length_a 9.570765
_cell_length_b 13.887300
_cell_length_c 11.275048
_cell_angle_alpha 90.000000
_cell_angle_beta 90.000000
_cell_angle_gamma 90.000000
_cell_volume 1498.590136
_symmetry_space_group_name_H-M "P N A 21"
_symmetry_group_IT_number 33
_symmetry_cell_setting 'orthorhombic'
loop_
_space_group_symop_operation_xyz
x,y,z
-x,-y,1/2+z
1/2-x,1/2+y,1/2+z
1/2+x,1/2-y,z
loop_
_atom_site_type_symbol
_atom_site_label
_atom_site_fract_x
_atom_site_fract_y
_atom_site_fract_z
Si Si1 0.415893 0.313795 0.977730
Si Si2 0.869439 0.920543 0.305200
Si Si3 0.305028 0.967172 0.437599
Si Si4 0.452922 0.237513 0.427803
Si Si5 0.295517 0.662502 0.059774
Si Si6 0.988522 0.123088 0.240147
Si Si7 0.887102 0.408517 0.969481
Si Si8 0.809745 0.400680 0.242990
O O1 0.528399 0.371696 0.900380
O O2 0.267788 0.366319 0.961557
O O3 0.412778 0.203583 0.939183
O O4 0.449704 0.327235 0.116677
O O5 0.833579 0.850382 0.196266
O O6 0.728259 0.947157 0.377402
O O7 0.947339 0.011733 0.246267
O O8 0.466658 0.964064 0.471518
O O9 0.221052 0.053896 0.503682
O O10 0.300479 0.993705 0.299536
O O11 0.597397 0.269682 0.487828
O O12 0.353867 0.209057 0.535264
O O13 0.409376 0.330363 0.351387
O O14 0.423298 0.155677 0.325579
O O15 0.153785 0.141603 0.257694
O O16 0.836577 0.405489 0.104873
#
# Coordination Sequence:
#
# PCOD9346666 Si02
#       8
#     4   4   4   4   4   4   4   4
#     4  12  24  47  74 104 145 190 240 302 363 433
#     4  12  27  47  69 106 150 195 236 290 388 431
#     4  11  25  46  69 105 146 185 241 301 358 434
#     4  11  23  46  76 102 140 187 244 298 350 429
#     4  11  26  46  69 109 147 187 239 298 364 437
#     4  12  23  46  77 102 138 191 248 297 353 442
#     4  12  28  44  72 110 145 190 238 311 364 425
#     4  11  24  46  72 108 139 183 252 295 358 429
#
# _framework density 21.353404000000001
#
# number of rings (size 3 to 8) (size 9 to 14) (size 15 to 20)
#    0.000    0.500    7.500    0.750    3.500    3.000 
#    0.000    0.000    0.000    0.000    0.000    0.000 
#    0.000    0.000    0.000    0.000    0.000    0.000 
#
# Total GULP energy -178621.441874 kJ/mol
# GULP energy per Si atom -5581.920059 kJ/mol
# Density = 2.130480 g / cm^3
# Si number density = 21.353404 Si / 1000 Ang^3
#
#
#
# Elastic Constant Matrix: (Units=GPa)
#
#
# Indices 1 2 3 4 5 6 
#
# 1 76.3719 13.7668 28.9456 0.0000 0.0000 0.0000
# 2 13.7668 41.0227 -5.6401 0.0000 0.0000 0.0000
# 3 28.9456 -5.6401 80.0832 0.0000 0.0000 0.0000
# 4 0.0000 0.0000 0.0000 31.5858 0.0000 0.0000
# 5 0.0000 0.0000 0.0000 0.0000 23.3020 0.0000
# 6 0.0000 0.0000 0.0000 0.0000 0.0000 32.0658
#
#
#
# Elastic Compliance Matrix: (Units=1/GPa)
#
#
# Indices 1 2 3 4 5 6 
#
# 1 0.016733 -0.006510 -0.006507 0.000000 0.000000 0.000000
# 2 -0.006510 0.027148 0.004265 0.000000 0.000000 0.000000
# 3 -0.006507 0.004265 0.015139 0.000000 0.000000 0.000000
# 4 0.000000 0.000000 0.000000 0.031660 0.000000 0.000000
# 5 0.000000 0.000000 0.000000 0.000000 0.042915 0.000000
# 6 0.000000 0.000000 0.000000 0.000000 0.000000 0.031186
#
#
# Mechanical properties :
#
#
# Convention : Reuss Voigt Hill
#
# Bulk Modulus (GPa) = 24.08659 30.18026 27.13342
# Shear Modulus (GPa) = 25.49413 28.08443 26.78928
#
# Velocity S-wave (km/s) = 3.45906 3.63053 3.54583
# Velocity P-wave (km/s) = 5.22091 5.63371 5.43123
#
# Compressibility (1/GPa) = 0.04151688
#
# Stress axis : x y z
#
# Youngs Moduli (GPa) = 59.76062 36.83525 66.05372
#
# Poissons Ratio (x) = 0.23980 0.42979
# Poissons Ratio (y) = 0.38905 -0.28172
# Poissons Ratio (z) = 0.38884 -0.15710
#
# Static dielectric constant tensor:
#      x y z
#    x 1.796910 0.000000 0.000000 
#    y 0.000000 1.831600 0.000000 
#    z 0.000000 0.000000 1.760750 
# 
# From -- ./inp_files/5968.got.cif
#   From: 2010.05.17/outbox.cif.g08.bks.cpg/sg33_3_cif.got.tgz:5968.got - 2010.06.03 17:15:25.
