data_PCOD9346816
_publ_section_title
;
Structure prediction by ZEFSAII (Michael W. Deem and Ramdas Pophale) SiO2 
 PCOD9346816
Probable space group: P N A 21
;
_chemical_formula_sum "Si O2"
_cell_formula_units_Z 24
_cell_length_a 12.673088
_cell_length_b 9.389458
_cell_length_c 9.300093
_cell_angle_alpha 90.000000
_cell_angle_beta 90.000000
_cell_angle_gamma 90.000000
_cell_volume 1106.649942
_symmetry_space_group_name_H-M "P N A 21"
_symmetry_group_IT_number 33
_symmetry_cell_setting 'orthorhombic'
loop_
_space_group_symop_operation_xyz
x,y,z
-x,-y,1/2+z
1/2-x,1/2+y,1/2+z
1/2+x,1/2-y,z
loop_
_atom_site_type_symbol
_atom_site_label
_atom_site_fract_x
_atom_site_fract_y
_atom_site_fract_z
Si Si1 0.801095 0.915357 0.333990
Si Si2 0.000075 0.735979 0.419009
Si Si3 0.863199 0.473892 0.424810
Si Si4 0.142170 0.765113 0.149644
Si Si5 0.742732 0.948331 0.630637
Si Si6 0.691989 0.644505 0.604489
O O1 0.743882 0.805566 0.227439
O O2 0.899768 0.840162 0.408173
O O3 0.719217 0.958019 0.460044
O O4 0.834220 0.049981 0.241497
O O5 0.047772 0.734329 0.258613
O O6 0.088335 0.797182 0.525678
O O7 0.958573 0.579978 0.460577
O O8 0.873899 0.320040 0.500584
O O9 0.843735 0.475091 0.253815
O O10 0.759736 0.548226 0.495189
O O11 0.166268 0.933018 0.144968
O O12 0.762670 0.779860 0.651177
#
# Coordination Sequence:
#
# PCOD9346816 Si02
#       6
#     4   4   4   4   4   4
#     4  11  25  43  68  96 134 181 223 281 351 404
#     4  12  22  44  68  98 136 172 226 292 332 414
#     4  11  25  43  68  96 134 181 223 281 351 404
#     4  11  25  43  68  96 134 181 223 281 351 404
#     4  12  20  48  64 100 130 176 226 286 336 416
#     4  11  25  43  68  96 134 181 223 281 351 404
#
# _framework density 21.687075
#
# number of rings (size 3 to 8) (size 9 to 14) (size 15 to 20)
#    0.000    0.667    6.667    1.000    4.667    0.000 
#    0.000    0.000    0.000    0.000    0.000    0.000 
#    0.000    0.000    0.000    0.000    0.000    0.000 
#
# Total GULP energy -133979.242797 kJ/mol
# GULP energy per Si atom -5582.468450 kJ/mol
# Density = 2.163771 g / cm^3
# Si number density = 21.687075 Si / 1000 Ang^3
#
#
#
# Elastic Constant Matrix: (Units=GPa)
#
#
# Indices 1 2 3 4 5 6 
#
# 1 80.7741 31.9133 25.5545 0.0000 0.0000 0.0000
# 2 31.9133 102.5149 45.9585 0.0000 0.0000 0.0000
# 3 25.5545 45.9585 89.5791 0.0000 0.0000 0.0000
# 4 0.0000 0.0000 0.0000 39.2694 0.0000 0.0000
# 5 0.0000 0.0000 0.0000 0.0000 24.5119 0.0000
# 6 0.0000 0.0000 0.0000 0.0000 0.0000 20.7321
#
#
#
# Elastic Compliance Matrix: (Units=1/GPa)
#
#
# Indices 1 2 3 4 5 6 
#
# 1 0.014492 -0.003452 -0.002363 0.000000 0.000000 0.000000
# 2 -0.003452 0.013491 -0.005937 0.000000 0.000000 0.000000
# 3 -0.002363 -0.005937 0.014883 0.000000 0.000000 0.000000
# 4 0.000000 0.000000 0.000000 0.025465 0.000000 0.000000
# 5 0.000000 0.000000 0.000000 0.000000 0.040797 0.000000
# 6 0.000000 0.000000 0.000000 0.000000 0.000000 0.048234
#
#
# Mechanical properties :
#
#
# Convention : Reuss Voigt Hill
#
# Bulk Modulus (GPa) = 51.64674 53.30230 52.47452
# Shear Modulus (GPa) = 26.69240 28.19879 27.44560
#
# Velocity S-wave (km/s) = 3.51208 3.60982 3.56129
# Velocity P-wave (km/s) = 6.34921 6.48118 6.41553
#
# Compressibility (1/GPa) = 0.01936231
#
# Stress axis : x y z
#
# Youngs Moduli (GPa) = 69.00530 74.12486 67.18961
#
# Poissons Ratio (x) = 0.25587 0.15877
# Poissons Ratio (y) = 0.23820 0.39888
# Poissons Ratio (z) = 0.16306 0.44006
#
# Static dielectric constant tensor:
#      x y z
#    x 1.799350 0.000000 0.000000 
#    y 0.000000 1.826300 0.000000 
#    z 0.000000 0.000000 1.815410 
# 
# From -- ./inp_files/3715.got.cif
#   From: 2010.05.17/outbox.cif.g08.bks.cpg/sg33_2_cif.got.tgz:3715.got - 2010.06.03 17:15:25.
