data_PCOD9346922
_publ_section_title
;
Structure prediction by ZEFSAII (Michael W. Deem and Ramdas Pophale) SiO2 
 PCOD9346922
Probable space group: P N A 21
;
_chemical_formula_sum "Si O2"
_cell_formula_units_Z 20
_cell_length_a 12.210302
_cell_length_b 7.428781
_cell_length_c 8.153617
_cell_angle_alpha 90.000000
_cell_angle_beta 90.000000
_cell_angle_gamma 90.000000
_cell_volume 739.595515
_symmetry_space_group_name_H-M "P N A 21"
_symmetry_group_IT_number 33
_symmetry_cell_setting 'orthorhombic'
loop_
_space_group_symop_operation_xyz
x,y,z
-x,-y,1/2+z
1/2-x,1/2+y,1/2+z
1/2+x,1/2-y,z
loop_
_atom_site_type_symbol
_atom_site_label
_atom_site_fract_x
_atom_site_fract_y
_atom_site_fract_z
Si Si1 0.065189 0.793740 0.473800
Si Si2 0.571891 0.986786 0.897611
Si Si3 0.090307 0.163221 0.704646
Si Si4 0.944675 0.848110 0.807455
Si Si5 0.268745 0.898081 0.667980
O O1 0.076425 0.138747 0.512763
O O2 0.973711 0.848940 0.604084
O O3 0.187320 0.818653 0.529561
O O4 0.044080 0.585544 0.434052
O O5 0.612557 0.135642 0.765979
O O6 0.550153 0.791777 0.832526
O O7 0.640799 0.991841 0.063892
O O8 0.977231 0.092570 0.807888
O O9 0.189257 0.037361 0.760220
O O10 0.823763 0.755318 0.774160
#
# Coordination Sequence:
#
# PCOD9346922 Si02
#       5
#     4   4   4   4   4
#     4   8  23  40  59  93 126 155 220 255 299 391
#     4   9  22  41  60  92 127 158 213 261 299 387
#     4   8  23  40  59  93 126 155 220 255 299 391
#     4   9  22  41  60  92 127 158 213 261 299 387
#     4  12  20  40  70  88 124 182 190 264 344 338
#
# _framework density 27.041812
#
# number of rings (size 3 to 8) (size 9 to 14) (size 15 to 20)
#    2.400    0.000    0.000    1.200    5.600    1.600 
#    0.000    8.000    0.000    0.000    0.000    0.000 
#    0.000    0.000    0.000    0.000    0.000    0.000 
#
# Total GULP energy -111472.592036 kJ/mol
# GULP energy per Si atom -5573.629602 kJ/mol
# Density = 2.698026 g / cm^3
# Si number density = 27.041812 Si / 1000 Ang^3
#
#
#
# Elastic Constant Matrix: (Units=GPa)
#
#
# Indices 1 2 3 4 5 6 
#
# 1 114.9922 34.1629 40.7657 0.0000 0.0000 0.0000
# 2 34.1629 102.8057 25.0738 0.0000 0.0000 0.0000
# 3 40.7657 25.0738 153.0529 0.0000 0.0000 0.0000
# 4 0.0000 0.0000 0.0000 60.7790 0.0000 0.0000
# 5 0.0000 0.0000 0.0000 0.0000 48.5515 0.0000
# 6 0.0000 0.0000 0.0000 0.0000 0.0000 30.3186
#
#
#
# Elastic Compliance Matrix: (Units=1/GPa)
#
#
# Indices 1 2 3 4 5 6 
#
# 1 0.010365 -0.002886 -0.002288 0.000000 0.000000 0.000000
# 2 -0.002886 0.010936 -0.001023 0.000000 0.000000 0.000000
# 3 -0.002288 -0.001023 0.007311 0.000000 0.000000 0.000000
# 4 0.000000 0.000000 0.000000 0.016453 0.000000 0.000000
# 5 0.000000 0.000000 0.000000 0.000000 0.020597 0.000000
# 6 0.000000 0.000000 0.000000 0.000000 0.000000 0.032983
#
#
# Mechanical properties :
#
#
# Convention : Reuss Voigt Hill
#
# Bulk Modulus (GPa) = 61.66252 63.42841 62.54546
# Shear Modulus (GPa) = 42.93933 45.98637 44.46285
#
# Velocity S-wave (km/s) = 3.98915 4.12827 4.05930
# Velocity P-wave (km/s) = 6.63852 6.79927 6.71937
#
# Compressibility (1/GPa) = 0.01621731
#
# Stress axis : x y z
#
# Youngs Moduli (GPa) = 96.48065 91.44393 136.78758
#
# Poissons Ratio (x) = 0.26393 0.31295
# Poissons Ratio (y) = 0.27847 0.13990
# Poissons Ratio (z) = 0.22073 0.09353
#
# Static dielectric constant tensor:
#      x y z
#    x 2.126270 0.000000 0.000000 
#    y 0.000000 2.430230 0.000000 
#    z 0.000000 0.000000 2.203090 
# 
# From -- ./inp_files/6213.got.cif
#   From: 2010.05.17/outbox.cif.g08.bks.cpg/sg33_4_cif.got.tgz:6213.got - 2010.06.03 17:15:25.
