data_PCOD9346318
_publ_section_title
;
Structure prediction by ZEFSAII (Michael W. Deem and Ramdas Pophale) SiO2 
 PCOD9346318
Probable space group: P N A 21
;
_chemical_formula_sum "Si O2"
_cell_formula_units_Z 28
_cell_length_a 25.308136
_cell_length_b 5.055465
_cell_length_c 8.099088
_cell_angle_alpha 90.000000
_cell_angle_beta 90.000000
_cell_angle_gamma 90.000000
_cell_volume 1036.232920
_symmetry_space_group_name_H-M "P N A 21"
_symmetry_group_IT_number 33
_symmetry_cell_setting 'orthorhombic'
loop_
_space_group_symop_operation_xyz
x,y,z
-x,-y,1/2+z
1/2-x,1/2+y,1/2+z
1/2+x,1/2-y,z
loop_
_atom_site_type_symbol
_atom_site_label
_atom_site_fract_x
_atom_site_fract_y
_atom_site_fract_z
Si Si1 0.590553 0.533609 0.988080
Si Si2 0.862784 0.690624 0.255330
Si Si3 0.954863 0.272186 0.793276
Si Si4 0.814511 0.023763 0.997775
Si Si5 0.046236 0.659846 0.667968
Si Si6 0.343242 0.952970 0.818959
Si Si7 0.802420 0.377385 0.489431
O O1 0.603375 0.243716 0.920464
O O2 0.560015 0.661935 0.829030
O O3 0.556497 0.551347 0.153729
O O4 0.649893 0.663653 0.005791
O O5 0.901382 0.522230 0.142321
O O6 0.813648 0.525614 0.318365
O O7 0.842088 0.958038 0.171665
O O8 0.900722 0.433979 0.786300
O O9 0.000677 0.458925 0.722401
O O10 0.963304 0.207803 0.987875
O O11 0.814357 0.322986 0.934838
O O12 0.849642 0.846856 0.876608
O O13 0.760511 0.852210 0.990997
O O14 0.310399 0.944449 0.650928
#
# Coordination Sequence:
#
# PCOD9346318 Si02
#       7
#     4   4   4   4   4   4   4
#     4  10  24  45  69 107 145 189 253 314 373 460
#     4  11  25  47  71 106 150 195 259 312 383 457
#     4  11  22  47  73 102 146 193 252 310 391 447
#     4  12  26  46  76 107 152 197 253 308 379 451
#     4  11  22  47  72 105 145 198 250 320 383 460
#     4  11  27  47  70 110 149 191 250 316 373 457
#     4  10  26  43  73 103 147 197 247 310 374 452
#
# _framework density 27.020952000000001
#
# number of rings (size 3 to 8) (size 9 to 14) (size 15 to 20)
#    0.000    1.143    2.857    1.714   10.000    0.000 
#    7.714    0.000    0.000    0.000    0.000    0.000 
#    0.000    0.000    0.000    0.000    0.000    0.000 
#
# Total GULP energy -156610.356765 kJ/mol
# GULP energy per Si atom -5593.227027 kJ/mol
# Density = 2.695945 g / cm^3
# Si number density = 27.020952 Si / 1000 Ang^3
#
#
#
# Elastic Constant Matrix: (Units=GPa)
#
#
# Indices 1 2 3 4 5 6 
#
# 1 101.2396 18.2816 40.2898 0.0000 0.0000 0.0000
# 2 18.2816 89.6217 46.4851 0.0000 0.0000 0.0000
# 3 40.2898 46.4851 179.5520 0.0000 0.0000 0.0000
# 4 0.0000 0.0000 0.0000 51.9348 0.0000 0.0000
# 5 0.0000 0.0000 0.0000 0.0000 41.0387 0.0000
# 6 0.0000 0.0000 0.0000 0.0000 0.0000 20.5889
#
#
#
# Elastic Compliance Matrix: (Units=1/GPa)
#
#
# Indices 1 2 3 4 5 6 
#
# 1 0.010940 -0.001107 -0.002168 0.000000 0.000000 0.000000
# 2 -0.001107 0.013001 -0.003117 0.000000 0.000000 0.000000
# 3 -0.002168 -0.003117 0.006863 0.000000 0.000000 0.000000
# 4 0.000000 0.000000 0.000000 0.019255 0.000000 0.000000
# 5 0.000000 0.000000 0.000000 0.000000 0.024367 0.000000
# 6 0.000000 0.000000 0.000000 0.000000 0.000000 0.048570
#
#
# Mechanical properties :
#
#
# Convention : Reuss Voigt Hill
#
# Bulk Modulus (GPa) = 55.49798 64.50293 60.00045
# Shear Modulus (GPa) = 35.26391 40.40293 37.83342
#
# Velocity S-wave (km/s) = 3.61648 3.87103 3.74592
# Velocity P-wave (km/s) = 6.16620 6.62595 6.40020
#
# Compressibility (1/GPa) = 0.01801868
#
# Stress axis : x y z
#
# Youngs Moduli (GPa) = 91.40450 76.91838 145.70769
#
# Poissons Ratio (x) = 0.08515 0.31594
# Poissons Ratio (y) = 0.10119 0.45423
# Poissons Ratio (z) = 0.19819 0.23979
#
# Static dielectric constant tensor:
#      x y z
#    x 2.093900 0.000000 0.000000 
#    y 0.000000 2.082670 0.000000 
#    z 0.000000 0.000000 2.204950 
# 
# From -- ./inp_files/5277.got.cif
#   From: 2010.05.17/outbox.cif.g08.bks.cpg/sg33_3_cif.got.tgz:5277.got - 2010.06.03 17:15:25.
