data_PCOD9346942
_publ_section_title
;
Structure prediction by ZEFSAII (Michael W. Deem and Ramdas Pophale) SiO2 
 PCOD9346942
Probable space group: P N A 21
;
_chemical_formula_sum "Si O2"
_cell_formula_units_Z 24
_cell_length_a 24.897079
_cell_length_b 6.653808
_cell_length_c 6.677458
_cell_angle_alpha 90.000000
_cell_angle_beta 90.000000
_cell_angle_gamma 90.000000
_cell_volume 1106.190253
_symmetry_space_group_name_H-M "P N A 21"
_symmetry_group_IT_number 33
_symmetry_cell_setting 'orthorhombic'
loop_
_space_group_symop_operation_xyz
x,y,z
-x,-y,1/2+z
1/2-x,1/2+y,1/2+z
1/2+x,1/2-y,z
loop_
_atom_site_type_symbol
_atom_site_label
_atom_site_fract_x
_atom_site_fract_y
_atom_site_fract_z
Si Si1 0.445143 0.768597 0.142570
Si Si2 0.373103 0.886353 0.784237
Si Si3 0.376863 0.421115 0.269903
Si Si4 0.440766 0.111666 0.492528
Si Si5 0.305156 0.765820 0.415857
Si Si6 0.305721 0.112262 0.074036
O O1 0.430243 0.553324 0.235090
O O2 0.501660 0.789364 0.031408
O O3 0.442106 0.946420 0.310957
O O4 0.398079 0.780680 0.976877
O O5 0.350872 0.782840 0.585937
O O6 0.422628 0.013295 0.699668
O O7 0.321439 0.996924 0.872876
O O8 0.394452 0.273585 0.447589
O O9 0.326575 0.568537 0.302172
O O10 0.355292 0.264988 0.105804
O O11 0.249470 0.725107 0.528061
O O12 0.302285 0.956030 0.262748
#
# Coordination Sequence:
#
# PCOD9346942 Si02
#       6
#     4   4   4   4   4   4
#     4  12  26  47  74 107 144 185 239 298 356 425
#     4  12  23  48  74  94 152 192 225 304 352 418
#     4  12  25  48  70 108 142 182 247 284 360 428
#     4  12  26  47  74 107 144 185 239 298 356 425
#     4  12  28  47  71 108 145 189 243 297 355 425
#     4  12  28  47  71 108 145 189 243 297 355 425
#
# _framework density 21.696088
#
# number of rings (size 3 to 8) (size 9 to 14) (size 15 to 20)
#    0.000    0.000    8.333    1.000    4.667    6.667 
#    0.000    0.000    0.000    0.000    0.000    0.000 
#    0.000    0.000    0.000    0.000    0.000    0.000 
#
# Total GULP energy -133849.717550 kJ/mol
# GULP energy per Si atom -5577.071565 kJ/mol
# Density = 2.164671 g / cm^3
# Si number density = 21.696088 Si / 1000 Ang^3
#
#
#
# Elastic Constant Matrix: (Units=GPa)
#
#
# Indices 1 2 3 4 5 6 
#
# 1 83.5280 -2.0009 1.7940 0.0000 0.0000 0.0000
# 2 -2.0009 67.5317 22.3876 0.0000 0.0000 0.0000
# 3 1.7940 22.3876 77.2288 0.0000 0.0000 0.0000
# 4 0.0000 0.0000 0.0000 9.0354 0.0000 0.0000
# 5 0.0000 0.0000 0.0000 0.0000 49.2622 0.0000
# 6 0.0000 0.0000 0.0000 0.0000 0.0000 32.0495
#
#
#
# Elastic Compliance Matrix: (Units=1/GPa)
#
#
# Indices 1 2 3 4 5 6 
#
# 1 0.011993 0.000495 -0.000422 0.000000 0.000000 0.000000
# 2 0.000495 0.016403 -0.004766 0.000000 0.000000 0.000000
# 3 -0.000422 -0.004766 0.014340 0.000000 0.000000 0.000000
# 4 0.000000 0.000000 0.000000 0.110675 0.000000 0.000000
# 5 0.000000 0.000000 0.000000 0.000000 0.020300 0.000000
# 6 0.000000 0.000000 0.000000 0.000000 0.000000 0.031202
#
#
# Mechanical properties :
#
#
# Convention : Reuss Voigt Hill
#
# Bulk Modulus (GPa) = 29.98582 30.29444 30.14013
# Shear Modulus (GPa) = 22.18127 31.80994 26.99560
#
# Velocity S-wave (km/s) = 3.20091 3.83320 3.53124
# Velocity P-wave (km/s) = 5.24518 5.79523 5.52705
#
# Compressibility (1/GPa) = 0.03334910
#
# Stress axis : x y z
#
# Youngs Moduli (GPa) = 83.38221 60.96566 69.73467
#
# Poissons Ratio (x) = -0.03020 0.02944
# Poissons Ratio (y) = -0.04130 0.33239
# Poissons Ratio (z) = 0.03520 0.29059
#
# Static dielectric constant tensor:
#      x y z
#    x 1.832540 0.000000 0.000000 
#    y 0.000000 1.807890 0.000000 
#    z 0.000000 0.000000 1.732710 
# 
# From -- ./inp_files/2368.got.cif
#   From: 2010.05.17/outbox.cif.g08.bks.cpg/sg33_2_cif.got.tgz:2368.got - 2010.06.03 17:15:25.
