data_PCOD9346674
_publ_section_title
;
Structure prediction by ZEFSAII (Michael W. Deem and Ramdas Pophale) SiO2 
 PCOD9346674
Probable space group: P N A 21
;
_chemical_formula_sum "Si O2"
_cell_formula_units_Z 20
_cell_length_a 9.580948
_cell_length_b 9.378527
_cell_length_c 9.844625
_cell_angle_alpha 90.000000
_cell_angle_beta 90.000000
_cell_angle_gamma 90.000000
_cell_volume 884.590547
_symmetry_space_group_name_H-M "P N A 21"
_symmetry_group_IT_number 33
_symmetry_cell_setting 'orthorhombic'
loop_
_space_group_symop_operation_xyz
x,y,z
-x,-y,1/2+z
1/2-x,1/2+y,1/2+z
1/2+x,1/2-y,z
loop_
_atom_site_type_symbol
_atom_site_label
_atom_site_fract_x
_atom_site_fract_y
_atom_site_fract_z
Si Si1 0.447050 0.766862 0.877530
Si Si2 0.937128 0.973895 0.087001
Si Si3 0.598704 0.903872 0.440477
Si Si4 0.095589 0.151988 0.869613
Si Si5 0.698481 0.743121 0.693839
O O1 0.604147 0.736518 0.829109
O O2 0.354032 0.737407 0.744491
O O3 0.428383 0.930401 0.919170
O O4 0.398611 0.661515 0.995918
O O5 0.973967 0.915606 0.235662
O O6 0.820006 0.094416 0.113270
O O7 0.053017 0.055534 0.998590
O O8 0.737500 0.855189 0.358007
O O9 0.468416 0.807352 0.395073
O O10 0.637494 0.863665 0.595448
#
# Coordination Sequence:
#
# PCOD9346674 Si02
#       5
#     4   4   4   4   4
#     4  12  25  44  73 103 138 190 239 285 360 428
#     4  11  23  47  72 100 143 189 225 295 357 423
#     4  11  26  45  72 105 141 187 238 295 355 428
#     4  11  25  48  72 104 147 185 236 291 366 416
#     4  11  25  46  67 104 145 181 236 298 348 425
#
# _framework density 22.60933
#
# number of rings (size 3 to 8) (size 9 to 14) (size 15 to 20)
#    0.000    0.800    4.000    2.400    2.800    8.000 
#    0.000    0.000    0.000    0.000    0.000    0.000 
#    0.000    0.000    0.000    0.000    0.000    0.000 
#
# Total GULP energy -111907.277403 kJ/mol
# GULP energy per Si atom -5595.363870 kJ/mol
# Density = 2.255787 g / cm^3
# Si number density = 22.609330 Si / 1000 Ang^3
#
#
#
# Elastic Constant Matrix: (Units=GPa)
#
#
# Indices 1 2 3 4 5 6 
#
# 1 65.2292 33.7403 1.1647 0.0000 0.0000 0.0000
# 2 33.7403 173.6875 53.2461 0.0000 0.0000 0.0000
# 3 1.1647 53.2461 114.7268 0.0000 0.0000 0.0000
# 4 0.0000 0.0000 0.0000 47.3594 0.0000 0.0000
# 5 0.0000 0.0000 0.0000 0.0000 28.7924 0.0000
# 6 0.0000 0.0000 0.0000 0.0000 0.0000 12.7362
#
#
#
# Elastic Compliance Matrix: (Units=1/GPa)
#
#
# Indices 1 2 3 4 5 6 
#
# 1 0.017295 -0.003854 0.001613 0.000000 0.000000 0.000000
# 2 -0.003854 0.007571 -0.003475 0.000000 0.000000 0.000000
# 3 0.001613 -0.003475 0.010313 0.000000 0.000000 0.000000
# 4 0.000000 0.000000 0.000000 0.021115 0.000000 0.000000
# 5 0.000000 0.000000 0.000000 0.000000 0.034731 0.000000
# 6 0.000000 0.000000 0.000000 0.000000 0.000000 0.078517
#
#
# Mechanical properties :
#
#
# Convention : Reuss Voigt Hill
#
# Bulk Modulus (GPa) = 42.10933 58.88286 50.49610
# Shear Modulus (GPa) = 26.47035 35.47707 30.97371
#
# Velocity S-wave (km/s) = 3.42537 3.96553 3.70530
# Velocity P-wave (km/s) = 5.85742 6.86057 6.37874
#
# Compressibility (1/GPa) = 0.02374771
#
# Stress axis : x y z
#
# Youngs Moduli (GPa) = 57.81865 132.07456 96.96760
#
# Poissons Ratio (x) = 0.50906 -0.15643
# Poissons Ratio (y) = 0.22285 0.33695
# Poissons Ratio (z) = -0.09328 0.45894
#
# Static dielectric constant tensor:
#      x y z
#    x 1.837520 0.000000 0.000000 
#    y 0.000000 1.821860 0.000000 
#    z 0.000000 0.000000 1.844040 
# 
# From -- ./inp_files/2933.got.cif
#   From: 2010.05.17/outbox.cif.g08.bks.cpg/sg33_2_cif.got.tgz:2933.got - 2010.06.03 17:15:25.
