data_PCOD9346022
_publ_section_title
;
Structure prediction by ZEFSAII (Michael W. Deem and Ramdas Pophale) SiO2 
 PCOD9346022
Probable space group: P N A 21
;
_chemical_formula_sum "Si O2"
_cell_formula_units_Z 28
_cell_length_a 11.614011
_cell_length_b 9.789328
_cell_length_c 9.680211
_cell_angle_alpha 90.000000
_cell_angle_beta 90.000000
_cell_angle_gamma 90.000000
_cell_volume 1100.575744
_symmetry_space_group_name_H-M "P N A 21"
_symmetry_group_IT_number 33
_symmetry_cell_setting 'orthorhombic'
loop_
_space_group_symop_operation_xyz
x,y,z
-x,-y,1/2+z
1/2-x,1/2+y,1/2+z
1/2+x,1/2-y,z
loop_
_atom_site_type_symbol
_atom_site_label
_atom_site_fract_x
_atom_site_fract_y
_atom_site_fract_z
Si Si1 0.358906 0.514906 0.010810
Si Si2 0.223742 0.541031 0.626349
Si Si3 0.194449 0.912576 0.894969
Si Si4 0.822028 0.680645 0.654909
Si Si5 0.980144 0.389321 0.948200
Si Si6 0.479704 0.619699 0.283932
Si Si7 0.870480 0.376444 0.392461
O O1 0.288102 0.387553 0.077358
O O2 0.448219 0.579854 0.123673
O O3 0.421147 0.460799 0.871732
O O4 0.249485 0.611787 0.976357
O O5 0.282517 0.412569 0.557987
O O6 0.308654 0.659242 0.672473
O O7 0.147137 0.525134 0.759889
O O8 0.148550 0.605563 0.503281
O O9 0.307990 0.890767 0.802525
O O10 0.133347 0.054272 0.857526
O O11 0.115651 0.781795 0.857313
O O12 0.936690 0.664519 0.569689
O O13 0.021732 0.547902 0.954747
O O14 0.998461 0.279213 0.823814
#
# Coordination Sequence:
#
# PCOD9346022 Si02
#       7
#     4   4   4   4   4   4   4
#     4  10  23  42  66 102 138 178 232 286 355 418
#     4  11  22  41  71  96 134 189 235 286 360 421
#     4  10  23  41  65  95 133 187 228 284 354 415
#     4   9  20  43  62  93 138 176 224 287 348 421
#     4  11  23  42  69  98 133 183 235 290 353 418
#     4  11  23  42  73  99 133 184 233 288 354 430
#     4  10  26  45  62 101 147 179 233 301 346 421
#
# _framework density 25.441229
#
# number of rings (size 3 to 8) (size 9 to 14) (size 15 to 20)
#    0.000    1.714    2.857    0.000    6.000    1.143 
#    0.000    0.000    0.000    0.000    0.000    0.000 
#    0.000    0.000    0.000    0.000    0.000    0.000 
#
# Total GULP energy -156141.528696 kJ/mol
# GULP energy per Si atom -5576.483168 kJ/mol
# Density = 2.538332 g / cm^3
# Si number density = 25.441229 Si / 1000 Ang^3
#
#
#
# Elastic Constant Matrix: (Units=GPa)
#
#
# Indices 1 2 3 4 5 6 
#
# 1 86.6877 20.9255 14.9582 0.0000 0.0000 0.0000
# 2 20.9255 31.6757 8.9961 0.0000 0.0000 0.0000
# 3 14.9582 8.9961 79.3599 0.0000 0.0000 0.0000
# 4 0.0000 0.0000 0.0000 38.9964 0.0000 0.0000
# 5 0.0000 0.0000 0.0000 0.0000 39.6191 0.0000
# 6 0.0000 0.0000 0.0000 0.0000 0.0000 -3.5995
#
#
#
# Elastic Compliance Matrix: (Units=1/GPa)
#
#
# Indices 1 2 3 4 5 6 
#
# 1 0.013926 -0.008736 -0.001635 0.000000 0.000000 0.000000
# 2 -0.008736 0.038100 -0.002672 0.000000 0.000000 0.000000
# 3 -0.001635 -0.002672 0.013212 0.000000 0.000000 0.000000
# 4 0.000000 0.000000 0.000000 0.025643 0.000000 0.000000
# 5 0.000000 0.000000 0.000000 0.000000 0.025240 0.000000
# 6 0.000000 0.000000 0.000000 0.000000 0.000000 -0.277816
#
#
# Mechanical properties :
#
#
# Convention : Reuss Voigt Hill
#
# Bulk Modulus (GPa) = 25.54110 31.94255 28.74182
# Shear Modulus (GPa) = -40.79713 25.19277 -7.80218
#
# Velocity S-wave (km/s) = -4.00882 3.15021 -1.75311
# Velocity P-wave (km/s) = 3.37142 5.08079 2.68775
#
# Compressibility (1/GPa) = 0.03915259
#
# Stress axis : x y z
#
# Youngs Moduli (GPa) = 71.80576 26.24674 75.68952
#
# Poissons Ratio (x) = 0.22929 0.12373
# Poissons Ratio (y) = 0.62728 0.20227
# Poissons Ratio (z) = 0.11738 0.07014
#
# Static dielectric constant tensor:
#      x y z
#    x 2.009790 0.000000 0.000000 
#    y 0.000000 2.023390 0.000000 
#    z 0.000000 0.000000 2.097360 
# 
# From -- ./inp_files/6749.got.cif
#   From: 2010.05.17/outbox.cif.g08.bks.cpg/sg33_4_cif.got.tgz:6749.got - 2010.06.03 17:15:25.
