data_PCOD9346806
_publ_section_title
;
Structure prediction by ZEFSAII (Michael W. Deem and Ramdas Pophale) SiO2 
 PCOD9346806
Probable space group: P N A 21
;
_chemical_formula_sum "Si O2"
_cell_formula_units_Z 20
_cell_length_a 9.241862
_cell_length_b 17.521291
_cell_length_c 5.202700
_cell_angle_alpha 90.000000
_cell_angle_beta 90.000000
_cell_angle_gamma 90.000000
_cell_volume 842.469847
_symmetry_space_group_name_H-M "P N A 21"
_symmetry_group_IT_number 33
_symmetry_cell_setting 'orthorhombic'
loop_
_space_group_symop_operation_xyz
x,y,z
-x,-y,1/2+z
1/2-x,1/2+y,1/2+z
1/2+x,1/2-y,z
loop_
_atom_site_type_symbol
_atom_site_label
_atom_site_fract_x
_atom_site_fract_y
_atom_site_fract_z
Si Si1 0.643938 0.758320 0.944810
Si Si2 0.214767 0.132366 0.791157
Si Si3 0.953359 0.400272 0.180149
Si Si4 0.916750 0.162284 0.952461
Si Si5 0.237031 0.485190 0.004700
O O1 0.535633 0.827132 0.864741
O O2 0.655617 0.706403 0.691336
O O3 0.777898 0.808054 0.055725
O O4 0.604282 0.706710 0.186496
O O5 0.089333 0.155338 0.986334
O O6 0.188776 0.047613 0.686347
O O7 0.372367 0.129827 0.925111
O O8 0.843124 0.463588 0.290947
O O9 0.105185 0.440391 0.139421
O O10 0.847389 0.079175 0.919402
#
# Coordination Sequence:
#
# PCOD9346806 Si02
#       5
#     4   4   4   4   4
#     4  11  28  49  74 114 153 197 251 320 386 453
#     4  11  27  51  74 114 156 200 258 320 379 467
#     4  11  24  50  75 109 152 202 253 312 379 466
#     4  12  30  46  83 110 155 199 257 322 386 449
#     4  11  27  46  80 109 152 206 259 310 386 459
#
# _framework density 23.739723999999999
#
# number of rings (size 3 to 8) (size 9 to 14) (size 15 to 20)
#    0.000    0.800    4.000    0.000   16.800    0.000 
#    0.000    0.000    0.000    0.000    0.000    0.000 
#    0.000    0.000    0.000    0.000    0.000    0.000 
#
# Total GULP energy -111885.155495 kJ/mol
# GULP energy per Si atom -5594.257775 kJ/mol
# Density = 2.368569 g / cm^3
# Si number density = 23.739724 Si / 1000 Ang^3
#
#
#
# Elastic Constant Matrix: (Units=GPa)
#
#
# Indices 1 2 3 4 5 6 
#
# 1 69.3026 42.8116 25.2985 0.0000 0.0000 0.0000
# 2 42.8116 140.2481 63.1120 0.0000 0.0000 0.0000
# 3 25.2985 63.1120 132.8620 0.0000 0.0000 0.0000
# 4 0.0000 0.0000 0.0000 15.2004 0.0000 0.0000
# 5 0.0000 0.0000 0.0000 0.0000 20.7666 0.0000
# 6 0.0000 0.0000 0.0000 0.0000 0.0000 16.4361
#
#
#
# Elastic Compliance Matrix: (Units=1/GPa)
#
#
# Indices 1 2 3 4 5 6 
#
# 1 0.017894 -0.004997 -0.001033 0.000000 0.000000 0.000000
# 2 -0.004997 0.010464 -0.004019 0.000000 0.000000 0.000000
# 3 -0.001033 -0.004019 0.009633 0.000000 0.000000 0.000000
# 4 0.000000 0.000000 0.000000 0.065788 0.000000 0.000000
# 5 0.000000 0.000000 0.000000 0.000000 0.048154 0.000000
# 6 0.000000 0.000000 0.000000 0.000000 0.000000 0.060842
#
#
# Mechanical properties :
#
#
# Convention : Reuss Voigt Hill
#
# Bulk Modulus (GPa) = 55.89399 67.20630 61.55015
# Shear Modulus (GPa) = 20.93477 24.56001 22.74739
#
# Velocity S-wave (km/s) = 2.97281 3.21994 3.09884
# Velocity P-wave (km/s) = 5.94803 6.49577 6.22793
#
# Compressibility (1/GPa) = 0.01789101
#
# Stress axis : x y z
#
# Youngs Moduli (GPa) = 55.88563 95.56319 103.81413
#
# Poissons Ratio (x) = 0.47754 0.10729
# Poissons Ratio (y) = 0.27927 0.41725
# Poissons Ratio (z) = 0.05776 0.38409
#
# Static dielectric constant tensor:
#      x y z
#    x 1.874960 0.000000 0.000000 
#    y 0.000000 1.870860 0.000000 
#    z 0.000000 0.000000 1.942730 
# 
# From -- ./inp_files/385.got.cif
#   From: 2010.05.17/outbox.cif.g08.bks.cpg/sg33_1_cif.got.tgz:385.got - 2010.06.03 17:15:25.
