data_PCOD9346678
_publ_section_title
;
Structure prediction by ZEFSAII (Michael W. Deem and Ramdas Pophale) SiO2 
 PCOD9346678
Probable space group: P N A 21
;
_chemical_formula_sum "Si O2"
_cell_formula_units_Z 32
_cell_length_a 14.262037
_cell_length_b 11.034922
_cell_length_c 8.339371
_cell_angle_alpha 90.000000
_cell_angle_beta 90.000000
_cell_angle_gamma 90.000000
_cell_volume 1312.454093
_symmetry_space_group_name_H-M "P N A 21"
_symmetry_group_IT_number 33
_symmetry_cell_setting 'orthorhombic'
loop_
_space_group_symop_operation_xyz
x,y,z
-x,-y,1/2+z
1/2-x,1/2+y,1/2+z
1/2+x,1/2-y,z
loop_
_atom_site_type_symbol
_atom_site_label
_atom_site_fract_x
_atom_site_fract_y
_atom_site_fract_z
Si Si1 0.544748 0.773776 0.875000
Si Si2 0.220324 0.070024 0.863049
Si Si3 0.003413 0.376622 0.705564
Si Si4 0.751141 0.169023 0.929245
Si Si5 0.470847 0.477641 0.235699
Si Si6 0.869514 0.608473 0.723847
Si Si7 0.814553 0.467245 0.206108
Si Si8 0.956512 0.167499 0.934145
O O1 0.555994 0.632934 0.850454
O O2 0.439008 0.800015 0.811177
O O3 0.622897 0.858148 0.785754
O O4 0.539859 0.802480 0.060792
O O5 0.246684 0.209872 0.821607
O O6 0.122841 0.057769 0.764505
O O7 0.280396 0.954600 0.805281
O O8 0.248747 0.067421 0.055064
O O9 0.938169 0.493597 0.711473
O O10 0.995535 0.293969 0.865609
O O11 0.105584 0.430694 0.664741
O O12 0.742728 0.040517 0.840215
O O13 0.853339 0.182325 0.005546
O O14 0.669713 0.165601 0.061145
O O15 0.548810 0.571932 0.290361
O O16 0.504176 0.410238 0.074419
#
# Coordination Sequence:
#
# PCOD9346678 Si02
#       8
#     4   4   4   4   4   4   4   4
#     4  11  25  45  72 106 152 191 252 312 381 454
#     4  12  26  49  73 107 150 197 251 317 377 457
#     4  11  23  47  73 104 146 193 249 309 378 447
#     4  12  26  47  76 108 148 200 254 315 376 457
#     4  12  29  46  71 109 155 200 249 316 391 457
#     4  11  24  46  73 105 144 194 254 306 376 450
#     4  11  26  44  74 109 140 197 251 310 376 451
#     4  12  27  48  72 104 153 198 248 313 387 455
#
# _framework density 24.381805
#
# number of rings (size 3 to 8) (size 9 to 14) (size 15 to 20)
#    0.000    0.500    5.000    2.250    7.000    0.000 
#    0.000    0.000    0.000    0.000    0.000    0.000 
#    0.000    0.000    0.000    0.000    0.000    0.000 
#
# Total GULP energy -178490.970227 kJ/mol
# GULP energy per Si atom -5577.842820 kJ/mol
# Density = 2.432631 g / cm^3
# Si number density = 24.381805 Si / 1000 Ang^3
#
#
#
# Elastic Constant Matrix: (Units=GPa)
#
#
# Indices 1 2 3 4 5 6 
#
# 1 84.3673 17.3512 23.2962 0.0000 0.0000 0.0000
# 2 17.3512 93.7217 -1.5432 0.0000 0.0000 0.0000
# 3 23.2962 -1.5432 62.7926 0.0000 0.0000 0.0000
# 4 0.0000 0.0000 0.0000 38.5280 0.0000 0.0000
# 5 0.0000 0.0000 0.0000 0.0000 18.2210 0.0000
# 6 0.0000 0.0000 0.0000 0.0000 0.0000 26.1499
#
#
#
# Elastic Compliance Matrix: (Units=1/GPa)
#
#
# Indices 1 2 3 4 5 6 
#
# 1 0.013832 -0.002646 -0.005197 0.000000 0.000000 0.000000
# 2 -0.002646 0.011181 0.001257 0.000000 0.000000 0.000000
# 3 -0.005197 0.001257 0.017884 0.000000 0.000000 0.000000
# 4 0.000000 0.000000 0.000000 0.025955 0.000000 0.000000
# 5 0.000000 0.000000 0.000000 0.000000 0.054882 0.000000
# 6 0.000000 0.000000 0.000000 0.000000 0.000000 0.038241
#
#
# Mechanical properties :
#
#
# Convention : Reuss Voigt Hill
#
# Bulk Modulus (GPa) = 33.64301 35.45443 34.54872
# Shear Modulus (GPa) = 27.01885 30.03163 28.52524
#
# Velocity S-wave (km/s) = 3.33251 3.51340 3.42415
# Velocity P-wave (km/s) = 5.35125 5.57060 5.46202
#
# Compressibility (1/GPa) = 0.02972385
#
# Stress axis : x y z
#
# Youngs Moduli (GPa) = 72.29523 89.44124 55.91479
#
# Poissons Ratio (x) = 0.23670 0.29058
# Poissons Ratio (y) = 0.19132 -0.07026
# Poissons Ratio (z) = 0.37570 -0.11239
#
# Static dielectric constant tensor:
#      x y z
#    x 2.086960 0.000000 0.000000 
#    y 0.000000 1.941920 0.000000 
#    z 0.000000 0.000000 2.006850 
# 
# From -- ./inp_files/4400.got.cif
#   From: 2010.05.17/outbox.cif.g08.bks.cpg/sg33_3_cif.got.tgz:4400.got - 2010.06.03 17:15:25.
