data_PCOD9346695
_publ_section_title
;
Structure prediction by ZEFSAII (Michael W. Deem and Ramdas Pophale) SiO2 
 PCOD9346695
Probable space group: P N A 21
;
_chemical_formula_sum "Si O2"
_cell_formula_units_Z 24
_cell_length_a 5.224824
_cell_length_b 21.656662
_cell_length_c 8.227996
_cell_angle_alpha 90.000000
_cell_angle_beta 90.000000
_cell_angle_gamma 90.000000
_cell_volume 931.016239
_symmetry_space_group_name_H-M "P N A 21"
_symmetry_group_IT_number 33
_symmetry_cell_setting 'orthorhombic'
loop_
_space_group_symop_operation_xyz
x,y,z
-x,-y,1/2+z
1/2-x,1/2+y,1/2+z
1/2+x,1/2-y,z
loop_
_atom_site_type_symbol
_atom_site_label
_atom_site_fract_x
_atom_site_fract_y
_atom_site_fract_z
Si Si1 0.832504 0.172036 0.783390
Si Si2 0.657830 0.852819 0.460206
Si Si3 0.632640 0.888485 0.818789
Si Si4 0.232541 0.286165 0.426860
Si Si5 0.505755 0.435956 0.572036
Si Si6 0.148690 0.508902 0.326211
O O1 0.612173 0.178204 0.917520
O O2 0.756658 0.209973 0.622894
O O3 0.110697 0.178943 0.863600
O O4 0.853126 0.102180 0.708224
O O5 0.721128 0.860297 0.649109
O O6 0.617002 0.922413 0.393032
O O7 0.372798 0.851983 0.864946
O O8 0.582809 0.961752 0.797663
O O9 0.825958 0.886348 0.970114
O O10 0.503849 0.259487 0.373210
O O11 0.325631 0.473644 0.454619
O O12 0.701804 0.482245 0.657987
#
# Coordination Sequence:
#
# PCOD9346695 Si02
#       6
#     4   4   4   4   4   4
#     4  11  25  49  67 104 139 186 238 295 352 426
#     4  11  27  42  73 107 151 185 228 285 363 438
#     4  12  26  44  70 106 148 187 240 300 351 426
#     4  12  26  49  78 101 132 189 249 304 362 418
#     4  11  24  40  68 103 149 193 235 278 351 435
#     4  11  24  38  68 105 149 198 228 280 351 441
#
# _framework density 25.778282999999998
#
# number of rings (size 3 to 8) (size 9 to 14) (size 15 to 20)
#    0.000    0.667    1.667    6.000   14.000    0.000 
#    0.000    5.000    0.000    0.000    0.000    0.000 
#    0.000    0.000    0.000    0.000    0.000    0.000 
#
# Total GULP energy -134536.738671 kJ/mol
# GULP energy per Si atom -5605.697445 kJ/mol
# Density = 2.571961 g / cm^3
# Si number density = 25.778283 Si / 1000 Ang^3
#
#
#
# Elastic Constant Matrix: (Units=GPa)
#
#
# Indices 1 2 3 4 5 6 
#
# 1 126.4421 27.1403 26.8660 0.0000 0.0000 0.0000
# 2 27.1403 113.0846 -1.9689 0.0000 0.0000 0.0000
# 3 26.8660 -1.9689 102.0324 0.0000 0.0000 0.0000
# 4 0.0000 0.0000 0.0000 39.3347 0.0000 0.0000
# 5 0.0000 0.0000 0.0000 0.0000 45.1761 0.0000
# 6 0.0000 0.0000 0.0000 0.0000 0.0000 23.5908
#
#
#
# Elastic Compliance Matrix: (Units=1/GPa)
#
#
# Indices 1 2 3 4 5 6 
#
# 1 0.008881 -0.002173 -0.002380 0.000000 0.000000 0.000000
# 2 -0.002173 0.009378 0.000753 0.000000 0.000000 0.000000
# 3 -0.002380 0.000753 0.010442 0.000000 0.000000 0.000000
# 4 0.000000 0.000000 0.000000 0.025423 0.000000 0.000000
# 5 0.000000 0.000000 0.000000 0.000000 0.022136 0.000000
# 6 0.000000 0.000000 0.000000 0.000000 0.000000 0.042389
#
#
# Mechanical properties :
#
#
# Convention : Reuss Voigt Hill
#
# Bulk Modulus (GPa) = 47.39267 49.51489 48.45378
# Shear Modulus (GPa) = 37.51443 40.92178 39.21811
#
# Velocity S-wave (km/s) = 3.81894 3.98861 3.90470
# Velocity P-wave (km/s) = 6.15389 6.36095 6.25828
#
# Compressibility (1/GPa) = 0.02110031
#
# Stress axis : x y z
#
# Youngs Moduli (GPa) = 112.60091 106.63781 95.76616
#
# Poissons Ratio (x) = 0.23171 0.22796
# Poissons Ratio (y) = 0.24467 -0.07212
# Poissons Ratio (z) = 0.26803 -0.08031
#
# Static dielectric constant tensor:
#      x y z
#    x 1.998970 0.000000 0.000000 
#    y 0.000000 2.045070 0.000000 
#    z 0.000000 0.000000 1.971520 
# 
# From -- ./inp_files/2719.got.cif
#   From: 2010.05.17/outbox.cif.g08.bks.cpg/sg33_2_cif.got.tgz:2719.got - 2010.06.03 17:15:25.
