data_PCOD9346429
_publ_section_title
;
Structure prediction by ZEFSAII (Michael W. Deem and Ramdas Pophale) SiO2 
 PCOD9346429
Probable space group: P N A 21
;
_chemical_formula_sum "Si O2"
_cell_formula_units_Z 16
_cell_length_a 15.117510
_cell_length_b 5.218937
_cell_length_c 7.712609
_cell_angle_alpha 90.000000
_cell_angle_beta 90.000000
_cell_angle_gamma 90.000000
_cell_volume 608.504275
_symmetry_space_group_name_H-M "P N A 21"
_symmetry_group_IT_number 33
_symmetry_cell_setting 'orthorhombic'
loop_
_space_group_symop_operation_xyz
x,y,z
-x,-y,1/2+z
1/2-x,1/2+y,1/2+z
1/2+x,1/2-y,z
loop_
_atom_site_type_symbol
_atom_site_label
_atom_site_fract_x
_atom_site_fract_y
_atom_site_fract_z
Si Si1 0.343357 0.809168 0.425500
Si Si2 0.569749 0.975287 0.617861
Si Si3 0.835535 0.360619 0.777971
Si Si4 0.490608 0.455361 0.760521
O O1 0.257887 0.645249 0.376489
O O2 0.434308 0.642717 0.401830
O O3 0.351193 0.986606 0.253767
O O4 0.332686 0.981018 0.598303
O O5 0.599784 0.977150 0.421697
O O6 0.524463 0.721884 0.690055
O O7 0.508061 0.223100 0.626325
O O8 0.884019 0.077177 0.777629
#
# Coordination Sequence:
#
# PCOD9346429 Si02
#       4
#     4   4   4   4
#     4  10  27  47  77 117 150 206 257 310 394 451
#     4  10  26  50  72 116 151 198 264 307 389 453
#     4  12  24  51  81 110 163 201 255 328 377 474
#     4  10  25  52  76 113 152 205 256 319 384 456
#
# _framework density 26.293980999999999
#
# number of rings (size 3 to 8) (size 9 to 14) (size 15 to 20)
#    1.500    0.000    0.000    3.000    3.500    4.000 
#   13.500    0.000    0.000    0.000    0.000    0.000 
#    0.000    0.000    0.000    0.000    0.000    0.000 
#
# Total GULP energy -89224.447772 kJ/mol
# GULP energy per Si atom -5576.527986 kJ/mol
# Density = 2.623414 g / cm^3
# Si number density = 26.293981 Si / 1000 Ang^3
#
#
#
# Elastic Constant Matrix: (Units=GPa)
#
#
# Indices 1 2 3 4 5 6 
#
# 1 136.3921 19.3993 31.7320 0.0000 0.0000 0.0000
# 2 19.3993 112.7956 32.7337 0.0000 0.0000 0.0000
# 3 31.7320 32.7337 164.7925 0.0000 0.0000 0.0000
# 4 0.0000 0.0000 0.0000 24.1888 0.0000 0.0000
# 5 0.0000 0.0000 0.0000 0.0000 49.4216 0.0000
# 6 0.0000 0.0000 0.0000 0.0000 0.0000 31.9481
#
#
#
# Elastic Compliance Matrix: (Units=1/GPa)
#
#
# Indices 1 2 3 4 5 6 
#
# 1 0.007772 -0.000958 -0.001306 0.000000 0.000000 0.000000
# 2 -0.000958 0.009526 -0.001708 0.000000 0.000000 0.000000
# 3 -0.001306 -0.001708 0.006659 0.000000 0.000000 0.000000
# 4 0.000000 0.000000 0.000000 0.041341 0.000000 0.000000
# 5 0.000000 0.000000 0.000000 0.000000 0.020234 0.000000
# 6 0.000000 0.000000 0.000000 0.000000 0.000000 0.031301
#
#
# Mechanical properties :
#
#
# Convention : Reuss Voigt Hill
#
# Bulk Modulus (GPa) = 62.44759 64.63449 63.54104
# Shear Modulus (GPa) = 38.42775 43.11937 40.77356
#
# Velocity S-wave (km/s) = 3.82706 4.05396 3.94214
# Velocity P-wave (km/s) = 6.58254 6.82258 6.70363
#
# Compressibility (1/GPa) = 0.01601343
#
# Stress axis : x y z
#
# Youngs Moduli (GPa) = 128.66830 104.97709 150.17247
#
# Poissons Ratio (x) = 0.10052 0.19618
# Poissons Ratio (y) = 0.12321 0.25646
# Poissons Ratio (z) = 0.16808 0.17928
#
# Static dielectric constant tensor:
#      x y z
#    x 2.198170 0.000000 0.000000 
#    y 0.000000 2.122380 0.000000 
#    z 0.000000 0.000000 2.219360 
# 
# From -- ./inp_files/4142.got.cif
#   From: 2010.05.17/outbox.cif.g08.bks.cpg/sg33_3_cif.got.tgz:4142.got - 2010.06.03 17:15:25.
