data_PCOD9346738
_publ_section_title
;
Structure prediction by ZEFSAII (Michael W. Deem and Ramdas Pophale) SiO2 
 PCOD9346738
Probable space group: P N A 21
;
_chemical_formula_sum "Si O2"
_cell_formula_units_Z 32
_cell_length_a 20.883989
_cell_length_b 4.899400
_cell_length_c 12.338366
_cell_angle_alpha 90.000000
_cell_angle_beta 90.000000
_cell_angle_gamma 90.000000
_cell_volume 1262.449465
_symmetry_space_group_name_H-M "P N A 21"
_symmetry_group_IT_number 33
_symmetry_cell_setting 'orthorhombic'
loop_
_space_group_symop_operation_xyz
x,y,z
-x,-y,1/2+z
1/2-x,1/2+y,1/2+z
1/2+x,1/2-y,z
loop_
_atom_site_type_symbol
_atom_site_label
_atom_site_fract_x
_atom_site_fract_y
_atom_site_fract_z
Si Si1 0.616282 0.848058 0.867280
Si Si2 0.681881 0.267675 0.600921
Si Si3 0.052287 0.097613 0.726526
Si Si4 0.994362 0.297547 0.525127
Si Si5 0.177625 0.965467 0.365013
Si Si6 0.540942 0.712351 0.407216
Si Si7 0.804667 0.846889 0.415668
Si Si8 0.231728 0.233329 0.151639
O O1 0.574555 0.694839 0.774915
O O2 0.677816 0.651739 0.883338
O O3 0.645101 0.147769 0.856459
O O4 0.576397 0.830370 0.978160
O O5 0.677134 0.348648 0.474238
O O6 0.612976 0.310046 0.654679
O O7 0.708542 0.969128 0.626239
O O8 0.735588 0.470391 0.651244
O O9 0.996553 0.140131 0.637773
O O10 0.018210 0.262840 0.825267
O O11 0.030262 0.585985 0.508652
O O12 0.030131 0.097061 0.442765
O O13 0.111765 0.793275 0.359147
O O14 0.235157 0.753933 0.383698
O O15 0.194067 0.138901 0.257984
O O16 0.811381 0.800322 0.544152
#
# Coordination Sequence:
#
# PCOD9346738 Si02
#       8
#     4   4   4   4   4   4   4   4
#     4  11  24  46  70 105 145 191 251 306 370 452
#     4  11  25  45  75 106 145 199 255 303 367 468
#     4  11  25  47  76 102 146 200 246 308 382 439
#     4  11  26  46  71 106 146 187 257 298 376 440
#     4  11  25  48  73 110 154 187 254 303 379 450
#     4  11  27  46  71 111 143 195 239 319 362 455
#     4  11  24  44  72 104 147 192 243 310 368 451
#     4  11  26  44  74 110 148 201 237 313 382 437
#
# _framework density 25.347546999999999
#
# number of rings (size 3 to 8) (size 9 to 14) (size 15 to 20)
#    0.000    1.000    1.250    4.500    5.250    9.000 
#    2.250    0.000    0.000    0.000    0.000    0.000 
#    0.000    0.000    0.000    0.000    0.000    0.000 
#
# Total GULP energy -179174.613252 kJ/mol
# GULP energy per Si atom -5599.206664 kJ/mol
# Density = 2.528985 g / cm^3
# Si number density = 25.347547 Si / 1000 Ang^3
#
#
#
# Elastic Constant Matrix: (Units=GPa)
#
#
# Indices 1 2 3 4 5 6 
#
# 1 104.1714 11.8627 26.5503 0.0000 0.0000 0.0000
# 2 11.8627 72.2443 11.3206 0.0000 0.0000 0.0000
# 3 26.5503 11.3206 145.4051 0.0000 0.0000 0.0000
# 4 0.0000 0.0000 0.0000 28.4888 0.0000 0.0000
# 5 0.0000 0.0000 0.0000 0.0000 43.1738 0.0000
# 6 0.0000 0.0000 0.0000 0.0000 0.0000 30.2116
#
#
#
# Elastic Compliance Matrix: (Units=1/GPa)
#
#
# Indices 1 2 3 4 5 6 
#
# 1 0.010206 -0.001401 -0.001755 0.000000 0.000000 0.000000
# 2 -0.001401 0.014205 -0.000850 0.000000 0.000000 0.000000
# 3 -0.001755 -0.000850 0.007264 0.000000 0.000000 0.000000
# 4 0.000000 0.000000 0.000000 0.035102 0.000000 0.000000
# 5 0.000000 0.000000 0.000000 0.000000 0.023162 0.000000
# 6 0.000000 0.000000 0.000000 0.000000 0.000000 0.033100
#
#
# Mechanical properties :
#
#
# Convention : Reuss Voigt Hill
#
# Bulk Modulus (GPa) = 42.25818 46.80977 44.53398
# Shear Modulus (GPa) = 35.98721 38.51399 37.25060
#
# Velocity S-wave (km/s) = 3.77205 3.90222 3.83769
# Velocity P-wave (km/s) = 5.97317 6.22980 6.10284
#
# Compressibility (1/GPa) = 0.02366406
#
# Stress axis : x y z
#
# Youngs Moduli (GPa) = 97.97887 70.39686 137.66708
#
# Poissons Ratio (x) = 0.09862 0.24154
# Poissons Ratio (y) = 0.13726 0.11704
# Poissons Ratio (z) = 0.17191 0.05985
#
# Static dielectric constant tensor:
#      x y z
#    x 2.006610 0.000000 0.000000 
#    y 0.000000 1.969010 0.000000 
#    z 0.000000 0.000000 2.047010 
# 
# From -- ./inp_files/7230.got.cif
#   From: 2010.05.17/outbox.cif.g08.bks.cpg/sg33_4_cif.got.tgz:7230.got - 2010.06.03 17:15:25.
