data_PCOD9346994
_publ_section_title
;
Structure prediction by ZEFSAII (Michael W. Deem and Ramdas Pophale) SiO2 
 PCOD9346994
Probable space group: P N A 21
;
_chemical_formula_sum "Si O2"
_cell_formula_units_Z 24
_cell_length_a 12.904335
_cell_length_b 9.349078
_cell_length_c 8.013667
_cell_angle_alpha 90.000000
_cell_angle_beta 90.000000
_cell_angle_gamma 90.000000
_cell_volume 966.797912
_symmetry_space_group_name_H-M "P N A 21"
_symmetry_group_IT_number 33
_symmetry_cell_setting 'orthorhombic'
loop_
_space_group_symop_operation_xyz
x,y,z
-x,-y,1/2+z
1/2-x,1/2+y,1/2+z
1/2+x,1/2-y,z
loop_
_atom_site_type_symbol
_atom_site_label
_atom_site_fract_x
_atom_site_fract_y
_atom_site_fract_z
Si Si1 0.435124 0.131535 0.177210
Si Si2 0.942205 0.350902 0.565817
Si Si3 0.270115 0.536040 0.664972
Si Si4 0.447874 0.625247 0.487802
Si Si5 0.606050 0.393725 0.466981
Si Si6 0.730968 0.286322 0.745893
O O1 0.405906 0.127135 0.373251
O O2 0.503687 0.995625 0.129013
O O3 0.324715 0.121426 0.081889
O O4 0.497232 0.271490 0.121139
O O5 0.853733 0.313992 0.702568
O O6 0.030602 0.231059 0.531642
O O7 0.370980 0.504217 0.556856
O O8 0.318211 0.632929 0.812098
O O9 0.225292 0.382235 0.706267
O O10 0.541629 0.533640 0.413667
O O11 0.359216 0.709450 0.388388
O O12 0.681899 0.408652 0.624110
#
# Coordination Sequence:
#
# PCOD9346994 Si02
#       6
#     4   4   4   4   4   4
#     4  12  28  48  75 117 155 209 263 337 406 490
#     4  12  27  50  78 112 161 206 271 334 407 485
#     4  12  26  48  75 113 155 208 265 324 420 478
#     4  12  29  47  80 114 155 204 274 334 399 490
#     4  12  26  51  77 110 158 208 266 334 403 490
#     4  12  28  48  81 116 156 213 267 337 407 491
#
# _framework density 24.824216
#
# number of rings (size 3 to 8) (size 9 to 14) (size 15 to 20)
#    0.000    0.000    6.667    2.000    4.667    0.000 
#    0.000    0.000    0.000    0.000    0.000    0.000 
#    0.000    0.000    0.000    0.000    0.000    0.000 
#
# Total GULP energy -133648.193011 kJ/mol
# GULP energy per Si atom -5568.674709 kJ/mol
# Density = 2.476771 g / cm^3
# Si number density = 24.824216 Si / 1000 Ang^3
#
#
#
# Elastic Constant Matrix: (Units=GPa)
#
#
# Indices 1 2 3 4 5 6 
#
# 1 168.3214 58.0144 23.2174 0.0000 0.0000 0.0000
# 2 58.0144 97.3327 5.1124 0.0000 0.0000 0.0000
# 3 23.2174 5.1124 43.5007 0.0000 0.0000 0.0000
# 4 0.0000 0.0000 0.0000 26.8062 0.0000 0.0000
# 5 0.0000 0.0000 0.0000 0.0000 41.2392 0.0000
# 6 0.0000 0.0000 0.0000 0.0000 0.0000 29.8199
#
#
#
# Elastic Compliance Matrix: (Units=1/GPa)
#
#
# Indices 1 2 3 4 5 6 
#
# 1 0.008043 -0.004597 -0.003753 0.000000 0.000000 0.000000
# 2 -0.004597 0.012965 0.000930 0.000000 0.000000 0.000000
# 3 -0.003753 0.000930 0.024882 0.000000 0.000000 0.000000
# 4 0.000000 0.000000 0.000000 0.037305 0.000000 0.000000
# 5 0.000000 0.000000 0.000000 0.000000 0.024249 0.000000
# 6 0.000000 0.000000 0.000000 0.000000 0.000000 0.033535
#
#
# Mechanical properties :
#
#
# Convention : Reuss Voigt Hill
#
# Bulk Modulus (GPa) = 32.20553 53.53813 42.87183
# Shear Modulus (GPa) = 30.09012 34.42709 32.25860
#
# Velocity S-wave (km/s) = 3.48534 3.72806 3.60874
# Velocity P-wave (km/s) = 5.40355 6.33601 5.88827
#
# Compressibility (1/GPa) = 0.03105056
#
# Stress axis : x y z
#
# Youngs Moduli (GPa) = 124.33182 77.12999 40.19019
#
# Poissons Ratio (x) = 0.35456 0.15081
# Poissons Ratio (y) = 0.57154 -0.03737
# Poissons Ratio (z) = 0.46656 -0.07171
#
# Static dielectric constant tensor:
#      x y z
#    x 1.979350 0.000000 0.000000 
#    y 0.000000 1.957190 0.000000 
#    z 0.000000 0.000000 2.263820 
# 
# From -- ./inp_files/3724.got.cif
#   From: 2010.05.17/outbox.cif.g08.bks.cpg/sg33_2_cif.got.tgz:3724.got - 2010.06.03 17:15:25.
