data_PCOD9346897
_publ_section_title
;
Structure prediction by ZEFSAII (Michael W. Deem and Ramdas Pophale) SiO2 
 PCOD9346897
Probable space group: P N A 21
;
_chemical_formula_sum "Si O2"
_cell_formula_units_Z 20
_cell_length_a 17.940781
_cell_length_b 4.869594
_cell_length_c 9.473598
_cell_angle_alpha 90.000000
_cell_angle_beta 90.000000
_cell_angle_gamma 90.000000
_cell_volume 827.654443
_symmetry_space_group_name_H-M "P N A 21"
_symmetry_group_IT_number 33
_symmetry_cell_setting 'orthorhombic'
loop_
_space_group_symop_operation_xyz
x,y,z
-x,-y,1/2+z
1/2-x,1/2+y,1/2+z
1/2+x,1/2-y,z
loop_
_atom_site_type_symbol
_atom_site_label
_atom_site_fract_x
_atom_site_fract_y
_atom_site_fract_z
Si Si1 0.108853 0.660330 0.160760
Si Si2 0.130079 0.165351 0.986078
Si Si3 0.666060 0.729094 0.666874
Si Si4 0.728408 0.578699 0.368179
Si Si5 0.436194 0.776799 0.223096
O O1 0.128870 0.347473 0.127227
O O2 0.161155 0.783823 0.282378
O O3 0.021310 0.696018 0.182180
O O4 0.126624 0.850461 0.025973
O O5 0.202947 0.215713 0.893211
O O6 0.066018 0.306468 0.892979
O O7 0.700562 0.568062 0.531396
O O8 0.599612 0.524836 0.711573
O O9 0.731106 0.838461 0.775049
O O10 0.618315 0.010306 0.642975
#
# Coordination Sequence:
#
# PCOD9346897 Si02
#       5
#     4   4   4   4   4
#     4  12  27  45  77 104 149 195 248 304 387 439
#     4  11  26  47  71 108 145 190 256 308 362 458
#     4  11  26  49  78 108 153 194 255 309 381 453
#     4  11  26  49  76 109 146 202 250 311 375 453
#     4  11  27  48  74 109 153 195 247 318 379 455
#
# _framework density 24.164676
#
# number of rings (size 3 to 8) (size 9 to 14) (size 15 to 20)
#    0.000    0.800    2.000    3.600   11.200    6.400 
#    0.000    0.000    0.000    0.000    0.000    0.000 
#    0.000    0.000    0.000    0.000    0.000    0.000 
#
# Total GULP energy -111570.466502 kJ/mol
# GULP energy per Si atom -5578.523325 kJ/mol
# Density = 2.410968 g / cm^3
# Si number density = 24.164676 Si / 1000 Ang^3
#
#
#
# Elastic Constant Matrix: (Units=GPa)
#
#
# Indices 1 2 3 4 5 6 
#
# 1 135.1094 15.3676 50.7947 0.0000 0.0000 0.0000
# 2 15.3676 93.7134 16.3909 0.0000 0.0000 0.0000
# 3 50.7947 16.3909 96.7412 0.0000 0.0000 0.0000
# 4 0.0000 0.0000 0.0000 24.3761 0.0000 0.0000
# 5 0.0000 0.0000 0.0000 0.0000 34.8624 0.0000
# 6 0.0000 0.0000 0.0000 0.0000 0.0000 24.1616
#
#
#
# Elastic Compliance Matrix: (Units=1/GPa)
#
#
# Indices 1 2 3 4 5 6 
#
# 1 0.009265 -0.000689 -0.004748 0.000000 0.000000 0.000000
# 2 -0.000689 0.011048 -0.001510 0.000000 0.000000 0.000000
# 3 -0.004748 -0.001510 0.013086 0.000000 0.000000 0.000000
# 4 0.000000 0.000000 0.000000 0.041024 0.000000 0.000000
# 5 0.000000 0.000000 0.000000 0.000000 0.028684 0.000000
# 6 0.000000 0.000000 0.000000 0.000000 0.000000 0.041388
#
#
# Mechanical properties :
#
#
# Convention : Reuss Voigt Hill
#
# Bulk Modulus (GPa) = 51.26997 54.51893 52.89445
# Shear Modulus (GPa) = 30.32339 32.88076 31.60207
#
# Velocity S-wave (km/s) = 3.54625 3.69276 3.62025
# Velocity P-wave (km/s) = 6.16691 6.38689 6.27787
#
# Compressibility (1/GPa) = 0.01950460
#
# Stress axis : x y z
#
# Youngs Moduli (GPa) = 107.93650 90.51474 76.41996
#
# Poissons Ratio (x) = 0.06235 0.36283
# Poissons Ratio (y) = 0.07435 0.11541
# Poissons Ratio (z) = 0.51246 0.13669
#
# Static dielectric constant tensor:
#      x y z
#    x 1.919350 0.000000 0.000000 
#    y 0.000000 1.888600 0.000000 
#    z 0.000000 0.000000 2.170810 
# 
# From -- ./inp_files/4573.got.cif
#   From: 2010.05.17/outbox.cif.g08.bks.cpg/sg33_3_cif.got.tgz:4573.got - 2010.06.03 17:15:25.
