data_PCOD9346156
_publ_section_title
;
Structure prediction by ZEFSAII (Michael W. Deem and Ramdas Pophale) SiO2 
 PCOD9346156
Probable space group: P N A 21
;
_chemical_formula_sum "Si O2"
_cell_formula_units_Z 32
_cell_length_a 13.709886
_cell_length_b 11.776943
_cell_length_c 8.513295
_cell_angle_alpha 90.000000
_cell_angle_beta 90.000000
_cell_angle_gamma 90.000000
_cell_volume 1374.561259
_symmetry_space_group_name_H-M "P N A 21"
_symmetry_group_IT_number 33
_symmetry_cell_setting 'orthorhombic'
loop_
_space_group_symop_operation_xyz
x,y,z
-x,-y,1/2+z
1/2-x,1/2+y,1/2+z
1/2+x,1/2-y,z
loop_
_atom_site_type_symbol
_atom_site_label
_atom_site_fract_x
_atom_site_fract_y
_atom_site_fract_z
Si Si1 0.356870 0.685288 0.053250
Si Si2 0.983948 0.691659 0.532263
Si Si3 0.102537 0.077012 0.043530
Si Si4 0.174518 0.551991 0.550869
Si Si5 0.676960 0.584065 0.589789
Si Si6 0.813809 0.627019 0.316682
Si Si7 0.847448 0.649679 0.814326
Si Si8 0.484023 0.378012 0.337941
O O1 0.345833 0.551020 0.078645
O O2 0.328875 0.764224 0.200759
O O3 0.299970 0.743778 0.907134
O O4 0.465610 0.698353 0.975561
O O5 0.959922 0.818568 0.475429
O O6 0.910102 0.619980 0.424555
O O7 0.939784 0.684658 0.708710
O O8 0.091914 0.645211 0.532272
O O9 0.216919 0.098121 0.019078
O O10 0.070901 0.069604 0.227216
O O11 0.071997 0.969077 0.944776
O O12 0.186016 0.487845 0.715881
O O13 0.138599 0.449788 0.438524
O O14 0.714851 0.630359 0.421297
O O15 0.772104 0.599185 0.693216
O O16 0.594982 0.644924 0.698840
#
# Coordination Sequence:
#
# PCOD9346156 Si02
#       8
#     4   4   4   4   4   4   4   4
#     4  11  23  48  70 109 160 197 258 327 399 461
#     4  11  24  45  72 106 148 195 251 314 385 466
#     4  12  26  46  73 107 146 195 257 316 397 462
#     4  11  24  47  72 104 146 199 249 310 386 477
#     4  11  23  47  73 109 146 201 257 322 390 470
#     4  10  25  45  76 108 154 201 259 318 393 477
#     4  10  23  45  70 104 149 195 247 318 386 467
#     4  12  24  45  72 107 151 193 254 339 384 464
#
# _framework density 23.280156000000002
#
# number of rings (size 3 to 8) (size 9 to 14) (size 15 to 20)
#    0.000    1.000    3.750    2.250    0.000    2.000 
#    0.000    3.750    0.000    0.000    0.000    0.000 
#    0.000    0.000    0.000    0.000    0.000    0.000 
#
# Total GULP energy -178436.315919 kJ/mol
# GULP energy per Si atom -5576.134872 kJ/mol
# Density = 2.322717 g / cm^3
# Si number density = 23.280156 Si / 1000 Ang^3
#
#
#
# Elastic Constant Matrix: (Units=GPa)
#
#
# Indices 1 2 3 4 5 6 
#
# 1 105.4972 26.0184 29.7544 0.0000 0.0000 0.0000
# 2 26.0184 62.1066 29.8393 0.0000 0.0000 0.0000
# 3 29.7544 29.8393 109.4388 0.0000 0.0000 0.0000
# 4 0.0000 0.0000 0.0000 36.7422 0.0000 0.0000
# 5 0.0000 0.0000 0.0000 0.0000 32.9361 0.0000
# 6 0.0000 0.0000 0.0000 0.0000 0.0000 24.3608
#
#
#
# Elastic Compliance Matrix: (Units=1/GPa)
#
#
# Indices 1 2 3 4 5 6 
#
# 1 0.010933 -0.003627 -0.001983 0.000000 0.000000 0.000000
# 2 -0.003627 0.019732 -0.004394 0.000000 0.000000 0.000000
# 3 -0.001983 -0.004394 0.010875 0.000000 0.000000 0.000000
# 4 0.000000 0.000000 0.000000 0.027217 0.000000 0.000000
# 5 0.000000 0.000000 0.000000 0.000000 0.030362 0.000000
# 6 0.000000 0.000000 0.000000 0.000000 0.000000 0.041049
#
#
# Mechanical properties :
#
#
# Convention : Reuss Voigt Hill
#
# Bulk Modulus (GPa) = 46.44556 49.80741 48.12649
# Shear Modulus (GPa) = 29.87688 31.56989 30.72338
#
# Velocity S-wave (km/s) = 3.58629 3.68650 3.63674
# Velocity P-wave (km/s) = 6.09448 6.28980 6.19291
#
# Compressibility (1/GPa) = 0.02153058
#
# Stress axis : x y z
#
# Youngs Moduli (GPa) = 91.46713 50.67931 91.95555
#
# Poissons Ratio (x) = 0.18382 0.18239
# Poissons Ratio (y) = 0.33177 0.40404
# Poissons Ratio (z) = 0.18142 0.22268
#
# Static dielectric constant tensor:
#      x y z
#    x 1.923320 0.000000 0.000000 
#    y 0.000000 2.023130 0.000000 
#    z 0.000000 0.000000 1.949410 
# 
# From -- ./inp_files/4393.got.cif
#   From: 2010.05.17/outbox.cif.g08.bks.cpg/sg33_3_cif.got.tgz:4393.got - 2010.06.03 17:15:25.
