data_PCOD9346986
_publ_section_title
;
Structure prediction by ZEFSAII (Michael W. Deem and Ramdas Pophale) SiO2 
 PCOD9346986
Probable space group: P N A 21
;
_chemical_formula_sum "Si O2"
_cell_formula_units_Z 28
_cell_length_a 21.680167
_cell_length_b 9.349853
_cell_length_c 5.367583
_cell_angle_alpha 90.000000
_cell_angle_beta 90.000000
_cell_angle_gamma 90.000000
_cell_volume 1088.043290
_symmetry_space_group_name_H-M "P N A 21"
_symmetry_group_IT_number 33
_symmetry_cell_setting 'orthorhombic'
loop_
_space_group_symop_operation_xyz
x,y,z
-x,-y,1/2+z
1/2-x,1/2+y,1/2+z
1/2+x,1/2-y,z
loop_
_atom_site_type_symbol
_atom_site_label
_atom_site_fract_x
_atom_site_fract_y
_atom_site_fract_z
Si Si1 0.645085 0.454216 0.432750
Si Si2 0.767798 0.433959 0.753808
Si Si3 0.378293 0.211120 0.881823
Si Si4 0.605407 0.033176 0.763651
Si Si5 0.806767 0.727137 0.585524
Si Si6 0.013977 0.644307 0.058545
Si Si7 0.987225 0.930249 0.914663
O O1 0.709055 0.427059 0.574058
O O2 0.641320 0.624539 0.393779
O O3 0.648135 0.342342 0.206966
O O4 0.579292 0.420507 0.553671
O O5 0.832619 0.362226 0.677428
O O6 0.782273 0.603798 0.775011
O O7 0.746218 0.329932 0.976903
O O8 0.449521 0.199350 0.800765
O O9 0.370582 0.106450 0.118366
O O10 0.557864 0.110032 0.575597
O O11 0.658005 0.135355 0.873033
O O12 0.554752 0.987410 0.969093
O O13 0.018870 0.778034 0.874031
O O14 0.023620 0.006779 0.140004
#
# Coordination Sequence:
#
# PCOD9346986 Si02
#       7
#     4   4   4   4   4   4   4
#     4  12  30  52  82 116 167 213 279 345 422 505
#     4  12  29  51  76 117 156 219 268 349 404 510
#     4  12  27  51  78 116 160 219 276 345 416 502
#     4  12  28  49  78 122 159 221 267 350 417 517
#     4  12  31  49  85 111 167 209 286 334 432 492
#     4  12  26  45  82 111 166 207 281 333 429 495
#     4  12  29  51  81 121 167 216 277 352 432 507
#
# _framework density 25.734269000000001
#
# number of rings (size 3 to 8) (size 9 to 14) (size 15 to 20)
#    0.000    0.000    5.714    1.714   14.000    1.143 
#    0.000    0.000    0.000    0.000    0.000    0.000 
#    0.000    0.000    0.000    0.000    0.000    0.000 
#
# Total GULP energy -156385.481179 kJ/mol
# GULP energy per Si atom -5585.195756 kJ/mol
# Density = 2.567570 g / cm^3
# Si number density = 25.734269 Si / 1000 Ang^3
#
#
#
# Elastic Constant Matrix: (Units=GPa)
#
#
# Indices 1 2 3 4 5 6 
#
# 1 124.4491 49.0714 7.4281 0.0000 0.0000 0.0000
# 2 49.0714 206.6960 52.7392 0.0000 0.0000 0.0000
# 3 7.4281 52.7392 50.4010 0.0000 0.0000 0.0000
# 4 0.0000 0.0000 0.0000 31.2831 0.0000 0.0000
# 5 0.0000 0.0000 0.0000 0.0000 35.8913 0.0000
# 6 0.0000 0.0000 0.0000 0.0000 0.0000 53.1053
#
#
#
# Elastic Compliance Matrix: (Units=1/GPa)
#
#
# Indices 1 2 3 4 5 6 
#
# 1 0.008921 -0.002432 0.001230 0.000000 0.000000 0.000000
# 2 -0.002432 0.007263 -0.007242 0.000000 0.000000 0.000000
# 3 0.001230 -0.007242 0.027237 0.000000 0.000000 0.000000
# 4 0.000000 0.000000 0.000000 0.031966 0.000000 0.000000
# 5 0.000000 0.000000 0.000000 0.000000 0.027862 0.000000
# 6 0.000000 0.000000 0.000000 0.000000 0.000000 0.018831
#
#
# Mechanical properties :
#
#
# Convention : Reuss Voigt Hill
#
# Bulk Modulus (GPa) = 37.68749 66.66928 52.17838
# Shear Modulus (GPa) = 33.82688 42.20976 38.01832
#
# Velocity S-wave (km/s) = 3.62949 4.05435 3.84779
# Velocity P-wave (km/s) = 5.67811 6.91954 6.32934
#
# Compressibility (1/GPa) = 0.02653400
#
# Stress axis : x y z
#
# Youngs Moduli (GPa) = 112.09717 137.68327 36.71443
#
# Poissons Ratio (x) = 0.33480 -0.04515
# Poissons Ratio (y) = 0.27258 0.26587
# Poissons Ratio (z) = -0.13785 0.99705
#
# Static dielectric constant tensor:
#      x y z
#    x 2.141640 0.000000 0.000000 
#    y 0.000000 2.045270 0.000000 
#    z 0.000000 0.000000 2.206430 
# 
# From -- ./inp_files/2242.got.cif
#   From: 2010.05.17/outbox.cif.g08.bks.cpg/sg33_2_cif.got.tgz:2242.got - 2010.06.03 17:15:25.
