data_PCOD9346657
_publ_section_title
;
Structure prediction by ZEFSAII (Michael W. Deem and Ramdas Pophale) SiO2 
 PCOD9346657
Probable space group: P N A 21
;
_chemical_formula_sum "Si O2"
_cell_formula_units_Z 32
_cell_length_a 19.135348
_cell_length_b 13.163054
_cell_length_c 5.026204
_cell_angle_alpha 90.000000
_cell_angle_beta 90.000000
_cell_angle_gamma 90.000000
_cell_volume 1265.998349
_symmetry_space_group_name_H-M "P N A 21"
_symmetry_group_IT_number 33
_symmetry_cell_setting 'orthorhombic'
loop_
_space_group_symop_operation_xyz
x,y,z
-x,-y,1/2+z
1/2-x,1/2+y,1/2+z
1/2+x,1/2-y,z
loop_
_atom_site_type_symbol
_atom_site_label
_atom_site_fract_x
_atom_site_fract_y
_atom_site_fract_z
Si Si1 0.050051 0.498485 0.590820
Si Si2 0.215765 0.574142 0.148288
Si Si3 0.563029 0.622805 0.712615
Si Si4 0.198587 0.145401 0.149595
Si Si5 0.035453 0.254988 0.822373
Si Si6 0.359300 0.863981 0.726987
Si Si7 0.909106 0.317284 0.455759
Si Si8 0.921887 0.919153 0.972424
O O1 0.984424 0.298633 0.591467
O O2 0.104538 0.410135 0.497463
O O3 0.085973 0.597343 0.724762
O O4 0.008616 0.520732 0.318097
O O5 0.268332 0.609659 0.375786
O O6 0.187418 0.459678 0.144566
O O7 0.251913 0.598246 0.871914
O O8 0.146342 0.642757 0.164776
O O9 0.517287 0.687627 0.501939
O O10 0.611300 0.706833 0.846826
O O11 0.600317 0.526570 0.588891
O O12 0.504663 0.577877 0.913287
O O13 0.189190 0.264604 0.216690
O O14 0.121713 0.100787 0.207951
O O15 0.086562 0.178150 0.664117
O O16 0.078426 0.328026 0.024135
#
# Coordination Sequence:
#
# PCOD9346657 Si02
#       8
#     4   4   4   4   4   4   4   4
#     4  12  29  46  81 129 169 209 260 342 447 522
#     4  12  31  55  80 116 163 225 289 339 398 502
#     4  11  23  45  80 128 167 216 261 372 432 504
#     4  12  30  56  81 113 163 230 293 330 399 511
#     4  11  25  49  84 128 163 216 267 362 440 512
#     4  12  29  56  88 114 173 218 283 348 430 492
#     4  11  29  48  78 126 174 205 281 350 443 502
#     4  11  24  47  82 122 170 213 292 337 433 507
#
# _framework density 25.276494
#
# number of rings (size 3 to 8) (size 9 to 14) (size 15 to 20)
#    0.000    0.500    2.500    3.000   12.250    5.000 
#    2.250    0.000    0.000    0.000    0.000    0.000 
#    0.000    0.000    0.000    0.000    0.000    0.000 
#
# Total GULP energy -179203.190478 kJ/mol
# GULP energy per Si atom -5600.099702 kJ/mol
# Density = 2.521896 g / cm^3
# Si number density = 25.276494 Si / 1000 Ang^3
#
#
#
# Elastic Constant Matrix: (Units=GPa)
#
#
# Indices 1 2 3 4 5 6 
#
# 1 87.4855 50.3603 26.5688 0.0000 0.0000 0.0000
# 2 50.3603 201.2420 43.9097 0.0000 0.0000 0.0000
# 3 26.5688 43.9097 116.2500 0.0000 0.0000 0.0000
# 4 0.0000 0.0000 0.0000 46.2176 0.0000 0.0000
# 5 0.0000 0.0000 0.0000 0.0000 51.7479 0.0000
# 6 0.0000 0.0000 0.0000 0.0000 0.0000 40.9247
#
#
#
# Elastic Compliance Matrix: (Units=1/GPa)
#
#
# Indices 1 2 3 4 5 6 
#
# 1 0.013773 -0.003008 -0.002012 0.000000 0.000000 0.000000
# 2 -0.003008 0.006072 -0.001606 0.000000 0.000000 0.000000
# 3 -0.002012 -0.001606 0.009669 0.000000 0.000000 0.000000
# 4 0.000000 0.000000 0.000000 0.021637 0.000000 0.000000
# 5 0.000000 0.000000 0.000000 0.000000 0.019324 0.000000
# 6 0.000000 0.000000 0.000000 0.000000 0.000000 0.024435
#
#
# Mechanical properties :
#
#
# Convention : Reuss Voigt Hill
#
# Bulk Modulus (GPa) = 61.49118 71.85058 66.67088
# Shear Modulus (GPa) = 44.02108 46.72061 45.37084
#
# Velocity S-wave (km/s) = 4.17775 4.30394 4.24132
# Velocity P-wave (km/s) = 6.90302 7.29288 7.10063
#
# Compressibility (1/GPa) = 0.01626249
#
# Stress axis : x y z
#
# Youngs Moduli (GPa) = 72.60720 164.68331 103.42746
#
# Poissons Ratio (x) = 0.49531 0.20807
# Poissons Ratio (y) = 0.21838 0.16613
# Poissons Ratio (z) = 0.14606 0.26452
#
# Static dielectric constant tensor:
#      x y z
#    x 2.032660 0.000000 0.000000 
#    y 0.000000 2.125010 0.000000 
#    z 0.000000 0.000000 2.032520 
# 
# From -- ./inp_files/2100.got.cif
#   From: 2010.05.17/outbox.cif.g08.bks.cpg/sg33_2_cif.got.tgz:2100.got - 2010.06.03 17:15:25.
