data_PCOD9346534
_publ_section_title
;
Structure prediction by ZEFSAII (Michael W. Deem and Ramdas Pophale) SiO2 
 PCOD9346534
Probable space group: P N A 21
;
_chemical_formula_sum "Si O2"
_cell_formula_units_Z 20
_cell_length_a 18.784152
_cell_length_b 8.321830
_cell_length_c 4.700252
_cell_angle_alpha 90.000000
_cell_angle_beta 90.000000
_cell_angle_gamma 90.000000
_cell_volume 734.736435
_symmetry_space_group_name_H-M "P N A 21"
_symmetry_group_IT_number 33
_symmetry_cell_setting 'orthorhombic'
loop_
_space_group_symop_operation_xyz
x,y,z
-x,-y,1/2+z
1/2-x,1/2+y,1/2+z
1/2+x,1/2-y,z
loop_
_atom_site_type_symbol
_atom_site_label
_atom_site_fract_x
_atom_site_fract_y
_atom_site_fract_z
Si Si1 0.949219 0.541702 0.274880
Si Si2 0.788591 0.152848 0.117620
Si Si3 0.865447 0.297088 0.619334
Si Si4 0.342927 0.689599 0.304047
Si Si5 0.041629 0.975657 0.966706
O O1 0.887715 0.459086 0.468557
O O2 0.902805 0.694476 0.161036
O O3 0.013890 0.551470 0.509300
O O4 0.843234 0.264841 0.939665
O O5 0.715092 0.209107 0.978944
O O6 0.802392 0.210524 0.439030
O O7 0.806280 0.960951 0.129701
O O8 0.937078 0.197319 0.567450
O O9 0.393402 0.593061 0.524822
O O10 0.027227 0.970904 0.634119
#
# Coordination Sequence:
#
# PCOD9346534 Si02
#       5
#     4   4   4   4   4
#     4  12  26  44  72 107 148 197 253 318 385 455
#     4  11  26  45  71 102 142 195 246 311 379 449
#     4  11  24  44  67 102 144 189 247 308 377 450
#     4  11  26  47  73 104 146 192 250 312 377 454
#     4  11  22  40  67  97 134 181 234 295 362 434
#
# _framework density 27.220649000000002
#
# number of rings (size 3 to 8) (size 9 to 14) (size 15 to 20)
#    0.000    0.800    0.000    7.200    0.000   12.800 
#    0.000    0.000    0.000    0.000    0.000    0.000 
#    0.000    0.000    0.000    0.000    0.000    0.000 
#
# Total GULP energy -111679.616270 kJ/mol
# GULP energy per Si atom -5583.980814 kJ/mol
# Density = 2.715869 g / cm^3
# Si number density = 27.220649 Si / 1000 Ang^3
#
#
#
# Elastic Constant Matrix: (Units=GPa)
#
#
# Indices 1 2 3 4 5 6 
#
# 1 161.3554 78.5823 28.4391 0.0000 0.0000 0.0000
# 2 78.5823 131.6874 36.0933 0.0000 0.0000 0.0000
# 3 28.4391 36.0933 109.9158 0.0000 0.0000 0.0000
# 4 0.0000 0.0000 0.0000 32.7447 0.0000 0.0000
# 5 0.0000 0.0000 0.0000 0.0000 39.1624 0.0000
# 6 0.0000 0.0000 0.0000 0.0000 0.0000 62.4783
#
#
#
# Elastic Compliance Matrix: (Units=1/GPa)
#
#
# Indices 1 2 3 4 5 6 
#
# 1 0.008773 -0.005069 -0.000605 0.000000 0.000000 0.000000
# 2 -0.005069 0.011274 -0.002390 0.000000 0.000000 0.000000
# 3 -0.000605 -0.002390 0.010039 0.000000 0.000000 0.000000
# 4 0.000000 0.000000 0.000000 0.030539 0.000000 0.000000
# 5 0.000000 0.000000 0.000000 0.000000 0.025535 0.000000
# 6 0.000000 0.000000 0.000000 0.000000 0.000000 0.016006
#
#
# Mechanical properties :
#
#
# Convention : Reuss Voigt Hill
#
# Bulk Modulus (GPa) = 71.65178 76.57646 74.11412
# Shear Modulus (GPa) = 40.66762 44.20000 42.43381
#
# Velocity S-wave (km/s) = 3.86942 4.03397 3.95255
# Velocity P-wave (km/s) = 6.80757 7.06329 6.93661
#
# Compressibility (1/GPa) = 0.01395639
#
# Stress axis : x y z
#
# Youngs Moduli (GPa) = 113.98659 88.70042 99.60715
#
# Poissons Ratio (x) = 0.44964 0.06029
# Poissons Ratio (y) = 0.57782 0.23811
# Poissons Ratio (z) = 0.06899 0.21203
#
# Static dielectric constant tensor:
#      x y z
#    x 2.145360 0.000000 0.000000 
#    y 0.000000 2.229610 0.000000 
#    z 0.000000 0.000000 2.009080 
# 
# From -- ./inp_files/1610.got.cif
#   From: 2010.05.17/outbox.cif.g08.bks.cpg/sg33_1_cif.got.tgz:1610.got - 2010.06.03 17:15:25.
