data_PCOD9346446
_publ_section_title
;
Structure prediction by ZEFSAII (Michael W. Deem and Ramdas Pophale) SiO2 
 PCOD9346446
Probable space group: P N A 21
;
_chemical_formula_sum "Si O2"
_cell_formula_units_Z 32
_cell_length_a 18.007976
_cell_length_b 8.554620
_cell_length_c 7.690006
_cell_angle_alpha 90.000000
_cell_angle_beta 90.000000
_cell_angle_gamma 90.000000
_cell_volume 1184.656126
_symmetry_space_group_name_H-M "P N A 21"
_symmetry_group_IT_number 33
_symmetry_cell_setting 'orthorhombic'
loop_
_space_group_symop_operation_xyz
x,y,z
-x,-y,1/2+z
1/2-x,1/2+y,1/2+z
1/2+x,1/2-y,z
loop_
_atom_site_type_symbol
_atom_site_label
_atom_site_fract_x
_atom_site_fract_y
_atom_site_fract_z
Si Si1 0.039121 0.852833 0.209890
Si Si2 0.375695 0.209128 0.399068
Si Si3 0.840035 0.893414 0.760080
Si Si4 0.870564 0.657097 0.466216
Si Si5 0.735813 0.555223 0.948046
Si Si6 0.905826 0.473326 0.886243
Si Si7 0.862165 0.863638 0.169575
Si Si8 0.490244 0.162457 0.139305
O O1 0.075558 0.704457 0.321164
O O2 0.951339 0.880252 0.183926
O O3 0.079728 0.016828 0.252498
O O4 0.072128 0.807171 0.024061
O O5 0.292559 0.268960 0.416348
O O6 0.417333 0.239467 0.216927
O O7 0.376164 0.029391 0.462853
O O8 0.953821 0.727400 0.495413
O O9 0.787228 0.008521 0.645769
O O10 0.837457 0.871540 0.969082
O O11 0.830397 0.742231 0.628686
O O12 0.844119 0.704394 0.275469
O O13 0.819581 0.504122 0.910017
O O14 0.683172 0.475625 0.800656
O O15 0.949936 0.600524 0.775327
O O16 0.950933 0.491609 0.064656
#
# Coordination Sequence:
#
# PCOD9346446 Si02
#       8
#     4   4   4   4   4   4   4   4
#     4  11  23  45  80 121 158 223 291 344 426 519
#     4  11  24  49  79 120 161 221 286 359 432 512
#     4  10  26  47  79 124 172 223 280 354 429 520
#     4  11  23  45  79 121 166 213 294 346 417 520
#     4  10  28  53  81 125 174 212 289 364 448 505
#     4  12  25  52  81 121 166 224 290 364 431 526
#     4  11  24  48  78 123 169 226 277 355 429 518
#     4  12  23  45  83 117 160 220 293 346 420 526
#
# _framework density 27.012060000000002
#
# number of rings (size 3 to 8) (size 9 to 14) (size 15 to 20)
#    0.000    1.000    3.750    0.750    8.750    1.000 
#    9.000   11.250    0.000    0.000    0.000    0.000 
#    0.000    0.000    0.000    0.000    0.000    0.000 
#
# Total GULP energy -178513.538405 kJ/mol
# GULP energy per Si atom -5578.548075 kJ/mol
# Density = 2.695058 g / cm^3
# Si number density = 27.012060 Si / 1000 Ang^3
#
#
#
# Elastic Constant Matrix: (Units=GPa)
#
#
# Indices 1 2 3 4 5 6 
#
# 1 222.4227 25.5412 55.6155 0.0000 0.0000 0.0000
# 2 25.5412 83.1575 30.5968 0.0000 0.0000 0.0000
# 3 55.6155 30.5968 185.4505 0.0000 0.0000 0.0000
# 4 0.0000 0.0000 0.0000 39.0148 0.0000 0.0000
# 5 0.0000 0.0000 0.0000 0.0000 6.5790 0.0000
# 6 0.0000 0.0000 0.0000 0.0000 0.0000 72.1084
#
#
#
# Elastic Compliance Matrix: (Units=1/GPa)
#
#
# Indices 1 2 3 4 5 6 
#
# 1 0.004943 -0.001036 -0.001311 0.000000 0.000000 0.000000
# 2 -0.001036 0.013020 -0.001837 0.000000 0.000000 0.000000
# 3 -0.001311 -0.001837 0.006089 0.000000 0.000000 0.000000
# 4 0.000000 0.000000 0.000000 0.025631 0.000000 0.000000
# 5 0.000000 0.000000 0.000000 0.000000 0.151999 0.000000
# 6 0.000000 0.000000 0.000000 0.000000 0.000000 0.013868
#
#
# Mechanical properties :
#
#
# Convention : Reuss Voigt Hill
#
# Bulk Modulus (GPa) = 63.76743 79.39306 71.58025
# Shear Modulus (GPa) = 21.82017 48.82558 35.32288
#
# Velocity S-wave (km/s) = 2.84525 4.25614 3.62010
# Velocity P-wave (km/s) = 5.86960 7.32178 6.63554
#
# Compressibility (1/GPa) = 0.01568199
#
# Stress axis : x y z
#
# Youngs Moduli (GPa) = 202.31507 76.80773 164.23790
#
# Poissons Ratio (x) = 0.07954 0.21539
# Poissons Ratio (y) = 0.20952 0.30178
# Poissons Ratio (z) = 0.26533 0.14113
#
# Static dielectric constant tensor:
#      x y z
#    x 2.097330 0.000000 0.000000 
#    y 0.000000 2.291120 0.000000 
#    z 0.000000 0.000000 2.318500 
# 
# From -- ./inp_files/6785.got.cif
#   From: 2010.05.17/outbox.cif.g08.bks.cpg/sg33_4_cif.got.tgz:6785.got - 2010.06.03 17:15:25.
