data_PCOD9346119
_publ_section_title
;
Structure prediction by ZEFSAII (Michael W. Deem and Ramdas Pophale) SiO2 
 PCOD9346119
Probable space group: P N A 21
;
_chemical_formula_sum "Si O2"
_cell_formula_units_Z 32
_cell_length_a 19.001181
_cell_length_b 12.398831
_cell_length_c 6.569186
_cell_angle_alpha 90.000000
_cell_angle_beta 90.000000
_cell_angle_gamma 90.000000
_cell_volume 1547.650506
_symmetry_space_group_name_H-M "P N A 21"
_symmetry_group_IT_number 33
_symmetry_cell_setting 'orthorhombic'
loop_
_space_group_symop_operation_xyz
x,y,z
-x,-y,1/2+z
1/2-x,1/2+y,1/2+z
1/2+x,1/2-y,z
loop_
_atom_site_type_symbol
_atom_site_label
_atom_site_fract_x
_atom_site_fract_y
_atom_site_fract_z
Si Si1 0.203442 0.383144 0.417050
Si Si2 0.203443 0.616855 0.504736
Si Si3 0.163746 0.751772 0.868338
Si Si4 0.930513 0.887196 0.851096
Si Si5 0.836254 0.751773 0.553448
Si Si6 0.926027 0.306076 0.752781
Si Si7 0.430512 0.387195 0.070690
Si Si8 0.926028 0.693924 0.169005
O O1 0.234034 0.499999 0.460894
O O2 0.263692 0.295493 0.461450
O O3 0.180288 0.354118 0.187331
O O4 0.134255 0.372006 0.554321
O O5 0.180289 0.645882 0.734455
O O6 0.263693 0.704506 0.460336
O O7 0.134256 0.627993 0.367464
O O8 0.132056 0.840628 0.712302
O O9 0.107481 0.730821 0.041311
O O10 0.867945 0.840628 0.709484
O O11 0.000000 0.898653 0.710893
O O12 0.941914 0.796665 0.024423
O O13 0.914459 0.000000 0.960893
O O14 0.892519 0.730821 0.380475
O O15 1.000000 0.363663 0.710893
O O16 0.941913 0.203336 0.897364
#
# Coordination Sequence:
#
# PCOD9346119 Si02
#       8
#     4   4   4   4   4   4   4   4
#     4  10  24  43  64  96 129 171 219 271 324 385
#     4  10  24  43  64  96 129 171 219 271 324 385
#     4  10  23  44  64  94 131 169 218 268 326 393
#     4  11  23  36  61  97 130 169 213 267 334 397
#     4  10  23  44  64  94 131 169 218 268 326 393
#     4  11  22  42  65  91 131 171 213 271 323 387
#     4  11  23  36  61  97 130 169 213 267 334 397
#     4  11  22  42  65  91 131 171 213 271 323 387
#
# _framework density 20.676500999999998
#
# number of rings (size 3 to 8) (size 9 to 14) (size 15 to 20)
#    0.000    1.500    2.500    1.500    3.500    1.000 
#    4.500    0.000    0.000    0.000    0.000    0.000 
#    0.000    0.000    0.000    0.000    0.000    0.000 
#
# Total GULP energy -178762.397678 kJ/mol
# GULP energy per Si atom -5586.324927 kJ/mol
# Density = 2.062944 g / cm^3
# Si number density = 20.676501 Si / 1000 Ang^3
#
#
#
# Elastic Constant Matrix: (Units=GPa)
#
#
# Indices 1 2 3 4 5 6 
#
# 1 116.3884 -11.6352 37.6871 0.0000 0.0000 0.0000
# 2 -11.6352 48.7689 23.7176 0.0000 0.0000 0.0000
# 3 37.6871 23.7176 95.3382 0.0000 0.0000 0.0000
# 4 0.0000 0.0000 0.0000 4.6952 0.0000 0.0000
# 5 0.0000 0.0000 0.0000 0.0000 30.6503 0.0000
# 6 0.0000 0.0000 0.0000 0.0000 0.0000 4.5171
#
#
#
# Elastic Compliance Matrix: (Units=1/GPa)
#
#
# Indices 1 2 3 4 5 6 
#
# 1 0.010966 0.005375 -0.005672 0.000000 0.000000 0.000000
# 2 0.005375 0.025961 -0.008583 0.000000 0.000000 0.000000
# 3 -0.005672 -0.008583 0.014866 0.000000 0.000000 0.000000
# 4 0.000000 0.000000 0.000000 0.212984 0.000000 0.000000
# 5 0.000000 0.000000 0.000000 0.000000 0.032626 0.000000
# 6 0.000000 0.000000 0.000000 0.000000 0.000000 0.221383
#
#
# Mechanical properties :
#
#
# Convention : Reuss Voigt Hill
#
# Bulk Modulus (GPa) = 29.38346 40.00383 34.69365
# Shear Modulus (GPa) = 9.12591 22.02090 15.57341
#
# Velocity S-wave (km/s) = 2.10315 3.26701 2.74741
# Velocity P-wave (km/s) = 4.48771 5.79833 5.18460
#
# Compressibility (1/GPa) = 0.03403275
#
# Stress axis : x y z
#
# Youngs Moduli (GPa) = 91.19293 38.51888 67.26643
#
# Poissons Ratio (x) = -0.20702 0.38152
# Poissons Ratio (y) = -0.49012 0.57735
# Poissons Ratio (z) = 0.51723 0.33061
#
# Static dielectric constant tensor:
#      x y z
#    x 1.751900 0.000000 0.000000 
#    y 0.000000 1.705540 0.000000 
#    z 0.000000 0.000000 1.736030 
# 
# From -- ./inp_files/2030.got.cif
#   From: 2010.05.17/outbox.cif.g08.bks.cpg/sg33_2_cif.got.tgz:2030.got - 2010.06.03 17:15:25.
