data_PCOD9346991
_publ_section_title
;
Structure prediction by ZEFSAII (Michael W. Deem and Ramdas Pophale) SiO2 
 PCOD9346991
Probable space group: P N A 21
;
_chemical_formula_sum "Si O2"
_cell_formula_units_Z 24
_cell_length_a 9.946101
_cell_length_b 18.106805
_cell_length_c 5.719771
_cell_angle_alpha 90.000000
_cell_angle_beta 90.000000
_cell_angle_gamma 90.000000
_cell_volume 1030.085636
_symmetry_space_group_name_H-M "P N A 21"
_symmetry_group_IT_number 33
_symmetry_cell_setting 'orthorhombic'
loop_
_space_group_symop_operation_xyz
x,y,z
-x,-y,1/2+z
1/2-x,1/2+y,1/2+z
1/2+x,1/2-y,z
loop_
_atom_site_type_symbol
_atom_site_label
_atom_site_fract_x
_atom_site_fract_y
_atom_site_fract_z
Si Si1 0.352467 0.816952 0.338730
Si Si2 0.565336 0.900934 0.647430
Si Si3 0.489509 0.704774 0.003620
Si Si4 0.764541 0.262632 0.237276
Si Si5 0.461427 0.463601 0.391970
Si Si6 0.330920 0.941489 0.989356
O O1 0.474862 0.864149 0.447355
O O2 0.421848 0.743890 0.227473
O O3 0.236443 0.790784 0.515341
O O4 0.290065 0.877980 0.168622
O O5 0.685605 0.844674 0.689716
O O6 0.621908 0.981442 0.595936
O O7 0.460002 0.909271 0.857398
O O8 0.485458 0.616934 0.973635
O O9 0.390889 0.736629 0.804376
O O10 0.637004 0.734259 0.940229
O O11 0.522865 0.489482 0.138783
O O12 0.301611 0.457312 0.338910
#
# Coordination Sequence:
#
# PCOD9346991 Si02
#       6
#     4   4   4   4   4   4
#     4  12  26  47  79 107 158 204 268 339 407 489
#     4  12  26  47  79 112 151 206 271 335 404 495
#     4  12  28  48  77 111 156 205 271 330 415 483
#     4  12  27  48  76 117 150 211 269 340 402 491
#     4  12  32  52  79 118 163 216 265 338 410 498
#     4  12  27  50  78 113 158 212 270 336 416 486
#
# _framework density 23.299036000000001
#
# number of rings (size 3 to 8) (size 9 to 14) (size 15 to 20)
#    0.000    0.000    5.000    3.000   14.000    1.333 
#    0.000    0.000    0.000    0.000    0.000    0.000 
#    0.000    0.000    0.000    0.000    0.000    0.000 
#
# Total GULP energy -134154.710096 kJ/mol
# GULP energy per Si atom -5589.779587 kJ/mol
# Density = 2.324601 g / cm^3
# Si number density = 23.299036 Si / 1000 Ang^3
#
#
#
# Elastic Constant Matrix: (Units=GPa)
#
#
# Indices 1 2 3 4 5 6 
#
# 1 72.0954 22.0186 4.7153 0.0000 0.0000 0.0000
# 2 22.0186 138.4578 20.0042 0.0000 0.0000 0.0000
# 3 4.7153 20.0042 54.5789 0.0000 0.0000 0.0000
# 4 0.0000 0.0000 0.0000 34.0512 0.0000 0.0000
# 5 0.0000 0.0000 0.0000 0.0000 26.3370 0.0000
# 6 0.0000 0.0000 0.0000 0.0000 0.0000 42.3906
#
#
#
# Elastic Compliance Matrix: (Units=1/GPa)
#
#
# Indices 1 2 3 4 5 6 
#
# 1 0.014588 -0.002257 -0.000433 0.000000 0.000000 0.000000
# 2 -0.002257 0.007976 -0.002728 0.000000 0.000000 0.000000
# 3 -0.000433 -0.002728 0.019359 0.000000 0.000000 0.000000
# 4 0.000000 0.000000 0.000000 0.029368 0.000000 0.000000
# 5 0.000000 0.000000 0.000000 0.000000 0.037969 0.000000
# 6 0.000000 0.000000 0.000000 0.000000 0.000000 0.023590
#
#
# Mechanical properties :
#
#
# Convention : Reuss Voigt Hill
#
# Bulk Modulus (GPa) = 32.16864 39.84541 36.00702
# Shear Modulus (GPa) = 32.45713 35.11537 33.78625
#
# Velocity S-wave (km/s) = 3.73643 3.88643 3.81217
# Velocity P-wave (km/s) = 5.69661 6.10557 5.90463
#
# Compressibility (1/GPa) = 0.03108618
#
# Stress axis : x y z
#
# Youngs Moduli (GPa) = 68.54834 125.38297 51.65442
#
# Poissons Ratio (x) = 0.28304 0.02237
# Poissons Ratio (y) = 0.15474 0.14092
# Poissons Ratio (z) = 0.02968 0.34207
#
# Static dielectric constant tensor:
#      x y z
#    x 1.918750 0.000000 0.000000 
#    y 0.000000 1.840570 0.000000 
#    z 0.000000 0.000000 1.984620 
# 
# From -- ./inp_files/399.got.cif
#   From: 2010.05.17/outbox.cif.g08.bks.cpg/sg33_1_cif.got.tgz:399.got - 2010.06.03 17:15:25.
