data_PCOD9346233
_publ_section_title
;
Structure prediction by ZEFSAII (Michael W. Deem and Ramdas Pophale) SiO2 
 PCOD9346233
Probable space group: P N A 21
;
_chemical_formula_sum "Si O2"
_cell_formula_units_Z 16
_cell_length_a 13.871534
_cell_length_b 6.737553
_cell_length_c 7.295394
_cell_angle_alpha 90.000000
_cell_angle_beta 90.000000
_cell_angle_gamma 90.000000
_cell_volume 681.828950
_symmetry_space_group_name_H-M "P N A 21"
_symmetry_group_IT_number 33
_symmetry_cell_setting 'orthorhombic'
loop_
_space_group_symop_operation_xyz
x,y,z
-x,-y,1/2+z
1/2-x,1/2+y,1/2+z
1/2+x,1/2-y,z
loop_
_atom_site_type_symbol
_atom_site_label
_atom_site_fract_x
_atom_site_fract_y
_atom_site_fract_z
Si Si1 0.863276 0.625891 0.632050
Si Si2 0.193996 0.714908 0.884890
Si Si3 0.597445 0.703644 0.230143
Si Si4 0.955716 0.098509 0.109298
O O1 0.821379 0.511267 0.453202
O O2 0.784601 0.729846 0.761025
O O3 0.906258 0.440680 0.747582
O O4 0.947559 0.774196 0.579417
O O5 0.103695 0.798957 0.770134
O O6 0.182821 0.827602 0.081912
O O7 0.606793 0.603723 0.426316
O O8 0.496839 0.617906 0.153403
#
# Coordination Sequence:
#
# PCOD9346233 Si02
#       4
#     4   4   4   4
#     4  10  25  47  67 110 143 195 245 311 377 445
#     4  10  25  46  70 108 148 188 251 312 371 452
#     4  10  24  41  71 101 138 191 238 312 360 450
#     4  12  22  48  72 101 145 198 250 301 382 443
#
# _framework density 23.466296
#
# number of rings (size 3 to 8) (size 9 to 14) (size 15 to 20)
#    1.500    0.000    2.500    1.500    3.500    2.000 
#    0.000    0.000    0.000    0.000    0.000    0.000 
#    0.000    0.000    0.000    0.000    0.000    0.000 
#
# Total GULP energy -89308.111571 kJ/mol
# GULP energy per Si atom -5581.756973 kJ/mol
# Density = 2.341289 g / cm^3
# Si number density = 23.466296 Si / 1000 Ang^3
#
#
#
# Elastic Constant Matrix: (Units=GPa)
#
#
# Indices 1 2 3 4 5 6 
#
# 1 120.4506 57.2059 40.4470 0.0000 0.0000 0.0000
# 2 57.2059 85.3114 15.1463 0.0000 0.0000 0.0000
# 3 40.4470 15.1463 124.8809 0.0000 0.0000 0.0000
# 4 0.0000 0.0000 0.0000 36.8494 0.0000 0.0000
# 5 0.0000 0.0000 0.0000 0.0000 41.1438 0.0000
# 6 0.0000 0.0000 0.0000 0.0000 0.0000 22.4103
#
#
#
# Elastic Compliance Matrix: (Units=1/GPa)
#
#
# Indices 1 2 3 4 5 6 
#
# 1 0.013408 -0.008401 -0.003324 0.000000 0.000000 0.000000
# 2 -0.008401 0.017243 0.000630 0.000000 0.000000 0.000000
# 3 -0.003324 0.000630 0.009008 0.000000 0.000000 0.000000
# 4 0.000000 0.000000 0.000000 0.027137 0.000000 0.000000
# 5 0.000000 0.000000 0.000000 0.000000 0.024305 0.000000
# 6 0.000000 0.000000 0.000000 0.000000 0.000000 0.044622
#
#
# Mechanical properties :
#
#
# Convention : Reuss Voigt Hill
#
# Bulk Modulus (GPa) = 57.24418 61.80460 59.52439
# Shear Modulus (GPa) = 30.53684 34.60363 32.57023
#
# Velocity S-wave (km/s) = 3.61128 3.84423 3.72957
# Velocity P-wave (km/s) = 6.46804 6.78962 6.63078
#
# Compressibility (1/GPa) = 0.01746903
#
# Stress axis : x y z
#
# Youngs Moduli (GPa) = 74.58202 57.99410 111.01491
#
# Poissons Ratio (x) = 0.48719 0.36899
# Poissons Ratio (y) = 0.62654 -0.06989
# Poissons Ratio (z) = 0.24789 -0.03651
#
# Static dielectric constant tensor:
#      x y z
#    x 1.858790 0.000000 0.000000 
#    y 0.000000 1.899840 0.000000 
#    z 0.000000 0.000000 1.908630 
# 
# From -- ./inp_files/3624.got.cif
#   From: 2010.05.17/outbox.cif.g08.bks.cpg/sg33_2_cif.got.tgz:3624.got - 2010.06.03 17:15:25.
