data_PCOD9346819
_publ_section_title
;
Structure prediction by ZEFSAII (Michael W. Deem and Ramdas Pophale) SiO2 
 PCOD9346819
Probable space group: P N A 21
;
_chemical_formula_sum "Si O2"
_cell_formula_units_Z 24
_cell_length_a 5.436304
_cell_length_b 31.070043
_cell_length_c 5.127990
_cell_angle_alpha 90.000000
_cell_angle_beta 90.000000
_cell_angle_gamma 90.000000
_cell_volume 866.149300
_symmetry_space_group_name_H-M "P N A 21"
_symmetry_group_IT_number 33
_symmetry_cell_setting 'orthorhombic'
loop_
_space_group_symop_operation_xyz
x,y,z
-x,-y,1/2+z
1/2-x,1/2+y,1/2+z
1/2+x,1/2-y,z
loop_
_atom_site_type_symbol
_atom_site_label
_atom_site_fract_x
_atom_site_fract_y
_atom_site_fract_z
Si Si1 0.302012 0.478392 0.152790
Si Si2 0.911076 0.723280 0.615140
Si Si3 0.059957 0.673313 0.100746
Si Si4 0.309010 0.052668 0.371929
Si Si5 0.743241 0.603799 0.320096
Si Si6 0.455316 0.633184 0.823507
O O1 0.585731 0.469431 0.211543
O O2 0.084451 0.462936 0.339064
O O3 0.264313 0.529649 0.140074
O O4 0.241629 0.444751 0.917974
O O5 0.648264 0.745877 0.650618
O O6 0.970144 0.705852 0.324912
O O7 0.915085 0.686476 0.838716
O O8 0.994843 0.628594 0.247956
O O9 0.337816 0.673055 0.984441
O O10 0.283057 0.102064 0.294764
O O11 0.592733 0.630432 0.546368
O O12 0.605754 0.608282 0.045082
#
# Coordination Sequence:
#
# PCOD9346819 Si02
#       6
#     4   4   4   4   4   4
#     4  11  25  43  70 105 153 204 260 317 373 443
#     4  12  30  54  82 117 154 200 248 309 390 476
#     4  12  28  48  86 109 160 196 254 315 386 464
#     4  11  25  43  70 105 153 204 260 317 373 443
#     4  11  27  46  76 112 154 202 260 316 384 448
#     4  11  27  46  76 112 154 202 260 316 384 448
#
# _framework density 27.708850000000002
#
# number of rings (size 3 to 8) (size 9 to 14) (size 15 to 20)
#    0.000    0.667    0.000    5.000   21.000    0.000 
#    0.000    0.000    0.000    0.000    0.000    0.000 
#    0.000    0.000    0.000    0.000    0.000    0.000 
#
# Total GULP energy -134006.214708 kJ/mol
# GULP energy per Si atom -5583.592279 kJ/mol
# Density = 2.764578 g / cm^3
# Si number density = 27.708850 Si / 1000 Ang^3
#
#
#
# Elastic Constant Matrix: (Units=GPa)
#
#
# Indices 1 2 3 4 5 6 
#
# 1 134.8106 31.2825 65.3499 0.0000 0.0000 0.0000
# 2 31.2825 55.6769 22.0336 0.0000 0.0000 0.0000
# 3 65.3499 22.0336 169.4322 0.0000 0.0000 0.0000
# 4 0.0000 0.0000 0.0000 47.8741 0.0000 0.0000
# 5 0.0000 0.0000 0.0000 0.0000 67.8809 0.0000
# 6 0.0000 0.0000 0.0000 0.0000 0.0000 57.6879
#
#
#
# Elastic Compliance Matrix: (Units=1/GPa)
#
#
# Indices 1 2 3 4 5 6 
#
# 1 0.010022 -0.004324 -0.003303 0.000000 0.000000 0.000000
# 2 -0.004324 0.020801 -0.001037 0.000000 0.000000 0.000000
# 3 -0.003303 -0.001037 0.007311 0.000000 0.000000 0.000000
# 4 0.000000 0.000000 0.000000 0.020888 0.000000 0.000000
# 5 0.000000 0.000000 0.000000 0.000000 0.014732 0.000000
# 6 0.000000 0.000000 0.000000 0.000000 0.000000 0.017335
#
#
# Mechanical properties :
#
#
# Convention : Reuss Voigt Hill
#
# Bulk Modulus (GPa) = 48.06511 66.36129 57.21320
# Shear Modulus (GPa) = 43.34526 50.77216 47.05871
#
# Velocity S-wave (km/s) = 3.95943 4.28523 4.12555
# Velocity P-wave (km/s) = 6.18764 6.96317 6.58683
#
# Compressibility (1/GPa) = 0.02080511
#
# Stress axis : x y z
#
# Youngs Moduli (GPa) = 99.77557 48.07535 136.77903
#
# Poissons Ratio (x) = 0.20787 0.45183
# Poissons Ratio (y) = 0.43142 0.14187
# Poissons Ratio (z) = 0.32960 0.04987
#
# Static dielectric constant tensor:
#      x y z
#    x 2.229770 0.000000 0.000000 
#    y 0.000000 2.439770 0.000000 
#    z 0.000000 0.000000 2.216780 
# 
# From -- ./inp_files/234.got.cif
#   From: 2010.05.17/outbox.cif.g08.bks.cpg/sg33_1_cif.got.tgz:234.got - 2010.06.03 17:15:25.
