data_PCOD9346198
_publ_section_title
;
Structure prediction by ZEFSAII (Michael W. Deem and Ramdas Pophale) SiO2 
 PCOD9346198
Probable space group: P N A 21
;
_chemical_formula_sum "Si O2"
_cell_formula_units_Z 24
_cell_length_a 20.335267
_cell_length_b 5.209800
_cell_length_c 8.469658
_cell_angle_alpha 90.000000
_cell_angle_beta 90.000000
_cell_angle_gamma 90.000000
_cell_volume 897.298217
_symmetry_space_group_name_H-M "P N A 21"
_symmetry_group_IT_number 33
_symmetry_cell_setting 'orthorhombic'
loop_
_space_group_symop_operation_xyz
x,y,z
-x,-y,1/2+z
1/2-x,1/2+y,1/2+z
1/2+x,1/2-y,z
loop_
_atom_site_type_symbol
_atom_site_label
_atom_site_fract_x
_atom_site_fract_y
_atom_site_fract_z
Si Si1 0.954981 0.462938 0.911270
Si Si2 0.282538 0.973027 0.581785
Si Si3 0.678396 0.276994 0.389585
Si Si4 0.570366 0.822312 0.750635
Si Si5 0.104633 0.856577 0.170167
Si Si6 0.134485 0.164218 0.876882
O O1 0.883311 0.593105 0.915264
O O2 0.956040 0.275450 0.758293
O O3 0.010805 0.673569 0.877676
O O4 0.959660 0.319296 0.076243
O O5 0.277110 0.837153 0.749267
O O6 0.295488 0.760169 0.445880
O O7 0.222788 0.154613 0.537260
O O8 0.349231 0.142811 0.588427
O O9 0.647019 0.531432 0.314771
O O10 0.605254 0.093397 0.785699
O O11 0.620055 0.587686 0.774719
O O12 0.098152 0.083473 0.042981
#
# Coordination Sequence:
#
# PCOD9346198 Si02
#       6
#     4   4   4   4   4   4
#     4  11  28  47  75 119 157 210 260 327 394 475
#     4  10  23  47  76 110 151 203 254 330 383 472
#     4  10  25  44  76 110 156 200 265 319 400 465
#     4  12  28  46  81 111 159 203 261 322 388 477
#     4  10  23  48  73 110 153 199 259 319 392 461
#     4  11  25  48  77 110 146 205 255 315 395 460
#
# _framework density 26.746959
#
# number of rings (size 3 to 8) (size 9 to 14) (size 15 to 20)
#    0.000    1.333    1.667    1.000    9.333    9.333 
#    0.000    0.000    0.000    0.000    0.000    0.000 
#    0.000    0.000    0.000    0.000    0.000    0.000 
#
# Total GULP energy -134510.984286 kJ/mol
# GULP energy per Si atom -5604.624345 kJ/mol
# Density = 2.668608 g / cm^3
# Si number density = 26.746959 Si / 1000 Ang^3
#
#
#
# Elastic Constant Matrix: (Units=GPa)
#
#
# Indices 1 2 3 4 5 6 
#
# 1 73.8294 27.5694 17.1984 0.0000 0.0000 0.0000
# 2 27.5694 140.3992 19.0260 0.0000 0.0000 0.0000
# 3 17.1984 19.0260 85.5868 0.0000 0.0000 0.0000
# 4 0.0000 0.0000 0.0000 35.2773 0.0000 0.0000
# 5 0.0000 0.0000 0.0000 0.0000 34.1100 0.0000
# 6 0.0000 0.0000 0.0000 0.0000 0.0000 37.3779
#
#
#
# Elastic Compliance Matrix: (Units=1/GPa)
#
#
# Indices 1 2 3 4 5 6 
#
# 1 0.015098 -0.002633 -0.002449 0.000000 0.000000 0.000000
# 2 -0.002633 0.007803 -0.001206 0.000000 0.000000 0.000000
# 3 -0.002449 -0.001206 0.012444 0.000000 0.000000 0.000000
# 4 0.000000 0.000000 0.000000 0.028347 0.000000 0.000000
# 5 0.000000 0.000000 0.000000 0.000000 0.029317 0.000000
# 6 0.000000 0.000000 0.000000 0.000000 0.000000 0.026754
#
#
# Mechanical properties :
#
#
# Convention : Reuss Voigt Hill
#
# Bulk Modulus (GPa) = 43.91528 47.48922 45.70225
# Shear Modulus (GPa) = 35.73278 37.08780 36.41029
#
# Velocity S-wave (km/s) = 3.65904 3.72777 3.69357
# Velocity P-wave (km/s) = 5.85712 6.02677 5.94255
#
# Compressibility (1/GPa) = 0.02277112
#
# Stress axis : x y z
#
# Youngs Moduli (GPa) = 66.23238 128.15704 80.35944
#
# Poissons Ratio (x) = 0.33743 0.19677
# Poissons Ratio (y) = 0.17439 0.09687
# Poissons Ratio (z) = 0.16218 0.15450
#
# Static dielectric constant tensor:
#      x y z
#    x 2.055970 0.000000 0.000000 
#    y 0.000000 2.090090 0.000000 
#    z 0.000000 0.000000 2.103730 
# 
# From -- ./inp_files/5100.got.cif
#   From: 2010.05.17/outbox.cif.g08.bks.cpg/sg33_3_cif.got.tgz:5100.got - 2010.06.03 17:15:25.
