data_PCOD9346045
_publ_section_title
;
Structure prediction by ZEFSAII (Michael W. Deem and Ramdas Pophale) SiO2 
 PCOD9346045
Probable space group: P N A 21
;
_chemical_formula_sum "Si O2"
_cell_formula_units_Z 32
_cell_length_a 7.839905
_cell_length_b 14.382346
_cell_length_c 11.420287
_cell_angle_alpha 90.000000
_cell_angle_beta 90.000000
_cell_angle_gamma 90.000000
_cell_volume 1287.708466
_symmetry_space_group_name_H-M "P N A 21"
_symmetry_group_IT_number 33
_symmetry_cell_setting 'orthorhombic'
loop_
_space_group_symop_operation_xyz
x,y,z
-x,-y,1/2+z
1/2-x,1/2+y,1/2+z
1/2+x,1/2-y,z
loop_
_atom_site_type_symbol
_atom_site_label
_atom_site_fract_x
_atom_site_fract_y
_atom_site_fract_z
Si Si1 0.844099 0.045821 0.310590
Si Si2 0.014151 0.178932 0.132659
Si Si3 0.030638 0.737969 0.100156
Si Si4 0.985517 0.670496 0.841660
Si Si5 0.211573 0.035716 0.402279
Si Si6 0.675859 0.390470 0.645980
Si Si7 0.303137 0.194590 0.962740
Si Si8 0.878639 0.649750 0.322379
O O1 0.674508 0.100236 0.345725
O O2 0.923348 0.095042 0.196301
O O3 0.008302 0.049840 0.393186
O O4 0.803214 0.942289 0.267692
O O5 0.040705 0.258953 0.232682
O O6 0.176287 0.147640 0.055721
O O7 0.888247 0.224354 0.040009
O O8 0.224992 0.704491 0.115529
O O9 0.011403 0.845188 0.138480
O O10 0.946975 0.664445 0.191705
O O11 0.987927 0.725586 0.963810
O O12 0.164717 0.612773 0.840503
O O13 0.242315 0.044260 0.541058
O O14 0.259622 0.937723 0.345789
O O15 0.204510 0.252772 0.863439
O O16 0.459616 0.137979 0.909822
#
# Coordination Sequence:
#
# PCOD9346045 Si02
#       8
#     4   4   4   4   4   4   4   4
#     4  12  26  46  75 112 152 191 258 318 380 451
#     4  11  21  45  73 108 143 192 253 312 383 453
#     4  11  26  48  78 104 157 205 252 309 392 472
#     4  11  26  47  78 112 151 206 247 323 396 455
#     4  11  27  46  71 112 152 193 262 315 378 461
#     4  11  27  48  72 112 147 203 251 318 378 462
#     4  10  23  41  75  98 144 201 243 313 382 448
#     4  11  24  47  68 108 148 199 256 310 381 464
#
# _framework density 24.850346999999999
#
# number of rings (size 3 to 8) (size 9 to 14) (size 15 to 20)
#    0.000    1.000    1.250    3.750   10.500    0.000 
#   11.250    0.000    0.000    0.000    0.000    0.000 
#    0.000    0.000    0.000    0.000    0.000    0.000 
#
# Total GULP energy -179005.472752 kJ/mol
# GULP energy per Si atom -5593.921023 kJ/mol
# Density = 2.479379 g / cm^3
# Si number density = 24.850347 Si / 1000 Ang^3
#
#
#
# Elastic Constant Matrix: (Units=GPa)
#
#
# Indices 1 2 3 4 5 6 
#
# 1 75.5601 11.4786 10.1584 0.0000 0.0000 0.0000
# 2 11.4786 84.7859 9.1579 0.0000 0.0000 0.0000
# 3 10.1584 9.1579 89.9299 0.0000 0.0000 0.0000
# 4 0.0000 0.0000 0.0000 27.2711 0.0000 0.0000
# 5 0.0000 0.0000 0.0000 0.0000 38.0663 0.0000
# 6 0.0000 0.0000 0.0000 0.0000 0.0000 37.1181
#
#
#
# Elastic Compliance Matrix: (Units=1/GPa)
#
#
# Indices 1 2 3 4 5 6 
#
# 1 0.013678 -0.001704 -0.001372 0.000000 0.000000 0.000000
# 2 -0.001704 0.012138 -0.001044 0.000000 0.000000 0.000000
# 3 -0.001372 -0.001044 0.011381 0.000000 0.000000 0.000000
# 4 0.000000 0.000000 0.000000 0.036669 0.000000 0.000000
# 5 0.000000 0.000000 0.000000 0.000000 0.026270 0.000000
# 6 0.000000 0.000000 0.000000 0.000000 0.000000 0.026941
#
#
# Mechanical properties :
#
#
# Convention : Reuss Voigt Hill
#
# Bulk Modulus (GPa) = 34.53159 34.65174 34.59167
# Shear Modulus (GPa) = 34.49069 35.12317 34.80693
#
# Velocity S-wave (km/s) = 3.72954 3.76358 3.74660
# Velocity P-wave (km/s) = 5.69842 5.73241 5.71544
#
# Compressibility (1/GPa) = 0.02895899
#
# Stress axis : x y z
#
# Youngs Moduli (GPa) = 73.11178 82.38748 87.86594
#
# Poissons Ratio (x) = 0.14035 0.12051
# Poissons Ratio (y) = 0.12455 0.09170
# Poissons Ratio (z) = 0.10027 0.08598
#
# Static dielectric constant tensor:
#      x y z
#    x 2.124480 0.000000 0.000000 
#    y 0.000000 2.011200 0.000000 
#    z 0.000000 0.000000 1.942920 
# 
# From -- ./inp_files/5972.got.cif
#   From: 2010.05.17/outbox.cif.g08.bks.cpg/sg33_3_cif.got.tgz:5972.got - 2010.06.03 17:15:25.
