data_PCOD9346999
_publ_section_title
;
Structure prediction by ZEFSAII (Michael W. Deem and Ramdas Pophale) SiO2 
 PCOD9346999
Probable space group: P N A 21
;
_chemical_formula_sum "Si O2"
_cell_formula_units_Z 20
_cell_length_a 18.145332
_cell_length_b 7.834324
_cell_length_c 5.602728
_cell_angle_alpha 90.000000
_cell_angle_beta 90.000000
_cell_angle_gamma 90.000000
_cell_volume 796.463699
_symmetry_space_group_name_H-M "P N A 21"
_symmetry_group_IT_number 33
_symmetry_cell_setting 'orthorhombic'
loop_
_space_group_symop_operation_xyz
x,y,z
-x,-y,1/2+z
1/2-x,1/2+y,1/2+z
1/2+x,1/2-y,z
loop_
_atom_site_type_symbol
_atom_site_label
_atom_site_fract_x
_atom_site_fract_y
_atom_site_fract_z
Si Si1 0.680372 0.914679 0.295750
Si Si2 0.555272 0.400128 0.703678
Si Si3 0.114277 0.928826 0.323414
Si Si4 0.176201 0.221062 0.053471
Si Si5 0.540108 0.047998 0.507456
O O1 0.642618 0.742158 0.198166
O O2 0.757299 0.846162 0.392549
O O3 0.621664 0.967312 0.501359
O O4 0.685934 0.084229 0.135888
O O5 0.471355 0.446201 0.751990
O O6 0.603333 0.559227 0.609741
O O7 0.669147 0.417558 0.263588
O O8 0.550547 0.250310 0.508338
O O9 0.099556 0.191071 0.914944
O O10 0.498134 0.002668 0.754763
#
# Coordination Sequence:
#
# PCOD9346999 Si02
#       5
#     4   4   4   4   4
#     4  12  29  50  82 115 167 219 279 345 425 496
#     4  12  26  48  79 114 166 205 288 341 430 493
#     4  12  27  48  81 116 154 220 268 350 413 511
#     4  12  29  54  73 120 166 220 280 347 418 510
#     4  12  27  50  83 123 161 216 281 345 416 500
#
# _framework density 25.110997999999999
#
# number of rings (size 3 to 8) (size 9 to 14) (size 15 to 20)
#    0.000    0.000    6.000    2.400    5.600    3.200 
#    3.600    0.000    0.000    0.000    0.000    0.000 
#    0.000    0.000    0.000    0.000    0.000    0.000 
#
# Total GULP energy -111774.382765 kJ/mol
# GULP energy per Si atom -5588.719138 kJ/mol
# Density = 2.505384 g / cm^3
# Si number density = 25.110998 Si / 1000 Ang^3
#
#
#
# Elastic Constant Matrix: (Units=GPa)
#
#
# Indices 1 2 3 4 5 6 
#
# 1 134.1080 52.2406 50.8201 0.0000 0.0000 0.0000
# 2 52.2406 189.7294 61.2710 0.0000 0.0000 0.0000
# 3 50.8201 61.2710 84.3527 0.0000 0.0000 0.0000
# 4 0.0000 0.0000 0.0000 52.4020 0.0000 0.0000
# 5 0.0000 0.0000 0.0000 0.0000 21.9648 0.0000
# 6 0.0000 0.0000 0.0000 0.0000 0.0000 36.6807
#
#
#
# Elastic Compliance Matrix: (Units=1/GPa)
#
#
# Indices 1 2 3 4 5 6 
#
# 1 0.009816 -0.001036 -0.005161 0.000000 0.000000 0.000000
# 2 -0.001036 0.006995 -0.004457 0.000000 0.000000 0.000000
# 3 -0.005161 -0.004457 0.018202 0.000000 0.000000 0.000000
# 4 0.000000 0.000000 0.000000 0.019083 0.000000 0.000000
# 5 0.000000 0.000000 0.000000 0.000000 0.045527 0.000000
# 6 0.000000 0.000000 0.000000 0.000000 0.000000 0.027262
#
#
# Mechanical properties :
#
#
# Convention : Reuss Voigt Hill
#
# Bulk Modulus (GPa) = 72.96817 81.87264 77.42041
# Shear Modulus (GPa) = 32.73035 38.46672 35.59853
#
# Velocity S-wave (km/s) = 3.61422 3.91815 3.76925
# Velocity P-wave (km/s) = 6.82188 7.29001 7.05983
#
# Compressibility (1/GPa) = 0.01370461
#
# Stress axis : x y z
#
# Youngs Moduli (GPa) = 101.87281 142.95435 54.93897
#
# Poissons Ratio (x) = 0.14810 0.28357
# Poissons Ratio (y) = 0.10554 0.24486
# Poissons Ratio (z) = 0.52581 0.63714
#
# Static dielectric constant tensor:
#      x y z
#    x 2.004430 0.000000 0.000000 
#    y 0.000000 2.119460 0.000000 
#    z 0.000000 0.000000 2.169370 
# 
# From -- ./inp_files/1639.got.cif
#   From: 2010.05.17/outbox.cif.g08.bks.cpg/sg33_1_cif.got.tgz:1639.got - 2010.06.03 17:15:25.
