data_PCOD9346029
_publ_section_title
;
Structure prediction by ZEFSAII (Michael W. Deem and Ramdas Pophale) SiO2 
 PCOD9346029
Probable space group: P N A 21
;
_chemical_formula_sum "Si O2"
_cell_formula_units_Z 32
_cell_length_a 9.377682
_cell_length_b 15.728595
_cell_length_c 11.101553
_cell_angle_alpha 90.000000
_cell_angle_beta 90.000000
_cell_angle_gamma 90.000000
_cell_volume 1637.454225
_symmetry_space_group_name_H-M "P N A 21"
_symmetry_group_IT_number 33
_symmetry_cell_setting 'orthorhombic'
loop_
_space_group_symop_operation_xyz
x,y,z
-x,-y,1/2+z
1/2-x,1/2+y,1/2+z
1/2+x,1/2-y,z
loop_
_atom_site_type_symbol
_atom_site_label
_atom_site_fract_x
_atom_site_fract_y
_atom_site_fract_z
Si Si1 0.281685 0.218069 0.522520
Si Si2 0.827695 0.903925 0.818654
Si Si3 0.853848 0.556932 0.369964
Si Si4 0.438843 0.842957 0.146622
Si Si5 0.167986 0.325415 0.091103
Si Si6 0.335528 0.165934 0.087104
Si Si7 0.367178 0.988463 0.959316
Si Si8 0.155251 0.864677 0.831625
O O1 0.216987 0.141809 0.443233
O O2 0.401486 0.184065 0.613199
O O3 0.161939 0.269370 0.594675
O O4 0.345146 0.285863 0.425585
O O5 0.740582 0.860273 0.711032
O O6 0.994772 0.889502 0.799248
O O7 0.778302 0.001732 0.823906
O O8 0.900866 0.633371 0.282825
O O9 0.823299 0.594763 0.501473
O O10 0.990824 0.494487 0.377910
O O11 0.405734 0.929163 0.072445
O O12 0.246887 0.244266 0.034279
O O13 0.250549 0.341207 0.215548
O O14 0.000029 0.309503 0.110827
O O15 0.334677 0.083397 0.002475
O O16 0.236946 0.943095 0.893738
#
# Coordination Sequence:
#
# PCOD9346029 Si02
#       8
#     4   4   4   4   4   4   4   4
#     4  11  23  40  67  96 129 171 222 279 329 400
#     4  12  22  39  67  97 129 170 225 275 333 394
#     4  11  25  44  66  95 136 181 213 280 342 405
#     4  11  23  43  65  98 135 170 224 273 341 396
#     4  11  25  41  66  97 132 170 226 268 335 396
#     4  11  23  41  65  95 130 174 214 275 327 397
#     4  10  23  41  67  92 132 171 221 270 333 396
#     4  11  24  39  65 102 127 169 225 280 324 396
#
# _framework density 19.542532000000001
#
# number of rings (size 3 to 8) (size 9 to 14) (size 15 to 20)
#    0.000    1.000    5.000    1.500    3.500    4.000 
#    0.000    1.250    0.000    0.000    0.000    0.000 
#    0.000    0.000    0.000    0.000    0.000    0.000 
#
# Total GULP energy -178859.326036 kJ/mol
# GULP energy per Si atom -5589.353939 kJ/mol
# Density = 1.949805 g / cm^3
# Si number density = 19.542532 Si / 1000 Ang^3
#
#
#
# Elastic Constant Matrix: (Units=GPa)
#
#
# Indices 1 2 3 4 5 6 
#
# 1 107.6052 42.6452 12.0429 0.0000 0.0000 0.0000
# 2 42.6452 72.7024 4.2042 0.0000 0.0000 0.0000
# 3 12.0429 4.2042 41.4155 0.0000 0.0000 0.0000
# 4 0.0000 0.0000 0.0000 29.1816 0.0000 0.0000
# 5 0.0000 0.0000 0.0000 0.0000 21.1190 0.0000
# 6 0.0000 0.0000 0.0000 0.0000 0.0000 27.3783
#
#
#
# Elastic Compliance Matrix: (Units=1/GPa)
#
#
# Indices 1 2 3 4 5 6 
#
# 1 0.012444 -0.007132 -0.002894 0.000000 0.000000 0.000000
# 2 -0.007132 0.017923 0.000254 0.000000 0.000000 0.000000
# 3 -0.002894 0.000254 0.024961 0.000000 0.000000 0.000000
# 4 0.000000 0.000000 0.000000 0.034268 0.000000 0.000000
# 5 0.000000 0.000000 0.000000 0.000000 0.047351 0.000000
# 6 0.000000 0.000000 0.000000 0.000000 0.000000 0.036525
#
#
# Mechanical properties :
#
#
# Convention : Reuss Voigt Hill
#
# Bulk Modulus (GPa) = 27.94493 37.72307 32.83400
# Shear Modulus (GPa) = 24.39692 26.39117 25.39404
#
# Velocity S-wave (km/s) = 3.53711 3.67883 3.60866
# Velocity P-wave (km/s) = 5.56885 6.11474 5.84817
#
# Compressibility (1/GPa) = 0.03578466
#
# Stress axis : x y z
#
# Youngs Moduli (GPa) = 80.36314 55.79351 40.06193
#
# Poissons Ratio (x) = 0.39790 0.11595
# Poissons Ratio (y) = 0.57312 -0.01019
# Poissons Ratio (z) = 0.23260 -0.01419
#
# Static dielectric constant tensor:
#      x y z
#    x 1.659910 0.000000 0.000000 
#    y 0.000000 1.691620 0.000000 
#    z 0.000000 0.000000 1.680820 
# 
# From -- ./inp_files/5944.got.cif
#   From: 2010.05.17/outbox.cif.g08.bks.cpg/sg33_3_cif.got.tgz:5944.got - 2010.06.03 17:15:25.
