data_PCOD9346175
_publ_section_title
;
Structure prediction by ZEFSAII (Michael W. Deem and Ramdas Pophale) SiO2 
 PCOD9346175
Probable space group: P N A 21
;
_chemical_formula_sum "Si O2"
_cell_formula_units_Z 32
_cell_length_a 14.249092
_cell_length_b 5.170806
_cell_length_c 17.645260
_cell_angle_alpha 90.000000
_cell_angle_beta 90.000000
_cell_angle_gamma 90.000000
_cell_volume 1300.090236
_symmetry_space_group_name_H-M "P N A 21"
_symmetry_group_IT_number 33
_symmetry_cell_setting 'orthorhombic'
loop_
_space_group_symop_operation_xyz
x,y,z
-x,-y,1/2+z
1/2-x,1/2+y,1/2+z
1/2+x,1/2-y,z
loop_
_atom_site_type_symbol
_atom_site_label
_atom_site_fract_x
_atom_site_fract_y
_atom_site_fract_z
Si Si1 0.693319 0.308652 0.325870
Si Si2 0.843697 0.906383 0.509900
Si Si3 0.987657 0.446572 0.992764
Si Si4 0.712580 0.181164 0.163247
Si Si5 0.816170 0.272510 0.913601
Si Si6 0.426255 0.390063 0.218574
Si Si7 0.889073 0.288628 0.379127
Si Si8 0.027043 0.619886 0.150962
O O1 0.672787 0.317453 0.238403
O O2 0.640290 0.515971 0.377015
O O3 0.800389 0.410435 0.335764
O O4 0.690578 0.012769 0.354923
O O5 0.947522 0.793634 0.515467
O O6 0.797724 0.873810 0.592021
O O7 0.781604 0.722189 0.455818
O O8 0.849056 0.156594 0.456280
O O9 0.026871 0.542737 0.911847
O O10 0.881976 0.370823 0.980468
O O11 0.998586 0.637906 0.062691
O O12 0.819422 0.098677 0.183961
O O13 0.638310 0.946840 0.151035
O O14 0.423562 0.394431 0.310635
O O15 0.489293 0.626071 0.190789
O O16 0.472520 0.122833 0.189117
#
# Coordination Sequence:
#
# PCOD9346175 Si02
#       8
#     4   4   4   4   4   4   4   4
#     4  10  24  46  68 104 137 183 244 284 366 432
#     4  10  23  46  68 102 143 186 240 299 366 426
#     4  11  25  43  70 104 144 189 240 300 365 433
#     4  10  25  48  76 105 149 198 238 316 367 438
#     4  11  24  43  69 101 138 184 236 294 354 435
#     4  11  27  50  77 109 153 195 251 306 374 448
#     4  10  24  45  74 103 147 194 238 310 367 437
#     4  11  28  47  74 112 147 195 255 297 375 453
#
# _framework density 24.613678
#
# number of rings (size 3 to 8) (size 9 to 14) (size 15 to 20)
#    0.000    1.500    1.250    0.750    8.750    6.000 
#    6.750    0.000    0.000    0.000    0.000    0.000 
#    0.000    0.000    0.000    0.000    0.000    0.000 
#
# Total GULP energy -178816.053534 kJ/mol
# GULP energy per Si atom -5588.001673 kJ/mol
# Density = 2.455766 g / cm^3
# Si number density = 24.613678 Si / 1000 Ang^3
#
#
#
# Elastic Constant Matrix: (Units=GPa)
#
#
# Indices 1 2 3 4 5 6 
#
# 1 90.0291 16.5256 6.0493 0.0000 0.0000 0.0000
# 2 16.5256 99.4894 45.0986 0.0000 0.0000 0.0000
# 3 6.0493 45.0986 153.3796 0.0000 0.0000 0.0000
# 4 0.0000 0.0000 0.0000 27.9482 0.0000 0.0000
# 5 0.0000 0.0000 0.0000 0.0000 37.4619 0.0000
# 6 0.0000 0.0000 0.0000 0.0000 0.0000 7.9688
#
#
#
# Elastic Compliance Matrix: (Units=1/GPa)
#
#
# Indices 1 2 3 4 5 6 
#
# 1 0.011459 -0.001960 0.000124 0.000000 0.000000 0.000000
# 2 -0.001960 0.011932 -0.003431 0.000000 0.000000 0.000000
# 3 0.000124 -0.003431 0.007524 0.000000 0.000000 0.000000
# 4 0.000000 0.000000 0.000000 0.035780 0.000000 0.000000
# 5 0.000000 0.000000 0.000000 0.000000 0.026694 0.000000
# 6 0.000000 0.000000 0.000000 0.000000 0.000000 0.125490
#
#
# Mechanical properties :
#
#
# Convention : Reuss Voigt Hill
#
# Bulk Modulus (GPa) = 49.06377 53.13836 51.10107
# Shear Modulus (GPa) = 21.16797 33.02410 27.09603
#
# Velocity S-wave (km/s) = 2.93577 3.66689 3.32151
# Velocity P-wave (km/s) = 5.60968 6.28999 5.95955
#
# Compressibility (1/GPa) = 0.02038164
#
# Stress axis : x y z
#
# Youngs Moduli (GPa) = 87.26852 83.80699 132.91262
#
# Poissons Ratio (x) = 0.16424 -0.01652
# Poissons Ratio (y) = 0.17102 0.45604
# Poissons Ratio (z) = -0.01085 0.28755
#
# Static dielectric constant tensor:
#      x y z
#    x 1.999630 0.000000 0.000000 
#    y 0.000000 2.014340 0.000000 
#    z 0.000000 0.000000 1.993210 
# 
# From -- ./inp_files/8808.got.cif
#   From: 2010.05.17/outbox.cif.g08.bks.cpg/sg33_5_cif.got.tgz:8808.got - 2010.06.03 17:15:25.
