data_PCOD9346114
_publ_section_title
;
Structure prediction by ZEFSAII (Michael W. Deem and Ramdas Pophale) SiO2 
 PCOD9346114
Probable space group: P N A 21
;
_chemical_formula_sum "Si O2"
_cell_formula_units_Z 24
_cell_length_a 24.545162
_cell_length_b 7.391898
_cell_length_c 5.518488
_cell_angle_alpha 90.000000
_cell_angle_beta 90.000000
_cell_angle_gamma 90.000000
_cell_volume 1001.248713
_symmetry_space_group_name_H-M "P N A 21"
_symmetry_group_IT_number 33
_symmetry_cell_setting 'orthorhombic'
loop_
_space_group_symop_operation_xyz
x,y,z
-x,-y,1/2+z
1/2-x,1/2+y,1/2+z
1/2+x,1/2-y,z
loop_
_atom_site_type_symbol
_atom_site_label
_atom_site_fract_x
_atom_site_fract_y
_atom_site_fract_z
Si Si1 0.203168 0.911324 0.045890
Si Si2 0.594223 0.473104 0.895924
Si Si3 0.042315 0.334403 0.102972
Si Si4 0.263034 0.586405 0.023995
Si Si5 0.579981 0.876868 0.731118
Si Si6 0.133227 0.317257 0.507502
O O1 0.141858 0.982652 0.087726
O O2 0.235678 0.955859 0.292686
O O3 0.206612 0.694943 0.029256
O O4 0.222090 0.998363 0.785629
O O5 0.541382 0.367954 0.987864
O O6 0.586537 0.665306 0.772164
O O7 0.618436 0.318325 0.724724
O O8 0.081974 0.298527 0.328568
O O9 0.980313 0.397333 0.117988
O O10 0.073259 0.497949 0.967439
O O11 0.306913 0.744328 0.947105
O O12 0.628133 0.973016 0.582927
#
# Coordination Sequence:
#
# PCOD9346114 Si02
#       6
#     4   4   4   4   4   4
#     4  11  24  45  68 102 130 178 220 277 341 400
#     4  10  25  41  64  92 131 167 223 267 336 394
#     4  11  22  41  59  92 129 167 218 275 318 398
#     4  11  24  44  70  97 138 170 223 281 335 401
#     4  11  24  39  64  92 125 179 218 265 338 396
#     4  10  23  44  61  91 133 163 218 277 322 391
#
# _framework density 23.970067
#
# number of rings (size 3 to 8) (size 9 to 14) (size 15 to 20)
#    0.000    1.333    3.333    1.000    4.667    2.667 
#    0.000    0.000    0.000    0.000    0.000    0.000 
#    0.000    0.000    0.000    0.000    0.000    0.000 
#
# Total GULP energy -133743.322270 kJ/mol
# GULP energy per Si atom -5572.638428 kJ/mol
# Density = 2.391551 g / cm^3
# Si number density = 23.970067 Si / 1000 Ang^3
#
#
#
# Elastic Constant Matrix: (Units=GPa)
#
#
# Indices 1 2 3 4 5 6 
#
# 1 31.6361 -3.0872 -6.9152 0.0000 0.0000 0.0000
# 2 -3.0872 72.0985 -2.0094 0.0000 0.0000 0.0000
# 3 -6.9152 -2.0094 33.5443 0.0000 0.0000 0.0000
# 4 0.0000 0.0000 0.0000 26.6858 0.0000 0.0000
# 5 0.0000 0.0000 0.0000 0.0000 29.2138 0.0000
# 6 0.0000 0.0000 0.0000 0.0000 0.0000 35.2014
#
#
#
# Elastic Compliance Matrix: (Units=1/GPa)
#
#
# Indices 1 2 3 4 5 6 
#
# 1 0.033289 0.001619 0.006959 0.000000 0.000000 0.000000
# 2 0.001619 0.013972 0.001171 0.000000 0.000000 0.000000
# 3 0.006959 0.001171 0.031316 0.000000 0.000000 0.000000
# 4 0.000000 0.000000 0.000000 0.037473 0.000000 0.000000
# 5 0.000000 0.000000 0.000000 0.000000 0.034230 0.000000
# 6 0.000000 0.000000 0.000000 0.000000 0.000000 0.028408
#
#
# Mechanical properties :
#
#
# Convention : Reuss Voigt Hill
#
# Bulk Modulus (GPa) = 10.19618 12.58393 11.39006
# Shear Modulus (GPa) = 26.05782 28.17291 27.11537
#
# Velocity S-wave (km/s) = 3.30069 3.43204 3.36701
# Velocity P-wave (km/s) = 4.33463 4.57891 4.45845
#
# Compressibility (1/GPa) = 0.09807597
#
# Stress axis : x y z
#
# Youngs Moduli (GPa) = 30.04017 71.57228 31.93244
#
# Poissons Ratio (x) = -0.11590 -0.22223
# Poissons Ratio (y) = -0.04865 -0.03739
# Poissons Ratio (z) = -0.20906 -0.08380
#
# Static dielectric constant tensor:
#      x y z
#    x 2.029780 0.000000 0.000000 
#    y 0.000000 1.904330 0.000000 
#    z 0.000000 0.000000 2.015120 
# 
# From -- ./inp_files/2479.got.cif
#   From: 2010.05.17/outbox.cif.g08.bks.cpg/sg33_2_cif.got.tgz:2479.got - 2010.06.03 17:15:25.
