data_PCOD9346179
_publ_section_title
;
Structure prediction by ZEFSAII (Michael W. Deem and Ramdas Pophale) SiO2 
 PCOD9346179
Probable space group: P N A 21
;
_chemical_formula_sum "Si O2"
_cell_formula_units_Z 28
_cell_length_a 8.271812
_cell_length_b 21.803479
_cell_length_c 6.382048
_cell_angle_alpha 90.000000
_cell_angle_beta 90.000000
_cell_angle_gamma 90.000000
_cell_volume 1151.029667
_symmetry_space_group_name_H-M "P N A 21"
_symmetry_group_IT_number 33
_symmetry_cell_setting 'orthorhombic'
loop_
_space_group_symop_operation_xyz
x,y,z
-x,-y,1/2+z
1/2-x,1/2+y,1/2+z
1/2+x,1/2-y,z
loop_
_atom_site_type_symbol
_atom_site_label
_atom_site_fract_x
_atom_site_fract_y
_atom_site_fract_z
Si Si1 0.449464 0.400527 0.173080
Si Si2 0.628878 0.342726 0.568654
Si Si3 0.218980 0.364983 0.825128
Si Si4 0.036005 0.641629 0.689887
Si Si5 0.275875 0.574195 0.435548
Si Si6 0.155674 0.448373 0.448878
Si Si7 0.485208 0.218830 0.554703
O O1 0.549621 0.364980 0.351591
O O2 0.299450 0.430370 0.290975
O O3 0.378967 0.362491 0.972653
O O4 0.571348 0.448850 0.068393
O O5 0.660478 0.400706 0.716598
O O6 0.502861 0.288622 0.625393
O O7 0.805893 0.309973 0.577557
O O8 0.212076 0.424604 0.675865
O O9 0.134860 0.315009 0.670406
O O10 0.086686 0.368021 0.004724
O O11 0.203173 0.630783 0.570272
O O12 0.000150 0.589637 0.867219
O O13 0.996089 0.705497 0.805518
O O14 0.142898 0.521156 0.430774
#
# Coordination Sequence:
#
# PCOD9346179 Si02
#       7
#     4   4   4   4   4   4   4
#     4  11  26  45  69 103 143 187 241 300 372 440
#     4  12  28  45  72 103 147 191 246 307 362 438
#     4  10  23  48  71  99 139 190 239 294 374 435
#     4  10  23  46  69 105 139 186 237 297 364 440
#     4  12  26  44  71 109 143 188 246 299 378 435
#     4  10  26  43  74 102 149 186 238 304 370 454
#     4  11  26  47  70 103 144 186 245 303 360 440
#
# _framework density 24.326044
#
# number of rings (size 3 to 8) (size 9 to 14) (size 15 to 20)
#    0.000    1.143    2.857    0.857   14.000    3.429 
#    0.000    0.000    0.000    0.000    0.000    0.000 
#    0.000    0.000    0.000    0.000    0.000    0.000 
#
# Total GULP energy -156049.967516 kJ/mol
# GULP energy per Si atom -5573.213126 kJ/mol
# Density = 2.427068 g / cm^3
# Si number density = 24.326044 Si / 1000 Ang^3
#
#
#
# Elastic Constant Matrix: (Units=GPa)
#
#
# Indices 1 2 3 4 5 6 
#
# 1 57.2544 -29.0705 10.7970 0.0000 0.0000 0.0000
# 2 -29.0705 53.3879 25.7001 0.0000 0.0000 0.0000
# 3 10.7970 25.7001 124.1399 0.0000 0.0000 0.0000
# 4 0.0000 0.0000 0.0000 16.9929 0.0000 0.0000
# 5 0.0000 0.0000 0.0000 0.0000 57.1934 0.0000
# 6 0.0000 0.0000 0.0000 0.0000 0.0000 26.7456
#
#
#
# Elastic Compliance Matrix: (Units=1/GPa)
#
#
# Indices 1 2 3 4 5 6 
#
# 1 0.027835 0.018129 -0.006174 0.000000 0.000000 0.000000
# 2 0.018129 0.032611 -0.008328 0.000000 0.000000 0.000000
# 3 -0.006174 -0.008328 0.010317 0.000000 0.000000 0.000000
# 4 0.000000 0.000000 0.000000 0.058848 0.000000 0.000000
# 5 0.000000 0.000000 0.000000 0.000000 0.017485 0.000000
# 6 0.000000 0.000000 0.000000 0.000000 0.000000 0.037389
#
#
# Mechanical properties :
#
#
# Convention : Reuss Voigt Hill
#
# Bulk Modulus (GPa) = 12.81797 27.73725 20.27761
# Shear Modulus (GPa) = 24.60189 35.34342 29.97265
#
# Velocity S-wave (km/s) = 3.18361 3.81583 3.51397
# Velocity P-wave (km/s) = 4.33526 5.55348 4.98175
#
# Compressibility (1/GPa) = 0.07801547
#
# Stress axis : x y z
#
# Youngs Moduli (GPa) = 35.92622 30.66442 96.93194
#
# Poissons Ratio (x) = -0.55590 0.59846
# Poissons Ratio (y) = -0.65129 0.80725
# Poissons Ratio (z) = 0.22181 0.25537
#
# Static dielectric constant tensor:
#      x y z
#    x 2.044260 0.000000 0.000000 
#    y 0.000000 1.978460 0.000000 
#    z 0.000000 0.000000 1.945160 
# 
# From -- ./inp_files/480.got.cif
#   From: 2010.05.17/outbox.cif.g08.bks.cpg/sg33_1_cif.got.tgz:480.got - 2010.06.03 17:15:25.
