data_PCOD9346830
_publ_section_title
;
Structure prediction by ZEFSAII (Michael W. Deem and Ramdas Pophale) SiO2 
 PCOD9346830
Probable space group: P N A 21
;
_chemical_formula_sum "Si O2"
_cell_formula_units_Z 28
_cell_length_a 15.105057
_cell_length_b 5.076920
_cell_length_c 14.251044
_cell_angle_alpha 90.000000
_cell_angle_beta 90.000000
_cell_angle_gamma 90.000000
_cell_volume 1092.872177
_symmetry_space_group_name_H-M "P N A 21"
_symmetry_group_IT_number 33
_symmetry_cell_setting 'orthorhombic'
loop_
_space_group_symop_operation_xyz
x,y,z
-x,-y,1/2+z
1/2-x,1/2+y,1/2+z
1/2+x,1/2-y,z
loop_
_atom_site_type_symbol
_atom_site_label
_atom_site_fract_x
_atom_site_fract_y
_atom_site_fract_z
Si Si1 0.942451 0.545759 0.796150
Si Si2 0.325081 0.445522 0.521534
Si Si3 0.547259 0.014167 0.615199
Si Si4 0.826863 0.904878 0.054253
Si Si5 0.427743 0.927576 0.454437
Si Si6 0.763725 0.313598 0.188179
Si Si7 0.836538 0.049502 0.850719
O O1 0.913870 0.834415 0.830834
O O2 0.969869 0.523396 0.688920
O O3 0.029835 0.466871 0.853719
O O4 0.865175 0.333810 0.813310
O O5 0.224602 0.346718 0.510954
O O6 0.361106 0.684790 0.460354
O O7 0.316359 0.553380 0.628233
O O8 0.382855 0.190442 0.496415
O O9 0.577261 0.310321 0.588134
O O10 0.511832 0.877597 0.521842
O O11 0.637808 0.906335 0.660025
O O12 0.771551 0.020753 0.142329
O O13 0.825472 0.080873 0.962043
O O14 0.743694 0.407899 0.293682
#
# Coordination Sequence:
#
# PCOD9346830 Si02
#       7
#     4   4   4   4   4   4   4
#     4  12  28  48  72 111 145 200 241 314 374 447
#     4  11  25  44  74 104 144 192 246 300 370 445
#     4  11  27  44  74 109 149 186 250 307 371 441
#     4  11  26  50  75 109 151 201 248 317 374 452
#     4  12  24  47  73 106 144 191 241 309 374 440
#     4  11  26  47  76 109 146 204 246 311 376 457
#     4  12  28  50  74 106 153 194 252 302 383 452
#
# _framework density 25.620560999999999
#
# number of rings (size 3 to 8) (size 9 to 14) (size 15 to 20)
#    0.000    0.571    2.857    3.429   12.000    1.143 
#    0.000    0.000    0.000    0.000    0.000    0.000 
#    0.000    0.000    0.000    0.000    0.000    0.000 
#
# Total GULP energy -156576.058137 kJ/mol
# GULP energy per Si atom -5592.002076 kJ/mol
# Density = 2.556225 g / cm^3
# Si number density = 25.620561 Si / 1000 Ang^3
#
#
#
# Elastic Constant Matrix: (Units=GPa)
#
#
# Indices 1 2 3 4 5 6 
#
# 1 69.1264 26.2606 3.3203 0.0000 0.0000 0.0000
# 2 26.2606 119.4412 2.3693 0.0000 0.0000 0.0000
# 3 3.3203 2.3693 60.8196 0.0000 0.0000 0.0000
# 4 0.0000 0.0000 0.0000 19.2927 0.0000 0.0000
# 5 0.0000 0.0000 0.0000 0.0000 42.6418 0.0000
# 6 0.0000 0.0000 0.0000 0.0000 0.0000 56.5515
#
#
#
# Elastic Compliance Matrix: (Units=1/GPa)
#
#
# Indices 1 2 3 4 5 6 
#
# 1 0.015817 -0.003463 -0.000729 0.000000 0.000000 0.000000
# 2 -0.003463 0.009137 -0.000167 0.000000 0.000000 0.000000
# 3 -0.000729 -0.000167 0.016488 0.000000 0.000000 0.000000
# 4 0.000000 0.000000 0.000000 0.051833 0.000000 0.000000
# 5 0.000000 0.000000 0.000000 0.000000 0.023451 0.000000
# 6 0.000000 0.000000 0.000000 0.000000 0.000000 0.017683
#
#
# Mechanical properties :
#
#
# Convention : Reuss Voigt Hill
#
# Bulk Modulus (GPa) = 30.55754 34.80974 32.68364
# Shear Modulus (GPa) = 32.46018 38.19300 35.32659
#
# Velocity S-wave (km/s) = 3.56330 3.86517 3.71730
# Velocity P-wave (km/s) = 5.37423 5.79099 5.58649
#
# Compressibility (1/GPa) = 0.03272515
#
# Stress axis : x y z
#
# Youngs Moduli (GPa) = 63.22371 109.44479 60.64893
#
# Poissons Ratio (x) = 0.37902 0.04419
# Poissons Ratio (y) = 0.21895 0.01012
# Poissons Ratio (z) = 0.04606 0.01826
#
# Static dielectric constant tensor:
#      x y z
#    x 2.031860 0.000000 0.000000 
#    y 0.000000 2.129750 0.000000 
#    z 0.000000 0.000000 2.027840 
# 
# From -- ./inp_files/8085.got.cif
#   From: 2010.05.17/outbox.cif.g08.bks.cpg/sg33_5_cif.got.tgz:8085.got - 2010.06.03 17:15:25.
