data_PCOD9346521
_publ_section_title
;
Structure prediction by ZEFSAII (Michael W. Deem and Ramdas Pophale) SiO2 
 PCOD9346521
Probable space group: P N A 21
;
_chemical_formula_sum "Si O2"
_cell_formula_units_Z 16
_cell_length_a 17.151687
_cell_length_b 7.129495
_cell_length_c 5.011811
_cell_angle_alpha 90.000000
_cell_angle_beta 90.000000
_cell_angle_gamma 90.000000
_cell_volume 612.858616
_symmetry_space_group_name_H-M "P N A 21"
_symmetry_group_IT_number 33
_symmetry_cell_setting 'orthorhombic'
loop_
_space_group_symop_operation_xyz
x,y,z
-x,-y,1/2+z
1/2-x,1/2+y,1/2+z
1/2+x,1/2-y,z
loop_
_atom_site_type_symbol
_atom_site_label
_atom_site_fract_x
_atom_site_fract_y
_atom_site_fract_z
Si Si1 0.660345 0.659740 0.076290
Si Si2 0.917316 0.659958 0.874969
Si Si3 0.499833 0.756169 0.354720
Si Si4 0.715013 0.886888 0.546994
O O1 0.674078 0.793761 0.812505
O O2 0.712976 0.735379 0.317137
O O3 0.959375 0.773723 0.638698
O O4 0.696358 0.453735 0.060043
O O5 0.970145 0.470707 0.883848
O O6 0.832651 0.563431 0.912555
O O7 0.931557 0.773015 0.143260
O O8 0.574782 0.669636 0.205250
#
# Coordination Sequence:
#
# PCOD9346521 Si02
#       4
#     4   4   4   4
#     4  11  22  37  59  89 122 156 195 246 302 358
#     4   9  16  29  51  79 106 140 191 242 277 322
#     4   9  16  29  51  79 106 140 191 242 277 322
#     4  11  22  37  59  89 122 156 195 246 302 358
#
# _framework density 26.107163
#
# number of rings (size 3 to 8) (size 9 to 14) (size 15 to 20)
#    0.000    2.000    0.000    9.000    0.000    0.000 
#    0.000    0.000    0.000    6.000    0.000    3.500 
#    0.000    0.000    0.000    0.000    0.000    0.000 
#
# Total GULP energy -89083.660944 kJ/mol
# GULP energy per Si atom -5567.728809 kJ/mol
# Density = 2.604774 g / cm^3
# Si number density = 26.107163 Si / 1000 Ang^3
#
#
#
# Elastic Constant Matrix: (Units=GPa)
#
#
# Indices 1 2 3 4 5 6 
#
# 1 91.8033 29.2814 35.1086 0.0000 0.0000 0.0000
# 2 29.2814 71.1941 38.5652 0.0000 0.0000 0.0000
# 3 35.1086 38.5652 159.4917 0.0000 0.0000 0.0000
# 4 0.0000 0.0000 0.0000 -8.8910 0.0000 0.0000
# 5 0.0000 0.0000 0.0000 0.0000 13.8409 0.0000
# 6 0.0000 0.0000 0.0000 0.0000 0.0000 20.3931
#
#
#
# Elastic Compliance Matrix: (Units=1/GPa)
#
#
# Indices 1 2 3 4 5 6 
#
# 1 0.012972 -0.004360 -0.001801 0.000000 0.000000 0.000000
# 2 -0.004360 0.017628 -0.003303 0.000000 0.000000 0.000000
# 3 -0.001801 -0.003303 0.007465 0.000000 0.000000 0.000000
# 4 0.000000 0.000000 0.000000 -0.112473 0.000000 0.000000
# 5 0.000000 0.000000 0.000000 0.000000 0.072249 0.000000
# 6 0.000000 0.000000 0.000000 0.000000 0.000000 0.049036
#
#
# Mechanical properties :
#
#
# Convention : Reuss Voigt Hill
#
# Bulk Modulus (GPa) = 52.25211 58.71106 55.48158
# Shear Modulus (GPa) = 69.26613 19.70419 44.48516
#
# Velocity S-wave (km/s) = 5.15646 2.75024 4.13236
# Velocity P-wave (km/s) = 7.45050 5.71160 6.63824
#
# Compressibility (1/GPa) = 0.01913798
#
# Stress axis : x y z
#
# Youngs Moduli (GPa) = 77.08744 56.72701 133.95665
#
# Poissons Ratio (x) = 0.24730 0.24131
# Poissons Ratio (y) = 0.33607 0.44244
# Poissons Ratio (z) = 0.13887 0.18736
#
# Static dielectric constant tensor:
#      x y z
#    x 2.156080 0.000000 0.000000 
#    y 0.000000 2.155690 0.000000 
#    z 0.000000 0.000000 2.072850 
# 
# From -- ./inp_files/1603.got.cif
#   From: 2010.05.17/outbox.cif.g08.bks.cpg/sg33_1_cif.got.tgz:1603.got - 2010.06.03 17:15:25.
