data_PCOD9346340
_publ_section_title
;
Structure prediction by ZEFSAII (Michael W. Deem and Ramdas Pophale) SiO2 
 PCOD9346340
Probable space group: P N A 21
;
_chemical_formula_sum "Si O2"
_cell_formula_units_Z 28
_cell_length_a 16.361305
_cell_length_b 8.382253
_cell_length_c 9.241914
_cell_angle_alpha 90.000000
_cell_angle_beta 90.000000
_cell_angle_gamma 90.000000
_cell_volume 1267.478580
_symmetry_space_group_name_H-M "P N A 21"
_symmetry_group_IT_number 33
_symmetry_cell_setting 'orthorhombic'
loop_
_space_group_symop_operation_xyz
x,y,z
-x,-y,1/2+z
1/2-x,1/2+y,1/2+z
1/2+x,1/2-y,z
loop_
_atom_site_type_symbol
_atom_site_label
_atom_site_fract_x
_atom_site_fract_y
_atom_site_fract_z
Si Si1 0.658073 0.332617 0.845490
Si Si2 0.182523 0.992468 0.302952
Si Si3 0.672392 0.883279 0.244578
Si Si4 0.021789 0.388244 0.312031
Si Si5 0.548565 0.381282 0.093598
Si Si6 0.655376 0.985874 0.917380
Si Si7 0.583693 0.358581 0.552037
O O1 0.740623 0.433646 0.818576
O O2 0.673543 0.173778 0.938558
O O3 0.630028 0.279838 0.685870
O O4 0.579562 0.400293 0.928973
O O5 0.171011 0.804938 0.276939
O O6 0.274587 0.057290 0.302681
O O7 0.128671 0.081094 0.185792
O O8 0.146447 0.037260 0.458730
O O9 0.594079 0.981552 0.300422
O O10 0.669064 0.903146 0.071181
O O11 0.017933 0.286595 0.161287
O O12 0.044412 0.266845 0.441817
O O13 0.934462 0.460256 0.354498
O O14 0.482239 0.518525 0.114862
#
# Coordination Sequence:
#
# PCOD9346340 Si02
#       7
#     4   4   4   4   4   4   4
#     4  11  24  44  71  98 145 183 231 302 352 434
#     4  10  24  46  70  99 142 184 234 289 364 429
#     4  11  24  45  70 103 140 185 236 296 357 425
#     4  11  26  44  74 103 139 184 247 295 350 442
#     4  11  24  46  68 106 135 186 237 287 359 428
#     4  11  24  45  69 107 138 183 237 301 357 423
#     4  11  24  46  70 102 139 189 234 292 367 425
#
# _framework density 22.091103
#
# number of rings (size 3 to 8) (size 9 to 14) (size 15 to 20)
#    0.000    1.143    2.857    2.571    6.000    2.286 
#   15.429    0.000    0.000    0.000    0.000    0.000 
#    0.000    0.000    0.000    0.000    0.000    0.000 
#
# Total GULP energy -156356.178834 kJ/mol
# GULP energy per Si atom -5584.149244 kJ/mol
# Density = 2.204082 g / cm^3
# Si number density = 22.091103 Si / 1000 Ang^3
#
#
#
# Elastic Constant Matrix: (Units=GPa)
#
#
# Indices 1 2 3 4 5 6 
#
# 1 156.4817 50.7846 45.2796 0.0000 0.0000 0.0000
# 2 50.7846 80.1895 36.2115 0.0000 0.0000 0.0000
# 3 45.2796 36.2115 107.6383 0.0000 0.0000 0.0000
# 4 0.0000 0.0000 0.0000 24.1857 0.0000 0.0000
# 5 0.0000 0.0000 0.0000 0.0000 35.2528 0.0000
# 6 0.0000 0.0000 0.0000 0.0000 0.0000 28.5577
#
#
#
# Elastic Compliance Matrix: (Units=1/GPa)
#
#
# Indices 1 2 3 4 5 6 
#
# 1 0.008414 -0.004399 -0.002060 0.000000 0.000000 0.000000
# 2 -0.004399 0.017004 -0.003870 0.000000 0.000000 0.000000
# 3 -0.002060 -0.003870 0.011459 0.000000 0.000000 0.000000
# 4 0.000000 0.000000 0.000000 0.041347 0.000000 0.000000
# 5 0.000000 0.000000 0.000000 0.000000 0.028367 0.000000
# 6 0.000000 0.000000 0.000000 0.000000 0.000000 0.035017
#
#
# Mechanical properties :
#
#
# Convention : Reuss Voigt Hill
#
# Bulk Modulus (GPa) = 61.65276 67.65119 64.65197
# Shear Modulus (GPa) = 29.82049 31.73482 30.77765
#
# Velocity S-wave (km/s) = 3.67807 3.79429 3.73663
# Velocity P-wave (km/s) = 6.78281 7.06298 6.92431
#
# Compressibility (1/GPa) = 0.01621988
#
# Stress axis : x y z
#
# Youngs Moduli (GPa) = 118.84906 58.81078 87.26927
#
# Poissons Ratio (x) = 0.25868 0.17975
# Poissons Ratio (y) = 0.52276 0.33774
# Poissons Ratio (z) = 0.24480 0.22760
#
# Static dielectric constant tensor:
#      x y z
#    x 1.901190 0.000000 0.000000 
#    y 0.000000 1.829630 0.000000 
#    z 0.000000 0.000000 1.830000 
# 
# From -- ./inp_files/4696.got.cif
#   From: 2010.05.17/outbox.cif.g08.bks.cpg/sg33_3_cif.got.tgz:4696.got - 2010.06.03 17:15:25.
