data_PCOD9346384
_publ_section_title
;
Structure prediction by ZEFSAII (Michael W. Deem and Ramdas Pophale) SiO2 
 PCOD9346384
Probable space group: P N A 21
;
_chemical_formula_sum "Si O2"
_cell_formula_units_Z 32
_cell_length_a 12.117053
_cell_length_b 7.542865
_cell_length_c 13.585244
_cell_angle_alpha 90.000000
_cell_angle_beta 90.000000
_cell_angle_gamma 90.000000
_cell_volume 1241.654553
_symmetry_space_group_name_H-M "P N A 21"
_symmetry_group_IT_number 33
_symmetry_cell_setting 'orthorhombic'
loop_
_space_group_symop_operation_xyz
x,y,z
-x,-y,1/2+z
1/2-x,1/2+y,1/2+z
1/2+x,1/2-y,z
loop_
_atom_site_type_symbol
_atom_site_label
_atom_site_fract_x
_atom_site_fract_y
_atom_site_fract_z
Si Si1 0.967406 0.109571 0.879040
Si Si2 0.839688 0.785597 0.516108
Si Si3 0.677895 0.078585 0.433220
Si Si4 0.889781 0.979593 0.196574
Si Si5 0.759383 0.432744 0.418809
Si Si6 0.535184 0.142106 0.596309
Si Si7 0.799153 0.365494 0.190422
Si Si8 0.647358 0.913873 0.245559
O O1 0.047124 0.017396 0.800125
O O2 0.911879 0.269861 0.816093
O O3 0.042213 0.168217 0.970527
O O4 0.868381 0.987719 0.912584
O O5 0.815931 0.585726 0.481179
O O6 0.815454 0.835334 0.629914
O O7 0.744817 0.901867 0.460375
O O8 0.757829 0.238402 0.465675
O O9 0.558923 0.102849 0.483064
O O10 0.659078 0.083208 0.316486
O O11 0.953991 0.849257 0.123062
O O12 0.772530 0.881070 0.214592
O O13 0.862957 0.180859 0.168393
O O14 0.797197 0.411612 0.305809
O O15 0.428246 0.070247 0.650871
O O16 0.635326 0.028232 0.642706
#
# Coordination Sequence:
#
# PCOD9346384 Si02
#       8
#     4   4   4   4   4   4   4   4
#     4  11  22  41  69  93 136 179 219 281 349 405
#     4  11  24  48  66 101 137 179 227 289 342 417
#     4  11  23  46  64  99 136 170 233 281 332 418
#     4  11  22  44  63  98 130 178 226 281 336 414
#     4  12  23  44  71  98 136 186 224 288 352 408
#     4  10  25  42  67  98 132 178 221 283 344 403
#     4  11  24  42  73  96 133 177 231 281 347 419
#     4  11  21  43  67  91 138 171 219 280 338 408
#
# _framework density 25.772064
#
# number of rings (size 3 to 8) (size 9 to 14) (size 15 to 20)
#    0.000    1.000    3.750    3.000    1.750    1.000 
#   13.500    0.000    0.000    0.000    0.000    0.000 
#    0.000    0.000    0.000    0.000    0.000    0.000 
#
# Total GULP energy -179254.181466 kJ/mol
# GULP energy per Si atom -5601.693171 kJ/mol
# Density = 2.571341 g / cm^3
# Si number density = 25.772064 Si / 1000 Ang^3
#
#
#
# Elastic Constant Matrix: (Units=GPa)
#
#
# Indices 1 2 3 4 5 6 
#
# 1 56.5305 15.1909 21.0371 0.0000 0.0000 0.0000
# 2 15.1909 138.4465 28.2686 0.0000 0.0000 0.0000
# 3 21.0371 28.2686 104.7222 0.0000 0.0000 0.0000
# 4 0.0000 0.0000 0.0000 19.3285 0.0000 0.0000
# 5 0.0000 0.0000 0.0000 0.0000 41.2599 0.0000
# 6 0.0000 0.0000 0.0000 0.0000 0.0000 30.6185
#
#
#
# Elastic Compliance Matrix: (Units=1/GPa)
#
#
# Indices 1 2 3 4 5 6 
#
# 1 0.019375 -0.001409 -0.003512 0.000000 0.000000 0.000000
# 2 -0.001409 0.007747 -0.001808 0.000000 0.000000 0.000000
# 3 -0.003512 -0.001808 0.010743 0.000000 0.000000 0.000000
# 4 0.000000 0.000000 0.000000 0.051737 0.000000 0.000000
# 5 0.000000 0.000000 0.000000 0.000000 0.024237 0.000000
# 6 0.000000 0.000000 0.000000 0.000000 0.000000 0.032660
#
#
# Mechanical properties :
#
#
# Convention : Reuss Voigt Hill
#
# Bulk Modulus (GPa) = 40.97222 47.63250 44.30236
# Shear Modulus (GPa) = 29.74571 33.92155 31.83363
#
# Velocity S-wave (km/s) = 3.40101 3.63190 3.51835
# Velocity P-wave (km/s) = 5.59955 6.00916 5.80797
#
# Compressibility (1/GPa) = 0.02440678
#
# Stress axis : x y z
#
# Youngs Moduli (GPa) = 51.61277 129.08583 93.08693
#
# Poissons Ratio (x) = 0.18186 0.32691
# Poissons Ratio (y) = 0.07271 0.16831
# Poissons Ratio (z) = 0.18126 0.23341
#
# Static dielectric constant tensor:
#      x y z
#    x 2.018750 0.000000 0.000000 
#    y 0.000000 2.060670 0.000000 
#    z 0.000000 0.000000 2.056090 
# 
# From -- ./inp_files/7975.got.cif
#   From: 2010.05.17/outbox.cif.g08.bks.cpg/sg33_4_cif.got.tgz:7975.got - 2010.06.03 17:15:25.
