data_PCOD9346432
_publ_section_title
;
Structure prediction by ZEFSAII (Michael W. Deem and Ramdas Pophale) SiO2 
 PCOD9346432
Probable space group: P N A 21
;
_chemical_formula_sum "Si O2"
_cell_formula_units_Z 12
_cell_length_a 8.681811
_cell_length_b 4.479446
_cell_length_c 7.910793
_cell_angle_alpha 90.000000
_cell_angle_beta 90.000000
_cell_angle_gamma 90.000000
_cell_volume 307.648395
_symmetry_space_group_name_H-M "P N A 21"
_symmetry_group_IT_number 33
_symmetry_cell_setting 'orthorhombic'
loop_
_space_group_symop_operation_xyz
x,y,z
-x,-y,1/2+z
1/2-x,1/2+y,1/2+z
1/2+x,1/2-y,z
loop_
_atom_site_type_symbol
_atom_site_label
_atom_site_fract_x
_atom_site_fract_y
_atom_site_fract_z
Si Si1 0.372038 0.451831 0.885750
Si Si2 0.140588 0.930647 0.048007
Si Si3 0.903221 0.567081 0.348713
O O1 0.250069 0.538006 0.715942
O O2 0.233769 0.154468 0.899914
O O3 0.502716 0.747966 0.886290
O O4 0.233743 0.620488 0.999269
O O5 0.524766 0.733373 0.222601
O O6 0.005010 0.207802 0.010226
#
# Coordination Sequence:
#
# PCOD9346432 Si02
#       3
#     4   4   4
#     4  10  26  44  70  96 135 171 221 269 330 385
#     4  10  26  41  70  96 134 170 220 268 326 389
#     4  10  26  39  70  96 133 169 219 265 330 384
#
# _framework density 39.005567999999997
#
# number of rings (size 3 to 8) (size 9 to 14) (size 15 to 20)
#    2.000    0.000    0.000    0.000   14.000    2.667 
#    0.000    0.000    0.000    0.000    0.000    0.000 
#    0.000    0.000    0.000    0.000    0.000    0.000 
#
# Total GULP energy -67154.964957 kJ/mol
# GULP energy per Si atom -5596.247080 kJ/mol
# Density = 3.891679 g / cm^3
# Si number density = 39.005568 Si / 1000 Ang^3
#
#
#
# Elastic Constant Matrix: (Units=GPa)
#
#
# Indices 1 2 3 4 5 6 
#
# 1 718.2199 158.9113 114.2435 0.0000 0.0000 0.0000
# 2 158.9113 527.6818 138.2339 0.0000 0.0000 0.0000
# 3 114.2435 138.2339 439.2179 0.0000 0.0000 0.0000
# 4 0.0000 0.0000 0.0000 136.5473 0.0000 0.0000
# 5 0.0000 0.0000 0.0000 0.0000 124.7945 0.0000
# 6 0.0000 0.0000 0.0000 0.0000 0.0000 143.3280
#
#
#
# Elastic Compliance Matrix: (Units=1/GPa)
#
#
# Indices 1 2 3 4 5 6 
#
# 1 0.001521 -0.000386 -0.000274 0.000000 0.000000 0.000000
# 2 -0.000386 0.002163 -0.000580 0.000000 0.000000 0.000000
# 3 -0.000274 -0.000580 0.002531 0.000000 0.000000 0.000000
# 4 0.000000 0.000000 0.000000 0.007323 0.000000 0.000000
# 5 0.000000 0.000000 0.000000 0.000000 0.008013 0.000000
# 6 0.000000 0.000000 0.000000 0.000000 0.000000 0.006977
#
#
# Mechanical properties :
#
#
# Convention : Reuss Voigt Hill
#
# Bulk Modulus (GPa) = 267.82089 278.65521 273.23805
# Shear Modulus (GPa) = 155.01120 165.84933 160.43027
#
# Velocity S-wave (km/s) = 6.31087 6.52776 6.42023
# Velocity P-wave (km/s) = 11.04147 11.33184 11.18760
#
# Compressibility (1/GPa) = 0.00373384
#
# Stress axis : x y z
#
# Youngs Moduli (GPa) = 657.27996 462.21788 395.13981
#
# Poissons Ratio (x) = 0.17858 0.10832
# Poissons Ratio (y) = 0.25395 0.22934
# Poissons Ratio (z) = 0.18018 0.26828
#
# Static dielectric constant tensor:
#      x y z
#    x 3.177360 0.000000 0.000000 
#    y 0.000000 2.748750 0.000000 
#    z 0.000000 0.000000 3.544330 
# 
# From -- ./inp_files/2883.got.cif
#   From: 2010.05.17/outbox.cif.g08.bks.cpg/sg33_2_cif.got.tgz:2883.got - 2010.06.03 17:15:25.
