data_PCOD9346225
_publ_section_title
;
Structure prediction by ZEFSAII (Michael W. Deem and Ramdas Pophale) SiO2 
 PCOD9346225
Probable space group: P N A 21
;
_chemical_formula_sum "Si O2"
_cell_formula_units_Z 20
_cell_length_a 11.186116
_cell_length_b 13.237559
_cell_length_c 4.801630
_cell_angle_alpha 90.000000
_cell_angle_beta 90.000000
_cell_angle_gamma 90.000000
_cell_volume 711.010344
_symmetry_space_group_name_H-M "P N A 21"
_symmetry_group_IT_number 33
_symmetry_cell_setting 'orthorhombic'
loop_
_space_group_symop_operation_xyz
x,y,z
-x,-y,1/2+z
1/2-x,1/2+y,1/2+z
1/2+x,1/2-y,z
loop_
_atom_site_type_symbol
_atom_site_label
_atom_site_fract_x
_atom_site_fract_y
_atom_site_fract_z
Si Si1 0.507714 0.960901 0.310490
Si Si2 0.251853 0.476421 0.650320
Si Si3 0.154075 0.086460 0.669874
Si Si4 0.008617 0.238138 0.976874
Si Si5 0.243332 0.770008 0.483991
O O1 0.501916 0.840299 0.297337
O O2 0.415108 0.995150 0.556138
O O3 0.389481 0.001703 0.067442
O O4 0.324104 0.489256 0.363771
O O5 0.256290 0.366761 0.784735
O O6 0.319033 0.554581 0.857167
O O7 0.033181 0.142427 0.775829
O O8 0.245490 0.171650 0.785083
O O9 0.130890 0.260373 0.148157
O O10 0.883623 0.232147 0.135147
#
# Coordination Sequence:
#
# PCOD9346225 Si02
#       5
#     4   4   4   4   4
#     4  11  22  38  67  94 128 171 226 270 328 385
#     4  11  22  41  64  96 127 176 214 269 331 395
#     4  10  24  41  66  94 134 167 220 271 328 391
#     4   9  21  41  63  94 132 168 215 275 323 390
#     4   9  21  41  64  94 129 168 219 267 328 391
#
# _framework density 28.128986999999999
#
# number of rings (size 3 to 8) (size 9 to 14) (size 15 to 20)
#    1.200    0.800    0.000    3.600    0.000    4.800 
#    0.000    4.000    0.000    0.000    0.000    0.000 
#    0.000    0.000    0.000    0.000    0.000    0.000 
#
# Total GULP energy -111605.850673 kJ/mol
# GULP energy per Si atom -5580.292534 kJ/mol
# Density = 2.806496 g / cm^3
# Si number density = 28.128987 Si / 1000 Ang^3
#
#
#
# Elastic Constant Matrix: (Units=GPa)
#
#
# Indices 1 2 3 4 5 6 
#
# 1 209.7065 -2.1287 4.0781 0.0000 0.0000 0.0000
# 2 -2.1287 126.2290 0.8281 0.0000 0.0000 0.0000
# 3 4.0781 0.8281 157.7116 0.0000 0.0000 0.0000
# 4 0.0000 0.0000 0.0000 34.3355 0.0000 0.0000
# 5 0.0000 0.0000 0.0000 0.0000 15.8850 0.0000
# 6 0.0000 0.0000 0.0000 0.0000 0.0000 36.4408
#
#
#
# Elastic Compliance Matrix: (Units=1/GPa)
#
#
# Indices 1 2 3 4 5 6 
#
# 1 0.004772 0.000081 -0.000124 0.000000 0.000000 0.000000
# 2 0.000081 0.007924 -0.000044 0.000000 0.000000 0.000000
# 3 -0.000124 -0.000044 0.006344 0.000000 0.000000 0.000000
# 4 0.000000 0.000000 0.000000 0.029124 0.000000 0.000000
# 5 0.000000 0.000000 0.000000 0.000000 0.062953 0.000000
# 6 0.000000 0.000000 0.000000 0.000000 0.000000 0.027442
#
#
# Mechanical properties :
#
#
# Convention : Reuss Voigt Hill
#
# Bulk Modulus (GPa) = 53.00202 55.46690 54.23446
# Shear Modulus (GPa) = 34.47800 50.05690 42.26745
#
# Velocity S-wave (km/s) = 3.50481 4.22305 3.88058
# Velocity P-wave (km/s) = 5.93816 6.59852 6.27703
#
# Compressibility (1/GPa) = 0.01886721
#
# Stress axis : x y z
#
# Youngs Moduli (GPa) = 209.56442 126.20262 157.62633
#
# Poissons Ratio (x) = -0.01026 0.01952
# Poissons Ratio (y) = -0.01703 0.00689
# Poissons Ratio (z) = 0.02595 0.00552
#
# Static dielectric constant tensor:
#      x y z
#    x 2.468980 0.000000 0.000000 
#    y 0.000000 2.233790 0.000000 
#    z 0.000000 0.000000 2.201250 
# 
# From -- ./inp_files/780.got.cif
#   From: 2010.05.17/outbox.cif.g08.bks.cpg/sg33_1_cif.got.tgz:780.got - 2010.06.03 17:15:25.
