data_PCOD9346827
_publ_section_title
;
Structure prediction by ZEFSAII (Michael W. Deem and Ramdas Pophale) SiO2 
 PCOD9346827
Probable space group: P N A 21
;
_chemical_formula_sum "Si O2"
_cell_formula_units_Z 28
_cell_length_a 18.177533
_cell_length_b 5.032672
_cell_length_c 12.465065
_cell_angle_alpha 90.000000
_cell_angle_beta 90.000000
_cell_angle_gamma 90.000000
_cell_volume 1140.323609
_symmetry_space_group_name_H-M "P N A 21"
_symmetry_group_IT_number 33
_symmetry_cell_setting 'orthorhombic'
loop_
_space_group_symop_operation_xyz
x,y,z
-x,-y,1/2+z
1/2-x,1/2+y,1/2+z
1/2+x,1/2-y,z
loop_
_atom_site_type_symbol
_atom_site_label
_atom_site_fract_x
_atom_site_fract_y
_atom_site_fract_z
Si Si1 0.676414 0.122495 0.441220
Si Si2 0.842859 0.849280 0.174394
Si Si3 0.982502 0.219588 0.689716
Si Si4 0.798429 0.748429 0.502981
Si Si5 0.031222 0.284831 0.324849
Si Si6 0.756114 0.353050 0.234249
Si Si7 0.605528 0.729483 0.970950
O O1 0.681050 0.283115 0.552283
O O2 0.717926 0.842535 0.461281
O O3 0.714394 0.265232 0.340398
O O4 0.834223 0.459963 0.489598
O O5 0.820066 0.142756 0.207550
O O6 0.929696 0.811172 0.181876
O O7 0.793819 0.639486 0.241091
O O8 0.965004 0.517045 0.725479
O O9 0.942358 0.177036 0.577431
O O10 0.956236 0.011515 0.780534
O O11 0.795903 0.825048 0.629814
O O12 0.853044 0.956804 0.446579
O O13 0.951546 0.304631 0.378891
O O14 0.091247 0.385695 0.409633
#
# Coordination Sequence:
#
# PCOD9346827 Si02
#       7
#     4   4   4   4   4   4   4
#     4  11  26  50  74 110 148 197 248 306 381 446
#     4  11  26  47  69 111 144 193 240 318 366 443
#     4  12  26  48  75 106 152 188 258 302 377 441
#     4  11  26  45  75 108 149 193 245 310 364 444
#     4  12  28  45  77 107 144 203 242 306 381 445
#     4  11  25  44  73 102 146 191 248 298 377 436
#     4  12  25  49  71 110 147 191 247 310 366 447
#
# _framework density 24.55443
#
# number of rings (size 3 to 8) (size 9 to 14) (size 15 to 20)
#    0.000    0.571    1.429    6.000    6.000    6.857 
#    0.000    0.000    0.000    0.000    0.000    0.000 
#    0.000    0.000    0.000    0.000    0.000    0.000 
#
# Total GULP energy -157090.865214 kJ/mol
# GULP energy per Si atom -5610.388043 kJ/mol
# Density = 2.449854 g / cm^3
# Si number density = 24.554430 Si / 1000 Ang^3
#
#
#
# Elastic Constant Matrix: (Units=GPa)
#
#
# Indices 1 2 3 4 5 6 
#
# 1 96.9697 24.4080 13.3890 0.0000 0.0000 0.0000
# 2 24.4080 86.9313 3.9115 0.0000 0.0000 0.0000
# 3 13.3890 3.9115 83.9057 0.0000 0.0000 0.0000
# 4 0.0000 0.0000 0.0000 37.0804 0.0000 0.0000
# 5 0.0000 0.0000 0.0000 0.0000 51.0546 0.0000
# 6 0.0000 0.0000 0.0000 0.0000 0.0000 33.1492
#
#
#
# Elastic Compliance Matrix: (Units=1/GPa)
#
#
# Indices 1 2 3 4 5 6 
#
# 1 0.011323 -0.003105 -0.001662 0.000000 0.000000 0.000000
# 2 -0.003105 0.012379 -0.000082 0.000000 0.000000 0.000000
# 3 -0.001662 -0.000082 0.012187 0.000000 0.000000 0.000000
# 4 0.000000 0.000000 0.000000 0.026968 0.000000 0.000000
# 5 0.000000 0.000000 0.000000 0.000000 0.019587 0.000000
# 6 0.000000 0.000000 0.000000 0.000000 0.000000 0.030167
#
#
# Mechanical properties :
#
#
# Convention : Reuss Voigt Hill
#
# Bulk Modulus (GPa) = 38.17878 39.02484 38.60181
# Shear Modulus (GPa) = 38.15661 39.33004 38.74332
#
# Velocity S-wave (km/s) = 3.94631 4.00653 3.97653
# Velocity P-wave (km/s) = 6.02883 6.10989 6.06950
#
# Compressibility (1/GPa) = 0.02619256
#
# Stress axis : x y z
#
# Youngs Moduli (GPa) = 88.31244 80.78402 82.05335
#
# Poissons Ratio (x) = 0.25080 0.13639
# Poissons Ratio (y) = 0.27417 0.00670
# Poissons Ratio (z) = 0.14679 0.00660
#
# Static dielectric constant tensor:
#      x y z
#    x 1.927700 0.000000 0.000000 
#    y 0.000000 1.887880 0.000000 
#    z 0.000000 0.000000 1.957520 
# 
# From -- ./inp_files/7300.got.cif
#   From: 2010.05.17/outbox.cif.g08.bks.cpg/sg33_4_cif.got.tgz:7300.got - 2010.06.03 17:15:25.
