data_PCOD9346742
_publ_section_title
;
Structure prediction by ZEFSAII (Michael W. Deem and Ramdas Pophale) SiO2 
 PCOD9346742
Probable space group: P N A 21
;
_chemical_formula_sum "Si O2"
_cell_formula_units_Z 28
_cell_length_a 18.333193
_cell_length_b 5.037368
_cell_length_c 13.219051
_cell_angle_alpha 90.000000
_cell_angle_beta 90.000000
_cell_angle_gamma 90.000000
_cell_volume 1220.793104
_symmetry_space_group_name_H-M "P N A 21"
_symmetry_group_IT_number 33
_symmetry_cell_setting 'orthorhombic'
loop_
_space_group_symop_operation_xyz
x,y,z
-x,-y,1/2+z
1/2-x,1/2+y,1/2+z
1/2+x,1/2-y,z
loop_
_atom_site_type_symbol
_atom_site_label
_atom_site_fract_x
_atom_site_fract_y
_atom_site_fract_z
Si Si1 0.422588 0.440721 0.367760
Si Si2 0.663813 0.424133 0.069868
Si Si3 0.285218 0.694645 0.853806
Si Si4 0.178413 0.542798 0.537999
Si Si5 0.356648 0.053069 0.700869
Si Si6 0.079733 0.821740 0.374769
Si Si7 0.360037 0.942476 0.268510
O O1 0.375069 0.480204 0.468616
O O2 0.504201 0.533024 0.391433
O O3 0.415780 0.150067 0.320417
O O4 0.386493 0.647426 0.290096
O O5 0.744820 0.305102 0.051869
O O6 0.667396 0.684733 0.140587
O O7 0.622450 0.182792 0.124707
O O8 0.358506 0.528530 0.841274
O O9 0.215430 0.522577 0.824910
O O10 0.292945 0.937635 0.774342
O O11 0.291927 0.803359 0.967368
O O12 0.115113 0.680099 0.472342
O O13 0.150149 0.478732 0.649082
O O14 0.421224 0.124264 0.778964
#
# Coordination Sequence:
#
# PCOD9346742 Si02
#       7
#     4   4   4   4   4   4   4
#     4  12  30  48  70 109 153 194 239 306 365 445
#     4  12  24  45  76 105 140 187 251 301 365 424
#     4  11  24  47  77 107 144 189 245 304 362 434
#     4  11  26  42  79 109 141 192 246 306 359 438
#     4  11  24  44  74 103 140 187 240 298 364 425
#     4  11  27  49  72 107 156 192 240 297 379 438
#     4  12  27  49  76 108 146 191 253 304 364 428
#
# _framework density 22.935908999999999
#
# number of rings (size 3 to 8) (size 9 to 14) (size 15 to 20)
#    0.000    0.571    4.286    1.714   12.000    2.286 
#    0.000    0.000    0.000    0.000    0.000    0.000 
#    0.000    0.000    0.000    0.000    0.000    0.000 
#
# Total GULP energy -156688.301217 kJ/mol
# GULP energy per Si atom -5596.010758 kJ/mol
# Density = 2.288371 g / cm^3
# Si number density = 22.935909 Si / 1000 Ang^3
#
#
#
# Elastic Constant Matrix: (Units=GPa)
#
#
# Indices 1 2 3 4 5 6 
#
# 1 98.7199 -3.6523 16.8658 0.0000 0.0000 0.0000
# 2 -3.6523 59.7583 11.9899 0.0000 0.0000 0.0000
# 3 16.8658 11.9899 149.5725 0.0000 0.0000 0.0000
# 4 0.0000 0.0000 0.0000 24.2345 0.0000 0.0000
# 5 0.0000 0.0000 0.0000 0.0000 5.2169 0.0000
# 6 0.0000 0.0000 0.0000 0.0000 0.0000 28.0673
#
#
#
# Elastic Compliance Matrix: (Units=1/GPa)
#
#
# Indices 1 2 3 4 5 6 
#
# 1 0.010374 0.000883 -0.001241 0.000000 0.000000 0.000000
# 2 0.000883 0.017083 -0.001469 0.000000 0.000000 0.000000
# 3 -0.001241 -0.001469 0.006943 0.000000 0.000000 0.000000
# 4 0.000000 0.000000 0.000000 0.041263 0.000000 0.000000
# 5 0.000000 0.000000 0.000000 0.000000 0.191685 0.000000
# 6 0.000000 0.000000 0.000000 0.000000 0.000000 0.035629
#
#
# Mechanical properties :
#
#
# Convention : Reuss Voigt Hill
#
# Bulk Modulus (GPa) = 32.52316 39.82859 36.17587
# Shear Modulus (GPa) = 15.77883 30.36022 23.06953
#
# Velocity S-wave (km/s) = 2.62573 3.64221 3.17492
# Velocity P-wave (km/s) = 4.83771 5.92372 5.40805
#
# Compressibility (1/GPa) = 0.03074732
#
# Stress axis : x y z
#
# Youngs Moduli (GPa) = 96.39218 58.53851 144.02244
#
# Poissons Ratio (x) = -0.05169 0.17867
# Poissons Ratio (y) = -0.08511 0.21156
# Poissons Ratio (z) = 0.11958 0.08599
#
# Static dielectric constant tensor:
#      x y z
#    x 1.871840 0.000000 0.000000 
#    y 0.000000 1.936430 0.000000 
#    z 0.000000 0.000000 1.889200 
# 
# From -- ./inp_files/6947.got.cif
#   From: 2010.05.17/outbox.cif.g08.bks.cpg/sg33_4_cif.got.tgz:6947.got - 2010.06.03 17:15:25.
