data_PCOD9346283
_publ_section_title
;
Structure prediction by ZEFSAII (Michael W. Deem and Ramdas Pophale) SiO2 
 PCOD9346283
Probable space group: P N A 21
;
_chemical_formula_sum "Si O2"
_cell_formula_units_Z 32
_cell_length_a 8.810309
_cell_length_b 18.289410
_cell_length_c 8.549736
_cell_angle_alpha 90.000000
_cell_angle_beta 90.000000
_cell_angle_gamma 90.000000
_cell_volume 1377.664733
_symmetry_space_group_name_H-M "P N A 21"
_symmetry_group_IT_number 33
_symmetry_cell_setting 'orthorhombic'
loop_
_space_group_symop_operation_xyz
x,y,z
-x,-y,1/2+z
1/2-x,1/2+y,1/2+z
1/2+x,1/2-y,z
loop_
_atom_site_type_symbol
_atom_site_label
_atom_site_fract_x
_atom_site_fract_y
_atom_site_fract_z
Si Si1 0.378338 0.864935 0.864780
Si Si2 0.072766 0.976146 0.433911
Si Si3 0.662189 0.920841 0.993485
Si Si4 0.068798 0.248287 0.921914
Si Si5 0.474759 0.052882 0.087702
Si Si6 0.320883 0.331817 0.103010
Si Si7 0.698461 0.542068 0.106243
Si Si8 0.665759 0.848636 0.322188
O O1 0.410514 0.919756 0.718728
O O2 0.256160 0.815632 0.771135
O O3 0.556541 0.857355 0.915256
O O4 0.287364 0.893889 0.015815
O O5 0.125224 0.914014 0.558144
O O6 0.099608 0.943330 0.260690
O O7 0.172071 0.051190 0.444393
O O8 0.904033 0.000480 0.478392
O O9 0.668543 0.900827 0.175598
O O10 0.560187 0.993752 0.983491
O O11 0.169010 0.182766 0.855943
O O12 0.953267 0.282432 0.797382
O O13 0.191307 0.307466 0.979698
O O14 0.965496 0.219128 0.064649
O O15 0.331401 0.012109 0.160458
O O16 0.402899 0.113844 0.976574
#
# Coordination Sequence:
#
# PCOD9346283 Si02
#       8
#     4   4   4   4   4   4   4   4
#     4  11  22  40  62  95 136 179 223 278 338 417
#     4  12  24  41  65 103 146 173 223 294 360 423
#     4  11  23  38  67 101 136 174 220 288 354 413
#     4  10  24  43  72  92 134 190 238 278 328 420
#     4  11  21  39  66  98 134 173 220 283 345 423
#     4  11  23  43  67  96 128 182 237 280 334 413
#     4  11  26  37  63 105 141 180 211 283 372 409
#     4  11  23  43  70 100 133 185 240 274 351 414
#
# _framework density 23.227712
#
# number of rings (size 3 to 8) (size 9 to 14) (size 15 to 20)
#    0.000    1.000    3.750    3.000    8.750    0.000 
#    0.000    1.250    0.000    0.000    0.000    0.000 
#    0.000    0.000    0.000    0.000    0.000    0.000 
#
# Total GULP energy -178482.509071 kJ/mol
# GULP energy per Si atom -5577.578408 kJ/mol
# Density = 2.317484 g / cm^3
# Si number density = 23.227712 Si / 1000 Ang^3
#
#
#
# Elastic Constant Matrix: (Units=GPa)
#
#
# Indices 1 2 3 4 5 6 
#
# 1 104.0583 15.4465 5.4022 0.0000 0.0000 0.0000
# 2 15.4465 37.2612 7.4378 0.0000 0.0000 0.0000
# 3 5.4022 7.4378 78.4598 0.0000 0.0000 0.0000
# 4 0.0000 0.0000 0.0000 14.5066 0.0000 0.0000
# 5 0.0000 0.0000 0.0000 0.0000 33.6703 0.0000
# 6 0.0000 0.0000 0.0000 0.0000 0.0000 19.2879
#
#
#
# Elastic Compliance Matrix: (Units=1/GPa)
#
#
# Indices 1 2 3 4 5 6 
#
# 1 0.010247 -0.004186 -0.000309 0.000000 0.000000 0.000000
# 2 -0.004186 0.029065 -0.002467 0.000000 0.000000 0.000000
# 3 -0.000309 -0.002467 0.013001 0.000000 0.000000 0.000000
# 4 0.000000 0.000000 0.000000 0.068934 0.000000 0.000000
# 5 0.000000 0.000000 0.000000 0.000000 0.029700 0.000000
# 6 0.000000 0.000000 0.000000 0.000000 0.000000 0.051846
#
#
# Mechanical properties :
#
#
# Convention : Reuss Voigt Hill
#
# Bulk Modulus (GPa) = 26.04913 30.70582 28.37747
# Shear Modulus (GPa) = 21.78514 26.25914 24.02214
#
# Velocity S-wave (km/s) = 3.06583 3.36595 3.21939
# Velocity P-wave (km/s) = 4.87560 5.32488 5.10518
#
# Compressibility (1/GPa) = 0.03838900
#
# Stress axis : x y z
#
# Youngs Moduli (GPa) = 97.58511 34.40510 76.92009
#
# Poissons Ratio (x) = 0.14403 0.02375
# Poissons Ratio (y) = 0.40853 0.18977
# Poissons Ratio (z) = 0.03013 0.08488
#
# Static dielectric constant tensor:
#      x y z
#    x 1.915150 0.000000 0.000000 
#    y 0.000000 1.963790 0.000000 
#    z 0.000000 0.000000 1.890500 
# 
# From -- ./inp_files/3481.got.cif
#   From: 2010.05.17/outbox.cif.g08.bks.cpg/sg33_2_cif.got.tgz:3481.got - 2010.06.03 17:15:25.
