data_PCOD9346090
_publ_section_title
;
Structure prediction by ZEFSAII (Michael W. Deem and Ramdas Pophale) SiO2 
 PCOD9346090
Probable space group: P N A 21
;
_chemical_formula_sum "Si O2"
_cell_formula_units_Z 20
_cell_length_a 12.184746
_cell_length_b 5.591691
_cell_length_c 11.928928
_cell_angle_alpha 90.000000
_cell_angle_beta 90.000000
_cell_angle_gamma 90.000000
_cell_volume 812.757642
_symmetry_space_group_name_H-M "P N A 21"
_symmetry_group_IT_number 33
_symmetry_cell_setting 'orthorhombic'
loop_
_space_group_symop_operation_xyz
x,y,z
-x,-y,1/2+z
1/2-x,1/2+y,1/2+z
1/2+x,1/2-y,z
loop_
_atom_site_type_symbol
_atom_site_label
_atom_site_fract_x
_atom_site_fract_y
_atom_site_fract_z
Si Si1 0.807453 0.040000 0.655070
Si Si2 0.867678 0.310368 0.296661
Si Si3 0.032471 0.074935 0.960067
Si Si4 0.696154 0.309654 0.460641
Si Si5 0.578359 0.926041 0.315366
O O1 0.737709 0.218420 0.578568
O O2 0.869447 0.205360 0.747145
O O3 0.722194 0.841122 0.699125
O O4 0.895171 0.929590 0.570269
O O5 0.796856 0.439963 0.397298
O O6 0.981776 0.427073 0.253579
O O7 0.905970 0.065706 0.357981
O O8 0.992461 0.328418 0.918968
O O9 0.917687 0.940277 0.978301
O O10 0.667221 0.096593 0.372668
#
# Coordination Sequence:
#
# PCOD9346090 Si02
#       5
#     4   4   4   4   4
#     4  11  23  42  71 100 134 185 215 281 345 391
#     4  10  23  43  67  97 138 174 223 281 330 401
#     4  10  23  44  66 102 136 170 236 276 321 422
#     4  10  23  46  64  98 139 175 230 278 325 404
#     4  11  24  45  70  99 137 180 226 276 339 404
#
# _framework density 24.607583000000002
#
# number of rings (size 3 to 8) (size 9 to 14) (size 15 to 20)
#    0.000    1.600    2.000    1.200    5.600    1.600 
#   14.400    0.000    0.000    0.000    0.000    0.000 
#    0.000    0.000    0.000    0.000    0.000    0.000 
#
# Total GULP energy -111706.572755 kJ/mol
# GULP energy per Si atom -5585.328638 kJ/mol
# Density = 2.455157 g / cm^3
# Si number density = 24.607583 Si / 1000 Ang^3
#
#
#
# Elastic Constant Matrix: (Units=GPa)
#
#
# Indices 1 2 3 4 5 6 
#
# 1 172.4427 41.4777 46.0621 0.0000 0.0000 0.0000
# 2 41.4777 29.7602 18.1571 0.0000 0.0000 0.0000
# 3 46.0621 18.1571 76.9584 0.0000 0.0000 0.0000
# 4 0.0000 0.0000 0.0000 26.7404 0.0000 0.0000
# 5 0.0000 0.0000 0.0000 0.0000 56.6447 0.0000
# 6 0.0000 0.0000 0.0000 0.0000 0.0000 4.4793
#
#
#
# Elastic Compliance Matrix: (Units=1/GPa)
#
#
# Indices 1 2 3 4 5 6 
#
# 1 0.009251 -0.011115 -0.002915 0.000000 0.000000 0.000000
# 2 -0.011115 0.052607 -0.005759 0.000000 0.000000 0.000000
# 3 -0.002915 -0.005759 0.016097 0.000000 0.000000 0.000000
# 4 0.000000 0.000000 0.000000 0.037397 0.000000 0.000000
# 5 0.000000 0.000000 0.000000 0.000000 0.017654 0.000000
# 6 0.000000 0.000000 0.000000 0.000000 0.000000 0.223249
#
#
# Mechanical properties :
#
#
# Convention : Reuss Voigt Hill
#
# Bulk Modulus (GPa) = 26.05665 54.50612 40.28138
# Shear Modulus (GPa) = 12.23613 29.13717 20.68665
#
# Velocity S-wave (km/s) = 2.23233 3.44477 2.90256
# Velocity P-wave (km/s) = 4.15406 6.16605 5.25720
#
# Compressibility (1/GPa) = 0.03837792
#
# Stress axis : x y z
#
# Youngs Moduli (GPa) = 108.09477 19.00873 62.12231
#
# Poissons Ratio (x) = 0.21129 0.18106
# Poissons Ratio (y) = 1.20151 0.35776
# Poissons Ratio (z) = 0.31506 0.10947
#
# Static dielectric constant tensor:
#      x y z
#    x 2.008500 0.000000 0.000000 
#    y 0.000000 1.976340 0.000000 
#    z 0.000000 0.000000 1.961920 
# 
# From -- ./inp_files/6188.got.cif
#   From: 2010.05.17/outbox.cif.g08.bks.cpg/sg33_4_cif.got.tgz:6188.got - 2010.06.03 17:15:25.
