data_PCOD9346532
_publ_section_title
;
Structure prediction by ZEFSAII (Michael W. Deem and Ramdas Pophale) SiO2 
 PCOD9346532
Probable space group: P N A 21
;
_chemical_formula_sum "Si O2"
_cell_formula_units_Z 32
_cell_length_a 12.467414
_cell_length_b 5.306292
_cell_length_c 22.295328
_cell_angle_alpha 90.000000
_cell_angle_beta 90.000000
_cell_angle_gamma 90.000000
_cell_volume 1474.963904
_symmetry_space_group_name_H-M "P N A 21"
_symmetry_group_IT_number 33
_symmetry_cell_setting 'orthorhombic'
loop_
_space_group_symop_operation_xyz
x,y,z
-x,-y,1/2+z
1/2-x,1/2+y,1/2+z
1/2+x,1/2-y,z
loop_
_atom_site_type_symbol
_atom_site_label
_atom_site_fract_x
_atom_site_fract_y
_atom_site_fract_z
Si Si1 0.099015 0.652511 0.768300
Si Si2 0.783515 0.950708 0.681832
Si Si3 0.599014 0.847496 0.910100
Si Si4 0.716486 0.450709 0.496569
Si Si5 0.098928 0.315805 0.599835
Si Si6 0.497470 0.356146 0.964763
Si Si7 0.502530 0.643863 0.213637
Si Si8 0.598927 0.184198 0.078565
O O1 0.213548 0.668394 0.734610
O O2 0.111473 0.630125 0.839200
O O3 0.042418 0.400930 0.742172
O O4 0.031884 0.901154 0.751702
O O5 0.857321 0.768987 0.642375
O O6 0.698500 0.060767 0.634659
O O7 0.869269 0.150890 0.706677
O O8 0.531881 0.598859 0.926699
O O9 0.542420 0.099083 0.936227
O O10 0.713547 0.831609 0.943790
O O11 0.642680 0.268987 0.536025
O O12 0.630731 0.650890 0.471724
O O13 0.801501 0.560769 0.543741
O O14 0.053249 0.114619 0.647905
O O15 0.000001 0.500003 0.589200
O O16 0.553250 0.385387 0.030495
#
# Coordination Sequence:
#
# PCOD9346532 Si02
#       8
#     4   4   4   4   4   4   4   4
#     4  11  26  45  66  95 131 176 232 281 324 388
#     4  11  22  40  68  98 132 178 216 269 340 402
#     4  11  26  45  66  95 131 176 232 281 324 388
#     4  11  22  40  68  98 132 178 216 269 340 402
#     4  11  22  40  67 103 139 170 216 275 338 408
#     4  11  24  43  66  96 133 172 219 275 333 396
#     4  11  24  43  66  96 133 172 219 275 333 396
#     4  11  22  40  67 103 139 170 216 275 338 408
#
# _framework density 21.695446
#
# number of rings (size 3 to 8) (size 9 to 14) (size 15 to 20)
#    0.000    1.000    0.000    7.500    0.000    8.000 
#    0.000    0.000    0.000    0.000    0.000    0.000 
#    0.000    0.000    0.000    0.000    0.000    0.000 
#
# Total GULP energy -179072.134577 kJ/mol
# GULP energy per Si atom -5596.004206 kJ/mol
# Density = 2.164607 g / cm^3
# Si number density = 21.695446 Si / 1000 Ang^3
#
#
#
# Elastic Constant Matrix: (Units=GPa)
#
#
# Indices 1 2 3 4 5 6 
#
# 1 161.5699 50.1120 51.4824 0.0000 0.0000 0.0000
# 2 50.1120 104.6563 46.8362 0.0000 0.0000 0.0000
# 3 51.4824 46.8362 151.9128 0.0000 0.0000 0.0000
# 4 0.0000 0.0000 0.0000 33.2086 0.0000 0.0000
# 5 0.0000 0.0000 0.0000 0.0000 21.7620 0.0000
# 6 0.0000 0.0000 0.0000 0.0000 0.0000 28.4929
#
#
#
# Elastic Compliance Matrix: (Units=1/GPa)
#
#
# Indices 1 2 3 4 5 6 
#
# 1 0.007626 -0.002894 -0.001692 0.000000 0.000000 0.000000
# 2 -0.002894 0.012183 -0.002775 0.000000 0.000000 0.000000
# 3 -0.001692 -0.002775 0.008012 0.000000 0.000000 0.000000
# 4 0.000000 0.000000 0.000000 0.030113 0.000000 0.000000
# 5 0.000000 0.000000 0.000000 0.000000 0.045952 0.000000
# 6 0.000000 0.000000 0.000000 0.000000 0.000000 0.035096
#
#
# Mechanical properties :
#
#
# Convention : Reuss Voigt Hill
#
# Bulk Modulus (GPa) = 76.35027 79.44446 77.89737
# Shear Modulus (GPa) = 31.63137 34.67325 33.15231
#
# Velocity S-wave (km/s) = 3.82248 4.00206 3.91330
# Velocity P-wave (km/s) = 7.39933 7.61924 7.51009
#
# Compressibility (1/GPa) = 0.01309753
#
# Stress axis : x y z
#
# Youngs Moduli (GPa) = 131.12798 82.08197 124.81579
#
# Poissons Ratio (x) = 0.23757 0.21120
# Poissons Ratio (y) = 0.37953 0.34639
# Poissons Ratio (z) = 0.22188 0.22780
#
# Static dielectric constant tensor:
#      x y z
#    x 1.781820 0.000000 0.000000 
#    y 0.000000 1.850160 0.000000 
#    z 0.000000 0.000000 1.804230 
# 
# From -- ./inp_files/9130.got.cif
#   From: 2010.05.17/outbox.cif.g08.bks.cpg/sg33_5_cif.got.tgz:9130.got - 2010.06.03 17:15:25.
