data_PCOD9346516
_publ_section_title
;
Structure prediction by ZEFSAII (Michael W. Deem and Ramdas Pophale) SiO2 
 PCOD9346516
Probable space group: P N A 21
;
_chemical_formula_sum "Si O2"
_cell_formula_units_Z 32
_cell_length_a 28.199061
_cell_length_b 6.595874
_cell_length_c 8.004365
_cell_angle_alpha 90.000000
_cell_angle_beta 90.000000
_cell_angle_gamma 90.000000
_cell_volume 1488.791505
_symmetry_space_group_name_H-M "P N A 21"
_symmetry_group_IT_number 33
_symmetry_cell_setting 'orthorhombic'
loop_
_space_group_symop_operation_xyz
x,y,z
-x,-y,1/2+z
1/2-x,1/2+y,1/2+z
1/2+x,1/2-y,z
loop_
_atom_site_type_symbol
_atom_site_label
_atom_site_fract_x
_atom_site_fract_y
_atom_site_fract_z
Si Si1 0.718331 0.342032 0.338280
Si Si2 0.065510 0.364449 0.629324
Si Si3 0.202310 0.873068 0.627796
Si Si4 0.150738 0.535861 0.405834
Si Si5 0.109394 0.014599 0.814765
Si Si6 0.550028 0.470041 0.361401
Si Si7 0.975464 0.229382 0.138150
Si Si8 0.359015 0.395438 0.683224
O O1 0.763557 0.234379 0.259276
O O2 0.728535 0.467721 0.506694
O O3 0.691938 0.499999 0.213374
O O4 0.680770 0.164743 0.374702
O O5 0.105258 0.477720 0.516821
O O6 0.089783 0.241502 0.781053
O O7 0.044715 0.193818 0.507805
O O8 0.027074 0.532994 0.673472
O O9 0.180867 0.696682 0.512401
O O10 0.158194 0.985805 0.713569
O O11 0.140637 0.658616 0.234187
O O12 0.069777 0.866637 0.735235
O O13 0.120728 0.949656 0.002674
O O14 0.529916 0.674960 0.442879
O O15 0.521389 0.383483 0.206899
O O16 0.604462 0.505197 0.315975
#
# Coordination Sequence:
#
# PCOD9346516 Si02
#       8
#     4   4   4   4   4   4   4   4
#     4  11  25  42  64  95 125 169 217 268 321 393
#     4  11  21  44  68  88 130 174 213 264 328 389
#     4  11  25  41  65  93 128 167 217 267 329 384
#     4  11  21  45  67  86 130 174 206 267 330 380
#     4  11  24  42  64  97 129 167 216 267 321 395
#     4  11  23  41  66  94 130 166 217 269 319 393
#     4  11  23  43  66  95 130 171 211 269 329 379
#     4  11  24  42  64  96 130 168 215 265 327 387
#
# _framework density 21.493943000000002
#
# number of rings (size 3 to 8) (size 9 to 14) (size 15 to 20)
#    0.000    1.000    5.000    2.250    3.500    6.000 
#    2.250    0.000    0.000    0.000    0.000    0.000 
#    0.000    0.000    0.000    0.000    0.000    0.000 
#
# Total GULP energy -178901.051259 kJ/mol
# GULP energy per Si atom -5590.657852 kJ/mol
# Density = 2.144502 g / cm^3
# Si number density = 21.493943 Si / 1000 Ang^3
#
#
#
# Elastic Constant Matrix: (Units=GPa)
#
#
# Indices 1 2 3 4 5 6 
#
# 1 44.9426 1.9026 -14.4259 0.0000 0.0000 0.0000
# 2 1.9026 99.9223 23.5973 0.0000 0.0000 0.0000
# 3 -14.4259 23.5973 57.4240 0.0000 0.0000 0.0000
# 4 0.0000 0.0000 0.0000 30.0133 0.0000 0.0000
# 5 0.0000 0.0000 0.0000 0.0000 22.9678 0.0000
# 6 0.0000 0.0000 0.0000 0.0000 0.0000 19.2778
#
#
#
# Elastic Compliance Matrix: (Units=1/GPa)
#
#
# Indices 1 2 3 4 5 6 
#
# 1 0.024607 -0.002136 0.007059 0.000000 0.000000 0.000000
# 2 -0.002136 0.011269 -0.005167 0.000000 0.000000 0.000000
# 3 0.007059 -0.005167 0.021311 0.000000 0.000000 0.000000
# 4 0.000000 0.000000 0.000000 0.033319 0.000000 0.000000
# 5 0.000000 0.000000 0.000000 0.000000 0.043539 0.000000
# 6 0.000000 0.000000 0.000000 0.000000 0.000000 0.051873
#
#
# Mechanical properties :
#
#
# Convention : Reuss Voigt Hill
#
# Bulk Modulus (GPa) = 17.63678 24.93744 21.28711
# Shear Modulus (GPa) = 24.35405 27.19943 25.77674
#
# Velocity S-wave (km/s) = 3.36976 3.56117 3.46678
# Velocity P-wave (km/s) = 4.83359 5.34196 5.09412
#
# Compressibility (1/GPa) = 0.05669968
#
# Stress axis : x y z
#
# Youngs Moduli (GPa) = 40.63896 88.74138 46.92392
#
# Poissons Ratio (x) = 0.18952 -0.33125
# Poissons Ratio (y) = 0.08679 0.24246
# Poissons Ratio (z) = -0.28688 0.45854
#
# Static dielectric constant tensor:
#      x y z
#    x 1.766260 0.000000 0.000000 
#    y 0.000000 1.800080 0.000000 
#    z 0.000000 0.000000 1.794830 
# 
# From -- ./inp_files/5331.got.cif
#   From: 2010.05.17/outbox.cif.g08.bks.cpg/sg33_3_cif.got.tgz:5331.got - 2010.06.03 17:15:25.
