data_PCOD9346660
_publ_section_title
;
Structure prediction by ZEFSAII (Michael W. Deem and Ramdas Pophale) SiO2 
 PCOD9346660
Probable space group: P N A 21
;
_chemical_formula_sum "Si O2"
_cell_formula_units_Z 24
_cell_length_a 12.099288
_cell_length_b 17.210124
_cell_length_c 5.072845
_cell_angle_alpha 90.000000
_cell_angle_beta 90.000000
_cell_angle_gamma 90.000000
_cell_volume 1056.319766
_symmetry_space_group_name_H-M "P N A 21"
_symmetry_group_IT_number 33
_symmetry_cell_setting 'orthorhombic'
loop_
_space_group_symop_operation_xyz
x,y,z
-x,-y,1/2+z
1/2-x,1/2+y,1/2+z
1/2+x,1/2-y,z
loop_
_atom_site_type_symbol
_atom_site_label
_atom_site_fract_x
_atom_site_fract_y
_atom_site_fract_z
Si Si1 0.838945 0.323709 0.172760
Si Si2 0.023088 0.447526 0.294421
Si Si3 0.821776 0.220372 0.678484
Si Si4 0.832380 0.952101 0.670288
Si Si5 0.240685 0.407235 0.992877
Si Si6 0.938573 0.091005 0.375284
O O1 0.942160 0.374127 0.272747
O O2 0.796826 0.272193 0.420309
O O3 0.746810 0.384695 0.074919
O O4 0.864600 0.272741 0.917274
O O5 0.015349 0.488312 0.577773
O O6 0.145043 0.420458 0.205270
O O7 0.910775 0.156736 0.585731
O O8 0.723589 0.165646 0.796491
O O9 0.932547 0.914071 0.828736
O O10 0.894817 0.006337 0.461698
O O11 0.759334 0.012418 0.838663
O O12 0.357897 0.390344 0.132805
#
# Coordination Sequence:
#
# PCOD9346660 Si02
#       6
#     4   4   4   4   4   4
#     4  12  26  47  69 107 140 191 235 290 344 433
#     4  12  26  45  74 104 138 185 242 296 341 417
#     4  11  27  47  66 105 152 181 234 284 370 416
#     4  11  24  41  78 102 140 179 252 285 349 414
#     4  11  24  48  70 103 143 186 233 295 355 414
#     4  11  23  46  71 109 137 190 228 306 349 420
#
# _framework density 22.720392
#
# number of rings (size 3 to 8) (size 9 to 14) (size 15 to 20)
#    0.000    0.667    5.000    2.000    4.667    2.667 
#    0.000    0.000    0.000    0.000    0.000    0.000 
#    0.000    0.000    0.000    0.000    0.000    0.000 
#
# Total GULP energy -134281.977858 kJ/mol
# GULP energy per Si atom -5595.082411 kJ/mol
# Density = 2.266868 g / cm^3
# Si number density = 22.720392 Si / 1000 Ang^3
#
#
#
# Elastic Constant Matrix: (Units=GPa)
#
#
# Indices 1 2 3 4 5 6 
#
# 1 64.7765 19.7939 -5.7023 0.0000 0.0000 0.0000
# 2 19.7939 114.1210 29.7608 0.0000 0.0000 0.0000
# 3 -5.7023 29.7608 82.7484 0.0000 0.0000 0.0000
# 4 0.0000 0.0000 0.0000 4.7656 0.0000 0.0000
# 5 0.0000 0.0000 0.0000 0.0000 24.5024 0.0000
# 6 0.0000 0.0000 0.0000 0.0000 0.0000 7.8735
#
#
#
# Elastic Compliance Matrix: (Units=1/GPa)
#
#
# Indices 1 2 3 4 5 6 
#
# 1 0.016731 -0.003534 0.002424 0.000000 0.000000 0.000000
# 2 -0.003534 0.010416 -0.003990 0.000000 0.000000 0.000000
# 3 0.002424 -0.003990 0.013687 0.000000 0.000000 0.000000
# 4 0.000000 0.000000 0.000000 0.209835 0.000000 0.000000
# 5 0.000000 0.000000 0.000000 0.000000 0.040812 0.000000
# 6 0.000000 0.000000 0.000000 0.000000 0.000000 0.127008
#
#
# Mechanical properties :
#
#
# Convention : Reuss Voigt Hill
#
# Bulk Modulus (GPa) = 32.64319 38.81674 35.72997
# Shear Modulus (GPa) = 11.39212 21.94788 16.67000
#
# Velocity S-wave (km/s) = 2.24164 3.11142 2.71163
# Velocity P-wave (km/s) = 4.59331 5.47993 5.05609
#
# Compressibility (1/GPa) = 0.03063426
#
# Stress axis : x y z
#
# Youngs Moduli (GPa) = 59.76928 96.00561 73.06318
#
# Poissons Ratio (x) = 0.33929 -0.17711
# Poissons Ratio (y) = 0.21123 0.29150
# Poissons Ratio (z) = -0.14488 0.38304
#
# Static dielectric constant tensor:
#      x y z
#    x 1.831280 0.000000 0.000000 
#    y 0.000000 1.876150 0.000000 
#    z 0.000000 0.000000 1.928000 
# 
# From -- ./inp_files/827.got.cif
#   From: 2010.05.17/outbox.cif.g08.bks.cpg/sg33_1_cif.got.tgz:827.got - 2010.06.03 17:15:25.
