data_PCOD9346152
_publ_section_title
;
Structure prediction by ZEFSAII (Michael W. Deem and Ramdas Pophale) SiO2 
 PCOD9346152
Probable space group: P N A 21
;
_chemical_formula_sum "Si O2"
_cell_formula_units_Z 32
_cell_length_a 14.784393
_cell_length_b 5.210451
_cell_length_c 16.955277
_cell_angle_alpha 90.000000
_cell_angle_beta 90.000000
_cell_angle_gamma 90.000000
_cell_volume 1306.121877
_symmetry_space_group_name_H-M "P N A 21"
_symmetry_group_IT_number 33
_symmetry_cell_setting 'orthorhombic'
loop_
_space_group_symop_operation_xyz
x,y,z
-x,-y,1/2+z
1/2-x,1/2+y,1/2+z
1/2+x,1/2-y,z
loop_
_atom_site_type_symbol
_atom_site_label
_atom_site_fract_x
_atom_site_fract_y
_atom_site_fract_z
Si Si1 0.851938 0.667936 0.704440
Si Si2 0.464652 0.290885 0.924881
Si Si3 0.042112 0.542115 0.072330
Si Si4 0.850688 0.753300 0.338760
Si Si5 0.228848 0.544989 0.987618
Si Si6 0.733665 0.150705 0.677907
Si Si7 0.811907 0.582930 0.871604
Si Si8 0.113632 0.153102 0.536985
O O1 0.940304 0.613572 0.652418
O O2 0.794337 0.403768 0.696601
O O3 0.857882 0.724600 0.797920
O O4 0.798482 0.907942 0.669990
O O5 0.546224 0.292007 0.862793
O O6 0.377086 0.156184 0.887712
O O7 0.442674 0.573851 0.955686
O O8 0.494926 0.125628 0.002569
O O9 0.980511 0.788997 0.084778
O O10 0.141673 0.608583 0.037908
O O11 0.806909 0.589464 0.409981
O O12 0.830366 0.627076 0.254977
O O13 0.789730 0.009514 0.345110
O O14 0.293826 0.776968 0.955426
O O15 0.311974 0.411842 0.033568
O O16 0.675679 0.185597 0.599933
#
# Coordination Sequence:
#
# PCOD9346152 Si02
#       8
#     4   4   4   4   4   4   4   4
#     4  11  26  47  73 110 146 204 249 322 396 464
#     4  11  25  42  71 110 145 201 263 319 393 475
#     4  11  26  42  70 105 147 195 252 324 386 471
#     4  10  23  45  69 101 144 199 256 315 384 461
#     4  11  21  44  68  99 142 191 254 309 384 464
#     4  11  26  47  76 103 153 199 252 312 401 463
#     4  11  22  44  73  98 148 193 261 316 383 469
#     4  12  25  43  70 110 147 196 255 313 403 471
#
# _framework density 24.500012999999999
#
# number of rings (size 3 to 8) (size 9 to 14) (size 15 to 20)
#    0.000    1.000    5.000    0.750    5.250    2.000 
#    0.000    1.250    0.000    0.000    0.000    0.000 
#    0.000    0.000    0.000    0.000    0.000    0.000 
#
# Total GULP energy -178222.653516 kJ/mol
# GULP energy per Si atom -5569.457922 kJ/mol
# Density = 2.444425 g / cm^3
# Si number density = 24.500013 Si / 1000 Ang^3
#
#
#
# Elastic Constant Matrix: (Units=GPa)
#
#
# Indices 1 2 3 4 5 6 
#
# 1 120.1872 15.2521 0.2670 0.0000 0.0000 0.0000
# 2 15.2521 62.4077 6.1006 0.0000 0.0000 0.0000
# 3 0.2670 6.1006 96.0250 0.0000 0.0000 0.0000
# 4 0.0000 0.0000 0.0000 36.7976 0.0000 0.0000
# 5 0.0000 0.0000 0.0000 0.0000 38.5026 0.0000
# 6 0.0000 0.0000 0.0000 0.0000 0.0000 33.5968
#
#
#
# Elastic Compliance Matrix: (Units=1/GPa)
#
#
# Indices 1 2 3 4 5 6 
#
# 1 0.008588 -0.002110 0.000110 0.000000 0.000000 0.000000
# 2 -0.002110 0.016642 -0.001051 0.000000 0.000000 0.000000
# 3 0.000110 -0.001051 0.010480 0.000000 0.000000 0.000000
# 4 0.000000 0.000000 0.000000 0.027176 0.000000 0.000000
# 5 0.000000 0.000000 0.000000 0.000000 0.025972 0.000000
# 6 0.000000 0.000000 0.000000 0.000000 0.000000 0.029765
#
#
# Mechanical properties :
#
#
# Convention : Reuss Voigt Hill
#
# Bulk Modulus (GPa) = 33.77402 35.76215 34.76809
# Shear Modulus (GPa) = 37.14869 38.91274 38.03072
#
# Velocity S-wave (km/s) = 3.89816 3.98964 3.94416
# Velocity P-wave (km/s) = 5.83747 5.98761 5.91302
#
# Compressibility (1/GPa) = 0.02960855
#
# Stress axis : x y z
#
# Youngs Moduli (GPa) = 116.44394 60.08888 95.41577
#
# Poissons Ratio (x) = 0.12676 -0.01051
# Poissons Ratio (y) = 0.24565 0.10032
# Poissons Ratio (z) = -0.01283 0.06318
#
# Static dielectric constant tensor:
#      x y z
#    x 2.000930 0.000000 0.000000 
#    y 0.000000 2.147190 0.000000 
#    z 0.000000 0.000000 2.161500 
# 
# From -- ./inp_files/8812.got.cif
#   From: 2010.05.17/outbox.cif.g08.bks.cpg/sg33_5_cif.got.tgz:8812.got - 2010.06.03 17:15:25.
