data_PCOD9346654
_publ_section_title
;
Structure prediction by ZEFSAII (Michael W. Deem and Ramdas Pophale) SiO2 
 PCOD9346654
Probable space group: P N A 21
;
_chemical_formula_sum "Si O2"
_cell_formula_units_Z 24
_cell_length_a 13.882868
_cell_length_b 7.700101
_cell_length_c 9.694444
_cell_angle_alpha 90.000000
_cell_angle_beta 90.000000
_cell_angle_gamma 90.000000
_cell_volume 1036.331078
_symmetry_space_group_name_H-M "P N A 21"
_symmetry_group_IT_number 33
_symmetry_cell_setting 'orthorhombic'
loop_
_space_group_symop_operation_xyz
x,y,z
-x,-y,1/2+z
1/2-x,1/2+y,1/2+z
1/2+x,1/2-y,z
loop_
_atom_site_type_symbol
_atom_site_label
_atom_site_fract_x
_atom_site_fract_y
_atom_site_fract_z
Si Si1 0.381033 0.457932 0.094370
Si Si2 0.656176 0.150037 0.517511
Si Si3 0.658890 0.497028 0.092734
Si Si4 0.964587 0.874118 0.358514
Si Si5 0.814153 0.658494 0.707648
Si Si6 0.042757 0.644567 0.133043
O O1 0.340974 0.648067 0.056260
O O2 0.442750 0.488633 0.234691
O O3 0.287949 0.343913 0.129370
O O4 0.448456 0.402414 0.967180
O O5 0.697639 0.114302 0.367099
O O6 0.544577 0.101330 0.530705
O O7 0.730739 0.050512 0.613351
O O8 0.640037 0.349856 0.205553
O O9 0.599050 0.676975 0.094060
O O10 0.629374 0.392198 0.954355
O O11 0.988961 0.698255 0.275846
O O12 0.884983 0.514066 0.645883
#
# Coordination Sequence:
#
# PCOD9346654 Si02
#       6
#     4   4   4   4   4   4
#     4  11  24  47  76 110 151 200 251 317 380 456
#     4  11  25  50  71 108 152 191 255 315 370 467
#     4  12  25  46  74 110 143 198 246 315 380 445
#     4  11  23  45  77 105 152 195 252 315 379 447
#     4  12  28  46  77 109 149 206 253 310 389 458
#     4  11  27  50  73 108 153 194 259 314 376 457
#
# _framework density 23.158622000000001
#
# number of rings (size 3 to 8) (size 9 to 14) (size 15 to 20)
#    0.000    0.667    6.667    1.000    4.667    0.000 
#    9.000    0.000    0.000    0.000    0.000    0.000 
#    0.000    0.000    0.000    0.000    0.000    0.000 
#
# Total GULP energy -134019.299071 kJ/mol
# GULP energy per Si atom -5584.137461 kJ/mol
# Density = 2.310591 g / cm^3
# Si number density = 23.158622 Si / 1000 Ang^3
#
#
#
# Elastic Constant Matrix: (Units=GPa)
#
#
# Indices 1 2 3 4 5 6 
#
# 1 138.1498 50.3493 17.6255 0.0000 0.0000 0.0000
# 2 50.3493 71.9584 5.9680 0.0000 0.0000 0.0000
# 3 17.6255 5.9680 59.9967 0.0000 0.0000 0.0000
# 4 0.0000 0.0000 0.0000 26.2288 0.0000 0.0000
# 5 0.0000 0.0000 0.0000 0.0000 29.2354 0.0000
# 6 0.0000 0.0000 0.0000 0.0000 0.0000 30.4899
#
#
#
# Elastic Compliance Matrix: (Units=1/GPa)
#
#
# Indices 1 2 3 4 5 6 
#
# 1 0.010012 -0.006818 -0.002263 0.000000 0.000000 0.000000
# 2 -0.006818 0.018655 0.000147 0.000000 0.000000 0.000000
# 3 -0.002263 0.000147 0.017318 0.000000 0.000000 0.000000
# 4 0.000000 0.000000 0.000000 0.038126 0.000000 0.000000
# 5 0.000000 0.000000 0.000000 0.000000 0.034205 0.000000
# 6 0.000000 0.000000 0.000000 0.000000 0.000000 0.032798
#
#
# Mechanical properties :
#
#
# Convention : Reuss Voigt Hill
#
# Bulk Modulus (GPa) = 35.56483 46.44337 41.00410
# Shear Modulus (GPa) = 28.03424 30.26830 29.15127
#
# Velocity S-wave (km/s) = 3.48304 3.61917 3.55176
# Velocity P-wave (km/s) = 5.61835 6.12882 5.87913
#
# Compressibility (1/GPa) = 0.02811767
#
# Stress axis : x y z
#
# Youngs Moduli (GPa) = 99.88033 53.60484 57.74408
#
# Poissons Ratio (x) = 0.36546 0.13068
# Poissons Ratio (y) = 0.68095 -0.00850
# Poissons Ratio (z) = 0.22604 -0.00789
#
# Static dielectric constant tensor:
#      x y z
#    x 1.957440 0.000000 0.000000 
#    y 0.000000 1.839380 0.000000 
#    z 0.000000 0.000000 1.899310 
# 
# From -- ./inp_files/4257.got.cif
#   From: 2010.05.17/outbox.cif.g08.bks.cpg/sg33_3_cif.got.tgz:4257.got - 2010.06.03 17:15:25.
