data_PCOD9346010
_publ_section_title
;
Structure prediction by ZEFSAII (Michael W. Deem and Ramdas Pophale) SiO2 
 PCOD9346010
Probable space group: P N A 21
;
_chemical_formula_sum "Si O2"
_cell_formula_units_Z 28
_cell_length_a 9.097658
_cell_length_b 10.428888
_cell_length_c 11.789811
_cell_angle_alpha 90.000000
_cell_angle_beta 90.000000
_cell_angle_gamma 90.000000
_cell_volume 1118.599068
_symmetry_space_group_name_H-M "P N A 21"
_symmetry_group_IT_number 33
_symmetry_cell_setting 'orthorhombic'
loop_
_space_group_symop_operation_xyz
x,y,z
-x,-y,1/2+z
1/2-x,1/2+y,1/2+z
1/2+x,1/2-y,z
loop_
_atom_site_type_symbol
_atom_site_label
_atom_site_fract_x
_atom_site_fract_y
_atom_site_fract_z
Si Si1 0.650222 0.778972 0.326220
Si Si2 0.555956 0.524909 0.429252
Si Si3 0.894853 0.385024 0.079756
Si Si4 0.728011 0.589692 0.885193
Si Si5 0.972874 0.755104 0.938877
Si Si6 0.754917 0.625336 0.632913
Si Si7 0.903367 0.662967 0.177150
O O1 0.572099 0.642487 0.346317
O O2 0.636836 0.852646 0.446283
O O3 0.799877 0.730996 0.268803
O O4 0.558665 0.859081 0.236371
O O5 0.382224 0.504451 0.453369
O O6 0.591096 0.383909 0.381622
O O7 0.661251 0.558441 0.533478
O O8 0.806523 0.270957 0.140560
O O9 0.851622 0.526112 0.126387
O O10 0.071675 0.372616 0.101704
O O11 0.898613 0.625316 0.898183
O O12 0.645189 0.724092 0.918741
O O13 0.713439 0.562035 0.752610
O O14 0.934814 0.755992 0.071480
#
# Coordination Sequence:
#
# PCOD9346010 Si02
#       7
#     4   4   4   4   4   4   4
#     4  11  26  52  74 108 151 206 252 320 401 460
#     4   9  25  42  72  99 149 190 257 315 380 477
#     4  11  28  48  76 115 155 203 271 333 392 495
#     4  10  23  40  69 102 144 192 250 315 396 450
#     4  10  24  42  65 110 144 189 259 316 381 477
#     4  11  24  47  74 109 153 206 262 331 409 468
#     4  12  28  47  78 109 154 202 261 316 407 463
#
# _framework density 25.031309
#
# number of rings (size 3 to 8) (size 9 to 14) (size 15 to 20)
#    0.857    0.571    0.000    3.429    8.000    5.714 
#    0.000    0.000    0.000    0.000    0.000    0.000 
#    0.000    0.000    0.000    0.000    0.000    0.000 
#
# Total GULP energy -156225.764743 kJ/mol
# GULP energy per Si atom -5579.491598 kJ/mol
# Density = 2.497434 g / cm^3
# Si number density = 25.031309 Si / 1000 Ang^3
#
#
#
# Elastic Constant Matrix: (Units=GPa)
#
#
# Indices 1 2 3 4 5 6 
#
# 1 147.9872 42.7433 35.4930 0.0000 0.0000 0.0000
# 2 42.7433 113.0195 18.6959 0.0000 0.0000 0.0000
# 3 35.4930 18.6959 72.2064 0.0000 0.0000 0.0000
# 4 0.0000 0.0000 0.0000 24.3917 0.0000 0.0000
# 5 0.0000 0.0000 0.0000 0.0000 17.6495 0.0000
# 6 0.0000 0.0000 0.0000 0.0000 0.0000 34.2725
#
#
#
# Elastic Compliance Matrix: (Units=1/GPa)
#
#
# Indices 1 2 3 4 5 6 
#
# 1 0.008324 -0.002582 -0.003423 0.000000 0.000000 0.000000
# 2 -0.002582 0.010045 -0.001332 0.000000 0.000000 0.000000
# 3 -0.003423 -0.001332 0.015877 0.000000 0.000000 0.000000
# 4 0.000000 0.000000 0.000000 0.040997 0.000000 0.000000
# 5 0.000000 0.000000 0.000000 0.000000 0.056659 0.000000
# 6 0.000000 0.000000 0.000000 0.000000 0.000000 0.029178
#
#
# Mechanical properties :
#
#
# Convention : Reuss Voigt Hill
#
# Bulk Modulus (GPa) = 51.09341 58.56417 54.82879
# Shear Modulus (GPa) = 27.43072 31.01480 29.22276
#
# Velocity S-wave (km/s) = 3.31396 3.52382 3.42050
# Velocity P-wave (km/s) = 5.92446 6.32484 6.12792
#
# Compressibility (1/GPa) = 0.01957200
#
# Stress axis : x y z
#
# Youngs Moduli (GPa) = 120.13349 99.55440 62.98551
#
# Poissons Ratio (x) = 0.25703 0.21561
# Poissons Ratio (y) = 0.31017 0.08388
# Poissons Ratio (z) = 0.41124 0.13258
#
# Static dielectric constant tensor:
#      x y z
#    x 2.314080 0.000000 0.000000 
#    y 0.000000 2.116970 0.000000 
#    z 0.000000 0.000000 2.030020 
# 
# From -- ./inp_files/5836.got.cif
#   From: 2010.05.17/outbox.cif.g08.bks.cpg/sg33_3_cif.got.tgz:5836.got - 2010.06.03 17:15:25.
