data_PCOD9346969
_publ_section_title
;
Structure prediction by ZEFSAII (Michael W. Deem and Ramdas Pophale) SiO2 
 PCOD9346969
Probable space group: P N A 21
;
_chemical_formula_sum "Si O2"
_cell_formula_units_Z 24
_cell_length_a 16.261075
_cell_length_b 9.390417
_cell_length_c 6.230993
_cell_angle_alpha 90.000000
_cell_angle_beta 90.000000
_cell_angle_gamma 90.000000
_cell_volume 951.461883
_symmetry_space_group_name_H-M "P N A 21"
_symmetry_group_IT_number 33
_symmetry_cell_setting 'orthorhombic'
loop_
_space_group_symop_operation_xyz
x,y,z
-x,-y,1/2+z
1/2-x,1/2+y,1/2+z
1/2+x,1/2-y,z
loop_
_atom_site_type_symbol
_atom_site_label
_atom_site_fract_x
_atom_site_fract_y
_atom_site_fract_z
Si Si1 0.024803 0.349894 0.101420
Si Si2 0.748346 0.459890 0.986683
Si Si3 0.096458 0.909666 0.116776
Si Si4 0.818507 0.690720 0.301853
Si Si5 0.582962 0.368304 0.465510
Si Si6 0.398809 0.111395 0.771406
O O1 0.045988 0.243507 0.292461
O O2 0.030395 0.511774 0.179403
O O3 0.097555 0.334981 0.929457
O O4 0.937072 0.326795 0.991231
O O5 0.737554 0.288233 0.961103
O O6 0.819860 0.485318 0.813652
O O7 0.656700 0.518435 0.944765
O O8 0.780830 0.547422 0.195629
O O9 0.119966 0.745010 0.125641
O O10 0.998490 0.917069 0.092439
O O11 0.115207 0.998518 0.331178
O O12 0.847314 0.790554 0.102756
#
# Coordination Sequence:
#
# PCOD9346969 Si02
#       6
#     4   4   4   4   4   4
#     4  12  25  51  79 107 152 203 258 310 373 470
#     4  12  26  48  74 114 158 190 256 324 394 450
#     4  12  25  47  75 111 147 197 251 310 382 450
#     4  12  26  52  76 114 154 202 256 318 388 464
#     4  12  25  51  79 107 152 203 258 310 373 470
#     4  12  25  47  75 111 147 197 251 310 382 450
#
# _framework density 25.224346000000001
#
# number of rings (size 3 to 8) (size 9 to 14) (size 15 to 20)
#    0.000    0.000    6.667    4.000    0.000    1.333 
#   12.000    0.000    0.000    0.000    0.000    0.000 
#    0.000    0.000    0.000    0.000    0.000    0.000 
#
# Total GULP energy -134225.441344 kJ/mol
# GULP energy per Si atom -5592.726723 kJ/mol
# Density = 2.516693 g / cm^3
# Si number density = 25.224346 Si / 1000 Ang^3
#
#
#
# Elastic Constant Matrix: (Units=GPa)
#
#
# Indices 1 2 3 4 5 6 
#
# 1 112.5049 11.5141 20.4400 0.0000 0.0000 0.0000
# 2 11.5141 109.6004 43.4713 0.0000 0.0000 0.0000
# 3 20.4400 43.4713 56.8845 0.0000 0.0000 0.0000
# 4 0.0000 0.0000 0.0000 61.9240 0.0000 0.0000
# 5 0.0000 0.0000 0.0000 0.0000 30.5936 0.0000
# 6 0.0000 0.0000 0.0000 0.0000 0.0000 46.2023
#
#
#
# Elastic Compliance Matrix: (Units=1/GPa)
#
#
# Indices 1 2 3 4 5 6 
#
# 1 0.009529 0.000512 -0.003816 0.000000 0.000000 0.000000
# 2 0.000512 0.013120 -0.010210 0.000000 0.000000 0.000000
# 3 -0.003816 -0.010210 0.026753 0.000000 0.000000 0.000000
# 4 0.000000 0.000000 0.000000 0.016149 0.000000 0.000000
# 5 0.000000 0.000000 0.000000 0.000000 0.032687 0.000000
# 6 0.000000 0.000000 0.000000 0.000000 0.000000 0.021644
#
#
# Mechanical properties :
#
#
# Convention : Reuss Voigt Hill
#
# Bulk Modulus (GPa) = 44.69239 47.76008 46.22623
# Shear Modulus (GPa) = 32.39013 41.31493 36.85253
#
# Velocity S-wave (km/s) = 3.58730 4.05149 3.82644
# Velocity P-wave (km/s) = 5.90886 6.39228 6.15532
#
# Compressibility (1/GPa) = 0.02237518
#
# Stress axis : x y z
#
# Youngs Moduli (GPa) = 104.93957 76.21925 37.37849
#
# Poissons Ratio (x) = -0.03905 0.14262
# Poissons Ratio (y) = -0.05376 0.38165
# Poissons Ratio (z) = 0.40041 0.77823
#
# Static dielectric constant tensor:
#      x y z
#    x 2.020060 0.000000 0.000000 
#    y 0.000000 1.994420 0.000000 
#    z 0.000000 0.000000 2.030000 
# 
# From -- ./inp_files/1673.got.cif
#   From: 2010.05.17/outbox.cif.g08.bks.cpg/sg33_1_cif.got.tgz:1673.got - 2010.06.03 17:15:25.
