data_PCOD9346560
_publ_section_title
;
Structure prediction by ZEFSAII (Michael W. Deem and Ramdas Pophale) SiO2 
 PCOD9346560
Probable space group: P N A 21
;
_chemical_formula_sum "Si O2"
_cell_formula_units_Z 28
_cell_length_a 13.370253
_cell_length_b 16.267369
_cell_length_c 5.189265
_cell_angle_alpha 90.000000
_cell_angle_beta 90.000000
_cell_angle_gamma 90.000000
_cell_volume 1128.659114
_symmetry_space_group_name_H-M "P N A 21"
_symmetry_group_IT_number 33
_symmetry_cell_setting 'orthorhombic'
loop_
_space_group_symop_operation_xyz
x,y,z
-x,-y,1/2+z
1/2-x,1/2+y,1/2+z
1/2+x,1/2-y,z
loop_
_atom_site_type_symbol
_atom_site_label
_atom_site_fract_x
_atom_site_fract_y
_atom_site_fract_z
Si Si1 0.735798 0.339467 0.582560
Si Si2 0.660709 0.890419 0.595438
Si Si3 0.072795 0.066750 0.295391
Si Si4 0.425564 0.705935 0.416809
Si Si5 0.813746 0.578079 0.187607
Si Si6 0.408939 0.381519 0.638598
Si Si7 0.429626 0.871739 0.690516
O O1 0.795341 0.328908 0.315268
O O2 0.652970 0.409270 0.513080
O O3 0.660555 0.273319 0.709551
O O4 0.812228 0.363433 0.807313
O O5 0.542550 0.899023 0.636437
O O6 0.705191 0.981015 0.645219
O O7 0.965025 0.105346 0.368188
O O8 0.067209 0.969844 0.269730
O O9 0.104503 0.119710 0.048569
O O10 0.531834 0.691028 0.281238
O O11 0.428169 0.774608 0.633441
O O12 0.709177 0.624269 0.137176
O O13 0.856191 0.590330 0.474202
O O14 0.893915 0.604178 0.972782
#
# Coordination Sequence:
#
# PCOD9346560 Si02
#       7
#     4   4   4   4   4   4   4
#     4  11  23  44  77 105 138 183 243 305 367 436
#     4  12  24  48  79 104 140 195 257 301 367 425
#     4  11  22  43  74 110 142 178 235 307 366 440
#     4  11  26  47  68 110 153 189 234 304 387 454
#     4  12  27  48  76 107 142 195 255 308 358 436
#     4  11  24  41  78 108 144 183 244 306 374 435
#     4  12  30  49  68 104 155 197 246 299 365 448
#
# _framework density 24.808198000000001
#
# number of rings (size 3 to 8) (size 9 to 14) (size 15 to 20)
#    0.000    0.571    4.286    2.571    8.000    1.143 
#    2.571    0.000    0.000    0.000    0.000    0.000 
#    0.000    0.000    0.000    0.000    0.000    0.000 
#
# Total GULP energy -156802.528346 kJ/mol
# GULP energy per Si atom -5600.090298 kJ/mol
# Density = 2.475173 g / cm^3
# Si number density = 24.808198 Si / 1000 Ang^3
#
#
#
# Elastic Constant Matrix: (Units=GPa)
#
#
# Indices 1 2 3 4 5 6 
#
# 1 144.9175 1.3281 15.1195 0.0000 0.0000 0.0000
# 2 1.3281 65.9943 8.9229 0.0000 0.0000 0.0000
# 3 15.1195 8.9229 101.3030 0.0000 0.0000 0.0000
# 4 0.0000 0.0000 0.0000 29.8841 0.0000 0.0000
# 5 0.0000 0.0000 0.0000 0.0000 51.1471 0.0000
# 6 0.0000 0.0000 0.0000 0.0000 0.0000 -20.4020
#
#
#
# Elastic Compliance Matrix: (Units=1/GPa)
#
#
# Indices 1 2 3 4 5 6 
#
# 1 0.007010 0.000000 -0.001046 0.000000 0.000000 0.000000
# 2 0.000000 0.015335 -0.001351 0.000000 0.000000 0.000000
# 3 -0.001046 -0.001351 0.010147 0.000000 0.000000 0.000000
# 4 0.000000 0.000000 0.000000 0.033463 0.000000 0.000000
# 5 0.000000 0.000000 0.000000 0.000000 0.019551 0.000000
# 6 0.000000 0.000000 0.000000 0.000000 0.000000 -0.049015
#
#
# Mechanical properties :
#
#
# Convention : Reuss Voigt Hill
#
# Bulk Modulus (GPa) = 36.10331 40.32841 38.21586
# Shear Modulus (GPa) = 98.97677 31.24880 65.11279
#
# Velocity S-wave (km/s) = 6.32324 3.55296 5.12869
# Velocity P-wave (km/s) = 8.23989 5.75523 7.10699
#
# Compressibility (1/GPa) = 0.02769829
#
# Stress axis : x y z
#
# Youngs Moduli (GPa) = 142.66093 65.20837 98.55606
#
# Poissons Ratio (x) = -0.00003 0.10311
# Poissons Ratio (y) = -0.00006 0.13313
# Poissons Ratio (z) = 0.14926 0.08808
#
# Static dielectric constant tensor:
#      x y z
#    x 1.984250 0.000000 0.000000 
#    y 0.000000 1.987080 0.000000 
#    z 0.000000 0.000000 1.967000 
# 
# From -- ./inp_files/999.got.cif
#   From: 2010.05.17/outbox.cif.g08.bks.cpg/sg33_1_cif.got.tgz:999.got - 2010.06.03 17:15:25.
