data_PCOD9346153
_publ_section_title
;
Structure prediction by ZEFSAII (Michael W. Deem and Ramdas Pophale) SiO2 
 PCOD9346153
Probable space group: P N A 21
;
_chemical_formula_sum "Si O2"
_cell_formula_units_Z 32
_cell_length_a 20.186813
_cell_length_b 13.039057
_cell_length_c 5.523499
_cell_angle_alpha 90.000000
_cell_angle_beta 90.000000
_cell_angle_gamma 90.000000
_cell_volume 1453.878866
_symmetry_space_group_name_H-M "P N A 21"
_symmetry_group_IT_number 33
_symmetry_cell_setting 'orthorhombic'
loop_
_space_group_symop_operation_xyz
x,y,z
-x,-y,1/2+z
1/2-x,1/2+y,1/2+z
1/2+x,1/2-y,z
loop_
_atom_site_type_symbol
_atom_site_label
_atom_site_fract_x
_atom_site_fract_y
_atom_site_fract_z
Si Si1 0.970261 0.825450 0.773140
Si Si2 0.352626 0.523368 0.840427
Si Si3 0.139502 0.453185 0.683467
Si Si4 0.225475 0.572831 0.063984
Si Si5 0.117438 0.831827 0.694420
Si Si6 0.611248 0.862672 0.361268
Si Si7 0.530341 0.202415 0.761429
Si Si8 0.234479 0.906065 0.952343
O O1 0.919172 0.919087 0.769609
O O2 0.968121 0.771170 0.507241
O O3 0.047099 0.855810 0.818039
O O4 0.951046 0.758231 0.009360
O O5 0.298861 0.598427 0.970277
O O6 0.311421 0.480250 0.614263
O O7 0.369646 0.425362 0.007947
O O8 0.177165 0.534513 0.852501
O O9 0.109899 0.522764 0.468837
O O10 0.081719 0.389341 0.804062
O O11 0.199230 0.378934 0.596352
O O12 0.181102 0.647467 0.224181
O O13 0.239293 0.472298 0.227653
O O14 0.110220 0.723708 0.564966
O O15 0.182530 0.824011 0.859007
O O16 0.543863 0.840631 0.218345
#
# Coordination Sequence:
#
# PCOD9346153 Si02
#       8
#     4   4   4   4   4   4   4   4
#     4  11  28  46  69 107 142 183 240 284 345 414
#     4  10  23  45  69  99 136 187 226 292 347 415
#     4  10  23  45  69  99 136 187 226 292 347 415
#     4   9  21  43  67  98 137 171 242 275 354 414
#     4  10  24  41  70 102 137 179 231 285 347 422
#     4  10  24  41  70 102 137 179 231 285 347 422
#     4  11  28  46  69 107 142 183 240 284 345 414
#     4   9  21  43  67  98 137 171 242 275 354 414
#
# _framework density 22.010086000000001
#
# number of rings (size 3 to 8) (size 9 to 14) (size 15 to 20)
#    0.000    2.000    0.000    0.000   17.500    0.000 
#   13.500    0.000    0.000    0.000    0.000    0.000 
#    0.000    0.000    0.000    0.000    0.000    0.000 
#
# Total GULP energy -178572.492021 kJ/mol
# GULP energy per Si atom -5580.390376 kJ/mol
# Density = 2.195999 g / cm^3
# Si number density = 22.010086 Si / 1000 Ang^3
#
#
#
# Elastic Constant Matrix: (Units=GPa)
#
#
# Indices 1 2 3 4 5 6 
#
# 1 103.3203 21.8794 -11.0661 0.0000 0.0000 0.0000
# 2 21.8794 38.5077 -1.3385 0.0000 0.0000 0.0000
# 3 -11.0661 -1.3385 44.3267 0.0000 0.0000 0.0000
# 4 0.0000 0.0000 0.0000 24.2059 0.0000 0.0000
# 5 0.0000 0.0000 0.0000 0.0000 30.8585 0.0000
# 6 0.0000 0.0000 0.0000 0.0000 0.0000 69.3264
#
#
#
# Elastic Compliance Matrix: (Units=1/GPa)
#
#
# Indices 1 2 3 4 5 6 
#
# 1 0.011301 -0.006329 0.002630 0.000000 0.000000 0.000000
# 2 -0.006329 0.029541 -0.000688 0.000000 0.000000 0.000000
# 3 0.002630 -0.000688 0.023196 0.000000 0.000000 0.000000
# 4 0.000000 0.000000 0.000000 0.041312 0.000000 0.000000
# 5 0.000000 0.000000 0.000000 0.000000 0.032406 0.000000
# 6 0.000000 0.000000 0.000000 0.000000 0.000000 0.014425
#
#
# Mechanical properties :
#
#
# Convention : Reuss Voigt Hill
#
# Bulk Modulus (GPa) = 18.09543 22.78936 20.44239
# Shear Modulus (GPa) = 27.87441 36.65682 32.26561
#
# Velocity S-wave (km/s) = 3.56257 4.08543 3.83292
# Velocity P-wave (km/s) = 5.01615 5.71234 5.37553
#
# Compressibility (1/GPa) = 0.05526257
#
# Stress axis : x y z
#
# Youngs Moduli (GPa) = 88.49027 33.85104 43.11163
#
# Poissons Ratio (x) = 0.21426 -0.11339
# Poissons Ratio (y) = 0.56009 0.02966
# Poissons Ratio (z) = -0.23274 0.02329
#
# Static dielectric constant tensor:
#      x y z
#    x 1.820440 0.000000 0.000000 
#    y 0.000000 1.797520 0.000000 
#    z 0.000000 0.000000 1.871940 
# 
# From -- ./inp_files/1793.got.cif
#   From: 2010.05.17/outbox.cif.g08.bks.cpg/sg33_1_cif.got.tgz:1793.got - 2010.06.03 17:15:25.
