data_PCOD9346427
_publ_section_title
;
Structure prediction by ZEFSAII (Michael W. Deem and Ramdas Pophale) SiO2 
 PCOD9346427
Probable space group: P N A 21
;
_chemical_formula_sum "Si O2"
_cell_formula_units_Z 24
_cell_length_a 11.258080
_cell_length_b 15.808130
_cell_length_c 5.349140
_cell_angle_alpha 90.000000
_cell_angle_beta 90.000000
_cell_angle_gamma 90.000000
_cell_volume 951.982125
_symmetry_space_group_name_H-M "P N A 21"
_symmetry_group_IT_number 33
_symmetry_cell_setting 'orthorhombic'
loop_
_space_group_symop_operation_xyz
x,y,z
-x,-y,1/2+z
1/2-x,1/2+y,1/2+z
1/2+x,1/2-y,z
loop_
_atom_site_type_symbol
_atom_site_label
_atom_site_fract_x
_atom_site_fract_y
_atom_site_fract_z
Si Si1 0.079607 0.909651 0.953090
Si Si2 0.191340 0.134426 0.474387
Si Si3 0.664671 0.684703 0.447042
Si Si4 0.789396 0.486961 0.891851
Si Si5 0.600237 0.855125 0.612587
Si Si6 0.638268 0.181418 0.323872
O O1 0.106687 0.862876 0.688001
O O2 0.938161 0.906873 0.972633
O O3 0.149105 0.998394 0.965825
O O4 0.132669 0.861789 0.194656
O O5 0.269045 0.077258 0.660929
O O6 0.267806 0.130213 0.221336
O O7 0.175064 0.237333 0.491307
O O8 0.610541 0.777770 0.424955
O O9 0.800494 0.693275 0.547908
O O10 0.821721 0.586391 0.883932
O O11 0.912045 0.447823 0.004819
O O12 0.502876 0.824347 0.805036
#
# Coordination Sequence:
#
# PCOD9346427 Si02
#       6
#     4   4   4   4   4   4
#     4  11  26  50  78 115 158 209 271 333 412 490
#     4  11  27  50  77 111 167 212 276 340 429 500
#     4  10  25  49  78 111 150 208 264 334 408 494
#     4  11  29  41  79 113 154 213 274 345 408 501
#     4  11  26  47  72 118 151 218 268 341 417 507
#     4  10  25  53  74 114 160 214 275 349 418 512
#
# _framework density 25.210559
#
# number of rings (size 3 to 8) (size 9 to 14) (size 15 to 20)
#    0.000    1.333    1.667    0.000   18.667    0.000 
#    3.000    0.000    0.000    0.000    0.000    0.000 
#    0.000    0.000    0.000    0.000    0.000    0.000 
#
# Total GULP energy -133619.742812 kJ/mol
# GULP energy per Si atom -5567.489284 kJ/mol
# Density = 2.515318 g / cm^3
# Si number density = 25.210559 Si / 1000 Ang^3
#
#
#
# Elastic Constant Matrix: (Units=GPa)
#
#
# Indices 1 2 3 4 5 6 
#
# 1 68.7028 5.2245 8.5867 0.0000 0.0000 0.0000
# 2 5.2245 53.9931 13.9284 0.0000 0.0000 0.0000
# 3 8.5867 13.9284 90.5696 0.0000 0.0000 0.0000
# 4 0.0000 0.0000 0.0000 37.0163 0.0000 0.0000
# 5 0.0000 0.0000 0.0000 0.0000 24.1125 0.0000
# 6 0.0000 0.0000 0.0000 0.0000 0.0000 -459.6317
#
#
#
# Elastic Compliance Matrix: (Units=1/GPa)
#
#
# Indices 1 2 3 4 5 6 
#
# 1 0.014794 -0.001114 -0.001231 0.000000 0.000000 0.000000
# 2 -0.001114 0.019370 -0.002873 0.000000 0.000000 0.000000
# 3 -0.001231 -0.002873 0.011600 0.000000 0.000000 0.000000
# 4 0.000000 0.000000 0.000000 0.027015 0.000000 0.000000
# 5 0.000000 0.000000 0.000000 0.000000 0.041472 0.000000
# 6 0.000000 0.000000 0.000000 0.000000 0.000000 -0.002176
#
#
# Mechanical properties :
#
#
# Convention : Reuss Voigt Hill
#
# Bulk Modulus (GPa) = 28.30700 29.86053 29.08376
# Shear Modulus (GPa) = 37.23343 -67.33218 -15.04938
#
# Velocity S-wave (km/s) = 3.84721 -5.17358 -2.44590
# Velocity P-wave (km/s) = 5.56663 4.88034 1.89336
#
# Compressibility (1/GPa) = 0.03532695
#
# Stress axis : x y z
#
# Youngs Moduli (GPa) = 67.59480 51.62663 86.20818
#
# Poissons Ratio (x) = 0.05751 0.10615
# Poissons Ratio (y) = 0.07529 0.24770
# Poissons Ratio (z) = 0.08323 0.14834
#
# Static dielectric constant tensor:
#      x y z
#    x 2.132480 0.000000 0.000000 
#    y 0.000000 2.252480 0.000000 
#    z 0.000000 0.000000 2.148630 
# 
# From -- ./inp_files/847.got.cif
#   From: 2010.05.17/outbox.cif.g08.bks.cpg/sg33_1_cif.got.tgz:847.got - 2010.06.03 17:15:25.
