data_PCOD9346479
_publ_section_title
;
Structure prediction by ZEFSAII (Michael W. Deem and Ramdas Pophale) SiO2 
 PCOD9346479
Probable space group: P N A 21
;
_chemical_formula_sum "Si O2"
_cell_formula_units_Z 28
_cell_length_a 12.099171
_cell_length_b 12.449980
_cell_length_c 9.282006
_cell_angle_alpha 90.000000
_cell_angle_beta 90.000000
_cell_angle_gamma 90.000000
_cell_volume 1398.189748
_symmetry_space_group_name_H-M "P N A 21"
_symmetry_group_IT_number 33
_symmetry_cell_setting 'orthorhombic'
loop_
_space_group_symop_operation_xyz
x,y,z
-x,-y,1/2+z
1/2-x,1/2+y,1/2+z
1/2+x,1/2-y,z
loop_
_atom_site_type_symbol
_atom_site_label
_atom_site_fract_x
_atom_site_fract_y
_atom_site_fract_z
Si Si1 0.562622 0.058144 0.910050
Si Si2 0.799501 0.395978 0.528946
Si Si3 0.955537 0.118227 0.312503
Si Si4 0.722536 0.182398 0.396616
Si Si5 0.932887 0.928770 0.102536
Si Si6 0.031945 0.306163 0.641909
Si Si7 0.474409 0.858325 0.718938
O O1 0.570014 0.150462 0.794089
O O2 0.509662 0.956127 0.824599
O O3 0.505232 0.101967 0.055866
O O4 0.679863 0.010283 0.957064
O O5 0.765115 0.303680 0.417553
O O6 0.696443 0.407285 0.633969
O O7 0.916459 0.362473 0.598492
O O8 0.834593 0.113721 0.388838
O O9 0.042492 0.077683 0.432107
O O10 0.975141 0.242288 0.263893
O O11 0.964282 0.038518 0.178195
O O12 0.630170 0.171325 0.524845
O O13 0.655146 0.160241 0.251354
O O14 0.992238 0.820103 0.153450
#
# Coordination Sequence:
#
# PCOD9346479 Si02
#       7
#     4   4   4   4   4   4   4
#     4  12  23  41  71  99 130 170 233 277 332 393
#     4  11  20  44  69  93 134 174 217 283 330 391
#     4  12  25  44  67  98 138 180 219 276 339 403
#     4  11  20  44  69  92 133 178 219 276 340 384
#     4  11  26  44  66  94 142 180 219 274 343 395
#     4  11  23  44  68  97 131 179 225 276 332 400
#     4  12  23  43  68  99 132 175 222 280 330 400
#
# _framework density 20.025894999999998
#
# number of rings (size 3 to 8) (size 9 to 14) (size 15 to 20)
#    0.000    0.571    8.571    0.857    2.000    1.143 
#    0.000    2.857    0.000    0.000    0.000    0.000 
#    0.000    0.000    0.000    0.000    0.000    0.000 
#
# Total GULP energy -155995.633739 kJ/mol
# GULP energy per Si atom -5571.272634 kJ/mol
# Density = 1.998031 g / cm^3
# Si number density = 20.025895 Si / 1000 Ang^3
#
#
#
# Elastic Constant Matrix: (Units=GPa)
#
#
# Indices 1 2 3 4 5 6 
#
# 1 83.8554 10.2204 23.6891 0.0000 0.0000 0.0000
# 2 10.2204 93.8629 67.0488 0.0000 0.0000 0.0000
# 3 23.6891 67.0488 122.1797 0.0000 0.0000 0.0000
# 4 0.0000 0.0000 0.0000 37.3309 0.0000 0.0000
# 5 0.0000 0.0000 0.0000 0.0000 11.4747 0.0000
# 6 0.0000 0.0000 0.0000 0.0000 0.0000 22.5941
#
#
#
# Elastic Compliance Matrix: (Units=1/GPa)
#
#
# Indices 1 2 3 4 5 6 
#
# 1 0.012638 0.000616 -0.002788 0.000000 0.000000 0.000000
# 2 0.000616 0.017553 -0.009752 0.000000 0.000000 0.000000
# 3 -0.002788 -0.009752 0.014077 0.000000 0.000000 0.000000
# 4 0.000000 0.000000 0.000000 0.026787 0.000000 0.000000
# 5 0.000000 0.000000 0.000000 0.000000 0.087148 0.000000
# 6 0.000000 0.000000 0.000000 0.000000 0.000000 0.044259
#
#
# Mechanical properties :
#
#
# Convention : Reuss Voigt Hill
#
# Bulk Modulus (GPa) = 48.97481 55.75717 52.36599
# Shear Modulus (GPa) = 21.44838 27.54259 24.49548
#
# Velocity S-wave (km/s) = 3.27621 3.71259 3.50121
# Velocity P-wave (km/s) = 6.23059 6.80300 6.52308
#
# Compressibility (1/GPa) = 0.02041866
#
# Stress axis : x y z
#
# Youngs Moduli (GPa) = 79.12705 56.97091 71.03890
#
# Poissons Ratio (x) = -0.03507 0.19806
# Poissons Ratio (y) = -0.04871 0.69276
# Poissons Ratio (z) = 0.22062 0.55557
#
# Static dielectric constant tensor:
#      x y z
#    x 1.759320 0.000000 0.000000 
#    y 0.000000 1.739310 0.000000 
#    z 0.000000 0.000000 1.738030 
# 
# From -- ./inp_files/3846.got.cif
#   From: 2010.05.17/outbox.cif.g08.bks.cpg/sg33_2_cif.got.tgz:3846.got - 2010.06.03 17:15:25.
