data_PCOD9346779
_publ_section_title
;
Structure prediction by ZEFSAII (Michael W. Deem and Ramdas Pophale) SiO2 
 PCOD9346779
Probable space group: P N A 21
;
_chemical_formula_sum "Si O2"
_cell_formula_units_Z 32
_cell_length_a 8.416014
_cell_length_b 11.527370
_cell_length_c 14.909719
_cell_angle_alpha 90.000000
_cell_angle_beta 90.000000
_cell_angle_gamma 90.000000
_cell_volume 1446.459043
_symmetry_space_group_name_H-M "P N A 21"
_symmetry_group_IT_number 33
_symmetry_cell_setting 'orthorhombic'
loop_
_space_group_symop_operation_xyz
x,y,z
-x,-y,1/2+z
1/2-x,1/2+y,1/2+z
1/2+x,1/2-y,z
loop_
_atom_site_type_symbol
_atom_site_label
_atom_site_fract_x
_atom_site_fract_y
_atom_site_fract_z
Si Si1 0.611006 0.946345 0.425500
Si Si2 0.223281 0.923166 0.763372
Si Si3 0.833982 0.221551 0.828094
Si Si4 0.245127 0.019994 0.404583
Si Si5 0.626777 0.313345 0.260440
Si Si6 0.080684 0.292947 0.701187
Si Si7 0.252458 0.009013 0.120794
Si Si8 0.109328 0.074276 0.598604
O O1 0.623826 0.809394 0.406184
O O2 0.431151 0.988943 0.409478
O O3 0.725439 0.007226 0.352074
O O4 0.666026 0.971458 0.525722
O O5 0.354475 0.823486 0.750185
O O6 0.054164 0.856981 0.769296
O O7 0.200701 0.007965 0.678847
O O8 0.847087 0.087113 0.855378
O O9 0.651513 0.238917 0.799274
O O10 0.903796 0.261339 0.731432
O O11 0.214259 0.135976 0.348164
O O12 0.178263 0.036430 0.503953
O O13 0.714182 0.375853 0.177191
O O14 0.136125 0.421766 0.678017
O O15 0.122633 0.210661 0.618646
O O16 0.077345 0.955478 0.105404
#
# Coordination Sequence:
#
# PCOD9346779 Si02
#       8
#     4   4   4   4   4   4   4   4
#     4  12  27  43  71 104 137 184 231 288 348 418
#     4  11  25  46  70  96 140 182 227 283 350 406
#     4  12  24  46  74 101 135 181 238 291 349 416
#     4  12  27  44  70 105 139 180 235 285 350 415
#     4  11  24  47  68  97 139 183 224 287 344 412
#     4  12  23  47  75  99 135 184 234 294 347 412
#     4  11  26  45  70 103 139 180 233 286 350 415
#     4  11  26  44  70 103 138 182 230 290 348 414
#
# _framework density 22.122990999999999
#
# number of rings (size 3 to 8) (size 9 to 14) (size 15 to 20)
#    0.000    0.500    5.000    2.250    7.000    2.000 
#    0.000    0.000    0.000    0.000    0.000    0.000 
#    0.000    0.000    0.000    0.000    0.000    0.000 
#
# Total GULP energy -178890.969066 kJ/mol
# GULP energy per Si atom -5590.342783 kJ/mol
# Density = 2.207264 g / cm^3
# Si number density = 22.122991 Si / 1000 Ang^3
#
#
#
# Elastic Constant Matrix: (Units=GPa)
#
#
# Indices 1 2 3 4 5 6 
#
# 1 57.8248 5.5810 30.8322 0.0000 0.0000 0.0000
# 2 5.5810 72.7498 13.9522 0.0000 0.0000 0.0000
# 3 30.8322 13.9522 117.9293 0.0000 0.0000 0.0000
# 4 0.0000 0.0000 0.0000 28.3786 0.0000 0.0000
# 5 0.0000 0.0000 0.0000 0.0000 40.8742 0.0000
# 6 0.0000 0.0000 0.0000 0.0000 0.0000 28.5776
#
#
#
# Elastic Compliance Matrix: (Units=1/GPa)
#
#
# Indices 1 2 3 4 5 6 
#
# 1 0.020116 -0.000547 -0.005195 0.000000 0.000000 0.000000
# 2 -0.000547 0.014080 -0.001523 0.000000 0.000000 0.000000
# 3 -0.005195 -0.001523 0.010018 0.000000 0.000000 0.000000
# 4 0.000000 0.000000 0.000000 0.035238 0.000000 0.000000
# 5 0.000000 0.000000 0.000000 0.000000 0.024465 0.000000
# 6 0.000000 0.000000 0.000000 0.000000 0.000000 0.034992
#
#
# Mechanical properties :
#
#
# Convention : Reuss Voigt Hill
#
# Bulk Modulus (GPa) = 33.68684 38.80385 36.24535
# Shear Modulus (GPa) = 30.61229 32.77532 31.69380
#
# Velocity S-wave (km/s) = 3.72389 3.85321 3.78910
# Velocity P-wave (km/s) = 5.80947 6.11346 5.96340
#
# Compressibility (1/GPa) = 0.02968518
#
# Stress axis : x y z
#
# Youngs Moduli (GPa) = 49.71130 71.02398 99.82115
#
# Poissons Ratio (x) = 0.03885 0.51853
# Poissons Ratio (y) = 0.02719 0.15200
# Poissons Ratio (z) = 0.25823 0.10815
#
# Static dielectric constant tensor:
#      x y z
#    x 1.823780 0.000000 0.000000 
#    y 0.000000 1.806770 0.000000 
#    z 0.000000 0.000000 1.751550 
# 
# From -- ./inp_files/7657.got.cif
#   From: 2010.05.17/outbox.cif.g08.bks.cpg/sg33_4_cif.got.tgz:7657.got - 2010.06.03 17:15:25.
