data_PCOD9346295
_publ_section_title
;
Structure prediction by ZEFSAII (Michael W. Deem and Ramdas Pophale) SiO2 
 PCOD9346295
Probable space group: P N A 21
;
_chemical_formula_sum "Si O2"
_cell_formula_units_Z 20
_cell_length_a 21.348641
_cell_length_b 4.793431
_cell_length_c 7.615069
_cell_angle_alpha 90.000000
_cell_angle_beta 90.000000
_cell_angle_gamma 90.000000
_cell_volume 779.274665
_symmetry_space_group_name_H-M "P N A 21"
_symmetry_group_IT_number 33
_symmetry_cell_setting 'orthorhombic'
loop_
_space_group_symop_operation_xyz
x,y,z
-x,-y,1/2+z
1/2-x,1/2+y,1/2+z
1/2+x,1/2-y,z
loop_
_atom_site_type_symbol
_atom_site_label
_atom_site_fract_x
_atom_site_fract_y
_atom_site_fract_z
Si Si1 0.162521 0.634357 0.271830
Si Si2 0.035715 0.570038 0.417635
Si Si3 0.464284 0.429962 0.272604
Si Si4 0.337479 0.365640 0.418408
Si Si5 0.267048 0.249999 0.095119
O O1 0.106213 0.474723 0.367337
O O2 0.220487 0.471562 0.182852
O O3 0.190053 0.831592 0.427267
O O4 0.132107 0.749996 0.095118
O O5 0.037420 0.750000 0.595119
O O6 0.992652 0.300078 0.405301
O O7 0.007348 0.800078 0.284937
O O8 0.393787 0.525276 0.322902
O O9 0.309947 0.168406 0.262971
O O10 0.279514 0.528437 0.507387
#
# Coordination Sequence:
#
# PCOD9346295 Si02
#       5
#     4   4   4   4   4
#     4  11  23  44  70 102 145 185 248 296 370 430
#     4  12  27  49  74 108 146 197 248 308 369 438
#     4  12  27  49  74 108 146 197 248 308 369 438
#     4  11  23  44  70 102 145 185 248 296 370 430
#     4  10  24  44  68 104 142 188 242 294 374 428
#
# _framework density 25.664894
#
# number of rings (size 3 to 8) (size 9 to 14) (size 15 to 20)
#    0.000    0.800    2.000    4.800    8.400    0.000 
#    0.000    0.000    0.000    0.000    0.000    0.000 
#    0.000    0.000    0.000    0.000    0.000    0.000 
#
# Total GULP energy -111555.592974 kJ/mol
# GULP energy per Si atom -5577.779649 kJ/mol
# Density = 2.560648 g / cm^3
# Si number density = 25.664894 Si / 1000 Ang^3
#
#
#
# Elastic Constant Matrix: (Units=GPa)
#
#
# Indices 1 2 3 4 5 6 
#
# 1 132.5571 23.4701 55.1255 0.0000 0.0000 0.0000
# 2 23.4701 76.9055 27.5246 0.0000 0.0000 0.0000
# 3 55.1255 27.5246 200.2914 0.0000 0.0000 0.0000
# 4 0.0000 0.0000 0.0000 32.8959 0.0000 0.0000
# 5 0.0000 0.0000 0.0000 0.0000 38.8388 0.0000
# 6 0.0000 0.0000 0.0000 0.0000 0.0000 51.7691
#
#
#
# Elastic Compliance Matrix: (Units=1/GPa)
#
#
# Indices 1 2 3 4 5 6 
#
# 1 0.008777 -0.001908 -0.002154 0.000000 0.000000 0.000000
# 2 -0.001908 0.014090 -0.001411 0.000000 0.000000 0.000000
# 3 -0.002154 -0.001411 0.005779 0.000000 0.000000 0.000000
# 4 0.000000 0.000000 0.000000 0.030399 0.000000 0.000000
# 5 0.000000 0.000000 0.000000 0.000000 0.025747 0.000000
# 6 0.000000 0.000000 0.000000 0.000000 0.000000 0.019317
#
#
# Mechanical properties :
#
#
# Convention : Reuss Voigt Hill
#
# Bulk Modulus (GPa) = 56.49202 69.11050 62.80126
# Shear Modulus (GPa) = 41.33738 44.94299 43.14018
#
# Velocity S-wave (km/s) = 4.01765 4.18921 4.10433
# Velocity P-wave (km/s) = 6.60161 7.09830 6.85445
#
# Compressibility (1/GPa) = 0.01770162
#
# Stress axis : x y z
#
# Youngs Moduli (GPa) = 113.93010 70.97074 173.02902
#
# Poissons Ratio (x) = 0.13541 0.37263
# Poissons Ratio (y) = 0.21737 0.24418
# Poissons Ratio (z) = 0.24536 0.10016
#
# Static dielectric constant tensor:
#      x y z
#    x 1.980200 0.000000 0.000000 
#    y 0.000000 2.045230 0.000000 
#    z 0.000000 0.000000 2.161590 
# 
# From -- ./inp_files/4903.got.cif
#   From: 2010.05.17/outbox.cif.g08.bks.cpg/sg33_3_cif.got.tgz:4903.got - 2010.06.03 17:15:25.
