data_PCOD9346668
_publ_section_title
;
Structure prediction by ZEFSAII (Michael W. Deem and Ramdas Pophale) SiO2 
 PCOD9346668
Probable space group: P N A 21
;
_chemical_formula_sum "Si O2"
_cell_formula_units_Z 28
_cell_length_a 16.202977
_cell_length_b 9.552189
_cell_length_c 7.977803
_cell_angle_alpha 90.000000
_cell_angle_beta 90.000000
_cell_angle_gamma 90.000000
_cell_volume 1234.755673
_symmetry_space_group_name_H-M "P N A 21"
_symmetry_group_IT_number 33
_symmetry_cell_setting 'orthorhombic'
loop_
_space_group_symop_operation_xyz
x,y,z
-x,-y,1/2+z
1/2-x,1/2+y,1/2+z
1/2+x,1/2-y,z
loop_
_atom_site_type_symbol
_atom_site_label
_atom_site_fract_x
_atom_site_fract_y
_atom_site_fract_z
Si Si1 0.364751 0.623374 0.978020
Si Si2 0.226561 0.578083 0.212329
Si Si3 0.552188 0.288132 0.820020
Si Si4 0.500195 0.212250 0.310585
Si Si5 0.135889 0.830316 0.296323
Si Si6 0.431964 0.961782 0.525199
Si Si7 0.870550 0.059690 0.420987
O O1 0.409503 0.720888 0.843210
O O2 0.362626 0.465485 0.912775
O O3 0.274058 0.645340 0.052365
O O4 0.421276 0.651961 0.140343
O O5 0.200335 0.707086 0.330294
O O6 0.145365 0.505174 0.139324
O O7 0.289593 0.477726 0.311659
O O8 0.455137 0.267375 0.812834
O O9 0.579729 0.413465 0.942189
O O10 0.593614 0.143289 0.875175
O O11 0.505694 0.129103 0.137676
O O12 0.431759 0.333622 0.324813
O O13 0.475777 0.097710 0.450078
O O14 0.147406 0.880791 0.104561
#
# Coordination Sequence:
#
# PCOD9346668 Si02
#       7
#     4   4   4   4   4   4   4
#     4  11  25  43  75 103 143 194 247 305 372 450
#     4  11  28  45  68 111 150 193 244 316 391 435
#     4  11  23  46  77 110 139 195 254 300 374 456
#     4  12  24  48  74 109 143 207 256 303 381 460
#     4  12  22  49  73 106 146 193 246 315 366 456
#     4  12  27  46  75 111 158 190 252 325 379 457
#     4  11  25  47  74 106 147 196 255 304 375 464
#
# _framework density 22.676549999999999
#
# number of rings (size 3 to 8) (size 9 to 14) (size 15 to 20)
#    0.000    0.571    4.286    2.571   10.000    0.000 
#    0.000    0.000    0.000    0.000    0.000    0.000 
#    0.000    0.000    0.000    0.000    0.000    0.000 
#
# Total GULP energy -156617.623590 kJ/mol
# GULP energy per Si atom -5593.486557 kJ/mol
# Density = 2.262494 g / cm^3
# Si number density = 22.676550 Si / 1000 Ang^3
#
#
#
# Elastic Constant Matrix: (Units=GPa)
#
#
# Indices 1 2 3 4 5 6 
#
# 1 67.6996 60.6934 30.2291 0.0000 0.0000 0.0000
# 2 60.6934 149.3851 38.8685 0.0000 0.0000 0.0000
# 3 30.2291 38.8685 82.0773 0.0000 0.0000 0.0000
# 4 0.0000 0.0000 0.0000 49.4986 0.0000 0.0000
# 5 0.0000 0.0000 0.0000 0.0000 25.0126 0.0000
# 6 0.0000 0.0000 0.0000 0.0000 0.0000 -106.2164
#
#
#
# Elastic Compliance Matrix: (Units=1/GPa)
#
#
# Indices 1 2 3 4 5 6 
#
# 1 0.024910 -0.008820 -0.004997 0.000000 0.000000 0.000000
# 2 -0.008820 0.010758 -0.001846 0.000000 0.000000 0.000000
# 3 -0.004997 -0.001846 0.014898 0.000000 0.000000 0.000000
# 4 0.000000 0.000000 0.000000 0.020203 0.000000 0.000000
# 5 0.000000 0.000000 0.000000 0.000000 0.039980 0.000000
# 6 0.000000 0.000000 0.000000 0.000000 0.000000 -0.009415
#
#
# Mechanical properties :
#
#
# Convention : Reuss Voigt Hill
#
# Bulk Modulus (GPa) = 51.97808 62.08267 57.03038
# Shear Modulus (GPa) = 35.95181 4.95036 20.45109
#
# Velocity S-wave (km/s) = 3.98605 1.47911 3.00636
# Velocity P-wave (km/s) = 6.64500 5.50944 6.10369
#
# Compressibility (1/GPa) = 0.01923888
#
# Stress axis : x y z
#
# Youngs Moduli (GPa) = 40.14418 92.95349 67.12137
#
# Poissons Ratio (x) = 0.81989 0.33543
# Poissons Ratio (y) = 0.35409 0.12391
# Poissons Ratio (z) = 0.20062 0.17159
#
# Static dielectric constant tensor:
#      x y z
#    x 1.840750 0.000000 0.000000 
#    y 0.000000 1.862200 0.000000 
#    z 0.000000 0.000000 1.907390 
# 
# From -- ./inp_files/4785.got.cif
#   From: 2010.05.17/outbox.cif.g08.bks.cpg/sg33_3_cif.got.tgz:4785.got - 2010.06.03 17:15:25.
