data_PCOD9346352
_publ_section_title
;
Structure prediction by ZEFSAII (Michael W. Deem and Ramdas Pophale) SiO2 
 PCOD9346352
Probable space group: P N A 21
;
_chemical_formula_sum "Si O2"
_cell_formula_units_Z 28
_cell_length_a 10.876903
_cell_length_b 18.270288
_cell_length_c 5.227222
_cell_angle_alpha 90.000000
_cell_angle_beta 90.000000
_cell_angle_gamma 90.000000
_cell_volume 1038.775251
_symmetry_space_group_name_H-M "P N A 21"
_symmetry_group_IT_number 33
_symmetry_cell_setting 'orthorhombic'
loop_
_space_group_symop_operation_xyz
x,y,z
-x,-y,1/2+z
1/2-x,1/2+y,1/2+z
1/2+x,1/2-y,z
loop_
_atom_site_type_symbol
_atom_site_label
_atom_site_fract_x
_atom_site_fract_y
_atom_site_fract_z
Si Si1 0.580906 0.797623 0.189000
Si Si2 0.005598 0.165491 0.935564
Si Si3 0.934445 0.970239 0.183584
Si Si4 0.929280 0.426653 0.339105
Si Si5 0.183475 0.822950 0.843670
Si Si6 0.257396 0.687950 0.606641
Si Si7 0.804374 0.532331 0.953380
O O1 0.494390 0.752627 0.383318
O O2 0.716313 0.796893 0.316593
O O3 0.555322 0.881037 0.109147
O O4 0.590962 0.733717 0.977595
O O5 0.882112 0.147814 0.088004
O O6 0.118672 0.143909 0.115958
O O7 0.033738 0.115420 0.693937
O O8 0.795542 0.987746 0.281312
O O9 0.023413 0.000807 0.409505
O O10 0.857723 0.359449 0.201882
O O11 0.846515 0.491669 0.214141
O O12 0.069552 0.452482 0.293928
O O13 0.281496 0.763580 0.749863
O O14 0.240474 0.889179 0.998558
#
# Coordination Sequence:
#
# PCOD9346352 Si02
#       7
#     4   4   4   4   4   4   4
#     4  10  25  46  75 112 153 206 274 341 436 510
#     4  11  23  45  77 110 150 209 280 354 428 500
#     4  12  27  51  81 122 165 219 287 363 442 518
#     4  11  28  49  71 115 162 213 270 338 443 523
#     4  10  24  47  71 111 147 208 271 343 412 509
#     4  10  24  46  74 111 150 210 269 347 421 523
#     4  12  27  50  77 115 165 223 277 358 434 539
#
# _framework density 26.954822
#
# number of rings (size 3 to 8) (size 9 to 14) (size 15 to 20)
#    0.000    1.143    2.857    0.857   10.000    3.429 
#    5.143    0.000    0.000    0.000    0.000    0.000 
#    0.000    0.000    0.000    0.000    0.000    0.000 
#
# Total GULP energy -156147.870560 kJ/mol
# GULP energy per Si atom -5576.709663 kJ/mol
# Density = 2.689347 g / cm^3
# Si number density = 26.954822 Si / 1000 Ang^3
#
#
#
# Elastic Constant Matrix: (Units=GPa)
#
#
# Indices 1 2 3 4 5 6 
#
# 1 127.3712 57.8208 29.3664 0.0000 0.0000 0.0000
# 2 57.8208 196.2287 45.8078 0.0000 0.0000 0.0000
# 3 29.3664 45.8078 71.5311 0.0000 0.0000 0.0000
# 4 0.0000 0.0000 0.0000 57.7371 0.0000 0.0000
# 5 0.0000 0.0000 0.0000 0.0000 26.4738 0.0000
# 6 0.0000 0.0000 0.0000 0.0000 0.0000 41.2985
#
#
#
# Elastic Compliance Matrix: (Units=1/GPa)
#
#
# Indices 1 2 3 4 5 6 
#
# 1 0.009417 -0.002201 -0.002456 0.000000 0.000000 0.000000
# 2 -0.002201 0.006506 -0.003263 0.000000 0.000000 0.000000
# 3 -0.002456 -0.003263 0.017078 0.000000 0.000000 0.000000
# 4 0.000000 0.000000 0.000000 0.017320 0.000000 0.000000
# 5 0.000000 0.000000 0.000000 0.000000 0.037773 0.000000
# 6 0.000000 0.000000 0.000000 0.000000 0.000000 0.024214
#
#
# Mechanical properties :
#
#
# Convention : Reuss Voigt Hill
#
# Bulk Modulus (GPa) = 58.27495 73.45788 65.86642
# Shear Modulus (GPa) = 37.34995 42.57761 39.96378
#
# Velocity S-wave (km/s) = 3.72647 3.97872 3.85466
# Velocity P-wave (km/s) = 6.33892 6.95833 6.65583
#
# Compressibility (1/GPa) = 0.01716003
#
# Stress axis : x y z
#
# Youngs Moduli (GPa) = 106.19453 153.69385 58.55538
#
# Poissons Ratio (x) = 0.33833 0.14382
# Poissons Ratio (y) = 0.23377 0.19106
# Poissons Ratio (z) = 0.26084 0.50149
#
# Static dielectric constant tensor:
#      x y z
#    x 2.131960 0.000000 0.000000 
#    y 0.000000 2.107670 0.000000 
#    z 0.000000 0.000000 2.504870 
# 
# From -- ./inp_files/944.got.cif
#   From: 2010.05.17/outbox.cif.g08.bks.cpg/sg33_1_cif.got.tgz:944.got - 2010.06.03 17:15:25.
