data_PCOD9346974
_publ_section_title
;
Structure prediction by ZEFSAII (Michael W. Deem and Ramdas Pophale) SiO2 
 PCOD9346974
Probable space group: P N A 21
;
_chemical_formula_sum "Si O2"
_cell_formula_units_Z 20
_cell_length_a 14.305108
_cell_length_b 8.899568
_cell_length_c 6.516026
_cell_angle_alpha 90.000000
_cell_angle_beta 90.000000
_cell_angle_gamma 90.000000
_cell_volume 829.550588
_symmetry_space_group_name_H-M "P N A 21"
_symmetry_group_IT_number 33
_symmetry_cell_setting 'orthorhombic'
loop_
_space_group_symop_operation_xyz
x,y,z
-x,-y,1/2+z
1/2-x,1/2+y,1/2+z
1/2+x,1/2-y,z
loop_
_atom_site_type_symbol
_atom_site_label
_atom_site_fract_x
_atom_site_fract_y
_atom_site_fract_z
Si Si1 0.759010 0.731990 0.172270
Si Si2 0.655520 0.454818 0.358797
Si Si3 0.044587 0.864865 0.683811
Si Si4 0.418581 0.156780 0.544934
Si Si5 0.566604 0.169219 0.874126
O O1 0.723879 0.559503 0.219184
O O2 0.665372 0.827009 0.203863
O O3 0.837946 0.758732 0.343360
O O4 0.799476 0.799718 0.953250
O O5 0.553907 0.442624 0.247424
O O6 0.622649 0.542312 0.564601
O O7 0.005106 0.736941 0.534196
O O8 0.088048 0.790779 0.884209
O O9 0.517132 0.169325 0.654970
O O10 0.411620 0.998814 0.436607
#
# Coordination Sequence:
#
# PCOD9346974 Si02
#       5
#     4   4   4   4   4
#     4  12  26  48  74 112 150 192 260 310 378 454
#     4  12  26  48  74 110 148 200 252 312 380 450
#     4  12  26  50  78 100 156 200 242 306 380 452
#     4  12  25  49  76 110 151 199 247 307 375 447
#     4  12  25  49  76 110 151 199 247 307 375 447
#
# _framework density 24.109439999999999
#
# number of rings (size 3 to 8) (size 9 to 14) (size 15 to 20)
#    0.000    0.000    8.000    2.400    0.000    1.600 
#   14.400    0.000    0.000    0.000    0.000    0.000 
#    0.000    0.000    0.000    0.000    0.000    0.000 
#
# Total GULP energy -111704.863171 kJ/mol
# GULP energy per Si atom -5585.243159 kJ/mol
# Density = 2.405457 g / cm^3
# Si number density = 24.109440 Si / 1000 Ang^3
#
#
#
# Elastic Constant Matrix: (Units=GPa)
#
#
# Indices 1 2 3 4 5 6 
#
# 1 119.5000 36.9261 29.0738 0.0000 0.0000 0.0000
# 2 36.9261 80.3683 52.3368 0.0000 0.0000 0.0000
# 3 29.0738 52.3368 76.6916 0.0000 0.0000 0.0000
# 4 0.0000 0.0000 0.0000 73.5652 0.0000 0.0000
# 5 0.0000 0.0000 0.0000 0.0000 17.2933 0.0000
# 6 0.0000 0.0000 0.0000 0.0000 0.0000 35.5188
#
#
#
# Elastic Compliance Matrix: (Units=1/GPa)
#
#
# Indices 1 2 3 4 5 6 
#
# 1 0.009810 -0.003753 -0.001157 0.000000 0.000000 0.000000
# 2 -0.003753 0.023832 -0.014841 0.000000 0.000000 0.000000
# 3 -0.001157 -0.014841 0.023606 0.000000 0.000000 0.000000
# 4 0.000000 0.000000 0.000000 0.013593 0.000000 0.000000
# 5 0.000000 0.000000 0.000000 0.000000 0.057826 0.000000
# 6 0.000000 0.000000 0.000000 0.000000 0.000000 0.028154
#
#
# Mechanical properties :
#
#
# Convention : Reuss Voigt Hill
#
# Bulk Modulus (GPa) = 56.35641 57.02593 56.69117
# Shear Modulus (GPa) = 24.72340 35.82368 30.27354
#
# Velocity S-wave (km/s) = 3.20576 3.85889 3.54739
# Velocity P-wave (km/s) = 6.09332 6.59992 6.35168
#
# Compressibility (1/GPa) = 0.01774421
#
# Stress axis : x y z
#
# Youngs Moduli (GPa) = 101.94074 41.96104 42.36270
#
# Poissons Ratio (x) = 0.15750 0.04903
# Poissons Ratio (y) = 0.38263 0.62869
# Poissons Ratio (z) = 0.11798 0.62272
#
# Static dielectric constant tensor:
#      x y z
#    x 1.912630 0.000000 0.000000 
#    y 0.000000 1.807640 0.000000 
#    z 0.000000 0.000000 1.922890 
# 
# From -- ./inp_files/1640.got.cif
#   From: 2010.05.17/outbox.cif.g08.bks.cpg/sg33_1_cif.got.tgz:1640.got - 2010.06.03 17:15:25.
