data_PCOD9346934
_publ_section_title
;
Structure prediction by ZEFSAII (Michael W. Deem and Ramdas Pophale) SiO2 
 PCOD9346934
Probable space group: P N A 21
;
_chemical_formula_sum "Si O2"
_cell_formula_units_Z 28
_cell_length_a 9.014061
_cell_length_b 24.848260
_cell_length_c 5.360808
_cell_angle_alpha 90.000000
_cell_angle_beta 90.000000
_cell_angle_gamma 90.000000
_cell_volume 1200.733779
_symmetry_space_group_name_H-M "P N A 21"
_symmetry_group_IT_number 33
_symmetry_cell_setting 'orthorhombic'
loop_
_space_group_symop_operation_xyz
x,y,z
-x,-y,1/2+z
1/2-x,1/2+y,1/2+z
1/2+x,1/2-y,z
loop_
_atom_site_type_symbol
_atom_site_label
_atom_site_fract_x
_atom_site_fract_y
_atom_site_fract_z
Si Si1 0.301713 0.620231 0.448800
Si Si2 0.183184 0.289958 0.298802
Si Si3 0.449150 0.135835 0.340784
Si Si4 0.433851 0.971801 0.016769
Si Si5 0.484274 0.296343 0.065004
Si Si6 0.899145 0.994751 0.393407
Si Si7 0.315441 0.225227 0.666975
O O1 0.459758 0.643626 0.528013
O O2 0.330724 0.563657 0.323918
O O3 0.242022 0.669831 0.288047
O O4 0.183210 0.614523 0.670944
O O5 0.099062 0.343279 0.209269
O O6 0.356768 0.299829 0.268188
O O7 0.123886 0.239421 0.144525
O O8 0.184819 0.264399 0.574541
O O9 0.503040 0.089345 0.525548
O O10 0.402264 0.194677 0.443785
O O11 0.514579 0.998932 0.773243
O O12 0.254533 0.973244 0.966180
O O13 0.410497 0.263073 0.843123
O O14 0.001065 0.989916 0.648036
#
# Coordination Sequence:
#
# PCOD9346934 Si02
#       7
#     4   4   4   4   4   4   4
#     4  12  26  47  74 101 149 199 240 308 387 450
#     4  12  24  42  64 107 146 187 243 301 359 463
#     4  12  26  44  75 105 141 195 249 304 382 449
#     4  12  27  53  83 113 150 200 268 327 384 465
#     4  12  24  43  65 105 149 188 242 296 365 459
#     4  12  30  54  78 115 157 201 263 334 396 458
#     4  12  23  43  73 100 148 190 239 292 381 442
#
# _framework density 23.319072999999999
#
# number of rings (size 3 to 8) (size 9 to 14) (size 15 to 20)
#    0.000    0.000    7.143    2.571    4.000    1.143 
#    0.000    0.000    0.000    0.000    0.000    0.000 
#    0.000    0.000    0.000    0.000    0.000    0.000 
#
# Total GULP energy -156080.162117 kJ/mol
# GULP energy per Si atom -5574.291504 kJ/mol
# Density = 2.326600 g / cm^3
# Si number density = 23.319073 Si / 1000 Ang^3
#
#
#
# Elastic Constant Matrix: (Units=GPa)
#
#
# Indices 1 2 3 4 5 6 
#
# 1 106.0292 17.3020 29.8561 0.0000 0.0000 0.0000
# 2 17.3020 78.2069 -6.7219 0.0000 0.0000 0.0000
# 3 29.8561 -6.7219 70.4684 0.0000 0.0000 0.0000
# 4 0.0000 0.0000 0.0000 30.7263 0.0000 0.0000
# 5 0.0000 0.0000 0.0000 0.0000 27.5173 0.0000
# 6 0.0000 0.0000 0.0000 0.0000 0.0000 88.8927
#
#
#
# Elastic Compliance Matrix: (Units=1/GPa)
#
#
# Indices 1 2 3 4 5 6 
#
# 1 0.011345 -0.002947 -0.005088 0.000000 0.000000 0.000000
# 2 -0.002947 0.013658 0.002551 0.000000 0.000000 0.000000
# 3 -0.005088 0.002551 0.016590 0.000000 0.000000 0.000000
# 4 0.000000 0.000000 0.000000 0.032545 0.000000 0.000000
# 5 0.000000 0.000000 0.000000 0.000000 0.036341 0.000000
# 6 0.000000 0.000000 0.000000 0.000000 0.000000 0.011250
#
#
# Mechanical properties :
#
#
# Convention : Reuss Voigt Hill
#
# Bulk Modulus (GPa) = 32.65239 37.28634 34.96937
# Shear Modulus (GPa) = 34.98858 43.71179 39.35019
#
# Velocity S-wave (km/s) = 3.87774 4.33426 4.11234
# Velocity P-wave (km/s) = 5.83798 6.40875 6.13001
#
# Compressibility (1/GPa) = 0.03062563
#
# Stress axis : x y z
#
# Youngs Moduli (GPa) = 88.14519 73.21762 60.27833
#
# Poissons Ratio (x) = 0.21579 0.30668
# Poissons Ratio (y) = 0.25978 -0.15380
# Poissons Ratio (z) = 0.44846 -0.18681
#
# Static dielectric constant tensor:
#      x y z
#    x 2.179690 0.000000 0.000000 
#    y 0.000000 1.814310 0.000000 
#    z 0.000000 0.000000 2.156650 
# 
# From -- ./inp_files/490.got.cif
#   From: 2010.05.17/outbox.cif.g08.bks.cpg/sg33_1_cif.got.tgz:490.got - 2010.06.03 17:15:25.
