data_PCOD9346552
_publ_section_title
;
Structure prediction by ZEFSAII (Michael W. Deem and Ramdas Pophale) SiO2 
 PCOD9346552
Probable space group: P N A 21
;
_chemical_formula_sum "Si O2"
_cell_formula_units_Z 20
_cell_length_a 9.150589
_cell_length_b 11.734365
_cell_length_c 7.360460
_cell_angle_alpha 90.000000
_cell_angle_beta 90.000000
_cell_angle_gamma 90.000000
_cell_volume 790.339339
_symmetry_space_group_name_H-M "P N A 21"
_symmetry_group_IT_number 33
_symmetry_cell_setting 'orthorhombic'
loop_
_space_group_symop_operation_xyz
x,y,z
-x,-y,1/2+z
1/2-x,1/2+y,1/2+z
1/2+x,1/2-y,z
loop_
_atom_site_type_symbol
_atom_site_label
_atom_site_fract_x
_atom_site_fract_y
_atom_site_fract_z
Si Si1 0.170711 0.412929 0.173440
Si Si2 0.416031 0.476355 0.465171
Si Si3 0.159776 0.211340 0.432250
Si Si4 0.133359 0.857680 0.349356
Si Si5 0.557397 0.852504 0.147487
O O1 0.295978 0.462664 0.308946
O O2 0.142590 0.290052 0.257616
O O3 0.050665 0.512609 0.174447
O O4 0.232959 0.393311 0.974246
O O5 0.554054 0.395407 0.421322
O O6 0.365282 0.426435 0.658089
O O7 0.486550 0.600492 0.453513
O O8 0.322152 0.173297 0.488077
O O9 0.091821 0.292234 0.589441
O O10 0.119263 0.723150 0.312497
#
# Coordination Sequence:
#
# PCOD9346552 Si02
#       5
#     4   4   4   4   4
#     4  12  24  46  74 104 144 198 234 311 368 421
#     4  11  22  45  74 100 144 193 253 293 352 452
#     4  11  23  48  69  99 153 183 238 312 348 426
#     4  11  22  42  75 102 138 196 243 288 367 428
#     4  11  25  47  70 109 147 182 252 306 347 451
#
# _framework density 25.305588
#
# number of rings (size 3 to 8) (size 9 to 14) (size 15 to 20)
#    0.000    0.800    8.000    1.200    0.000    3.200 
#   10.800    0.000    0.000    0.000    0.000    0.000 
#    0.000    0.000    0.000    0.000    0.000    0.000 
#
# Total GULP energy -112020.285330 kJ/mol
# GULP energy per Si atom -5601.014267 kJ/mol
# Density = 2.524799 g / cm^3
# Si number density = 25.305588 Si / 1000 Ang^3
#
#
#
# Elastic Constant Matrix: (Units=GPa)
#
#
# Indices 1 2 3 4 5 6 
#
# 1 51.5090 4.7219 -3.9268 0.0000 0.0000 0.0000
# 2 4.7219 110.1436 45.7359 0.0000 0.0000 0.0000
# 3 -3.9268 45.7359 84.0443 0.0000 0.0000 0.0000
# 4 0.0000 0.0000 0.0000 40.3923 0.0000 0.0000
# 5 0.0000 0.0000 0.0000 0.0000 33.9495 0.0000
# 6 0.0000 0.0000 0.0000 0.0000 0.0000 33.6270
#
#
#
# Elastic Compliance Matrix: (Units=1/GPa)
#
#
# Indices 1 2 3 4 5 6 
#
# 1 0.019695 -0.001585 0.001782 0.000000 0.000000 0.000000
# 2 -0.001585 0.011857 -0.006526 0.000000 0.000000 0.000000
# 3 0.001782 -0.006526 0.015533 0.000000 0.000000 0.000000
# 4 0.000000 0.000000 0.000000 0.024757 0.000000 0.000000
# 5 0.000000 0.000000 0.000000 0.000000 0.029455 0.000000
# 6 0.000000 0.000000 0.000000 0.000000 0.000000 0.029738
#
#
# Mechanical properties :
#
#
# Convention : Reuss Voigt Hill
#
# Bulk Modulus (GPa) = 29.04557 37.63989 33.34273
# Shear Modulus (GPa) = 32.22280 34.87148 33.54714
#
# Velocity S-wave (km/s) = 3.57227 3.71619 3.64494
# Velocity P-wave (km/s) = 5.34019 5.77234 5.56046
#
# Compressibility (1/GPa) = 0.03442866
#
# Stress axis : x y z
#
# Youngs Moduli (GPa) = 50.77372 84.33806 64.37733
#
# Poissons Ratio (x) = 0.13363 -0.11475
# Poissons Ratio (y) = 0.08045 0.42016
# Poissons Ratio (z) = -0.09050 0.55043
#
# Static dielectric constant tensor:
#      x y z
#    x 1.981920 0.000000 0.000000 
#    y 0.000000 2.008880 0.000000 
#    z 0.000000 0.000000 2.035220 
# 
# From -- ./inp_files/3043.got.cif
#   From: 2010.05.17/outbox.cif.g08.bks.cpg/sg33_2_cif.got.tgz:3043.got - 2010.06.03 17:15:25.
