data_PCOD9346125
_publ_section_title
;
Structure prediction by ZEFSAII (Michael W. Deem and Ramdas Pophale) SiO2 
 PCOD9346125
Probable space group: P N A 21
;
_chemical_formula_sum "Si O2"
_cell_formula_units_Z 20
_cell_length_a 8.362935
_cell_length_b 18.404892
_cell_length_c 5.097171
_cell_angle_alpha 90.000000
_cell_angle_beta 90.000000
_cell_angle_gamma 90.000000
_cell_volume 784.551032
_symmetry_space_group_name_H-M "P N A 21"
_symmetry_group_IT_number 33
_symmetry_cell_setting 'orthorhombic'
loop_
_space_group_symop_operation_xyz
x,y,z
-x,-y,1/2+z
1/2-x,1/2+y,1/2+z
1/2+x,1/2-y,z
loop_
_atom_site_type_symbol
_atom_site_label
_atom_site_fract_x
_atom_site_fract_y
_atom_site_fract_z
Si Si1 0.888557 0.787893 0.358880
Si Si2 0.153659 0.581679 0.329806
Si Si3 0.193046 0.373923 0.992958
Si Si4 0.555827 0.644659 0.870672
Si Si5 0.811637 0.982577 0.830033
O O1 0.733525 0.838939 0.330084
O O2 0.832677 0.705501 0.376090
O O3 0.977020 0.812158 0.624963
O O4 0.003768 0.808126 0.118568
O O5 0.250331 0.535010 0.541799
O O6 0.975178 0.588183 0.434474
O O7 0.185295 0.548490 0.044428
O O8 0.258669 0.363614 0.289623
O O9 0.320936 0.431287 0.874000
O O10 0.468468 0.566043 0.882313
#
# Coordination Sequence:
#
# PCOD9346125 Si02
#       5
#     4   4   4   4   4
#     4  10  24  44  64  96 138 177 224 286 347 411
#     4  10  23  44  65  95 137 178 225 285 348 416
#     4  12  24  42  74 100 128 185 238 279 345 423
#     4  10  25  44  64  98 141 175 221 288 348 407
#     4  10  24  44  65  97 140 177 224 290 350 409
#
# _framework density 25.492286
#
# number of rings (size 3 to 8) (size 9 to 14) (size 15 to 20)
#    0.000    1.600    0.000    2.400    0.000   17.600 
#    0.000    0.000    0.000    0.000    0.000    0.000 
#    0.000    0.000    0.000    0.000    0.000    0.000 
#
# Total GULP energy -112158.086403 kJ/mol
# GULP energy per Si atom -5607.904320 kJ/mol
# Density = 2.543426 g / cm^3
# Si number density = 25.492286 Si / 1000 Ang^3
#
#
#
# Elastic Constant Matrix: (Units=GPa)
#
#
# Indices 1 2 3 4 5 6 
#
# 1 141.5299 38.7401 48.4476 0.0000 0.0000 0.0000
# 2 38.7401 210.4419 49.8827 0.0000 0.0000 0.0000
# 3 48.4476 49.8827 122.3724 0.0000 0.0000 0.0000
# 4 0.0000 0.0000 0.0000 24.1883 0.0000 0.0000
# 5 0.0000 0.0000 0.0000 0.0000 53.3975 0.0000
# 6 0.0000 0.0000 0.0000 0.0000 0.0000 32.2338
#
#
#
# Elastic Compliance Matrix: (Units=1/GPa)
#
#
# Indices 1 2 3 4 5 6 
#
# 1 0.008302 -0.000829 -0.002949 0.000000 0.000000 0.000000
# 2 -0.000829 0.005343 -0.001850 0.000000 0.000000 0.000000
# 3 -0.002949 -0.001850 0.010093 0.000000 0.000000 0.000000
# 4 0.000000 0.000000 0.000000 0.041342 0.000000 0.000000
# 5 0.000000 0.000000 0.000000 0.000000 0.018727 0.000000
# 6 0.000000 0.000000 0.000000 0.000000 0.000000 0.031023
#
#
# Mechanical properties :
#
#
# Convention : Reuss Voigt Hill
#
# Bulk Modulus (GPa) = 80.11038 83.16500 81.63769
# Shear Modulus (GPa) = 38.38837 44.44883 41.41860
#
# Velocity S-wave (km/s) = 3.88478 4.18020 4.03519
# Velocity P-wave (km/s) = 7.18440 7.48286 7.33515
#
# Compressibility (1/GPa) = 0.01248278
#
# Stress axis : x y z
#
# Youngs Moduli (GPa) = 120.45215 187.16033 99.07705
#
# Poissons Ratio (x) = 0.15522 0.29215
# Poissons Ratio (y) = 0.09990 0.18326
# Poissons Ratio (z) = 0.35518 0.34618
#
# Static dielectric constant tensor:
#      x y z
#    x 2.046590 0.000000 0.000000 
#    y 0.000000 1.965560 0.000000 
#    z 0.000000 0.000000 2.007060 
# 
# From -- ./inp_files/359.got.cif
#   From: 2010.05.17/outbox.cif.g08.bks.cpg/sg33_1_cif.got.tgz:359.got - 2010.06.03 17:15:25.
