data_PCOD9346794
_publ_section_title
;
Structure prediction by ZEFSAII (Michael W. Deem and Ramdas Pophale) SiO2 
 PCOD9346794
Probable space group: P N A 21
;
_chemical_formula_sum "Si O2"
_cell_formula_units_Z 32
_cell_length_a 9.100745
_cell_length_b 4.892803
_cell_length_c 24.721330
_cell_angle_alpha 90.000000
_cell_angle_beta 90.000000
_cell_angle_gamma 90.000000
_cell_volume 1100.795151
_symmetry_space_group_name_H-M "P N A 21"
_symmetry_group_IT_number 33
_symmetry_cell_setting 'orthorhombic'
loop_
_space_group_symop_operation_xyz
x,y,z
-x,-y,1/2+z
1/2-x,1/2+y,1/2+z
1/2+x,1/2-y,z
loop_
_atom_site_type_symbol
_atom_site_label
_atom_site_fract_x
_atom_site_fract_y
_atom_site_fract_z
Si Si1 0.363347 0.321761 0.353850
Si Si2 0.564738 0.622330 0.595208
Si Si3 0.799985 0.974773 0.761403
Si Si4 0.514741 0.938199 0.698134
Si Si5 0.553074 0.807492 0.356488
Si Si6 0.799613 0.955838 0.949275
Si Si7 0.493549 0.015641 0.510708
Si Si8 0.329631 0.253851 0.615531
O O1 0.275240 0.244048 0.301213
O O2 0.402815 0.635620 0.354338
O O3 0.504210 0.121066 0.355664
O O4 0.272393 0.251268 0.406277
O O5 0.597433 0.810890 0.646343
O O6 0.668138 0.360903 0.605563
O O7 0.584715 0.763301 0.536647
O O8 0.417262 0.126108 0.564868
O O9 0.652259 0.069399 0.729795
O O10 0.924276 0.800688 0.729092
O O11 0.870349 0.200345 0.801298
O O12 0.397085 0.148390 0.672322
O O13 0.621922 0.687423 0.412316
O O14 0.908654 0.753877 0.983325
O O15 0.608816 0.442262 0.105533
O O16 0.350486 0.932301 0.476556
#
# Coordination Sequence:
#
# PCOD9346794 Si02
#       8
#     4   4   4   4   4   4   4   4
#     4  11  26  51  80 119 169 217 275 346 422 513
#     4  11  27  50  79 113 168 217 287 359 432 516
#     4  11  24  48  82 120 165 221 282 344 429 508
#     4  11  24  49  78 115 161 221 283 345 428 498
#     4  11  26  52  79 124 169 217 277 350 422 522
#     4  11  25  51  85 118 159 219 283 346 439 512
#     4  11  26  51  80 116 159 215 277 356 429 514
#     4  11  26  48  75 113 160 215 280 352 423 513
#
# _framework density 29.069894000000001
#
# number of rings (size 3 to 8) (size 9 to 14) (size 15 to 20)
#    0.000    1.000    3.750    0.750    1.750   10.000 
#   11.250    1.250    0.000    0.000    0.000    0.000 
#    0.000    0.000    0.000    0.000    0.000    0.000 
#
# Total GULP energy -179418.161840 kJ/mol
# GULP energy per Si atom -5606.817557 kJ/mol
# Density = 2.900373 g / cm^3
# Si number density = 29.069894 Si / 1000 Ang^3
#
#
#
# Elastic Constant Matrix: (Units=GPa)
#
#
# Indices 1 2 3 4 5 6 
#
# 1 195.0578 52.0372 80.3613 0.0000 0.0000 0.0000
# 2 52.0372 86.8539 48.6915 0.0000 0.0000 0.0000
# 3 80.3613 48.6915 153.0249 0.0000 0.0000 0.0000
# 4 0.0000 0.0000 0.0000 38.2650 0.0000 0.0000
# 5 0.0000 0.0000 0.0000 0.0000 42.6417 0.0000
# 6 0.0000 0.0000 0.0000 0.0000 0.0000 65.2785
#
#
#
# Elastic Compliance Matrix: (Units=1/GPa)
#
#
# Indices 1 2 3 4 5 6 
#
# 1 0.006991 -0.002593 -0.002846 0.000000 0.000000 0.000000
# 2 -0.002593 0.014975 -0.003403 0.000000 0.000000 0.000000
# 3 -0.002846 -0.003403 0.009113 0.000000 0.000000 0.000000
# 4 0.000000 0.000000 0.000000 0.026134 0.000000 0.000000
# 5 0.000000 0.000000 0.000000 0.000000 0.023451 0.000000
# 6 0.000000 0.000000 0.000000 0.000000 0.000000 0.015319
#
#
# Mechanical properties :
#
#
# Convention : Reuss Voigt Hill
#
# Bulk Modulus (GPa) = 74.66256 88.56852 81.61554
# Shear Modulus (GPa) = 42.32556 46.16014 44.24285
#
# Velocity S-wave (km/s) = 3.81989 3.98917 3.90545
# Velocity P-wave (km/s) = 6.72272 7.19386 6.96227
#
# Compressibility (1/GPa) = 0.01339359
#
# Stress axis : x y z
#
# Youngs Moduli (GPa) = 143.03982 66.77794 109.73890
#
# Poissons Ratio (x) = 0.17315 0.31235
# Poissons Ratio (y) = 0.37089 0.37347
# Poissons Ratio (z) = 0.40714 0.22726
#
# Static dielectric constant tensor:
#      x y z
#    x 2.285050 0.000000 0.000000 
#    y 0.000000 2.346310 0.000000 
#    z 0.000000 0.000000 2.305230 
# 
# From -- ./inp_files/9116.got.cif
#   From: 2010.05.17/outbox.cif.g08.bks.cpg/sg33_5_cif.got.tgz:9116.got - 2010.06.03 17:15:25.
