data_PCOD9346556
_publ_section_title
;
Structure prediction by ZEFSAII (Michael W. Deem and Ramdas Pophale) SiO2 
 PCOD9346556
Probable space group: P N A 21
;
_chemical_formula_sum "Si O2"
_cell_formula_units_Z 32
_cell_length_a 20.356608
_cell_length_b 9.861337
_cell_length_c 6.483138
_cell_angle_alpha 90.000000
_cell_angle_beta 90.000000
_cell_angle_gamma 90.000000
_cell_volume 1301.446981
_symmetry_space_group_name_H-M "P N A 21"
_symmetry_group_IT_number 33
_symmetry_cell_setting 'orthorhombic'
loop_
_space_group_symop_operation_xyz
x,y,z
-x,-y,1/2+z
1/2-x,1/2+y,1/2+z
1/2+x,1/2-y,z
loop_
_atom_site_type_symbol
_atom_site_label
_atom_site_fract_x
_atom_site_fract_y
_atom_site_fract_z
Si Si1 0.880129 0.213267 0.561190
Si Si2 0.591063 0.451883 0.306034
Si Si3 0.025431 0.650099 0.352857
Si Si4 0.945096 0.101182 0.160555
Si Si5 0.781177 0.609206 0.846750
Si Si6 0.195205 0.562247 0.968856
Si Si7 0.397869 0.939064 0.135621
Si Si8 0.285283 0.614126 0.647404
O O1 0.932781 0.320408 0.646419
O O2 0.900883 0.156719 0.342436
O O3 0.810436 0.285453 0.554968
O O4 0.881724 0.092057 0.717750
O O5 0.589044 0.472794 0.550471
O O6 0.515257 0.440506 0.249589
O O7 0.637656 0.353619 0.175990
O O8 0.037898 0.777150 0.503662
O O9 0.057055 0.522044 0.472382
O O10 0.950305 0.637162 0.280163
O O11 0.816739 0.528980 0.663280
O O12 0.754012 0.737621 0.706294
O O13 0.839276 0.640626 0.014898
O O14 0.737014 0.487592 0.961875
O O15 0.142122 0.539895 0.787692
O O16 0.263596 0.536033 0.857200
#
# Coordination Sequence:
#
# PCOD9346556 Si02
#       8
#     4   4   4   4   4   4   4   4
#     4  11  22  43  69  97 143 191 242 298 369 445
#     4  11  25  43  68 104 141 192 245 306 366 451
#     4  11  24  38  69 103 145 188 235 304 374 443
#     4  11  24  42  68 106 143 192 238 300 376 448
#     4  11  27  50  72 107 146 196 254 312 374 450
#     4  11  24  47  71 101 140 196 246 305 375 441
#     4  11  24  40  67 109 141 189 243 304 373 452
#     4  11  28  47  74 105 145 196 251 315 373 452
#
# _framework density 24.588013
#
# number of rings (size 3 to 8) (size 9 to 14) (size 15 to 20)
#    0.000    1.000    3.750    1.500    3.500    5.000 
#    0.000    0.000    0.000    0.000    0.000    0.000 
#    0.000    0.000    0.000    0.000    0.000    0.000 
#
# Total GULP energy -178310.480739 kJ/mol
# GULP energy per Si atom -5572.202523 kJ/mol
# Density = 2.453205 g / cm^3
# Si number density = 24.588013 Si / 1000 Ang^3
#
#
#
# Elastic Constant Matrix: (Units=GPa)
#
#
# Indices 1 2 3 4 5 6 
#
# 1 77.7220 17.1954 24.9927 0.0000 0.0000 0.0000
# 2 17.1954 80.9832 26.1780 0.0000 0.0000 0.0000
# 3 24.9927 26.1780 98.4137 0.0000 0.0000 0.0000
# 4 0.0000 0.0000 0.0000 36.9426 0.0000 0.0000
# 5 0.0000 0.0000 0.0000 0.0000 33.3685 0.0000
# 6 0.0000 0.0000 0.0000 0.0000 0.0000 32.2103
#
#
#
# Elastic Compliance Matrix: (Units=1/GPa)
#
#
# Indices 1 2 3 4 5 6 
#
# 1 0.014312 -0.002039 -0.003092 0.000000 0.000000 0.000000
# 2 -0.002039 0.013800 -0.003153 0.000000 0.000000 0.000000
# 3 -0.003092 -0.003153 0.011785 0.000000 0.000000 0.000000
# 4 0.000000 0.000000 0.000000 0.027069 0.000000 0.000000
# 5 0.000000 0.000000 0.000000 0.000000 0.029968 0.000000
# 6 0.000000 0.000000 0.000000 0.000000 0.000000 0.031046
#
#
# Mechanical properties :
#
#
# Convention : Reuss Voigt Hill
#
# Bulk Modulus (GPa) = 42.86592 43.76121 43.31356
# Shear Modulus (GPa) = 32.82434 33.08781 32.95608
#
# Velocity S-wave (km/s) = 3.65769 3.67234 3.66502
# Velocity P-wave (km/s) = 5.94220 5.98480 5.96354
#
# Compressibility (1/GPa) = 0.02332856
#
# Stress axis : x y z
#
# Youngs Moduli (GPa) = 69.87203 72.46126 84.85260
#
# Poissons Ratio (x) = 0.14777 0.26237
# Poissons Ratio (y) = 0.14249 0.26754
# Poissons Ratio (z) = 0.21605 0.22847
#
# Static dielectric constant tensor:
#      x y z
#    x 2.167780 0.000000 0.000000 
#    y 0.000000 2.132720 0.000000 
#    z 0.000000 0.000000 1.940240 
# 
# From -- ./inp_files/2045.got.cif
#   From: 2010.05.17/outbox.cif.g08.bks.cpg/sg33_2_cif.got.tgz:2045.got - 2010.06.03 17:15:25.
