data_PCOD9346251
_publ_section_title
;
Structure prediction by ZEFSAII (Michael W. Deem and Ramdas Pophale) SiO2 
 PCOD9346251
Probable space group: P N A 21
;
_chemical_formula_sum "Si O2"
_cell_formula_units_Z 28
_cell_length_a 9.186448
_cell_length_b 18.264551
_cell_length_c 7.708356
_cell_angle_alpha 90.000000
_cell_angle_beta 90.000000
_cell_angle_gamma 90.000000
_cell_volume 1293.356902
_symmetry_space_group_name_H-M "P N A 21"
_symmetry_group_IT_number 33
_symmetry_cell_setting 'orthorhombic'
loop_
_space_group_symop_operation_xyz
x,y,z
-x,-y,1/2+z
1/2-x,1/2+y,1/2+z
1/2+x,1/2-y,z
loop_
_atom_site_type_symbol
_atom_site_label
_atom_site_fract_x
_atom_site_fract_y
_atom_site_fract_z
Si Si1 0.775513 0.479352 0.495820
Si Si2 0.875223 0.197657 0.731799
Si Si3 0.726871 0.430942 0.007789
Si Si4 0.920377 0.111162 0.089038
Si Si5 0.760322 0.602523 0.935332
Si Si6 0.484247 0.055344 0.222912
Si Si7 0.697882 0.340426 0.663553
O O1 0.640132 0.532647 0.520851
O O2 0.862480 0.492027 0.319598
O O3 0.738159 0.393947 0.506519
O O4 0.894102 0.504436 0.637854
O O5 0.774041 0.148811 0.605664
O O6 0.812278 0.278572 0.712991
O O7 0.037466 0.192798 0.654092
O O8 0.884329 0.167239 0.930563
O O9 0.725283 0.518241 0.982247
O O10 0.694820 0.397462 0.821268
O O11 0.591821 0.400468 0.118871
O O12 0.885335 0.406476 0.077547
O O13 0.837654 0.126796 0.269393
O O14 0.925961 0.603241 0.861483
#
# Coordination Sequence:
#
# PCOD9346251 Si02
#       7
#     4   4   4   4   4   4   4
#     4  11  21  40  65 102 129 173 229 279 341 397
#     4  11  27  45  69  98 140 180 222 287 350 410
#     4  11  22  42  68 101 132 177 234 283 339 407
#     4  10  24  42  69  97 133 179 227 285 341 405
#     4  11  23  43  68 103 134 176 229 279 343 405
#     4  11  22  36  67 101 134 170 226 289 326 403
#     4  11  25  46  66  98 136 183 223 280 352 413
#
# _framework density 21.649089
#
# number of rings (size 3 to 8) (size 9 to 14) (size 15 to 20)
#    0.000    1.143    4.286    1.714    8.000    2.286 
#    2.571    0.000    0.000    0.000    0.000    0.000 
#    0.000    0.000    0.000    0.000    0.000    0.000 
#
# Total GULP energy -156336.866041 kJ/mol
# GULP energy per Si atom -5583.459501 kJ/mol
# Density = 2.159982 g / cm^3
# Si number density = 21.649089 Si / 1000 Ang^3
#
#
#
# Elastic Constant Matrix: (Units=GPa)
#
#
# Indices 1 2 3 4 5 6 
#
# 1 100.0143 9.0028 9.3594 0.0000 0.0000 0.0000
# 2 9.0028 72.5755 -7.6710 0.0000 0.0000 0.0000
# 3 9.3594 -7.6710 58.0110 0.0000 0.0000 0.0000
# 4 0.0000 0.0000 0.0000 12.3947 0.0000 0.0000
# 5 0.0000 0.0000 0.0000 0.0000 32.2158 0.0000
# 6 0.0000 0.0000 0.0000 0.0000 0.0000 -0.8701
#
#
#
# Elastic Compliance Matrix: (Units=1/GPa)
#
#
# Indices 1 2 3 4 5 6 
#
# 1 0.010305 -0.001475 -0.001858 0.000000 0.000000 0.000000
# 2 -0.001475 0.014185 0.002114 0.000000 0.000000 0.000000
# 3 -0.001858 0.002114 0.017817 0.000000 0.000000 0.000000
# 4 0.000000 0.000000 0.000000 0.080680 0.000000 0.000000
# 5 0.000000 0.000000 0.000000 0.000000 0.031041 0.000000
# 6 0.000000 0.000000 0.000000 0.000000 0.000000 -1.149350
#
#
# Mechanical properties :
#
#
# Convention : Reuss Voigt Hill
#
# Bulk Modulus (GPa) = 25.08131 27.99812 26.53972
# Shear Modulus (GPa) = -5.10415 23.40873 9.15229
#
# Velocity S-wave (km/s) = -1.53714 3.29185 2.05833
# Velocity P-wave (km/s) = 2.90863 5.23537 4.23493
#
# Compressibility (1/GPa) = 0.03987032
#
# Stress axis : x y z
#
# Youngs Moduli (GPa) = 97.03887 70.49654 56.12519
#
# Poissons Ratio (x) = 0.10396 0.10426
# Poissons Ratio (y) = 0.14310 -0.11863
# Poissons Ratio (z) = 0.18026 -0.14901
#
# Static dielectric constant tensor:
#      x y z
#    x 1.813050 0.000000 0.000000 
#    y 0.000000 1.783340 0.000000 
#    z 0.000000 0.000000 1.904760 
# 
# From -- ./inp_files/3375.got.cif
#   From: 2010.05.17/outbox.cif.g08.bks.cpg/sg33_2_cif.got.tgz:3375.got - 2010.06.03 17:15:25.
