data_PCOD9346636
_publ_section_title
;
Structure prediction by ZEFSAII (Michael W. Deem and Ramdas Pophale) SiO2 
 PCOD9346636
Probable space group: P N A 21
;
_chemical_formula_sum "Si O2"
_cell_formula_units_Z 32
_cell_length_a 14.148905
_cell_length_b 11.068940
_cell_length_c 8.720162
_cell_angle_alpha 90.000000
_cell_angle_beta 90.000000
_cell_angle_gamma 90.000000
_cell_volume 1365.694049
_symmetry_space_group_name_H-M "P N A 21"
_symmetry_group_IT_number 33
_symmetry_cell_setting 'orthorhombic'
loop_
_space_group_symop_operation_xyz
x,y,z
-x,-y,1/2+z
1/2-x,1/2+y,1/2+z
1/2+x,1/2-y,z
loop_
_atom_site_type_symbol
_atom_site_label
_atom_site_fract_x
_atom_site_fract_y
_atom_site_fract_z
Si Si1 0.508351 0.720788 0.212670
Si Si2 0.960638 0.870899 0.899164
Si Si3 0.055547 0.337299 0.204308
Si Si4 0.025945 0.550770 0.408561
Si Si5 0.315890 0.431399 0.844687
Si Si6 0.873570 0.953091 0.384859
Si Si7 0.793919 0.428769 0.119567
Si Si8 0.223620 0.838274 0.681221
O O1 0.533424 0.851583 0.273982
O O2 0.601687 0.640273 0.252766
O O3 0.419022 0.660662 0.299370
O O4 0.475909 0.720753 0.037512
O O5 0.977500 0.799050 0.740892
O O6 0.034757 0.974840 0.941931
O O7 0.861508 0.938994 0.889230
O O8 0.004108 0.427278 0.322490
O O9 0.167504 0.338722 0.232246
O O10 0.041366 0.389747 0.035354
O O11 0.123331 0.540851 0.502227
O O12 0.227477 0.463921 0.737999
O O13 0.289399 0.364091 0.000232
O O14 0.825769 0.052418 0.272728
O O15 0.801518 0.917046 0.517495
O O16 0.812697 0.299454 0.199816
#
# Coordination Sequence:
#
# PCOD9346636 Si02
#       8
#     4   4   4   4   4   4   4   4
#     4  11  23  44  72 103 142 184 235 290 359 424
#     4  11  23  44  72 103 142 184 235 290 359 424
#     4  12  27  47  68 101 146 189 235 295 365 430
#     4  12  27  47  68 101 146 189 235 295 365 430
#     4  11  24  42  71 108 138 180 237 296 356 429
#     4  11  24  44  73 106 138 182 239 292 346 439
#     4  12  24  46  71 106 142 183 238 298 361 426
#     4  12  24  46  71 106 142 183 238 298 361 426
#
# _framework density 23.431308999999999
#
# number of rings (size 3 to 8) (size 9 to 14) (size 15 to 20)
#    0.000    0.500    6.250    2.250    1.750    0.000 
#    4.500    3.750    0.000    0.000    0.000    0.000 
#    0.000    0.000    0.000    0.000    0.000    0.000 
#
# Total GULP energy -179051.922246 kJ/mol
# GULP energy per Si atom -5595.372570 kJ/mol
# Density = 2.337798 g / cm^3
# Si number density = 23.431309 Si / 1000 Ang^3
#
#
#
# Elastic Constant Matrix: (Units=GPa)
#
#
# Indices 1 2 3 4 5 6 
#
# 1 53.7576 6.2146 -10.8727 0.0000 0.0000 0.0000
# 2 6.2146 96.3153 20.6401 0.0000 0.0000 0.0000
# 3 -10.8727 20.6401 48.8178 0.0000 0.0000 0.0000
# 4 0.0000 0.0000 0.0000 47.7805 0.0000 0.0000
# 5 0.0000 0.0000 0.0000 0.0000 32.7507 0.0000
# 6 0.0000 0.0000 0.0000 0.0000 0.0000 21.3539
#
#
#
# Elastic Compliance Matrix: (Units=1/GPa)
#
#
# Indices 1 2 3 4 5 6 
#
# 1 0.019999 -0.002469 0.005498 0.000000 0.000000 0.000000
# 2 -0.002469 0.011722 -0.005506 0.000000 0.000000 0.000000
# 3 0.005498 -0.005506 0.024037 0.000000 0.000000 0.000000
# 4 0.000000 0.000000 0.000000 0.020929 0.000000 0.000000
# 5 0.000000 0.000000 0.000000 0.000000 0.030534 0.000000
# 6 0.000000 0.000000 0.000000 0.000000 0.000000 0.046830
#
#
# Mechanical properties :
#
#
# Convention : Reuss Voigt Hill
#
# Bulk Modulus (GPa) = 19.68309 25.65053 22.66681
# Shear Modulus (GPa) = 28.41910 32.57094 30.49502
#
# Velocity S-wave (km/s) = 3.48640 3.73240 3.61150
# Velocity P-wave (km/s) = 4.96238 5.43556 5.20435
#
# Compressibility (1/GPa) = 0.05080502
#
# Stress axis : x y z
#
# Youngs Moduli (GPa) = 50.00152 85.31180 41.60314
#
# Poissons Ratio (x) = 0.21060 -0.22873
# Poissons Ratio (y) = 0.12344 0.22906
# Poissons Ratio (z) = -0.27491 0.46970
#
# Static dielectric constant tensor:
#      x y z
#    x 1.885200 0.000000 0.000000 
#    y 0.000000 1.861350 0.000000 
#    z 0.000000 0.000000 1.889050 
# 
# From -- ./inp_files/4379.got.cif
#   From: 2010.05.17/outbox.cif.g08.bks.cpg/sg33_3_cif.got.tgz:4379.got - 2010.06.03 17:15:25.
