data_PCOD9346171
_publ_section_title
;
Structure prediction by ZEFSAII (Michael W. Deem and Ramdas Pophale) SiO2 
 PCOD9346171
Probable space group: P N A 21
;
_chemical_formula_sum "Si O2"
_cell_formula_units_Z 20
_cell_length_a 8.942857
_cell_length_b 15.325308
_cell_length_c 5.333269
_cell_angle_alpha 90.000000
_cell_angle_beta 90.000000
_cell_angle_gamma 90.000000
_cell_volume 730.935385
_symmetry_space_group_name_H-M "P N A 21"
_symmetry_group_IT_number 33
_symmetry_cell_setting 'orthorhombic'
loop_
_space_group_symop_operation_xyz
x,y,z
-x,-y,1/2+z
1/2-x,1/2+y,1/2+z
1/2+x,1/2-y,z
loop_
_atom_site_type_symbol
_atom_site_label
_atom_site_fract_x
_atom_site_fract_y
_atom_site_fract_z
Si Si1 0.314236 0.246374 0.159140
Si Si2 0.439810 0.469127 0.943384
Si Si3 0.621138 0.699399 0.160940
Si Si4 0.312075 0.058890 0.231484
Si Si5 0.345405 0.904359 0.864069
O O1 0.426698 0.264256 0.391904
O O2 0.239520 0.154683 0.220954
O O3 0.224210 0.338025 0.153837
O O4 0.374924 0.231096 0.880700
O O5 0.509172 0.533649 0.730120
O O6 0.465294 0.379883 0.790482
O O7 0.269391 0.502749 0.944396
O O8 0.785614 0.659787 0.091240
O O9 0.484051 0.077210 0.295095
O O10 0.295266 0.998074 0.985383
#
# Coordination Sequence:
#
# PCOD9346171 Si02
#       5
#     4   4   4   4   4
#     4  10  23  46  66 112 141 196 245 320 383 456
#     4  11  25  44  69 102 143 194 241 297 378 455
#     4   9  22  46  67  97 153 179 249 318 362 463
#     4  11  25  46  79 110 153 206 251 331 391 453
#     4   9  25  44  73 111 144 195 260 312 384 473
#
# _framework density 27.362203000000001
#
# number of rings (size 3 to 8) (size 9 to 14) (size 15 to 20)
#    1.200    0.800    0.000    1.200    5.600    6.400 
#    3.600    0.000    0.000    0.000    0.000    0.000 
#    0.000    0.000    0.000    0.000    0.000    0.000 
#
# Total GULP energy -111386.015881 kJ/mol
# GULP energy per Si atom -5569.300794 kJ/mol
# Density = 2.729993 g / cm^3
# Si number density = 27.362203 Si / 1000 Ang^3
#
#
#
# Elastic Constant Matrix: (Units=GPa)
#
#
# Indices 1 2 3 4 5 6 
#
# 1 63.2211 17.0188 28.2236 0.0000 0.0000 0.0000
# 2 17.0188 172.8704 8.8578 0.0000 0.0000 0.0000
# 3 28.2236 8.8578 167.9250 0.0000 0.0000 0.0000
# 4 0.0000 0.0000 0.0000 29.6727 0.0000 0.0000
# 5 0.0000 0.0000 0.0000 0.0000 40.4502 0.0000
# 6 0.0000 0.0000 0.0000 0.0000 0.0000 34.3208
#
#
#
# Elastic Compliance Matrix: (Units=1/GPa)
#
#
# Indices 1 2 3 4 5 6 
#
# 1 0.017520 -0.001578 -0.002861 0.000000 0.000000 0.000000
# 2 -0.001578 0.005943 -0.000048 0.000000 0.000000 0.000000
# 3 -0.002861 -0.000048 0.006438 0.000000 0.000000 0.000000
# 4 0.000000 0.000000 0.000000 0.033701 0.000000 0.000000
# 5 0.000000 0.000000 0.000000 0.000000 0.024722 0.000000
# 6 0.000000 0.000000 0.000000 0.000000 0.000000 0.029137
#
#
# Mechanical properties :
#
#
# Convention : Reuss Voigt Hill
#
# Bulk Modulus (GPa) = 47.78908 56.91299 52.35104
# Shear Modulus (GPa) = 37.47820 44.21649 40.84734
#
# Velocity S-wave (km/s) = 3.70497 4.02427 3.86792
# Velocity P-wave (km/s) = 5.98378 6.51445 6.25475
#
# Compressibility (1/GPa) = 0.02092528
#
# Stress axis : x y z
#
# Youngs Moduli (GPa) = 57.07858 168.27878 155.31579
#
# Poissons Ratio (x) = 0.26557 0.44441
# Poissons Ratio (y) = 0.09008 0.00749
# Poissons Ratio (z) = 0.16332 0.00811
#
# Static dielectric constant tensor:
#      x y z
#    x 2.477870 0.000000 0.000000 
#    y 0.000000 2.137560 0.000000 
#    z 0.000000 0.000000 2.209990 
# 
# From -- ./inp_files/373.got.cif
#   From: 2010.05.17/outbox.cif.g08.bks.cpg/sg33_1_cif.got.tgz:373.got - 2010.06.03 17:15:25.
