data_PCOD9346210
_publ_section_title
;
Structure prediction by ZEFSAII (Michael W. Deem and Ramdas Pophale) SiO2 
 PCOD9346210
Probable space group: P N A 21
;
_chemical_formula_sum "Si O2"
_cell_formula_units_Z 16
_cell_length_a 11.313792
_cell_length_b 10.536418
_cell_length_c 4.788864
_cell_angle_alpha 90.000000
_cell_angle_beta 90.000000
_cell_angle_gamma 90.000000
_cell_volume 570.865353
_symmetry_space_group_name_H-M "P N A 21"
_symmetry_group_IT_number 33
_symmetry_cell_setting 'orthorhombic'
loop_
_space_group_symop_operation_xyz
x,y,z
-x,-y,1/2+z
1/2-x,1/2+y,1/2+z
1/2+x,1/2-y,z
loop_
_atom_site_type_symbol
_atom_site_label
_atom_site_fract_x
_atom_site_fract_y
_atom_site_fract_z
Si Si1 0.789636 0.698817 0.244870
Si Si2 0.270021 0.058637 0.021800
Si Si3 0.445944 0.207138 0.755996
Si Si4 0.933830 0.053145 0.154280
O O1 0.783385 0.797156 0.508895
O O2 0.673055 0.754485 0.083143
O O3 0.770421 0.547005 0.262929
O O4 0.923515 0.705497 0.135770
O O5 0.402796 0.079188 0.907443
O O6 0.024557 0.043370 0.412140
O O7 0.186390 0.990962 0.795568
O O8 0.442881 0.314738 0.995899
#
# Coordination Sequence:
#
# PCOD9346210 Si02
#       4
#     4   4   4   4
#     4  10  23  51  74 123 158 228 273 371 420 534
#     4  10  25  46  78 121 169 215 289 354 439 508
#     4  10  24  46  78 119 163 223 283 357 428 521
#     4  12  24  51  82 115 166 230 291 348 441 533
#
# _framework density 28.027625
#
# number of rings (size 3 to 8) (size 9 to 14) (size 15 to 20)
#    1.500    0.000    2.500    1.500    0.000    2.000 
#   18.000    0.000    0.000    0.000    0.000    0.000 
#    0.000    0.000    0.000    0.000    0.000    0.000 
#
# Total GULP energy -89127.040510 kJ/mol
# GULP energy per Si atom -5570.440032 kJ/mol
# Density = 2.796383 g / cm^3
# Si number density = 28.027625 Si / 1000 Ang^3
#
#
#
# Elastic Constant Matrix: (Units=GPa)
#
#
# Indices 1 2 3 4 5 6 
#
# 1 223.0016 43.6204 12.1884 0.0000 0.0000 0.0000
# 2 43.6204 197.2807 60.2099 0.0000 0.0000 0.0000
# 3 12.1884 60.2099 104.9490 0.0000 0.0000 0.0000
# 4 0.0000 0.0000 0.0000 37.5218 0.0000 0.0000
# 5 0.0000 0.0000 0.0000 0.0000 15.4444 0.0000
# 6 0.0000 0.0000 0.0000 0.0000 0.0000 24.0873
#
#
#
# Elastic Compliance Matrix: (Units=1/GPa)
#
#
# Indices 1 2 3 4 5 6 
#
# 1 0.004687 -0.001055 0.000061 0.000000 0.000000 0.000000
# 2 -0.001055 0.006382 -0.003539 0.000000 0.000000 0.000000
# 3 0.000061 -0.003539 0.011552 0.000000 0.000000 0.000000
# 4 0.000000 0.000000 0.000000 0.026651 0.000000 0.000000
# 5 0.000000 0.000000 0.000000 0.000000 0.064748 0.000000
# 6 0.000000 0.000000 0.000000 0.000000 0.000000 0.041516
#
#
# Mechanical properties :
#
#
# Convention : Reuss Voigt Hill
#
# Bulk Modulus (GPa) = 73.77320 84.14097 78.95709
# Shear Modulus (GPa) = 29.56459 42.69153 36.12806
#
# Velocity S-wave (km/s) = 3.25135 3.90705 3.59418
# Velocity P-wave (km/s) = 6.36190 7.10206 6.74214
#
# Compressibility (1/GPa) = 0.01355506
#
# Stress axis : x y z
#
# Youngs Moduli (GPa) = 213.34216 156.68331 86.56702
#
# Poissons Ratio (x) = 0.16530 -0.00527
# Poissons Ratio (y) = 0.22507 0.30636
# Poissons Ratio (z) = -0.01299 0.55451
#
# Static dielectric constant tensor:
#      x y z
#    x 2.301020 0.000000 0.000000 
#    y 0.000000 2.227300 0.000000 
#    z 0.000000 0.000000 2.108340 
# 
# From -- ./inp_files/702.got.cif
#   From: 2010.05.17/outbox.cif.g08.bks.cpg/sg33_1_cif.got.tgz:702.got - 2010.06.03 17:15:25.
