data_PCOD9346321
_publ_section_title
;
Structure prediction by ZEFSAII (Michael W. Deem and Ramdas Pophale) SiO2 
 PCOD9346321
Probable space group: P N A 21
;
_chemical_formula_sum "Si O2"
_cell_formula_units_Z 32
_cell_length_a 11.022016
_cell_length_b 21.558125
_cell_length_c 5.588076
_cell_angle_alpha 90.000000
_cell_angle_beta 90.000000
_cell_angle_gamma 90.000000
_cell_volume 1327.805083
_symmetry_space_group_name_H-M "P N A 21"
_symmetry_group_IT_number 33
_symmetry_cell_setting 'orthorhombic'
loop_
_space_group_symop_operation_xyz
x,y,z
-x,-y,1/2+z
1/2-x,1/2+y,1/2+z
1/2+x,1/2-y,z
loop_
_atom_site_type_symbol
_atom_site_label
_atom_site_fract_x
_atom_site_fract_y
_atom_site_fract_z
Si Si1 0.427054 0.500484 0.381400
Si Si2 0.191992 0.297838 0.716243
Si Si3 0.852174 0.134324 0.388776
Si Si4 0.010204 0.647985 0.558877
Si Si5 0.194225 0.741092 0.610425
Si Si6 0.441359 0.982122 0.715130
Si Si7 0.874920 0.818621 0.921751
Si Si8 0.269641 0.088106 0.754525
O O1 0.492715 0.490199 0.639053
O O2 0.353713 0.437321 0.323236
O O3 0.340884 0.560418 0.410041
O O4 0.262286 0.356205 0.610059
O O5 0.127119 0.248311 0.547912
O O6 0.091716 0.321699 0.896794
O O7 0.299405 0.256285 0.832334
O O8 0.805834 0.190200 0.220756
O O9 0.992999 0.152091 0.422809
O O10 0.078632 0.702815 0.698491
O O11 0.121206 0.620439 0.399325
O O12 0.947454 0.592342 0.702397
O O13 0.311921 0.699702 0.671385
O O14 0.530072 0.001182 0.492536
O O15 0.327611 0.025283 0.645227
O O16 0.786228 0.866174 0.058818
#
# Coordination Sequence:
#
# PCOD9346321 Si02
#       8
#     4   4   4   4   4   4   4   4
#     4  12  30  50  78 110 151 209 263 319 386 465
#     4  11  25  44  72 108 146 194 246 316 392 457
#     4  11  27  46  73 105 155 190 257 316 383 463
#     4  11  24  44  74 106 146 194 251 313 386 469
#     4  11  24  42  74 109 146 195 247 319 387 459
#     4  10  24  45  71 107 144 195 246 307 373 457
#     4  11  23  46  70 107 140 198 250 308 383 462
#     4  11  25  47  74 104 150 197 254 318 384 458
#
# _framework density 24.099920999999998
#
# number of rings (size 3 to 8) (size 9 to 14) (size 15 to 20)
#    0.000    1.000    2.500    2.250    7.000    7.000 
#    4.500    0.000    0.000    0.000    0.000    0.000 
#    0.000    0.000    0.000    0.000    0.000    0.000 
#
# Total GULP energy -178664.979014 kJ/mol
# GULP energy per Si atom -5583.280594 kJ/mol
# Density = 2.404507 g / cm^3
# Si number density = 24.099921 Si / 1000 Ang^3
#
#
#
# Elastic Constant Matrix: (Units=GPa)
#
#
# Indices 1 2 3 4 5 6 
#
# 1 98.3855 34.5119 22.8391 0.0000 0.0000 0.0000
# 2 34.5119 134.5997 15.9981 0.0000 0.0000 0.0000
# 3 22.8391 15.9981 38.6294 0.0000 0.0000 0.0000
# 4 0.0000 0.0000 0.0000 32.9556 0.0000 0.0000
# 5 0.0000 0.0000 0.0000 0.0000 33.4539 0.0000
# 6 0.0000 0.0000 0.0000 0.0000 0.0000 59.4319
#
#
#
# Elastic Compliance Matrix: (Units=1/GPa)
#
#
# Indices 1 2 3 4 5 6 
#
# 1 0.012504 -0.002448 -0.006379 0.000000 0.000000 0.000000
# 2 -0.002448 0.008293 -0.001987 0.000000 0.000000 0.000000
# 3 -0.006379 -0.001987 0.030481 0.000000 0.000000 0.000000
# 4 0.000000 0.000000 0.000000 0.030344 0.000000 0.000000
# 5 0.000000 0.000000 0.000000 0.000000 0.029892 0.000000
# 6 0.000000 0.000000 0.000000 0.000000 0.000000 0.016826
#
#
# Mechanical properties :
#
#
# Convention : Reuss Voigt Hill
#
# Bulk Modulus (GPa) = 33.72644 46.47920 40.10282
# Shear Modulus (GPa) = 31.27906 38.38597 34.83252
#
# Velocity S-wave (km/s) = 3.60653 3.99530 3.80588
# Velocity P-wave (km/s) = 5.60068 6.37269 5.99911
#
# Compressibility (1/GPa) = 0.02965033
#
# Stress axis : x y z
#
# Youngs Moduli (GPa) = 79.97759 120.57966 32.80683
#
# Poissons Ratio (x) = 0.29515 0.20927
# Poissons Ratio (y) = 0.19577 0.06520
# Poissons Ratio (z) = 0.51016 0.23964
#
# Static dielectric constant tensor:
#      x y z
#    x 1.946190 0.000000 0.000000 
#    y 0.000000 1.924990 0.000000 
#    z 0.000000 0.000000 2.013990 
# 
# From -- ./inp_files/1072.got.cif
#   From: 2010.05.17/outbox.cif.g08.bks.cpg/sg33_1_cif.got.tgz:1072.got - 2010.06.03 17:15:25.
