data_PCOD9346087
_publ_section_title
;
Structure prediction by ZEFSAII (Michael W. Deem and Ramdas Pophale) SiO2 
 PCOD9346087
Probable space group: P N A 21
;
_chemical_formula_sum "Si O2"
_cell_formula_units_Z 24
_cell_length_a 5.414154
_cell_length_b 13.735463
_cell_length_c 13.606378
_cell_angle_alpha 90.000000
_cell_angle_beta 90.000000
_cell_angle_gamma 90.000000
_cell_volume 1011.850708
_symmetry_space_group_name_H-M "P N A 21"
_symmetry_group_IT_number 33
_symmetry_cell_setting 'orthorhombic'
loop_
_space_group_symop_operation_xyz
x,y,z
-x,-y,1/2+z
1/2-x,1/2+y,1/2+z
1/2+x,1/2-y,z
loop_
_atom_site_type_symbol
_atom_site_label
_atom_site_fract_x
_atom_site_fract_y
_atom_site_fract_z
Si Si1 0.007818 0.794969 0.237380
Si Si2 0.264770 0.709763 0.733746
Si Si3 0.903946 0.994986 0.655698
Si Si4 0.282364 0.208261 0.463754
Si Si5 0.097193 0.495074 0.027926
Si Si6 0.978162 0.714346 0.459695
O O1 0.737209 0.768112 0.197695
O O2 0.065235 0.907246 0.219097
O O3 0.997636 0.765336 0.352712
O O4 0.486532 0.777508 0.694425
O O5 0.359091 0.600407 0.720381
O O6 0.240481 0.733988 0.849004
O O7 0.658200 0.004094 0.588663
O O8 0.157144 0.981326 0.594277
O O9 0.508463 0.272406 0.505338
O O10 0.359644 0.096503 0.473227
O O11 0.069925 0.400600 0.958678
O O12 0.242973 0.733919 0.507713
#
# Coordination Sequence:
#
# PCOD9346087 Si02
#       6
#     4   4   4   4   4   4
#     4  10  23  43  66  99 132 182 229 278 337 417
#     4  10  23  44  68  94 129 179 227 274 329 411
#     4  12  26  42  68 104 139 178 223 289 346 398
#     4  10  23  44  68  94 129 179 227 274 329 411
#     4  12  26  42  68 104 139 178 223 289 346 398
#     4  10  23  43  66  99 132 182 229 278 337 417
#
# _framework density 23.718916
#
# number of rings (size 3 to 8) (size 9 to 14) (size 15 to 20)
#    0.000    1.333    0.000    4.000    4.667    8.000 
#   12.000    0.000    0.000    0.000    0.000    0.000 
#    0.000    0.000    0.000    0.000    0.000    0.000 
#
# Total GULP energy -134305.214083 kJ/mol
# GULP energy per Si atom -5596.050587 kJ/mol
# Density = 2.366493 g / cm^3
# Si number density = 23.718916 Si / 1000 Ang^3
#
#
#
# Elastic Constant Matrix: (Units=GPa)
#
#
# Indices 1 2 3 4 5 6 
#
# 1 218.0751 37.5601 39.9900 0.0000 0.0000 0.0000
# 2 37.5601 158.2282 1.1626 0.0000 0.0000 0.0000
# 3 39.9900 1.1626 74.3275 0.0000 0.0000 0.0000
# 4 0.0000 0.0000 0.0000 29.5711 0.0000 0.0000
# 5 0.0000 0.0000 0.0000 0.0000 -65.0771 0.0000
# 6 0.0000 0.0000 0.0000 0.0000 0.0000 47.8733
#
#
#
# Elastic Compliance Matrix: (Units=1/GPa)
#
#
# Indices 1 2 3 4 5 6 
#
# 1 0.005321 -0.001242 -0.002843 0.000000 0.000000 0.000000
# 2 -0.001242 0.006611 0.000565 0.000000 0.000000 0.000000
# 3 -0.002843 0.000565 0.014975 0.000000 0.000000 0.000000
# 4 0.000000 0.000000 0.000000 0.033817 0.000000 0.000000
# 5 0.000000 0.000000 0.000000 0.000000 -0.015366 0.000000
# 6 0.000000 0.000000 0.000000 0.000000 0.000000 0.020888
#
#
# Mechanical properties :
#
#
# Convention : Reuss Voigt Hill
#
# Bulk Modulus (GPa) = 50.33897 67.56181 58.95039
# Shear Modulus (GPa) = 62.57159 27.26801 44.91980
#
# Velocity S-wave (km/s) = 5.14176 3.39430 4.35655
# Velocity P-wave (km/s) = 7.51795 6.62630 7.08616
#
# Compressibility (1/GPa) = 0.01986533
#
# Stress axis : x y z
#
# Youngs Moduli (GPa) = 187.93697 151.26974 66.77823
#
# Poissons Ratio (x) = 0.18791 0.18987
# Poissons Ratio (y) = 0.23345 -0.03772
# Poissons Ratio (z) = 0.53437 -0.08546
#
# Static dielectric constant tensor:
#      x y z
#    x 1.973750 0.000000 0.000000 
#    y 0.000000 1.823070 0.000000 
#    z 0.000000 0.000000 2.047900 
# 
# From -- ./inp_files/7377.got.cif
#   From: 2010.05.17/outbox.cif.g08.bks.cpg/sg33_4_cif.got.tgz:7377.got - 2010.06.03 17:15:25.
