data_PCOD9346112
_publ_section_title
;
Structure prediction by ZEFSAII (Michael W. Deem and Ramdas Pophale) SiO2 
 PCOD9346112
Probable space group: P N A 21
;
_chemical_formula_sum "Si O2"
_cell_formula_units_Z 32
_cell_length_a 7.661693
_cell_length_b 14.750071
_cell_length_c 11.631633
_cell_angle_alpha 90.000000
_cell_angle_beta 90.000000
_cell_angle_gamma 90.000000
_cell_volume 1314.496844
_symmetry_space_group_name_H-M "P N A 21"
_symmetry_group_IT_number 33
_symmetry_cell_setting 'orthorhombic'
loop_
_space_group_symop_operation_xyz
x,y,z
-x,-y,1/2+z
1/2-x,1/2+y,1/2+z
1/2+x,1/2-y,z
loop_
_atom_site_type_symbol
_atom_site_label
_atom_site_fract_x
_atom_site_fract_y
_atom_site_fract_z
Si Si1 0.293812 0.700051 0.425490
Si Si2 0.119346 0.621300 0.108513
Si Si3 0.056110 0.836697 0.812175
Si Si4 0.392535 0.367685 0.795952
Si Si5 0.725759 0.684475 0.061742
Si Si6 0.774154 0.447440 0.380229
Si Si7 0.473616 0.189615 0.104625
Si Si8 0.368514 0.959365 0.756134
O O1 0.415527 0.637529 0.348688
O O2 0.199851 0.776628 0.347506
O O3 0.414644 0.753528 0.515317
O O4 0.173362 0.650232 0.518993
O O5 0.224022 0.714032 0.109830
O O6 0.110775 0.563884 0.224019
O O7 0.921776 0.645728 0.068662
O O8 0.221146 0.561022 0.016305
O O9 0.357727 0.628458 0.828470
O O10 0.069308 0.759113 0.712080
O O11 0.177122 0.923889 0.785691
O O12 0.136751 0.808508 0.936320
O O13 0.384266 0.368991 0.657965
O O14 0.292852 0.455538 0.840435
O O15 0.974796 0.435482 0.342853
O O16 0.578348 0.104927 0.150747
#
# Coordination Sequence:
#
# PCOD9346112 Si02
#       8
#     4   4   4   4   4   4   4   4
#     4  10  23  43  75 103 145 202 253 321 387 469
#     4  12  27  48  78 111 159 209 267 333 397 484
#     4  12  28  47  81 115 159 208 260 334 406 480
#     4  11  25  48  72 110 153 206 263 321 395 476
#     4  12  26  50  75 110 161 214 259 325 409 482
#     4  12  27  47  73 117 154 203 270 322 397 472
#     4  11  22  46  74 110 147 196 257 320 398 456
#     4  12  26  49  76 112 158 202 263 328 395 463
#
# _framework density 24.343914999999999
#
# number of rings (size 3 to 8) (size 9 to 14) (size 15 to 20)
#    0.000    0.500    3.750    3.750    3.500    4.000 
#    2.250    0.000    0.000    0.000    0.000    0.000 
#    0.000    0.000    0.000    0.000    0.000    0.000 
#
# Total GULP energy -179011.706069 kJ/mol
# GULP energy per Si atom -5594.115815 kJ/mol
# Density = 2.428851 g / cm^3
# Si number density = 24.343915 Si / 1000 Ang^3
#
#
#
# Elastic Constant Matrix: (Units=GPa)
#
#
# Indices 1 2 3 4 5 6 
#
# 1 74.8233 9.6033 44.5341 0.0000 0.0000 0.0000
# 2 9.6033 86.4623 34.2358 0.0000 0.0000 0.0000
# 3 44.5341 34.2358 133.6152 0.0000 0.0000 0.0000
# 4 0.0000 0.0000 0.0000 26.7976 0.0000 0.0000
# 5 0.0000 0.0000 0.0000 0.0000 48.0805 0.0000
# 6 0.0000 0.0000 0.0000 0.0000 0.0000 35.1588
#
#
#
# Elastic Compliance Matrix: (Units=1/GPa)
#
#
# Indices 1 2 3 4 5 6 
#
# 1 0.016684 0.000388 -0.005660 0.000000 0.000000 0.000000
# 2 0.000388 0.012881 -0.003430 0.000000 0.000000 0.000000
# 3 -0.005660 -0.003430 0.010250 0.000000 0.000000 0.000000
# 4 0.000000 0.000000 0.000000 0.037317 0.000000 0.000000
# 5 0.000000 0.000000 0.000000 0.000000 0.020798 0.000000
# 6 0.000000 0.000000 0.000000 0.000000 0.000000 0.028442
#
#
# Mechanical properties :
#
#
# Convention : Reuss Voigt Hill
#
# Bulk Modulus (GPa) = 44.62197 52.40526 48.51361
# Shear Modulus (GPa) = 33.05882 35.77587 34.41735
#
# Velocity S-wave (km/s) = 3.68909 3.83770 3.76413
# Velocity P-wave (km/s) = 6.04280 6.41958 6.23404
#
# Compressibility (1/GPa) = 0.02241049
#
# Stress axis : x y z
#
# Youngs Moduli (GPa) = 59.93799 77.63573 97.56549
#
# Poissons Ratio (x) = -0.03014 0.55224
# Poissons Ratio (y) = -0.02327 0.33463
# Poissons Ratio (z) = 0.33926 0.26627
#
# Static dielectric constant tensor:
#      x y z
#    x 2.036040 0.000000 0.000000 
#    y 0.000000 1.914070 0.000000 
#    z 0.000000 0.000000 1.982110 
# 
# From -- ./inp_files/5998.got.cif
#   From: 2010.05.17/outbox.cif.g08.bks.cpg/sg33_3_cif.got.tgz:5998.got - 2010.06.03 17:15:25.
