data_PCOD9346612
_publ_section_title
;
Structure prediction by ZEFSAII (Michael W. Deem and Ramdas Pophale) SiO2 
 PCOD9346612
Probable space group: P N A 21
;
_chemical_formula_sum "Si O2"
_cell_formula_units_Z 32
_cell_length_a 10.907952
_cell_length_b 22.292629
_cell_length_c 6.105160
_cell_angle_alpha 90.000000
_cell_angle_beta 90.000000
_cell_angle_gamma 90.000000
_cell_volume 1484.572997
_symmetry_space_group_name_H-M "P N A 21"
_symmetry_group_IT_number 33
_symmetry_cell_setting 'orthorhombic'
loop_
_space_group_symop_operation_xyz
x,y,z
-x,-y,1/2+z
1/2-x,1/2+y,1/2+z
1/2+x,1/2-y,z
loop_
_atom_site_type_symbol
_atom_site_label
_atom_site_fract_x
_atom_site_fract_y
_atom_site_fract_z
Si Si1 0.154869 0.639515 0.503050
Si Si2 0.677390 0.972638 0.798317
Si Si3 0.020094 0.850487 0.894496
Si Si4 0.045595 0.018432 0.317981
Si Si5 0.485288 0.916334 0.135554
Si Si6 0.141365 0.209859 0.732486
Si Si7 0.203354 0.320628 0.436984
Si Si8 0.971733 0.730995 0.619833
O O1 0.200542 0.580660 0.625432
O O2 0.260360 0.676336 0.382289
O O3 0.050922 0.615720 0.338194
O O4 0.084022 0.686261 0.658191
O O5 0.811453 0.995054 0.863796
O O6 0.597748 0.027199 0.704256
O O7 0.594647 0.941968 0.985268
O O8 0.934384 0.840202 0.103916
O O9 0.164071 0.849940 0.942140
O O10 0.980743 0.911369 0.782491
O O11 0.993699 0.791475 0.752505
O O12 0.985610 0.007035 0.567526
O O13 0.397396 0.867609 0.022942
O O14 0.204327 0.259119 0.576598
O O15 0.044721 0.248535 0.872121
O O16 0.153315 0.300491 0.199535
#
# Coordination Sequence:
#
# PCOD9346612 Si02
#       8
#     4   4   4   4   4   4   4   4
#     4  12  24  43  73 104 144 191 250 312 381 468
#     4  12  27  48  78 105 150 196 264 324 387 467
#     4  11  26  45  71 102 146 193 250 308 388 467
#     4  12  31  54  79 112 155 208 261 323 395 470
#     4  12  25  45  72 109 143 195 254 324 391 453
#     4  11  24  42  69 104 144 192 239 310 387 460
#     4  11  24  43  67 105 146 187 249 313 386 470
#     4  11  23  42  69 107 142 188 239 312 389 457
#
# _framework density 21.555019999999999
#
# number of rings (size 3 to 8) (size 9 to 14) (size 15 to 20)
#    0.000    0.500    3.750    3.750    7.000    4.000 
#    2.250    0.000    0.000    0.000    0.000    0.000 
#    0.000    0.000    0.000    0.000    0.000    0.000 
#
# Total GULP energy -178766.738608 kJ/mol
# GULP energy per Si atom -5586.460582 kJ/mol
# Density = 2.150596 g / cm^3
# Si number density = 21.555020 Si / 1000 Ang^3
#
#
#
# Elastic Constant Matrix: (Units=GPa)
#
#
# Indices 1 2 3 4 5 6 
#
# 1 125.2263 19.1172 22.9934 0.0000 0.0000 0.0000
# 2 19.1172 97.9791 24.7675 0.0000 0.0000 0.0000
# 3 22.9934 24.7675 50.8733 0.0000 0.0000 0.0000
# 4 0.0000 0.0000 0.0000 28.1662 0.0000 0.0000
# 5 0.0000 0.0000 0.0000 0.0000 35.6977 0.0000
# 6 0.0000 0.0000 0.0000 0.0000 0.0000 7.5708
#
#
#
# Elastic Compliance Matrix: (Units=1/GPa)
#
#
# Indices 1 2 3 4 5 6 
#
# 1 0.008764 -0.000808 -0.003568 0.000000 0.000000 0.000000
# 2 -0.000808 0.011713 -0.005337 0.000000 0.000000 0.000000
# 3 -0.003568 -0.005337 0.023868 0.000000 0.000000 0.000000
# 4 0.000000 0.000000 0.000000 0.035504 0.000000 0.000000
# 5 0.000000 0.000000 0.000000 0.000000 0.028013 0.000000
# 6 0.000000 0.000000 0.000000 0.000000 0.000000 0.132087
#
#
# Mechanical properties :
#
#
# Convention : Reuss Voigt Hill
#
# Bulk Modulus (GPa) = 40.13063 45.31500 42.72282
# Shear Modulus (GPa) = 18.67900 28.10029 23.38965
#
# Velocity S-wave (km/s) = 2.94696 3.61453 3.29768
# Velocity P-wave (km/s) = 5.49887 6.20390 5.86199
#
# Compressibility (1/GPa) = 0.02491862
#
# Stress axis : x y z
#
# Youngs Moduli (GPa) = 114.10324 85.37445 41.89780
#
# Poissons Ratio (x) = 0.06899 0.14948
# Poissons Ratio (y) = 0.09221 0.22362
# Poissons Ratio (z) = 0.40708 0.45566
#
# Static dielectric constant tensor:
#      x y z
#    x 1.740580 0.000000 0.000000 
#    y 0.000000 1.774820 0.000000 
#    z 0.000000 0.000000 1.851830 
# 
# From -- ./inp_files/1012.got.cif
#   From: 2010.05.17/outbox.cif.g08.bks.cpg/sg33_1_cif.got.tgz:1012.got - 2010.06.03 17:15:25.
