data_PCOD9346817
_publ_section_title
;
Structure prediction by ZEFSAII (Michael W. Deem and Ramdas Pophale) SiO2 
 PCOD9346817
Probable space group: P N A 21
;
_chemical_formula_sum "Si O2"
_cell_formula_units_Z 24
_cell_length_a 16.081399
_cell_length_b 12.425319
_cell_length_c 4.985103
_cell_angle_alpha 90.000000
_cell_angle_beta 90.000000
_cell_angle_gamma 90.000000
_cell_volume 996.105896
_symmetry_space_group_name_H-M "P N A 21"
_symmetry_group_IT_number 33
_symmetry_cell_setting 'orthorhombic'
loop_
_space_group_symop_operation_xyz
x,y,z
-x,-y,1/2+z
1/2-x,1/2+y,1/2+z
1/2+x,1/2-y,z
loop_
_atom_site_type_symbol
_atom_site_label
_atom_site_fract_x
_atom_site_fract_y
_atom_site_fract_z
Si Si1 0.200343 0.572728 0.800850
Si Si2 0.642439 0.325703 0.580704
Si Si3 0.952627 0.539249 0.594213
Si Si4 0.149697 0.792186 0.505261
Si Si5 0.255149 0.367945 0.498061
Si Si6 0.458226 0.702128 0.589303
O O1 0.164642 0.673478 0.630290
O O2 0.236045 0.485768 0.596888
O O3 0.276911 0.610629 0.984993
O O4 0.129542 0.518219 0.982236
O O5 0.671996 0.202497 0.533537
O O6 0.566638 0.342813 0.377785
O O7 0.608869 0.341785 0.877353
O O8 0.949425 0.668042 0.580418
O O9 0.024756 0.498763 0.392046
O O10 0.180802 0.810082 0.203837
O O11 0.053415 0.822101 0.523213
O O12 0.207948 0.862480 0.701445
#
# Coordination Sequence:
#
# PCOD9346817 Si02
#       6
#     4   4   4   4   4   4
#     4  11  26  44  73 103 142 181 233 283 349 407
#     4  11  25  43  69 101 139 184 228 283 343 414
#     4  12  26  40  69 109 138 172 224 292 355 399
#     4  11  26  44  71 101 140 182 228 287 347 405
#     4  11  25  45  67 105 140 182 227 286 344 414
#     4  12  24  46  67 103 141 179 230 289 342 405
#
# _framework density 24.093821999999999
#
# number of rings (size 3 to 8) (size 9 to 14) (size 15 to 20)
#    0.000    0.667    3.333    4.000    4.667    5.333 
#    0.000    3.333    0.000    0.000    0.000    0.000 
#    0.000    0.000    0.000    0.000    0.000    0.000 
#
# Total GULP energy -134664.668353 kJ/mol
# GULP energy per Si atom -5611.027848 kJ/mol
# Density = 2.403898 g / cm^3
# Si number density = 24.093822 Si / 1000 Ang^3
#
#
#
# Elastic Constant Matrix: (Units=GPa)
#
#
# Indices 1 2 3 4 5 6 
#
# 1 82.6076 7.7976 -11.5854 0.0000 0.0000 0.0000
# 2 7.7976 48.4584 3.7628 0.0000 0.0000 0.0000
# 3 -11.5854 3.7628 62.0861 0.0000 0.0000 0.0000
# 4 0.0000 0.0000 0.0000 36.0388 0.0000 0.0000
# 5 0.0000 0.0000 0.0000 0.0000 51.6596 0.0000
# 6 0.0000 0.0000 0.0000 0.0000 0.0000 20.4585
#
#
#
# Elastic Compliance Matrix: (Units=1/GPa)
#
#
# Indices 1 2 3 4 5 6 
#
# 1 0.012667 -0.002232 0.002499 0.000000 0.000000 0.000000
# 2 -0.002232 0.021127 -0.001697 0.000000 0.000000 0.000000
# 3 0.002499 -0.001697 0.016676 0.000000 0.000000 0.000000
# 4 0.000000 0.000000 0.000000 0.027748 0.000000 0.000000
# 5 0.000000 0.000000 0.000000 0.000000 0.019357 0.000000
# 6 0.000000 0.000000 0.000000 0.000000 0.000000 0.048879
#
#
# Mechanical properties :
#
#
# Convention : Reuss Voigt Hill
#
# Bulk Modulus (GPa) = 21.00445 21.45579 21.23012
# Shear Modulus (GPa) = 30.26916 34.50987 32.38952
#
# Velocity S-wave (km/s) = 3.54828 3.78870 3.67046
# Velocity P-wave (km/s) = 5.05211 5.29749 5.17625
#
# Compressibility (1/GPa) = 0.04760895
#
# Stress axis : x y z
#
# Youngs Moduli (GPa) = 78.94788 47.33232 59.96709
#
# Poissons Ratio (x) = 0.10566 -0.14985
# Poissons Ratio (y) = 0.17623 0.10176
# Poissons Ratio (z) = -0.19728 0.08032
#
# Static dielectric constant tensor:
#      x y z
#    x 1.889720 0.000000 0.000000 
#    y 0.000000 1.927510 0.000000 
#    z 0.000000 0.000000 1.868870 
# 
# From -- ./inp_files/1311.got.cif
#   From: 2010.05.17/outbox.cif.g08.bks.cpg/sg33_1_cif.got.tgz:1311.got - 2010.06.03 17:15:25.
