data_PCOD9346707
_publ_section_title
;
Structure prediction by ZEFSAII (Michael W. Deem and Ramdas Pophale) SiO2 
 PCOD9346707
Probable space group: P N A 21
;
_chemical_formula_sum "Si O2"
_cell_formula_units_Z 28
_cell_length_a 25.404119
_cell_length_b 7.688119
_cell_length_c 6.813678
_cell_angle_alpha 90.000000
_cell_angle_beta 90.000000
_cell_angle_gamma 90.000000
_cell_volume 1330.778700
_symmetry_space_group_name_H-M "P N A 21"
_symmetry_group_IT_number 33
_symmetry_cell_setting 'orthorhombic'
loop_
_space_group_symop_operation_xyz
x,y,z
-x,-y,1/2+z
1/2-x,1/2+y,1/2+z
1/2+x,1/2-y,z
loop_
_atom_site_type_symbol
_atom_site_label
_atom_site_fract_x
_atom_site_fract_y
_atom_site_fract_z
Si Si1 0.633361 0.977944 0.031730
Si Si2 0.444446 0.154060 0.214740
Si Si3 0.694845 0.468174 0.310981
Si Si4 0.902077 0.999377 0.065985
Si Si5 0.162316 0.157445 0.900364
Si Si6 0.242770 0.697476 0.142776
Si Si7 0.938021 0.634707 0.881513
O O1 0.685429 0.885646 0.114935
O O2 0.599067 0.059348 0.208747
O O3 0.597445 0.856441 0.893480
O O4 0.652387 0.137252 0.895535
O O5 0.438685 0.334786 0.096401
O O6 0.502527 0.135666 0.302354
O O7 0.434180 0.995793 0.065443
O O8 0.651103 0.553734 0.451242
O O9 0.725923 0.325456 0.438458
O O10 0.733955 0.610575 0.224360
O O11 0.665199 0.391027 0.125759
O O12 0.883249 0.935145 0.279452
O O13 0.923755 0.829920 0.952773
O O14 0.217948 0.109718 0.799613
#
# Coordination Sequence:
#
# PCOD9346707 Si02
#       7
#     4   4   4   4   4   4   4
#     4  12  24  47  74  98 149 192 229 305 358 419
#     4  12  27  48  75 106 140 190 247 294 367 430
#     4  11  24  43  66 104 142 190 239 288 354 430
#     4  11  26  46  72 106 144 184 239 298 361 425
#     4  11  24  43  69 104 144 188 238 292 353 429
#     4  11  25  41  67 105 142 193 239 287 356 431
#     4  12  26  48  75 105 143 187 245 302 359 428
#
# _framework density 21.040313000000001
#
# number of rings (size 3 to 8) (size 9 to 14) (size 15 to 20)
#    0.000    0.571    5.714    1.714    2.000    4.571 
#    2.571    0.000    0.000    0.000    0.000    0.000 
#    0.000    0.000    0.000    0.000    0.000    0.000 
#
# Total GULP energy -156510.437583 kJ/mol
# GULP energy per Si atom -5589.658485 kJ/mol
# Density = 2.099242 g / cm^3
# Si number density = 21.040313 Si / 1000 Ang^3
#
#
#
# Elastic Constant Matrix: (Units=GPa)
#
#
# Indices 1 2 3 4 5 6 
#
# 1 82.0192 -3.0554 39.7617 0.0000 0.0000 0.0000
# 2 -3.0554 64.5921 34.4894 0.0000 0.0000 0.0000
# 3 39.7617 34.4894 112.7727 0.0000 0.0000 0.0000
# 4 0.0000 0.0000 0.0000 37.4038 0.0000 0.0000
# 5 0.0000 0.0000 0.0000 0.0000 33.0902 0.0000
# 6 0.0000 0.0000 0.0000 0.0000 0.0000 25.7873
#
#
#
# Elastic Compliance Matrix: (Units=1/GPa)
#
#
# Indices 1 2 3 4 5 6 
#
# 1 0.015695 0.004419 -0.006885 0.000000 0.000000 0.000000
# 2 0.004419 0.019747 -0.007597 0.000000 0.000000 0.000000
# 3 -0.006885 -0.007597 0.013618 0.000000 0.000000 0.000000
# 4 0.000000 0.000000 0.000000 0.026735 0.000000 0.000000
# 5 0.000000 0.000000 0.000000 0.000000 0.030220 0.000000
# 6 0.000000 0.000000 0.000000 0.000000 0.000000 0.038779
#
#
# Mechanical properties :
#
#
# Convention : Reuss Voigt Hill
#
# Bulk Modulus (GPa) = 34.56237 44.64172 39.60205
# Shear Modulus (GPa) = 28.64235 31.80216 30.22225
#
# Velocity S-wave (km/s) = 3.69359 3.89200 3.79410
# Velocity P-wave (km/s) = 5.88664 6.43896 6.16899
#
# Compressibility (1/GPa) = 0.02893320
#
# Stress axis : x y z
#
# Youngs Moduli (GPa) = 63.71600 50.63949 73.42982
#
# Poissons Ratio (x) = -0.22376 0.50557
# Poissons Ratio (y) = -0.28154 0.55787
# Poissons Ratio (z) = 0.43869 0.38473
#
# Static dielectric constant tensor:
#      x y z
#    x 1.748030 0.000000 0.000000 
#    y 0.000000 1.782430 0.000000 
#    z 0.000000 0.000000 1.746330 
# 
# From -- ./inp_files/2249.got.cif
#   From: 2010.05.17/outbox.cif.g08.bks.cpg/sg33_2_cif.got.tgz:2249.got - 2010.06.03 17:15:25.
