data_PCOD9346504
_publ_section_title
;
Structure prediction by ZEFSAII (Michael W. Deem and Ramdas Pophale) SiO2 
 PCOD9346504
Probable space group: P N A 21
;
_chemical_formula_sum "Si O2"
_cell_formula_units_Z 20
_cell_length_a 11.129651
_cell_length_b 14.371392
_cell_length_c 4.940506
_cell_angle_alpha 90.000000
_cell_angle_beta 90.000000
_cell_angle_gamma 90.000000
_cell_volume 790.226906
_symmetry_space_group_name_H-M "P N A 21"
_symmetry_group_IT_number 33
_symmetry_cell_setting 'orthorhombic'
loop_
_space_group_symop_operation_xyz
x,y,z
-x,-y,1/2+z
1/2-x,1/2+y,1/2+z
1/2+x,1/2-y,z
loop_
_atom_site_type_symbol
_atom_site_label
_atom_site_fract_x
_atom_site_fract_y
_atom_site_fract_z
Si Si1 0.472771 0.124822 0.368420
Si Si2 0.310749 0.972465 0.550318
Si Si3 0.343482 0.799848 0.230038
Si Si4 0.938644 0.968292 0.129919
Si Si5 0.903867 0.794225 0.738061
O O1 0.576726 0.061812 0.228741
O O2 0.525170 0.153520 0.663417
O O3 0.689303 0.237131 0.434975
O O4 0.355374 0.063067 0.386147
O O5 0.275815 0.886434 0.357517
O O6 0.194214 0.000811 0.713909
O O7 0.350556 0.714884 0.439930
O O8 0.519773 0.774982 0.726234
O O9 0.934421 0.880889 0.925242
O O10 0.990795 0.042636 0.910215
#
# Coordination Sequence:
#
# PCOD9346504 Si02
#       5
#     4   4   4   4   4
#     4   9  19  38  73 103 127 164 232 295 343 374
#     4  11  21  41  73 103 135 176 226 293 343 405
#     4   9  19  37  67  99 131 154 224 289 343 377
#     4  12  29  47  65  95 148 195 226 259 347 434
#     4   9  20  43  62  96 135 173 224 276 330 410
#
# _framework density 25.309187999999999
#
# number of rings (size 3 to 8) (size 9 to 14) (size 15 to 20)
#    1.200    0.800    2.000    1.200    2.800    0.000 
#   10.800    0.000    0.000    0.000    0.000    0.000 
#    0.000    0.000    0.000    0.000    0.000    0.000 
#
# Total GULP energy -111416.261314 kJ/mol
# GULP energy per Si atom -5570.813066 kJ/mol
# Density = 2.525158 g / cm^3
# Si number density = 25.309188 Si / 1000 Ang^3
#
#
#
# Elastic Constant Matrix: (Units=GPa)
#
#
# Indices 1 2 3 4 5 6 
#
# 1 62.3504 -15.7049 -1.1988 0.0000 0.0000 0.0000
# 2 -15.7049 46.7408 -9.3787 0.0000 0.0000 0.0000
# 3 -1.1988 -9.3787 137.3919 0.0000 0.0000 0.0000
# 4 0.0000 0.0000 0.0000 32.7426 0.0000 0.0000
# 5 0.0000 0.0000 0.0000 0.0000 14.7586 0.0000
# 6 0.0000 0.0000 0.0000 0.0000 0.0000 3.1089
#
#
#
# Elastic Compliance Matrix: (Units=1/GPa)
#
#
# Indices 1 2 3 4 5 6 
#
# 1 0.017564 0.006015 0.000564 0.000000 0.000000 0.000000
# 2 0.006015 0.023751 0.001674 0.000000 0.000000 0.000000
# 3 0.000564 0.001674 0.007398 0.000000 0.000000 0.000000
# 4 0.000000 0.000000 0.000000 0.030541 0.000000 0.000000
# 5 0.000000 0.000000 0.000000 0.000000 0.067757 0.000000
# 6 0.000000 0.000000 0.000000 0.000000 0.000000 0.321657
#
#
# Mechanical properties :
#
#
# Convention : Reuss Voigt Hill
#
# Bulk Modulus (GPa) = 15.33321 21.54649 18.43985
# Shear Modulus (GPa) = 10.55068 28.30638 19.42853
#
# Velocity S-wave (km/s) = 2.04396 3.34791 2.77365
# Velocity P-wave (km/s) = 3.41202 4.84525 4.19037
#
# Compressibility (1/GPa) = 0.06521791
#
# Stress axis : x y z
#
# Youngs Moduli (GPa) = 56.93387 42.10284 135.17850
#
# Poissons Ratio (x) = -0.25324 -0.07622
# Poissons Ratio (y) = -0.34244 -0.22626
# Poissons Ratio (z) = -0.03210 -0.07047
#
# Static dielectric constant tensor:
#      x y z
#    x 2.028230 0.000000 0.000000 
#    y 0.000000 2.190180 0.000000 
#    z 0.000000 0.000000 1.993390 
# 
# From -- ./inp_files/769.got.cif
#   From: 2010.05.17/outbox.cif.g08.bks.cpg/sg33_1_cif.got.tgz:769.got - 2010.06.03 17:15:25.
