data_PCOD9346254
_publ_section_title
;
Structure prediction by ZEFSAII (Michael W. Deem and Ramdas Pophale) SiO2 
 PCOD9346254
Probable space group: P N A 21
;
_chemical_formula_sum "Si O2"
_cell_formula_units_Z 20
_cell_length_a 21.909788
_cell_length_b 5.096050
_cell_length_c 7.384429
_cell_angle_alpha 90.000000
_cell_angle_beta 90.000000
_cell_angle_gamma 90.000000
_cell_volume 824.496421
_symmetry_space_group_name_H-M "P N A 21"
_symmetry_group_IT_number 33
_symmetry_cell_setting 'orthorhombic'
loop_
_space_group_symop_operation_xyz
x,y,z
-x,-y,1/2+z
1/2-x,1/2+y,1/2+z
1/2+x,1/2-y,z
loop_
_atom_site_type_symbol
_atom_site_label
_atom_site_fract_x
_atom_site_fract_y
_atom_site_fract_z
Si Si1 0.835434 0.362691 0.145770
Si Si2 0.942812 0.820347 0.602099
Si Si3 0.051533 0.689475 0.869235
Si Si4 0.834207 0.606589 0.802078
Si Si5 0.763904 0.474507 0.473018
O O1 0.886732 0.223071 0.264899
O O2 0.802126 0.550892 0.293221
O O3 0.869147 0.484744 0.972233
O O4 0.783987 0.184008 0.050638
O O5 0.940986 0.606742 0.440412
O O6 0.877814 0.811333 0.703390
O O7 0.994787 0.721530 0.737171
O O8 0.956666 0.109837 0.533586
O O9 0.809649 0.423458 0.639992
O O10 0.776005 0.733224 0.902077
#
# Coordination Sequence:
#
# PCOD9346254 Si02
#       5
#     4   4   4   4   4
#     4  11  24  43  73 106 152 192 247 299 371 433
#     4  12  28  49  76 107 148 196 254 309 373 438
#     4  12  28  49  76 107 148 196 254 309 373 438
#     4  11  24  43  73 106 152 192 247 299 371 433
#     4  10  24  42  70 112 150 192 244 294 372 438
#
# _framework density 24.25723
#
# number of rings (size 3 to 8) (size 9 to 14) (size 15 to 20)
#    0.000    0.800    2.000    3.600    8.400    6.400 
#    0.000    0.000    0.000    0.000    0.000    0.000 
#    0.000    0.000    0.000    0.000    0.000    0.000 
#
# Total GULP energy -111853.115271 kJ/mol
# GULP energy per Si atom -5592.655764 kJ/mol
# Density = 2.420202 g / cm^3
# Si number density = 24.257230 Si / 1000 Ang^3
#
#
#
# Elastic Constant Matrix: (Units=GPa)
#
#
# Indices 1 2 3 4 5 6 
#
# 1 80.0704 -0.1066 31.7064 0.0000 0.0000 0.0000
# 2 -0.1066 46.8262 11.3686 0.0000 0.0000 0.0000
# 3 31.7064 11.3686 146.1184 0.0000 0.0000 0.0000
# 4 0.0000 0.0000 0.0000 33.8386 0.0000 0.0000
# 5 0.0000 0.0000 0.0000 0.0000 24.1148 0.0000
# 6 0.0000 0.0000 0.0000 0.0000 0.0000 56.6901
#
#
#
# Elastic Compliance Matrix: (Units=1/GPa)
#
#
# Indices 1 2 3 4 5 6 
#
# 1 0.013690 0.000767 -0.003030 0.000000 0.000000 0.000000
# 2 0.000767 0.021810 -0.001863 0.000000 0.000000 0.000000
# 3 -0.003030 -0.001863 0.007646 0.000000 0.000000 0.000000
# 4 0.000000 0.000000 0.000000 0.029552 0.000000 0.000000
# 5 0.000000 0.000000 0.000000 0.000000 0.041468 0.000000
# 6 0.000000 0.000000 0.000000 0.000000 0.000000 0.017640
#
#
# Mechanical properties :
#
#
# Convention : Reuss Voigt Hill
#
# Bulk Modulus (GPa) = 28.65943 39.88355 34.27149
# Shear Modulus (GPa) = 32.96190 38.26514 35.61352
#
# Velocity S-wave (km/s) = 3.69026 3.97605 3.83582
# Velocity P-wave (km/s) = 5.47702 6.12832 5.81180
#
# Compressibility (1/GPa) = 0.03489252
#
# Stress axis : x y z
#
# Youngs Moduli (GPa) = 73.04625 45.85122 130.78262
#
# Poissons Ratio (x) = -0.03516 0.39631
# Poissons Ratio (y) = -0.05602 0.24369
# Poissons Ratio (z) = 0.22135 0.08543
#
# Static dielectric constant tensor:
#      x y z
#    x 1.924000 0.000000 0.000000 
#    y 0.000000 1.953290 0.000000 
#    z 0.000000 0.000000 1.965940 
# 
# From -- ./inp_files/1936.got.cif
#   From: 2010.05.17/outbox.cif.g08.bks.cpg/sg33_1_cif.got.tgz:1936.got - 2010.06.03 17:15:25.
