data_PCOD9346530
_publ_section_title
;
Structure prediction by ZEFSAII (Michael W. Deem and Ramdas Pophale) SiO2 
 PCOD9346530
Probable space group: P N A 21
;
_chemical_formula_sum "Si O2"
_cell_formula_units_Z 32
_cell_length_a 8.677775
_cell_length_b 9.989023
_cell_length_c 19.049906
_cell_angle_alpha 90.000000
_cell_angle_beta 90.000000
_cell_angle_gamma 90.000000
_cell_volume 1651.293364
_symmetry_space_group_name_H-M "P N A 21"
_symmetry_group_IT_number 33
_symmetry_cell_setting 'orthorhombic'
loop_
_space_group_symop_operation_xyz
x,y,z
-x,-y,1/2+z
1/2-x,1/2+y,1/2+z
1/2+x,1/2-y,z
loop_
_atom_site_type_symbol
_atom_site_label
_atom_site_fract_x
_atom_site_fract_y
_atom_site_fract_z
Si Si1 0.377712 0.657624 0.786820
Si Si2 0.622286 0.342376 0.912189
Si Si3 0.946076 0.898656 0.950196
Si Si4 0.946078 0.898656 0.248813
Si Si5 0.379837 0.159896 0.516559
Si Si6 0.029022 0.564409 0.426080
Si Si7 0.879835 0.340104 0.682450
Si Si8 0.470981 0.064410 0.272930
O O1 0.404976 0.644437 0.870615
O O2 0.491134 0.549253 0.751890
O O3 0.417960 0.807849 0.765060
O O4 0.203384 0.616447 0.770693
O O5 0.595023 0.355563 0.828394
O O6 0.796614 0.383553 0.928316
O O7 0.582038 0.192151 0.933948
O O8 0.008864 0.049254 0.947118
O O9 0.793337 0.880588 0.995995
O O10 0.075897 0.799414 0.979709
O O11 0.793339 0.880588 0.203014
O O12 0.075899 0.799414 0.219300
O O13 0.398407 0.170279 0.599505
O O14 0.491047 0.047743 0.483218
O O15 0.000002 0.499999 0.349505
O O16 0.991045 0.452257 0.715792
#
# Coordination Sequence:
#
# PCOD9346530 Si02
#       8
#     4   4   4   4   4   4   4   4
#     4  11  23  39  68  99 124 163 224 275 321 368
#     4  11  23  39  68  99 124 163 224 275 321 368
#     4  11  22  40  66  96 130 167 216 273 320 385
#     4  11  22  40  66  96 130 167 216 273 320 385
#     4  12  25  42  64  97 136 177 214 263 336 400
#     4  12  23  41  67  97 131 170 219 275 320 387
#     4  12  25  42  64  97 136 177 214 263 336 400
#     4  12  23  41  67  97 131 170 219 275 320 387
#
# _framework density 19.37875
#
# number of rings (size 3 to 8) (size 9 to 14) (size 15 to 20)
#    0.000    0.500    5.000    3.750    3.500    0.000 
#    0.000    7.500    0.000    0.000    0.000    0.000 
#    0.000    0.000    0.000    0.000    0.000    0.000 
#
# Total GULP energy -179119.698756 kJ/mol
# GULP energy per Si atom -5597.490586 kJ/mol
# Density = 1.933464 g / cm^3
# Si number density = 19.378750 Si / 1000 Ang^3
#
#
#
# Elastic Constant Matrix: (Units=GPa)
#
#
# Indices 1 2 3 4 5 6 
#
# 1 85.4066 5.3527 9.6018 0.0000 0.0000 0.0000
# 2 5.3527 105.4057 23.5520 0.0000 0.0000 0.0000
# 3 9.6018 23.5520 50.9421 0.0000 0.0000 0.0000
# 4 0.0000 0.0000 0.0000 11.2533 0.0000 0.0000
# 5 0.0000 0.0000 0.0000 0.0000 24.7778 0.0000
# 6 0.0000 0.0000 0.0000 0.0000 0.0000 37.8883
#
#
#
# Elastic Compliance Matrix: (Units=1/GPa)
#
#
# Indices 1 2 3 4 5 6 
#
# 1 0.011963 -0.000116 -0.002201 0.000000 0.000000 0.000000
# 2 -0.000116 0.010581 -0.004870 0.000000 0.000000 0.000000
# 3 -0.002201 -0.004870 0.022297 0.000000 0.000000 0.000000
# 4 0.000000 0.000000 0.000000 0.088863 0.000000 0.000000
# 5 0.000000 0.000000 0.000000 0.000000 0.040359 0.000000
# 6 0.000000 0.000000 0.000000 0.000000 0.000000 0.026393
#
#
# Mechanical properties :
#
#
# Convention : Reuss Voigt Hill
#
# Bulk Modulus (GPa) = 32.82264 35.41860 34.12062
# Shear Modulus (GPa) = 22.22352 28.33374 25.27863
#
# Velocity S-wave (km/s) = 3.39011 3.82789 3.61564
# Velocity P-wave (km/s) = 5.68314 6.15254 5.92249
#
# Compressibility (1/GPa) = 0.03046677
#
# Stress axis : x y z
#
# Youngs Moduli (GPa) = 83.58800 94.50693 44.84963
#
# Poissons Ratio (x) = 0.01093 0.09873
# Poissons Ratio (y) = 0.00966 0.21843
# Poissons Ratio (z) = 0.18402 0.46027
#
# Static dielectric constant tensor:
#      x y z
#    x 1.680790 0.000000 0.000000 
#    y 0.000000 1.733520 0.000000 
#    z 0.000000 0.000000 1.636400 
# 
# From -- ./inp_files/8931.got.cif
#   From: 2010.05.17/outbox.cif.g08.bks.cpg/sg33_5_cif.got.tgz:8931.got - 2010.06.03 17:15:25.
