data_PCOD9346937
_publ_section_title
;
Structure prediction by ZEFSAII (Michael W. Deem and Ramdas Pophale) SiO2 
 PCOD9346937
Probable space group: P N A 21
;
_chemical_formula_sum "Si O2"
_cell_formula_units_Z 32
_cell_length_a 18.068050
_cell_length_b 11.849033
_cell_length_c 6.608228
_cell_angle_alpha 90.000000
_cell_angle_beta 90.000000
_cell_angle_gamma 90.000000
_cell_volume 1414.748400
_symmetry_space_group_name_H-M "P N A 21"
_symmetry_group_IT_number 33
_symmetry_cell_setting 'orthorhombic'
loop_
_space_group_symop_operation_xyz
x,y,z
-x,-y,1/2+z
1/2-x,1/2+y,1/2+z
1/2+x,1/2-y,z
loop_
_atom_site_type_symbol
_atom_site_label
_atom_site_fract_x
_atom_site_fract_y
_atom_site_fract_z
Si Si1 0.517502 0.369217 0.623500
Si Si2 0.027198 0.712659 0.749507
Si Si3 0.288066 0.463869 0.675627
Si Si4 0.635171 0.135703 0.165175
Si Si5 0.236379 0.251608 0.491269
Si Si6 0.591909 0.595571 0.460851
Si Si7 0.660417 0.334491 0.882211
Si Si8 0.840709 0.440965 0.374897
O O1 0.504228 0.286068 0.437185
O O2 0.546393 0.489582 0.546035
O O3 0.441618 0.378748 0.742014
O O4 0.577528 0.336275 0.793383
O O5 0.074273 0.798301 0.605352
O O6 0.080998 0.612032 0.817615
O O7 0.952702 0.659068 0.656458
O O8 0.293344 0.346946 0.558475
O O9 0.326750 0.448672 0.896553
O O10 0.322290 0.561638 0.532943
O O11 0.199991 0.479220 0.713060
O O12 0.671010 0.184359 0.371308
O O13 0.671428 0.220609 0.005056
O O14 0.652509 0.009881 0.085928
O O15 0.209026 0.179320 0.682461
O O16 0.282387 0.161421 0.366363
#
# Coordination Sequence:
#
# PCOD9346937 Si02
#       8
#     4   4   4   4   4   4   4   4
#     4  12  23  45  74 111 144 200 249 314 385 454
#     4  12  28  48  75 112 157 207 257 312 394 470
#     4  12  27  46  74 114 147 202 256 323 382 451
#     4  12  26  52  74 107 157 203 253 319 390 463
#     4  12  26  49  79 106 152 203 254 322 384 459
#     4  12  25  43  74 110 156 190 258 324 378 455
#     4  12  24  46  76 107 150 197 257 316 389 455
#     4  12  29  49  76 111 153 202 258 312 382 471
#
# _framework density 22.618863999999999
#
# number of rings (size 3 to 8) (size 9 to 14) (size 15 to 20)
#    0.000    0.000    6.250    3.750    5.250    2.000 
#    4.500    0.000    0.000    0.000    0.000    0.000 
#    0.000    0.000    0.000    0.000    0.000    0.000 
#
# Total GULP energy -178759.482114 kJ/mol
# GULP energy per Si atom -5586.233816 kJ/mol
# Density = 2.256738 g / cm^3
# Si number density = 22.618864 Si / 1000 Ang^3
#
#
#
# Elastic Constant Matrix: (Units=GPa)
#
#
# Indices 1 2 3 4 5 6 
#
# 1 92.4606 39.5972 38.8765 0.0000 0.0000 0.0000
# 2 39.5972 109.4505 44.4808 0.0000 0.0000 0.0000
# 3 38.8765 44.4808 84.3916 0.0000 0.0000 0.0000
# 4 0.0000 0.0000 0.0000 43.4201 0.0000 0.0000
# 5 0.0000 0.0000 0.0000 0.0000 24.8244 0.0000
# 6 0.0000 0.0000 0.0000 0.0000 0.0000 36.0943
#
#
#
# Elastic Compliance Matrix: (Units=1/GPa)
#
#
# Indices 1 2 3 4 5 6 
#
# 1 0.014223 -0.003160 -0.004887 0.000000 0.000000 0.000000
# 2 -0.003160 0.012329 -0.005043 0.000000 0.000000 0.000000
# 3 -0.004887 -0.005043 0.016759 0.000000 0.000000 0.000000
# 4 0.000000 0.000000 0.000000 0.023031 0.000000 0.000000
# 5 0.000000 0.000000 0.000000 0.000000 0.040283 0.000000
# 6 0.000000 0.000000 0.000000 0.000000 0.000000 0.027705
#
#
# Mechanical properties :
#
#
# Convention : Reuss Voigt Hill
#
# Bulk Modulus (GPa) = 58.36890 59.13463 58.75177
# Shear Modulus (GPa) = 30.08072 31.75765 30.91918
#
# Velocity S-wave (km/s) = 3.65073 3.75111 3.70126
# Velocity P-wave (km/s) = 6.60544 6.70536 6.65559
#
# Compressibility (1/GPa) = 0.01713241
#
# Stress axis : x y z
#
# Youngs Moduli (GPa) = 70.30696 81.10913 59.67075
#
# Poissons Ratio (x) = 0.25628 0.29160
# Poissons Ratio (y) = 0.22215 0.30091
# Poissons Ratio (z) = 0.34358 0.40901
#
# Static dielectric constant tensor:
#      x y z
#    x 1.947470 0.000000 0.000000 
#    y 0.000000 1.835270 0.000000 
#    z 0.000000 0.000000 1.860300 
# 
# From -- ./inp_files/2067.got.cif
#   From: 2010.05.17/outbox.cif.g08.bks.cpg/sg33_2_cif.got.tgz:2067.got - 2010.06.03 17:15:25.
