data_PCOD9346353
_publ_section_title
;
Structure prediction by ZEFSAII (Michael W. Deem and Ramdas Pophale) SiO2 
 PCOD9346353
Probable space group: P N A 21
;
_chemical_formula_sum "Si O2"
_cell_formula_units_Z 20
_cell_length_a 18.026787
_cell_length_b 5.086113
_cell_length_c 8.390093
_cell_angle_alpha 90.000000
_cell_angle_beta 90.000000
_cell_angle_gamma 90.000000
_cell_volume 769.256380
_symmetry_space_group_name_H-M "P N A 21"
_symmetry_group_IT_number 33
_symmetry_cell_setting 'orthorhombic'
loop_
_space_group_symop_operation_xyz
x,y,z
-x,-y,1/2+z
1/2-x,1/2+y,1/2+z
1/2+x,1/2-y,z
loop_
_atom_site_type_symbol
_atom_site_label
_atom_site_fract_x
_atom_site_fract_y
_atom_site_fract_z
Si Si1 0.839348 0.036101 0.132850
Si Si2 0.249891 0.627470 0.402365
Si Si3 0.874786 0.218831 0.448156
Si Si4 0.400816 0.951681 0.748250
Si Si5 0.468800 0.464253 0.897291
O O1 0.800910 0.825218 0.247458
O O2 0.853522 0.267048 0.263451
O O3 0.916807 0.976711 0.050119
O O4 0.783016 0.130211 0.997494
O O5 0.305157 0.453232 0.509756
O O6 0.178251 0.468949 0.338260
O O7 0.890148 0.454296 0.567431
O O8 0.947680 0.040193 0.432633
O O9 0.452239 0.171049 0.836083
O O10 0.437293 0.670370 0.768311
#
# Coordination Sequence:
#
# PCOD9346353 Si02
#       5
#     4   4   4   4   4
#     4   9  22  46  76 103 155 191 258 304 385 445
#     4   9  23  45  71 110 144 200 248 311 375 446
#     4  10  24  46  77 110 152 202 252 320 377 455
#     4  11  26  45  75 109 152 195 255 309 380 454
#     4  11  25  50  73 112 151 200 251 314 383 452
#
# _framework density 25.999134999999999
#
# number of rings (size 3 to 8) (size 9 to 14) (size 15 to 20)
#    1.200    0.800    0.000    1.200    5.600    4.800 
#    3.600    4.000    0.000    0.000    0.000    0.000 
#    0.000    0.000    0.000    0.000    0.000    0.000 
#
# Total GULP energy -111983.770793 kJ/mol
# GULP energy per Si atom -5599.188540 kJ/mol
# Density = 2.593996 g / cm^3
# Si number density = 25.999135 Si / 1000 Ang^3
#
#
#
# Elastic Constant Matrix: (Units=GPa)
#
#
# Indices 1 2 3 4 5 6 
#
# 1 123.3123 30.3878 46.1610 0.0000 0.0000 0.0000
# 2 30.3878 58.0893 31.5553 0.0000 0.0000 0.0000
# 3 46.1610 31.5553 135.2637 0.0000 0.0000 0.0000
# 4 0.0000 0.0000 0.0000 28.5710 0.0000 0.0000
# 5 0.0000 0.0000 0.0000 0.0000 38.3811 0.0000
# 6 0.0000 0.0000 0.0000 0.0000 0.0000 28.9275
#
#
#
# Elastic Compliance Matrix: (Units=1/GPa)
#
#
# Indices 1 2 3 4 5 6 
#
# 1 0.010003 -0.003869 -0.002511 0.000000 0.000000 0.000000
# 2 -0.003869 0.021209 -0.003628 0.000000 0.000000 0.000000
# 3 -0.002511 -0.003628 0.009096 0.000000 0.000000 0.000000
# 4 0.000000 0.000000 0.000000 0.035001 0.000000 0.000000
# 5 0.000000 0.000000 0.000000 0.000000 0.026055 0.000000
# 6 0.000000 0.000000 0.000000 0.000000 0.000000 0.034569
#
#
# Mechanical properties :
#
#
# Convention : Reuss Voigt Hill
#
# Bulk Modulus (GPa) = 49.27672 59.20817 54.24244
# Shear Modulus (GPa) = 30.72919 33.08000 31.90459
#
# Velocity S-wave (km/s) = 3.44165 3.57087 3.50686
# Velocity P-wave (km/s) = 5.89811 6.31063 6.10785
#
# Compressibility (1/GPa) = 0.02029356
#
# Stress axis : x y z
#
# Youngs Moduli (GPa) = 99.97144 47.14927 109.93581
#
# Poissons Ratio (x) = 0.18240 0.27606
# Poissons Ratio (y) = 0.38675 0.39881
# Poissons Ratio (z) = 0.25104 0.17104
#
# Static dielectric constant tensor:
#      x y z
#    x 2.002240 0.000000 0.000000 
#    y 0.000000 2.033140 0.000000 
#    z 0.000000 0.000000 2.073950 
# 
# From -- ./inp_files/4612.got.cif
#   From: 2010.05.17/outbox.cif.g08.bks.cpg/sg33_3_cif.got.tgz:4612.got - 2010.06.03 17:15:25.
