data_PCOD9346932
_publ_section_title
;
Structure prediction by ZEFSAII (Michael W. Deem and Ramdas Pophale) SiO2 
 PCOD9346932
Probable space group: P N A 21
;
_chemical_formula_sum "Si O2"
_cell_formula_units_Z 24
_cell_length_a 4.833011
_cell_length_b 18.561658
_cell_length_c 10.874019
_cell_angle_alpha 90.000000
_cell_angle_beta 90.000000
_cell_angle_gamma 90.000000
_cell_volume 975.494079
_symmetry_space_group_name_H-M "P N A 21"
_symmetry_group_IT_number 33
_symmetry_cell_setting 'orthorhombic'
loop_
_space_group_symop_operation_xyz
x,y,z
-x,-y,1/2+z
1/2-x,1/2+y,1/2+z
1/2+x,1/2-y,z
loop_
_atom_site_type_symbol
_atom_site_label
_atom_site_fract_x
_atom_site_fract_y
_atom_site_fract_z
Si Si1 0.434962 0.443538 0.974560
Si Si2 0.106094 0.668513 0.073443
Si Si3 0.247038 0.916279 0.869200
Si Si4 0.595128 0.966387 0.638530
Si Si5 0.353146 0.379615 0.719958
Si Si6 0.164611 0.212354 0.331416
O O1 0.586139 0.513107 0.915323
O O2 0.398072 0.386335 0.865513
O O3 0.145169 0.466302 0.035020
O O4 0.649690 0.421908 0.081495
O O5 0.870473 0.680329 0.177149
O O6 0.260396 0.721506 0.977581
O O7 0.936955 0.618754 0.975429
O O8 0.444786 0.936299 0.757894
O O9 0.011425 0.859549 0.831158
O O10 0.721353 0.043200 0.680661
O O11 0.139096 0.131438 0.646632
O O12 0.464782 0.226216 0.276755
#
# Coordination Sequence:
#
# PCOD9346932 Si02
#       6
#     4   4   4   4   4   4
#     4  12  26  39  59  96 132 179 213 236 312 404
#     4  12  23  41  61  92 129 164 206 261 330 369
#     4  12  26  39  65  91 137 164 212 271 315 379
#     4  12  25  37  59  89 132 175 214 245 309 388
#     4  12  24  38  60  88 135 176 205 254 304 390
#     4  12  24  42  66  96 125 160 218 279 340 376
#
# _framework density 24.602916
#
# number of rings (size 3 to 8) (size 9 to 14) (size 15 to 20)
#    0.000    0.000    5.000    6.000    7.000    0.000 
#    0.000    0.000    0.000    0.000    0.000   23.333 
#    0.000    0.000    0.000    0.000    0.000    0.000 
#
# Total GULP energy -134275.766639 kJ/mol
# GULP energy per Si atom -5594.823610 kJ/mol
# Density = 2.454692 g / cm^3
# Si number density = 24.602916 Si / 1000 Ang^3
#
#
#
# Elastic Constant Matrix: (Units=GPa)
#
#
# Indices 1 2 3 4 5 6 
#
# 1 195.9980 13.5647 41.7438 0.0000 0.0000 0.0000
# 2 13.5647 27.9246 5.8812 0.0000 0.0000 0.0000
# 3 41.7438 5.8812 99.4846 0.0000 0.0000 0.0000
# 4 0.0000 0.0000 0.0000 27.0415 0.0000 0.0000
# 5 0.0000 0.0000 0.0000 0.0000 63.0478 0.0000
# 6 0.0000 0.0000 0.0000 0.0000 0.0000 41.7813
#
#
#
# Elastic Compliance Matrix: (Units=1/GPa)
#
#
# Indices 1 2 3 4 5 6 
#
# 1 0.005747 -0.002312 -0.002275 0.000000 0.000000 0.000000
# 2 -0.002312 0.037193 -0.001228 0.000000 0.000000 0.000000
# 3 -0.002275 -0.001228 0.011079 0.000000 0.000000 0.000000
# 4 0.000000 0.000000 0.000000 0.036980 0.000000 0.000000
# 5 0.000000 0.000000 0.000000 0.000000 0.015861 0.000000
# 6 0.000000 0.000000 0.000000 0.000000 0.000000 0.023934
#
#
# Mechanical properties :
#
#
# Convention : Reuss Voigt Hill
#
# Bulk Modulus (GPa) = 23.59193 49.53185 36.56189
# Shear Modulus (GPa) = 31.93796 43.85527 37.89661
#
# Velocity S-wave (km/s) = 3.60688 4.22657 3.92896
# Velocity P-wave (km/s) = 5.19191 6.63286 5.95612
#
# Compressibility (1/GPa) = 0.04238737
#
# Stress axis : x y z
#
# Youngs Moduli (GPa) = 174.01683 26.88693 90.26215
#
# Poissons Ratio (x) = 0.06217 0.20531
# Poissons Ratio (y) = 0.40240 0.11088
# Poissons Ratio (z) = 0.39581 0.03303
#
# Static dielectric constant tensor:
#      x y z
#    x 1.996750 0.000000 0.000000 
#    y 0.000000 2.100920 0.000000 
#    z 0.000000 0.000000 1.995500 
# 
# From -- ./inp_files/5584.got.cif
#   From: 2010.05.17/outbox.cif.g08.bks.cpg/sg33_3_cif.got.tgz:5584.got - 2010.06.03 17:15:25.
