data_PCOD9346498
_publ_section_title
;
Structure prediction by ZEFSAII (Michael W. Deem and Ramdas Pophale) SiO2 
 PCOD9346498
Probable space group: P N A 21
;
_chemical_formula_sum "Si O2"
_cell_formula_units_Z 32
_cell_length_a 15.942853
_cell_length_b 11.130929
_cell_length_c 8.690797
_cell_angle_alpha 90.000000
_cell_angle_beta 90.000000
_cell_angle_gamma 90.000000
_cell_volume 1542.258101
_symmetry_space_group_name_H-M "P N A 21"
_symmetry_group_IT_number 33
_symmetry_cell_setting 'orthorhombic'
loop_
_space_group_symop_operation_xyz
x,y,z
-x,-y,1/2+z
1/2-x,1/2+y,1/2+z
1/2+x,1/2-y,z
loop_
_atom_site_type_symbol
_atom_site_label
_atom_site_fract_x
_atom_site_fract_y
_atom_site_fract_z
Si Si1 0.199734 0.946846 0.979570
Si Si2 0.362222 0.781421 0.012612
Si Si3 0.126590 0.491334 0.110310
Si Si4 0.242938 0.154718 0.746516
Si Si5 0.001253 0.420442 0.374968
Si Si6 0.696280 0.405081 0.281039
Si Si7 0.280965 0.362882 0.988442
Si Si8 0.634383 0.748595 0.764197
O O1 0.141309 0.843301 0.907767
O O2 0.221492 0.038298 0.844417
O O3 0.285978 0.877131 0.018501
O O4 0.170974 0.028705 0.122810
O O5 0.338418 0.695956 0.152840
O O6 0.448304 0.852301 0.010060
O O7 0.358469 0.700276 0.858112
O O8 0.181937 0.612668 0.133471
O O9 0.070719 0.476924 0.263109
O O10 0.066456 0.497765 0.962143
O O11 0.194315 0.385777 0.082134
O O12 0.270176 0.259730 0.861643
O O13 0.948937 0.325431 0.275565
O O14 0.701726 0.513025 0.402662
O O15 0.787237 0.342055 0.262719
O O16 0.352058 0.326160 0.108800
#
# Coordination Sequence:
#
# PCOD9346498 Si02
#       8
#     4   4   4   4   4   4   4   4
#     4  11  21  40  69  97 128 177 232 277 323 420
#     4  11  23  43  65  99 137 177 229 281 344 399
#     4  12  26  46  66 106 140 180 232 278 350 408
#     4  12  23  41  74  99 128 185 235 273 329 431
#     4  12  28  42  66 100 150 174 220 306 350 390
#     4  11  21  40  69  97 128 177 232 277 323 420
#     4  12  23  41  74  99 128 185 235 273 329 431
#     4  11  23  43  65  99 137 177 229 281 344 399
#
# _framework density 20.748797
#
# number of rings (size 3 to 8) (size 9 to 14) (size 15 to 20)
#    0.000    0.500    7.500    1.500    5.250    0.000 
#    0.000    2.500    0.000    0.000    0.000    0.000 
#    0.000    0.000    0.000    0.000    0.000    0.000 
#
# Total GULP energy -178803.422324 kJ/mol
# GULP energy per Si atom -5587.606948 kJ/mol
# Density = 2.070157 g / cm^3
# Si number density = 20.748797 Si / 1000 Ang^3
#
#
#
# Elastic Constant Matrix: (Units=GPa)
#
#
# Indices 1 2 3 4 5 6 
#
# 1 32.6970 -12.0815 -5.8939 0.0000 0.0000 0.0000
# 2 -12.0815 61.0511 -5.6259 0.0000 0.0000 0.0000
# 3 -5.8939 -5.6259 63.0329 0.0000 0.0000 0.0000
# 4 0.0000 0.0000 0.0000 54.5717 0.0000 0.0000
# 5 0.0000 0.0000 0.0000 0.0000 25.3139 0.0000
# 6 0.0000 0.0000 0.0000 0.0000 0.0000 14.6719
#
#
#
# Elastic Compliance Matrix: (Units=1/GPa)
#
#
# Indices 1 2 3 4 5 6 
#
# 1 0.033875 0.007053 0.003797 0.000000 0.000000 0.000000
# 2 0.007053 0.017984 0.002265 0.000000 0.000000 0.000000
# 3 0.003797 0.002265 0.016422 0.000000 0.000000 0.000000
# 4 0.000000 0.000000 0.000000 0.018325 0.000000 0.000000
# 5 0.000000 0.000000 0.000000 0.000000 0.039504 0.000000
# 6 0.000000 0.000000 0.000000 0.000000 0.000000 0.068157
#
#
# Mechanical properties :
#
#
# Convention : Reuss Voigt Hill
#
# Bulk Modulus (GPa) = 10.58081 12.17537 11.37809
# Shear Modulus (GPa) = 25.05764 30.93698 27.99731
#
# Velocity S-wave (km/s) = 3.47892 3.86557 3.67733
# Velocity P-wave (km/s) = 4.60953 5.07979 4.85036
#
# Compressibility (1/GPa) = 0.09451076
#
# Stress axis : x y z
#
# Youngs Moduli (GPa) = 29.52072 55.60427 60.89429
#
# Poissons Ratio (x) = -0.39220 -0.23121
# Poissons Ratio (y) = -0.20822 -0.13791
# Poissons Ratio (z) = -0.11209 -0.12593
#
# Static dielectric constant tensor:
#      x y z
#    x 1.704000 0.000000 0.000000 
#    y 0.000000 1.750600 0.000000 
#    z 0.000000 0.000000 1.813010 
# 
# From -- ./inp_files/4411.got.cif
#   From: 2010.05.17/outbox.cif.g08.bks.cpg/sg33_3_cif.got.tgz:4411.got - 2010.06.03 17:15:25.
