data_PCOD9346310
_publ_section_title
;
Structure prediction by ZEFSAII (Michael W. Deem and Ramdas Pophale) SiO2 
 PCOD9346310
Probable space group: P N A 21
;
_chemical_formula_sum "Si O2"
_cell_formula_units_Z 20
_cell_length_a 5.260877
_cell_length_b 14.239408
_cell_length_c 9.945195
_cell_angle_alpha 90.000000
_cell_angle_beta 90.000000
_cell_angle_gamma 90.000000
_cell_volume 745.012201
_symmetry_space_group_name_H-M "P N A 21"
_symmetry_group_IT_number 33
_symmetry_cell_setting 'orthorhombic'
loop_
_space_group_symop_operation_xyz
x,y,z
-x,-y,1/2+z
1/2-x,1/2+y,1/2+z
1/2+x,1/2-y,z
loop_
_atom_site_type_symbol
_atom_site_label
_atom_site_fract_x
_atom_site_fract_y
_atom_site_fract_z
Si Si1 0.684811 0.029583 0.073480
Si Si2 0.469712 0.303568 0.383364
Si Si3 0.184811 0.529583 0.790337
Si Si4 0.030288 0.196432 0.980453
Si Si5 0.500000 0.362660 0.681909
O O1 0.776862 0.934142 0.142783
O O2 0.500000 0.074417 0.181909
O O3 0.922370 0.096411 0.032523
O O4 0.558071 0.000000 0.931909
O O5 0.194059 0.267605 0.341885
O O6 0.577630 0.403589 0.331294
O O7 0.451015 0.306887 0.545895
O O8 0.276861 0.434142 0.721035
O O9 0.305941 0.232395 0.021932
O O10 0.048986 0.193113 0.817923
#
# Coordination Sequence:
#
# PCOD9346310 Si02
#       5
#     4   4   4   4   4
#     4  10  25  44  75 106 147 197 250 302 365 443
#     4  11  26  45  71 109 148 190 241 309 367 429
#     4  10  25  44  75 106 147 197 250 302 365 443
#     4  11  26  45  71 109 148 190 241 309 367 429
#     4  10  24  44  72 102 144 204 248 290 358 456
#
# _framework density 26.845196999999999
#
# number of rings (size 3 to 8) (size 9 to 14) (size 15 to 20)
#    0.000    1.600    0.000    1.200   16.800    3.200 
#    0.000    0.000    0.000    0.000    0.000    0.000 
#    0.000    0.000    0.000    0.000    0.000    0.000 
#
# Total GULP energy -112109.077389 kJ/mol
# GULP energy per Si atom -5605.453869 kJ/mol
# Density = 2.678410 g / cm^3
# Si number density = 26.845197 Si / 1000 Ang^3
#
#
#
# Elastic Constant Matrix: (Units=GPa)
#
#
# Indices 1 2 3 4 5 6 
#
# 1 106.8033 36.3913 75.6901 0.0000 0.0000 0.0000
# 2 36.3913 90.4442 39.3651 0.0000 0.0000 0.0000
# 3 75.6901 39.3651 193.0472 0.0000 0.0000 0.0000
# 4 0.0000 0.0000 0.0000 33.3873 0.0000 0.0000
# 5 0.0000 0.0000 0.0000 0.0000 34.3143 0.0000
# 6 0.0000 0.0000 0.0000 0.0000 0.0000 29.8703
#
#
#
# Elastic Compliance Matrix: (Units=1/GPa)
#
#
# Indices 1 2 3 4 5 6 
#
# 1 0.013928 -0.003542 -0.004739 0.000000 0.000000 0.000000
# 2 -0.003542 0.013034 -0.001269 0.000000 0.000000 0.000000
# 3 -0.004739 -0.001269 0.007297 0.000000 0.000000 0.000000
# 4 0.000000 0.000000 0.000000 0.029952 0.000000 0.000000
# 5 0.000000 0.000000 0.000000 0.000000 0.029142 0.000000
# 6 0.000000 0.000000 0.000000 0.000000 0.000000 0.033478
#
#
# Mechanical properties :
#
#
# Convention : Reuss Voigt Hill
#
# Bulk Modulus (GPa) = 65.96422 77.02085 71.49253
# Shear Modulus (GPa) = 33.11629 35.43761 34.27695
#
# Velocity S-wave (km/s) = 3.51608 3.63722 3.57716
# Velocity P-wave (km/s) = 6.41164 6.81118 6.61443
#
# Compressibility (1/GPa) = 0.01515973
#
# Stress axis : x y z
#
# Youngs Moduli (GPa) = 71.79772 76.72264 137.04544
#
# Poissons Ratio (x) = 0.27172 0.64942
# Poissons Ratio (y) = 0.25428 0.17394
# Poissons Ratio (z) = 0.34023 0.09738
#
# Static dielectric constant tensor:
#      x y z
#    x 2.111230 0.000000 0.000000 
#    y 0.000000 2.059900 0.000000 
#    z 0.000000 0.000000 2.092490 
# 
# From -- ./inp_files/2647.got.cif
#   From: 2010.05.17/outbox.cif.g08.bks.cpg/sg33_2_cif.got.tgz:2647.got - 2010.06.03 17:15:25.
