data_PCOD9346506
_publ_section_title
;
Structure prediction by ZEFSAII (Michael W. Deem and Ramdas Pophale) SiO2 
 PCOD9346506
Probable space group: P N A 21
;
_chemical_formula_sum "Si O2"
_cell_formula_units_Z 32
_cell_length_a 9.884201
_cell_length_b 15.660519
_cell_length_c 10.248489
_cell_angle_alpha 90.000000
_cell_angle_beta 90.000000
_cell_angle_gamma 90.000000
_cell_volume 1586.381215
_symmetry_space_group_name_H-M "P N A 21"
_symmetry_group_IT_number 33
_symmetry_cell_setting 'orthorhombic'
loop_
_space_group_symop_operation_xyz
x,y,z
-x,-y,1/2+z
1/2-x,1/2+y,1/2+z
1/2+x,1/2-y,z
loop_
_atom_site_type_symbol
_atom_site_label
_atom_site_fract_x
_atom_site_fract_y
_atom_site_fract_z
Si Si1 0.783793 0.510605 0.261950
Si Si2 0.818563 0.343017 0.079092
Si Si3 0.632259 0.642099 0.078047
Si Si4 0.382094 0.610599 0.924621
Si Si5 0.890753 0.333797 0.562168
Si Si6 0.440213 0.734385 0.684940
Si Si7 0.076835 0.565090 0.325774
Si Si8 0.143489 0.373929 0.371432
O O1 0.824712 0.427520 0.173326
O O2 0.718693 0.584665 0.175245
O O3 0.672264 0.475643 0.361042
O O4 0.916612 0.545569 0.333325
O O5 0.664006 0.309974 0.085073
O O6 0.916909 0.268076 0.132052
O O7 0.870222 0.372525 0.938221
O O8 0.598713 0.738374 0.119380
O O9 0.493686 0.597983 0.034742
O O10 0.724613 0.651539 0.950278
O O11 0.442610 0.670588 0.809699
O O12 0.249618 0.654993 0.985406
O O13 0.897402 0.398527 0.682218
O O14 0.013502 0.352043 0.462536
O O15 0.371677 0.820202 0.740868
O O16 0.147043 0.474070 0.345421
#
# Coordination Sequence:
#
# PCOD9346506 Si02
#       8
#     4   4   4   4   4   4   4   4
#     4  11  24  43  69 100 138 178 235 281 335 421
#     4  11  24  43  68 101 137 177 226 280 346 409
#     4  12  23  42  66 104 133 172 227 286 343 397
#     4  11  24  41  68 102 134 171 229 287 341 396
#     4  12  23  42  69 103 133 180 229 280 339 413
#     4  11  21  42  69 100 130 173 229 282 332 411
#     4  12  24  42  68 100 138 178 228 279 338 419
#     4  12  21  41  73  96 129 185 229 271 334 414
#
# _framework density 20.171697000000002
#
# number of rings (size 3 to 8) (size 9 to 14) (size 15 to 20)
#    0.000    0.500    7.500    1.500    0.000    2.000 
#    0.000    3.750    0.000    0.000    0.000    0.000 
#    0.000    0.000    0.000    0.000    0.000    0.000 
#
# Total GULP energy -178885.656372 kJ/mol
# GULP energy per Si atom -5590.176762 kJ/mol
# Density = 2.012578 g / cm^3
# Si number density = 20.171697 Si / 1000 Ang^3
#
#
#
# Elastic Constant Matrix: (Units=GPa)
#
#
# Indices 1 2 3 4 5 6 
#
# 1 74.7431 13.6210 7.1597 0.0000 0.0000 0.0000
# 2 13.6210 69.3742 12.5825 0.0000 0.0000 0.0000
# 3 7.1597 12.5825 27.8752 0.0000 0.0000 0.0000
# 4 0.0000 0.0000 0.0000 18.9897 0.0000 0.0000
# 5 0.0000 0.0000 0.0000 0.0000 32.7524 0.0000
# 6 0.0000 0.0000 0.0000 0.0000 0.0000 27.1722
#
#
#
# Elastic Compliance Matrix: (Units=1/GPa)
#
#
# Indices 1 2 3 4 5 6 
#
# 1 0.014043 -0.002291 -0.002573 0.000000 0.000000 0.000000
# 2 -0.002291 0.016074 -0.006667 0.000000 0.000000 0.000000
# 3 -0.002573 -0.006667 0.039544 0.000000 0.000000 0.000000
# 4 0.000000 0.000000 0.000000 0.052660 0.000000 0.000000
# 5 0.000000 0.000000 0.000000 0.000000 0.030532 0.000000
# 6 0.000000 0.000000 0.000000 0.000000 0.000000 0.036802
#
#
# Mechanical properties :
#
#
# Convention : Reuss Voigt Hill
#
# Bulk Modulus (GPa) = 21.45930 26.52431 23.99180
# Shear Modulus (GPa) = 21.90580 25.02482 23.46531
#
# Velocity S-wave (km/s) = 3.29898 3.52602 3.41439
# Velocity P-wave (km/s) = 5.01721 5.45481 5.24058
#
# Compressibility (1/GPa) = 0.04659984
#
# Stress axis : x y z
#
# Youngs Moduli (GPa) = 71.20957 62.21408 25.28799
#
# Poissons Ratio (x) = 0.14251 0.06507
# Poissons Ratio (y) = 0.16311 0.16860
# Poissons Ratio (z) = 0.18322 0.41478
#
# Static dielectric constant tensor:
#      x y z
#    x 1.711800 0.000000 0.000000 
#    y 0.000000 1.751510 0.000000 
#    z 0.000000 0.000000 1.703290 
# 
# From -- ./inp_files/6035.got.cif
#   From: 2010.05.17/outbox.cif.g08.bks.cpg/sg33_4_cif.got.tgz:6035.got - 2010.06.03 17:15:25.
