data_PCOD9346223
_publ_section_title
;
Structure prediction by ZEFSAII (Michael W. Deem and Ramdas Pophale) SiO2 
 PCOD9346223
Probable space group: P N A 21
;
_chemical_formula_sum "Si O2"
_cell_formula_units_Z 28
_cell_length_a 8.692687
_cell_length_b 5.096820
_cell_length_c 25.518924
_cell_angle_alpha 90.000000
_cell_angle_beta 90.000000
_cell_angle_gamma 90.000000
_cell_volume 1130.617483
_symmetry_space_group_name_H-M "P N A 21"
_symmetry_group_IT_number 33
_symmetry_cell_setting 'orthorhombic'
loop_
_space_group_symop_operation_xyz
x,y,z
-x,-y,1/2+z
1/2-x,1/2+y,1/2+z
1/2+x,1/2-y,z
loop_
_atom_site_type_symbol
_atom_site_label
_atom_site_fract_x
_atom_site_fract_y
_atom_site_fract_z
Si Si1 0.503284 0.071756 0.101820
Si Si2 0.669542 0.406846 0.562672
Si Si3 0.522357 0.203716 0.457040
Si Si4 0.373166 0.505536 0.866032
Si Si5 0.871332 0.470487 0.717374
Si Si6 0.376348 0.697037 0.423212
Si Si7 0.795505 0.466180 0.255921
O O1 0.432683 0.347995 0.083214
O O2 0.372511 0.849226 0.096741
O O3 0.565587 0.057799 0.160922
O O4 0.652603 0.985130 0.068106
O O5 0.620563 0.312623 0.504932
O O6 0.597732 0.229455 0.398714
O O7 0.386060 0.420672 0.452217
O O8 0.463185 0.909868 0.459082
O O9 0.538787 0.367474 0.867663
O O10 0.278766 0.332626 0.907380
O O11 0.282985 0.527578 0.812981
O O12 0.742847 0.679656 0.733865
O O13 0.022174 0.485031 0.754473
O O14 0.793513 0.186049 0.721799
#
# Coordination Sequence:
#
# PCOD9346223 Si02
#       7
#     4   4   4   4   4   4   4
#     4  12  26  48  71 103 138 182 235 298 347 412
#     4  12  26  43  74 101 138 183 235 283 359 413
#     4  10  26  39  67  94 140 169 229 267 338 404
#     4  10  26  40  68  93 141 168 231 263 341 402
#     4  12  26  48  71 103 139 180 237 295 350 409
#     4  10  24  41  63  93 137 175 214 274 324 393
#     4  12  26  43  74 101 137 183 231 284 355 415
#
# _framework density 24.765228
#
# number of rings (size 3 to 8) (size 9 to 14) (size 15 to 20)
#    0.857    0.000    0.000    6.000   10.000    0.000 
#    0.000    0.000    0.000    0.000    0.000    0.000 
#    0.000    0.000    0.000    0.000    0.000    0.000 
#
# Total GULP energy -156659.892300 kJ/mol
# GULP energy per Si atom -5594.996154 kJ/mol
# Density = 2.470886 g / cm^3
# Si number density = 24.765228 Si / 1000 Ang^3
#
#
#
# Elastic Constant Matrix: (Units=GPa)
#
#
# Indices 1 2 3 4 5 6 
#
# 1 44.0996 0.2179 -14.5152 0.0000 0.0000 0.0000
# 2 0.2179 110.1421 18.1720 0.0000 0.0000 0.0000
# 3 -14.5152 18.1720 82.3810 0.0000 0.0000 0.0000
# 4 0.0000 0.0000 0.0000 26.6600 0.0000 0.0000
# 5 0.0000 0.0000 0.0000 0.0000 35.5957 0.0000
# 6 0.0000 0.0000 0.0000 0.0000 0.0000 21.6853
#
#
#
# Elastic Compliance Matrix: (Units=1/GPa)
#
#
# Indices 1 2 3 4 5 6 
#
# 1 0.024136 -0.000778 0.004424 0.000000 0.000000 0.000000
# 2 -0.000778 0.009447 -0.002221 0.000000 0.000000 0.000000
# 3 0.004424 -0.002221 0.013408 0.000000 0.000000 0.000000
# 4 0.000000 0.000000 0.000000 0.037509 0.000000 0.000000
# 5 0.000000 0.000000 0.000000 0.000000 0.028093 0.000000
# 6 0.000000 0.000000 0.000000 0.000000 0.000000 0.046114
#
#
# Mechanical properties :
#
#
# Convention : Reuss Voigt Hill
#
# Bulk Modulus (GPa) = 20.06320 27.15245 23.60783
# Shear Modulus (GPa) = 28.99035 32.30472 30.64753
#
# Velocity S-wave (km/s) = 3.42513 3.61562 3.52166
# Velocity P-wave (km/s) = 4.87452 5.33085 5.10779
#
# Compressibility (1/GPa) = 0.04984249
#
# Stress axis : x y z
#
# Youngs Moduli (GPa) = 41.43191 105.85208 74.58147
#
# Poissons Ratio (x) = 0.08232 -0.32996
# Poissons Ratio (y) = 0.03222 0.16564
# Poissons Ratio (z) = -0.18330 0.23509
#
# Static dielectric constant tensor:
#      x y z
#    x 2.020610 0.000000 0.000000 
#    y 0.000000 1.923550 0.000000 
#    z 0.000000 0.000000 1.978420 
# 
# From -- ./inp_files/9338.got.cif
#   From: 2010.05.17/outbox.cif.g08.bks.cpg/sg33_5_cif.got.tgz:9338.got - 2010.06.03 17:15:25.
