data_PCOD9346425
_publ_section_title
;
Structure prediction by ZEFSAII (Michael W. Deem and Ramdas Pophale) SiO2 
 PCOD9346425
Probable space group: P N A 21
;
_chemical_formula_sum "Si O2"
_cell_formula_units_Z 28
_cell_length_a 22.947145
_cell_length_b 6.804183
_cell_length_c 7.158282
_cell_angle_alpha 90.000000
_cell_angle_beta 90.000000
_cell_angle_gamma 90.000000
_cell_volume 1117.669627
_symmetry_space_group_name_H-M "P N A 21"
_symmetry_group_IT_number 33
_symmetry_cell_setting 'orthorhombic'
loop_
_space_group_symop_operation_xyz
x,y,z
-x,-y,1/2+z
1/2-x,1/2+y,1/2+z
1/2+x,1/2-y,z
loop_
_atom_site_type_symbol
_atom_site_label
_atom_site_fract_x
_atom_site_fract_y
_atom_site_fract_z
Si Si1 0.269910 0.865497 0.662480
Si Si2 0.542658 0.955164 0.919285
Si Si3 0.333647 0.649308 0.170759
Si Si4 0.756422 0.088754 0.596304
Si Si5 0.388480 0.697362 0.551525
Si Si6 0.087513 0.479067 0.509298
Si Si7 0.882132 0.209600 0.704473
O O1 0.213861 0.994409 0.588745
O O2 0.264004 0.892641 0.884449
O O3 0.315771 0.294548 0.631560
O O4 0.339078 0.859769 0.609009
O O5 0.555951 0.175069 0.995912
O O6 0.572548 0.946995 0.717620
O O7 0.473815 0.926389 0.913678
O O8 0.572679 0.804651 0.060148
O O9 0.366937 0.589077 0.358959
O O10 0.375991 0.777480 0.039462
O O11 0.289524 0.820001 0.238051
O O12 0.895952 0.975253 0.702106
O O13 0.757913 0.861510 0.630469
O O14 0.114105 0.661097 0.392596
#
# Coordination Sequence:
#
# PCOD9346425 Si02
#       7
#     4   4   4   4   4   4   4
#     4  11  23  48  72 114 154 207 259 321 395 490
#     4  11  24  51  77 112 156 207 268 343 390 477
#     4  11  25  45  74 116 151 205 261 327 398 468
#     4  11  27  42  76 112 158 205 258 324 393 479
#     4  10  25  48  77 110 156 209 264 324 400 481
#     4  11  26  47  85 112 158 208 270 338 401 466
#     4  11  24  51  73 114 155 209 262 329 393 481
#
# _framework density 25.052125
#
# number of rings (size 3 to 8) (size 9 to 14) (size 15 to 20)
#    0.000    1.143    4.286    0.857   10.000    0.000 
#   10.286    1.429    0.000    0.000    0.000    0.000 
#    0.000    0.000    0.000    0.000    0.000    0.000 
#
# Total GULP energy -156513.613690 kJ/mol
# GULP energy per Si atom -5589.771917 kJ/mol
# Density = 2.499510 g / cm^3
# Si number density = 25.052125 Si / 1000 Ang^3
#
#
#
# Elastic Constant Matrix: (Units=GPa)
#
#
# Indices 1 2 3 4 5 6 
#
# 1 106.1265 42.6605 12.3104 0.0000 0.0000 0.0000
# 2 42.6605 118.4658 46.1281 0.0000 0.0000 0.0000
# 3 12.3104 46.1281 110.4904 0.0000 0.0000 0.0000
# 4 0.0000 0.0000 0.0000 54.6950 0.0000 0.0000
# 5 0.0000 0.0000 0.0000 0.0000 34.5861 0.0000
# 6 0.0000 0.0000 0.0000 0.0000 0.0000 36.2592
#
#
#
# Elastic Compliance Matrix: (Units=1/GPa)
#
#
# Indices 1 2 3 4 5 6 
#
# 1 0.011042 -0.004176 0.000513 0.000000 0.000000 0.000000
# 2 -0.004176 0.011659 -0.004402 0.000000 0.000000 0.000000
# 3 0.000513 -0.004402 0.010831 0.000000 0.000000 0.000000
# 4 0.000000 0.000000 0.000000 0.018283 0.000000 0.000000
# 5 0.000000 0.000000 0.000000 0.000000 0.028913 0.000000
# 6 0.000000 0.000000 0.000000 0.000000 0.000000 0.027579
#
#
# Mechanical properties :
#
#
# Convention : Reuss Voigt Hill
#
# Bulk Modulus (GPa) = 57.46439 59.69783 58.58111
# Shear Modulus (GPa) = 38.39089 40.70697 39.54893
#
# Velocity S-wave (km/s) = 3.91889 4.03537 3.97755
# Velocity P-wave (km/s) = 6.59277 6.75229 6.67301
#
# Compressibility (1/GPa) = 0.01740208
#
# Stress axis : x y z
#
# Youngs Moduli (GPa) = 90.56420 85.76871 92.32527
#
# Poissons Ratio (x) = 0.35818 -0.04738
# Poissons Ratio (y) = 0.37821 0.40644
# Poissons Ratio (z) = -0.04648 0.37758
#
# Static dielectric constant tensor:
#      x y z
#    x 2.018690 0.000000 0.000000 
#    y 0.000000 1.986160 0.000000 
#    z 0.000000 0.000000 2.023890 
# 
# From -- ./inp_files/4939.got.cif
#   From: 2010.05.17/outbox.cif.g08.bks.cpg/sg33_3_cif.got.tgz:4939.got - 2010.06.03 17:15:25.
