data_PCOD9346792
_publ_section_title
;
Structure prediction by ZEFSAII (Michael W. Deem and Ramdas Pophale) SiO2 
 PCOD9346792
Probable space group: P N A 21
;
_chemical_formula_sum "Si O2"
_cell_formula_units_Z 20
_cell_length_a 13.422988
_cell_length_b 4.814159
_cell_length_c 11.330629
_cell_angle_alpha 90.000000
_cell_angle_beta 90.000000
_cell_angle_gamma 90.000000
_cell_volume 732.189761
_symmetry_space_group_name_H-M "P N A 21"
_symmetry_group_IT_number 33
_symmetry_cell_setting 'orthorhombic'
loop_
_space_group_symop_operation_xyz
x,y,z
-x,-y,1/2+z
1/2-x,1/2+y,1/2+z
1/2+x,1/2-y,z
loop_
_atom_site_type_symbol
_atom_site_label
_atom_site_fract_x
_atom_site_fract_y
_atom_site_fract_z
Si Si1 0.602478 0.434169 0.865600
Si Si2 0.416482 0.591621 0.101320
Si Si3 0.138427 0.741934 0.168650
Si Si4 0.756621 0.783648 0.566149
Si Si5 0.541128 0.046732 0.390569
O O1 0.540932 0.720999 0.850608
O O2 0.623158 0.337434 0.732300
O O3 0.525885 0.217150 0.924398
O O4 0.699085 0.421966 0.947648
O O5 0.357685 0.309993 0.072464
O O6 0.397874 0.792156 0.990760
O O7 0.535161 0.628212 0.119091
O O8 0.186326 0.509188 0.085345
O O9 0.108352 0.578110 0.286350
O O10 0.209887 0.008477 0.170243
#
# Coordination Sequence:
#
# PCOD9346792 Si02
#       5
#     4   4   4   4   4
#     4  11  24  48  79 121 167 209 292 348 426 528
#     4  11  26  50  86 114 169 223 272 356 443 495
#     4  11  25  50  77 125 167 216 283 353 424 522
#     4  12  25  50  79 121 168 212 286 352 432 520
#     4  11  24  48  83 113 167 222 273 353 437 501
#
# _framework density 27.315325000000001
#
# number of rings (size 3 to 8) (size 9 to 14) (size 15 to 20)
#    0.000    0.800    4.000    2.400    0.000    6.400 
#   18.000    0.000    0.000    0.000    0.000    0.000 
#    0.000    0.000    0.000    0.000    0.000    0.000 
#
# Total GULP energy -112032.606921 kJ/mol
# GULP energy per Si atom -5601.630346 kJ/mol
# Density = 2.725315 g / cm^3
# Si number density = 27.315325 Si / 1000 Ang^3
#
#
#
# Elastic Constant Matrix: (Units=GPa)
#
#
# Indices 1 2 3 4 5 6 
#
# 1 166.7525 89.0114 64.0072 0.0000 0.0000 0.0000
# 2 89.0114 210.2229 48.2590 0.0000 0.0000 0.0000
# 3 64.0072 48.2590 144.9613 0.0000 0.0000 0.0000
# 4 0.0000 0.0000 0.0000 49.8972 0.0000 0.0000
# 5 0.0000 0.0000 0.0000 0.0000 38.0680 0.0000
# 6 0.0000 0.0000 0.0000 0.0000 0.0000 81.4888
#
#
#
# Elastic Compliance Matrix: (Units=1/GPa)
#
#
# Indices 1 2 3 4 5 6 
#
# 1 0.008705 -0.003035 -0.002833 0.000000 0.000000 0.000000
# 2 -0.003035 0.006209 -0.000727 0.000000 0.000000 0.000000
# 3 -0.002833 -0.000727 0.008391 0.000000 0.000000 0.000000
# 4 0.000000 0.000000 0.000000 0.020041 0.000000 0.000000
# 5 0.000000 0.000000 0.000000 0.000000 0.026269 0.000000
# 6 0.000000 0.000000 0.000000 0.000000 0.000000 0.012272
#
#
# Mechanical properties :
#
#
# Convention : Reuss Voigt Hill
#
# Bulk Modulus (GPa) = 98.86728 102.72131 100.79429
# Shear Modulus (GPa) = 50.78826 55.26807 53.02816
#
# Velocity S-wave (km/s) = 4.31668 4.50303 4.41084
# Velocity P-wave (km/s) = 7.81782 8.04511 7.93228
#
# Compressibility (1/GPa) = 0.01011457
#
# Stress axis : x y z
#
# Youngs Moduli (GPa) = 114.88232 161.05969 119.17188
#
# Poissons Ratio (x) = 0.48886 0.33761
# Poissons Ratio (y) = 0.34870 0.08661
# Poissons Ratio (z) = 0.32546 0.11705
#
# Static dielectric constant tensor:
#      x y z
#    x 2.191120 0.000000 0.000000 
#    y 0.000000 2.105880 0.000000 
#    z 0.000000 0.000000 2.185470 
# 
# From -- ./inp_files/6889.got.cif
#   From: 2010.05.17/outbox.cif.g08.bks.cpg/sg33_4_cif.got.tgz:6889.got - 2010.06.03 17:15:25.
