data_PCOD9346535
_publ_section_title
;
Structure prediction by ZEFSAII (Michael W. Deem and Ramdas Pophale) SiO2 
 PCOD9346535
Probable space group: P N A 21
;
_chemical_formula_sum "Si O2"
_cell_formula_units_Z 32
_cell_length_a 9.777893
_cell_length_b 11.055287
_cell_length_c 14.795062
_cell_angle_alpha 90.000000
_cell_angle_beta 90.000000
_cell_angle_gamma 90.000000
_cell_volume 1599.307933
_symmetry_space_group_name_H-M "P N A 21"
_symmetry_group_IT_number 33
_symmetry_cell_setting 'orthorhombic'
loop_
_space_group_symop_operation_xyz
x,y,z
-x,-y,1/2+z
1/2-x,1/2+y,1/2+z
1/2+x,1/2-y,z
loop_
_atom_site_type_symbol
_atom_site_label
_atom_site_fract_x
_atom_site_fract_y
_atom_site_fract_z
Si Si1 0.114079 0.507886 0.346840
Si Si2 0.961288 0.984384 0.631030
Si Si3 0.650444 0.239663 0.433019
Si Si4 0.402848 0.513141 0.834444
Si Si5 0.723671 0.387512 0.683050
Si Si6 0.856598 0.887270 0.449484
Si Si7 0.898147 0.233223 0.554399
Si Si8 0.347300 0.828305 0.320088
O O1 0.096586 0.367083 0.368810
O O2 0.209323 0.532308 0.260881
O O3 0.204460 0.560757 0.430519
O O4 0.976961 0.582533 0.324843
O O5 0.117643 0.029285 0.629025
O O6 0.885388 0.111097 0.611506
O O7 0.937095 0.944813 0.733053
O O8 0.910122 0.898434 0.551469
O O9 0.648127 0.370869 0.388576
O O10 0.803442 0.215094 0.466725
O O11 0.550557 0.242932 0.519947
O O12 0.533916 0.460752 0.887700
O O13 0.290115 0.407708 0.824016
O O14 0.837166 0.338591 0.615055
O O15 0.657212 0.270700 0.737164
O O16 0.854761 0.753360 0.409662
#
# Coordination Sequence:
#
# PCOD9346535 Si02
#       8
#     4   4   4   4   4   4   4   4
#     4  11  23  42  65  98 133 166 220 280 330 391
#     4  12  22  39  68  98 128 176 227 262 332 400
#     4  12  25  42  65  97 139 175 211 275 348 391
#     4  12  23  43  68  96 135 180 216 270 340 404
#     4  11  22  40  70 102 124 174 230 276 317 398
#     4  11  22  42  67  95 131 177 218 276 330 391
#     4  12  22  41  67  97 127 173 232 271 314 405
#     4  11  23  39  70  97 129 165 230 276 329 380
#
# _framework density 20.008655999999998
#
# number of rings (size 3 to 8) (size 9 to 14) (size 15 to 20)
#    0.000    0.500    7.500    3.000    0.000    0.000 
#    0.000    5.000    0.000    0.000    0.000    0.000 
#    0.000    0.000    0.000    0.000    0.000    0.000 
#
# Total GULP energy -178728.755312 kJ/mol
# GULP energy per Si atom -5585.273603 kJ/mol
# Density = 1.996312 g / cm^3
# Si number density = 20.008656 Si / 1000 Ang^3
#
#
#
# Elastic Constant Matrix: (Units=GPa)
#
#
# Indices 1 2 3 4 5 6 
#
# 1 56.9934 -3.8003 0.8116 0.0000 0.0000 0.0000
# 2 -3.8003 50.8506 8.8266 0.0000 0.0000 0.0000
# 3 0.8116 8.8266 86.2447 0.0000 0.0000 0.0000
# 4 0.0000 0.0000 0.0000 35.5120 0.0000 0.0000
# 5 0.0000 0.0000 0.0000 0.0000 24.2816 0.0000
# 6 0.0000 0.0000 0.0000 0.0000 0.0000 18.5643
#
#
#
# Elastic Compliance Matrix: (Units=1/GPa)
#
#
# Indices 1 2 3 4 5 6 
#
# 1 0.017642 0.001372 -0.000306 0.000000 0.000000 0.000000
# 2 0.001372 0.020128 -0.002073 0.000000 0.000000 0.000000
# 3 -0.000306 -0.002073 0.011810 0.000000 0.000000 0.000000
# 4 0.000000 0.000000 0.000000 0.028159 0.000000 0.000000
# 5 0.000000 0.000000 0.000000 0.000000 0.041183 0.000000
# 6 0.000000 0.000000 0.000000 0.000000 0.000000 0.053867
#
#
# Mechanical properties :
#
#
# Convention : Reuss Voigt Hill
#
# Bulk Modulus (GPa) = 21.02424 22.86274 21.94349
# Shear Modulus (GPa) = 26.22481 28.22164 27.22323
#
# Velocity S-wave (km/s) = 3.62425 3.75970 3.69260
# Velocity P-wave (km/s) = 5.29566 5.50439 5.40103
#
# Compressibility (1/GPa) = 0.04756415
#
# Stress axis : x y z
#
# Youngs Moduli (GPa) = 56.68387 49.68260 84.67447
#
# Poissons Ratio (x) = -0.06815 0.02594
# Poissons Ratio (y) = -0.07775 0.17552
# Poissons Ratio (z) = 0.01737 0.10298
#
# Static dielectric constant tensor:
#      x y z
#    x 1.724000 0.000000 0.000000 
#    y 0.000000 1.688320 0.000000 
#    z 0.000000 0.000000 1.719580 
# 
# From -- ./inp_files/7640.got.cif
#   From: 2010.05.17/outbox.cif.g08.bks.cpg/sg33_4_cif.got.tgz:7640.got - 2010.06.03 17:15:25.
