data_PCOD9346728
_publ_section_title
;
Structure prediction by ZEFSAII (Michael W. Deem and Ramdas Pophale) SiO2 
 PCOD9346728
Probable space group: P N A 21
;
_chemical_formula_sum "Si O2"
_cell_formula_units_Z 16
_cell_length_a 11.146826
_cell_length_b 11.309652
_cell_length_c 5.049372
_cell_angle_alpha 90.000000
_cell_angle_beta 90.000000
_cell_angle_gamma 90.000000
_cell_volume 636.557781
_symmetry_space_group_name_H-M "P N A 21"
_symmetry_group_IT_number 33
_symmetry_cell_setting 'orthorhombic'
loop_
_space_group_symop_operation_xyz
x,y,z
-x,-y,1/2+z
1/2-x,1/2+y,1/2+z
1/2+x,1/2-y,z
loop_
_atom_site_type_symbol
_atom_site_label
_atom_site_fract_x
_atom_site_fract_y
_atom_site_fract_z
Si Si1 0.342338 0.837720 0.697070
Si Si2 0.582058 0.752864 0.540729
Si Si3 0.661346 0.011173 0.679149
Si Si4 0.568394 0.545314 0.192421
O O1 0.442777 0.740210 0.627474
O O2 0.350858 0.944378 0.480295
O O3 0.202690 0.798339 0.681073
O O4 0.376428 0.883263 0.986407
O O5 0.599893 0.892205 0.581437
O O6 0.583985 0.684830 0.259920
O O7 0.801913 0.996609 0.623194
O O8 0.523518 0.486742 0.464361
#
# Coordination Sequence:
#
# PCOD9346728 Si02
#       4
#     4   4   4   4
#     4  11  26  43  68 101 135 180 232 282 341 414
#     4  11  25  45  71  98 139 183 224 286 348 399
#     4  11  25  44  67 101 138 179 232 282 341 415
#     4  11  24  44  70 104 140 180 234 286 342 416
#
# _framework density 25.135190999999999
#
# number of rings (size 3 to 8) (size 9 to 14) (size 15 to 20)
#    0.000    1.000    0.000    6.000    0.000   14.000 
#    0.000    0.000    0.000    0.000    0.000    0.000 
#    0.000    0.000    0.000    0.000    0.000    0.000 
#
# Total GULP energy -89468.005835 kJ/mol
# GULP energy per Si atom -5591.750365 kJ/mol
# Density = 2.507798 g / cm^3
# Si number density = 25.135191 Si / 1000 Ang^3
#
#
#
# Elastic Constant Matrix: (Units=GPa)
#
#
# Indices 1 2 3 4 5 6 
#
# 1 142.0017 51.7485 11.4604 0.0000 0.0000 0.0000
# 2 51.7485 77.3819 9.1782 0.0000 0.0000 0.0000
# 3 11.4604 9.1782 75.1912 0.0000 0.0000 0.0000
# 4 0.0000 0.0000 0.0000 37.9405 0.0000 0.0000
# 5 0.0000 0.0000 0.0000 0.0000 21.5631 0.0000
# 6 0.0000 0.0000 0.0000 0.0000 0.0000 55.1218
#
#
#
# Elastic Compliance Matrix: (Units=1/GPa)
#
#
# Indices 1 2 3 4 5 6 
#
# 1 0.009345 -0.006170 -0.000671 0.000000 0.000000 0.000000
# 2 -0.006170 0.017186 -0.001157 0.000000 0.000000 0.000000
# 3 -0.000671 -0.001157 0.013543 0.000000 0.000000 0.000000
# 4 0.000000 0.000000 0.000000 0.026357 0.000000 0.000000
# 5 0.000000 0.000000 0.000000 0.000000 0.046376 0.000000
# 6 0.000000 0.000000 0.000000 0.000000 0.000000 0.018142
#
#
# Mechanical properties :
#
#
# Convention : Reuss Voigt Hill
#
# Bulk Modulus (GPa) = 41.53291 48.81655 45.17473
# Shear Modulus (GPa) = 32.26430 37.73761 35.00095
#
# Velocity S-wave (km/s) = 3.58667 3.87898 3.73568
# Velocity P-wave (km/s) = 5.80620 6.28695 6.05135
#
# Compressibility (1/GPa) = 0.02407729
#
# Stress axis : x y z
#
# Youngs Moduli (GPa) = 107.01306 58.18681 73.83879
#
# Poissons Ratio (x) = 0.35899 0.04956
# Poissons Ratio (y) = 0.66022 0.08547
# Poissons Ratio (z) = 0.07183 0.06735
#
# Static dielectric constant tensor:
#      x y z
#    x 1.986660 0.000000 0.000000 
#    y 0.000000 2.029480 0.000000 
#    z 0.000000 0.000000 1.928010 
# 
# From -- ./inp_files/671.got.cif
#   From: 2010.05.17/outbox.cif.g08.bks.cpg/sg33_1_cif.got.tgz:671.got - 2010.06.03 17:15:25.
