data_PCOD9346745
_publ_section_title
;
Structure prediction by ZEFSAII (Michael W. Deem and Ramdas Pophale) SiO2 
 PCOD9346745
Probable space group: P N A 21
;
_chemical_formula_sum "Si O2"
_cell_formula_units_Z 20
_cell_length_a 10.162717
_cell_length_b 14.056820
_cell_length_c 5.095082
_cell_angle_alpha 90.000000
_cell_angle_beta 90.000000
_cell_angle_gamma 90.000000
_cell_volume 727.860403
_symmetry_space_group_name_H-M "P N A 21"
_symmetry_group_IT_number 33
_symmetry_cell_setting 'orthorhombic'
loop_
_space_group_symop_operation_xyz
x,y,z
-x,-y,1/2+z
1/2-x,1/2+y,1/2+z
1/2+x,1/2-y,z
loop_
_atom_site_type_symbol
_atom_site_label
_atom_site_fract_x
_atom_site_fract_y
_atom_site_fract_z
Si Si1 0.704799 0.514520 0.555090
Si Si2 0.795907 0.180719 0.429054
Si Si3 0.392865 0.119285 0.297050
Si Si4 0.439141 0.835058 0.316028
Si Si5 0.023239 0.124219 0.778563
O O1 0.754864 0.601998 0.726894
O O2 0.804676 0.473798 0.342565
O O3 0.569423 0.551424 0.430526
O O4 0.662546 0.424650 0.730910
O O5 0.801763 0.285158 0.301395
O O6 0.484405 0.108745 0.044521
O O7 0.943142 0.149125 0.512243
O O8 0.480133 0.136654 0.555450
O O9 0.208481 0.325586 0.693456
O O10 0.465321 0.726324 0.410234
#
# Coordination Sequence:
#
# PCOD9346745 Si02
#       5
#     4   4   4   4   4
#     4  12  24  46  76 121 159 215 286 344 418 515
#     4  11  25  47  77 113 162 219 274 350 420 505
#     4  11  27  47  77 112 164 214 273 348 422 504
#     4  11  26  50  74 114 161 218 272 340 432 501
#     4  11  24  44  78 112 158 208 277 342 414 499
#
# _framework density 27.477796000000001
#
# number of rings (size 3 to 8) (size 9 to 14) (size 15 to 20)
#    0.000    0.800    6.000    0.000    5.600    0.000 
#    3.600    0.000    0.000    0.000    0.000    0.000 
#    0.000    0.000    0.000    0.000    0.000    0.000 
#
# Total GULP energy -112147.457082 kJ/mol
# GULP energy per Si atom -5607.372854 kJ/mol
# Density = 2.741526 g / cm^3
# Si number density = 27.477796 Si / 1000 Ang^3
#
#
#
# Elastic Constant Matrix: (Units=GPa)
#
#
# Indices 1 2 3 4 5 6 
#
# 1 114.4584 31.6002 44.9265 0.0000 0.0000 0.0000
# 2 31.6002 122.8644 24.3715 0.0000 0.0000 0.0000
# 3 44.9265 24.3715 151.7800 0.0000 0.0000 0.0000
# 4 0.0000 0.0000 0.0000 41.8142 0.0000 0.0000
# 5 0.0000 0.0000 0.0000 0.0000 52.4212 0.0000
# 6 0.0000 0.0000 0.0000 0.0000 0.0000 26.3229
#
#
#
# Elastic Compliance Matrix: (Units=1/GPa)
#
#
# Indices 1 2 3 4 5 6 
#
# 1 0.010399 -0.002132 -0.002736 0.000000 0.000000 0.000000
# 2 -0.002132 0.008844 -0.000789 0.000000 0.000000 0.000000
# 3 -0.002736 -0.000789 0.007525 0.000000 0.000000 0.000000
# 4 0.000000 0.000000 0.000000 0.023915 0.000000 0.000000
# 5 0.000000 0.000000 0.000000 0.000000 0.019076 0.000000
# 6 0.000000 0.000000 0.000000 0.000000 0.000000 0.037990
#
#
# Mechanical properties :
#
#
# Convention : Reuss Voigt Hill
#
# Bulk Modulus (GPa) = 64.70603 65.65548 65.18076
# Shear Modulus (GPa) = 40.25293 43.32530 41.78912
#
# Velocity S-wave (km/s) = 3.83159 3.97512 3.90402
# Velocity P-wave (km/s) = 6.57072 6.70930 6.64037
#
# Compressibility (1/GPa) = 0.01545451
#
# Stress axis : x y z
#
# Youngs Moduli (GPa) = 96.16072 113.07235 132.89083
#
# Poissons Ratio (x) = 0.24107 0.36357
# Poissons Ratio (y) = 0.20501 0.10485
# Poissons Ratio (z) = 0.26308 0.08922
#
# Static dielectric constant tensor:
#      x y z
#    x 2.161400 0.000000 0.000000 
#    y 0.000000 2.206960 0.000000 
#    z 0.000000 0.000000 2.155960 
# 
# From -- ./inp_files/757.got.cif
#   From: 2010.05.17/outbox.cif.g08.bks.cpg/sg33_1_cif.got.tgz:757.got - 2010.06.03 17:15:25.
