data_PCOD9346099
_publ_section_title
;
Structure prediction by ZEFSAII (Michael W. Deem and Ramdas Pophale) SiO2 
 PCOD9346099
Probable space group: P N A 21
;
_chemical_formula_sum "Si O2"
_cell_formula_units_Z 24
_cell_length_a 9.526034
_cell_length_b 10.888671
_cell_length_c 8.947528
_cell_angle_alpha 90.000000
_cell_angle_beta 90.000000
_cell_angle_gamma 90.000000
_cell_volume 928.089949
_symmetry_space_group_name_H-M "P N A 21"
_symmetry_group_IT_number 33
_symmetry_cell_setting 'orthorhombic'
loop_
_space_group_symop_operation_xyz
x,y,z
-x,-y,1/2+z
1/2-x,1/2+y,1/2+z
1/2+x,1/2-y,z
loop_
_atom_site_type_symbol
_atom_site_label
_atom_site_fract_x
_atom_site_fract_y
_atom_site_fract_z
Si Si1 0.507832 0.753084 0.585000
Si Si2 0.835427 0.756306 0.063308
Si Si3 0.418730 0.985389 0.212779
Si Si4 0.414207 0.361328 0.396120
Si Si5 0.729497 0.943327 0.269416
Si Si6 0.744977 0.610231 0.472689
O O1 0.517174 0.676339 0.738395
O O2 0.597304 0.677540 0.465933
O O3 0.357381 0.786349 0.521233
O O4 0.576133 0.883394 0.634423
O O5 0.905885 0.625240 0.095668
O O6 0.768527 0.807879 0.215738
O O7 0.711027 0.731948 0.944761
O O8 0.959586 0.845820 0.011381
O O9 0.293534 0.964950 0.329217
O O10 0.565211 0.962661 0.301162
O O11 0.335623 0.491590 0.383187
O O12 0.748515 0.020338 0.115212
#
# Coordination Sequence:
#
# PCOD9346099 Si02
#       6
#     4   4   4   4   4   4
#     4  10  23  44  69  97 132 184 225 284 352 399
#     4  12  24  45  68 103 139 181 228 280 350 411
#     4  11  24  41  72 100 139 184 223 292 345 416
#     4  11  24  46  72  96 141 178 230 289 335 421
#     4  10  24  45  66 105 134 186 232 279 351 401
#     4  10  23  43  69  97 135 177 234 282 341 422
#
# _framework density 25.859562
#
# number of rings (size 3 to 8) (size 9 to 14) (size 15 to 20)
#    0.000    1.333    1.667    4.000    9.333    0.000 
#   18.000    0.000    0.000    0.000    0.000    0.000 
#    0.000    0.000    0.000    0.000    0.000    0.000 
#
# Total GULP energy -134543.041076 kJ/mol
# GULP energy per Si atom -5605.960045 kJ/mol
# Density = 2.580070 g / cm^3
# Si number density = 25.859562 Si / 1000 Ang^3
#
#
#
# Elastic Constant Matrix: (Units=GPa)
#
#
# Indices 1 2 3 4 5 6 
#
# 1 101.5618 18.5958 17.8003 0.0000 0.0000 0.0000
# 2 18.5958 59.9353 -0.8363 0.0000 0.0000 0.0000
# 3 17.8003 -0.8363 65.3646 0.0000 0.0000 0.0000
# 4 0.0000 0.0000 0.0000 41.3712 0.0000 0.0000
# 5 0.0000 0.0000 0.0000 0.0000 38.5857 0.0000
# 6 0.0000 0.0000 0.0000 0.0000 0.0000 46.5814
#
#
#
# Elastic Compliance Matrix: (Units=1/GPa)
#
#
# Indices 1 2 3 4 5 6 
#
# 1 0.011013 -0.003459 -0.003043 0.000000 0.000000 0.000000
# 2 -0.003459 0.017774 0.001169 0.000000 0.000000 0.000000
# 3 -0.003043 0.001169 0.016143 0.000000 0.000000 0.000000
# 4 0.000000 0.000000 0.000000 0.024171 0.000000 0.000000
# 5 0.000000 0.000000 0.000000 0.000000 0.025916 0.000000
# 6 0.000000 0.000000 0.000000 0.000000 0.000000 0.021468
#
#
# Mechanical properties :
#
#
# Convention : Reuss Voigt Hill
#
# Bulk Modulus (GPa) = 29.18575 33.10904 31.14740
# Shear Modulus (GPa) = 36.08205 38.06113 37.07159
#
# Velocity S-wave (km/s) = 3.73943 3.84062 3.79036
# Velocity P-wave (km/s) = 5.47314 5.70073 5.58809
#
# Compressibility (1/GPa) = 0.03426330
#
# Stress axis : x y z
#
# Youngs Moduli (GPa) = 90.80155 56.26102 61.94808
#
# Poissons Ratio (x) = 0.19463 0.18853
# Poissons Ratio (y) = 0.31412 -0.07245
# Poissons Ratio (z) = 0.27634 -0.06580
#
# Static dielectric constant tensor:
#      x y z
#    x 1.976370 0.000000 0.000000 
#    y 0.000000 2.076040 0.000000 
#    z 0.000000 0.000000 2.024320 
# 
# From -- ./inp_files/3064.got.cif
#   From: 2010.05.17/outbox.cif.g08.bks.cpg/sg33_2_cif.got.tgz:3064.got - 2010.06.03 17:15:25.
