data_PCOD9346759
_publ_section_title
;
Structure prediction by ZEFSAII (Michael W. Deem and Ramdas Pophale) SiO2 
 PCOD9346759
Probable space group: P N A 21
;
_chemical_formula_sum "Si O2"
_cell_formula_units_Z 32
_cell_length_a 11.323695
_cell_length_b 22.136425
_cell_length_c 4.979628
_cell_angle_alpha 90.000000
_cell_angle_beta 90.000000
_cell_angle_gamma 90.000000
_cell_volume 1248.224055
_symmetry_space_group_name_H-M "P N A 21"
_symmetry_group_IT_number 33
_symmetry_cell_setting 'orthorhombic'
loop_
_space_group_symop_operation_xyz
x,y,z
-x,-y,1/2+z
1/2-x,1/2+y,1/2+z
1/2+x,1/2-y,z
loop_
_atom_site_type_symbol
_atom_site_label
_atom_site_fract_x
_atom_site_fract_y
_atom_site_fract_z
Si Si1 0.761540 0.166303 0.450840
Si Si2 0.647518 0.930534 0.983756
Si Si3 0.421998 0.429622 0.152648
Si Si4 0.414857 0.756105 0.590899
Si Si5 0.500757 0.686161 0.105097
Si Si6 0.977435 0.380640 0.000786
Si Si7 0.397247 0.567014 0.269897
Si Si8 0.307909 0.935417 0.345138
O O1 0.846003 0.123945 0.274825
O O2 0.693193 0.211864 0.253221
O O3 0.685542 0.118955 0.628357
O O4 0.858615 0.196382 0.652807
O O5 0.617204 0.886963 0.737689
O O6 0.648313 0.995385 0.830781
O O7 0.557949 0.915248 0.227264
O O8 0.769100 0.925334 0.146401
O O9 0.420206 0.495287 0.285234
O O10 0.554409 0.414615 0.061716
O O11 0.331714 0.442074 0.899431
O O12 0.411218 0.713023 0.330154
O O13 0.494787 0.810525 0.476375
O O14 0.475436 0.718931 0.827365
O O15 0.474715 0.614453 0.100961
O O16 0.103332 0.411461 0.077819
#
# Coordination Sequence:
#
# PCOD9346759 Si02
#       8
#     4   4   4   4   4   4   4   4
#     4  12  26  50  83 116 160 219 279 345 423 503
#     4  11  28  43  78 114 165 202 250 339 419 480
#     4  11  24  46  81 116 157 210 268 343 418 505
#     4  12  29  49  80 113 162 223 287 335 403 494
#     4  12  28  49  76 119 160 216 278 348 411 486
#     4  12  25  50  71 112 155 211 272 324 391 483
#     4  11  26  48  74 119 163 202 269 339 427 486
#     4  11  24  45  79 115 152 207 271 329 414 497
#
# _framework density 25.636424000000002
#
# number of rings (size 3 to 8) (size 9 to 14) (size 15 to 20)
#    0.000    0.500    2.500    4.500    3.500    6.000 
#    0.000    0.000    0.000    0.000    0.000    0.000 
#    0.000    0.000    0.000    0.000    0.000    0.000 
#
# Total GULP energy -178461.449993 kJ/mol
# GULP energy per Si atom -5576.920312 kJ/mol
# Density = 2.557807 g / cm^3
# Si number density = 25.636424 Si / 1000 Ang^3
#
#
#
# Elastic Constant Matrix: (Units=GPa)
#
#
# Indices 1 2 3 4 5 6 
#
# 1 100.8488 41.1913 22.5461 0.0000 0.0000 0.0000
# 2 41.1913 112.2184 23.1121 0.0000 0.0000 0.0000
# 3 22.5461 23.1121 109.2293 0.0000 0.0000 0.0000
# 4 0.0000 0.0000 0.0000 34.4367 0.0000 0.0000
# 5 0.0000 0.0000 0.0000 0.0000 36.2139 0.0000
# 6 0.0000 0.0000 0.0000 0.0000 0.0000 36.6969
#
#
#
# Elastic Compliance Matrix: (Units=1/GPa)
#
#
# Indices 1 2 3 4 5 6 
#
# 1 0.011928 -0.004048 -0.001606 0.000000 0.000000 0.000000
# 2 -0.004048 0.010691 -0.001427 0.000000 0.000000 0.000000
# 3 -0.001606 -0.001427 0.009788 0.000000 0.000000 0.000000
# 4 0.000000 0.000000 0.000000 0.029039 0.000000 0.000000
# 5 0.000000 0.000000 0.000000 0.000000 0.027614 0.000000
# 6 0.000000 0.000000 0.000000 0.000000 0.000000 0.027250
#
#
# Mechanical properties :
#
#
# Convention : Reuss Voigt Hill
#
# Bulk Modulus (GPa) = 54.80246 55.11062 54.95654
# Shear Modulus (GPa) = 36.61607 37.16598 36.89102
#
# Velocity S-wave (km/s) = 3.78336 3.81167 3.79754
# Velocity P-wave (km/s) = 6.36461 6.39652 6.38058
#
# Compressibility (1/GPa) = 0.01824736
#
# Stress axis : x y z
#
# Youngs Moduli (GPa) = 83.83598 93.53871 102.16248
#
# Poissons Ratio (x) = 0.37861 0.16403
# Poissons Ratio (y) = 0.33934 0.14575
# Poissons Ratio (z) = 0.13461 0.13344
#
# Static dielectric constant tensor:
#      x y z
#    x 2.136340 0.000000 0.000000 
#    y 0.000000 2.033980 0.000000 
#    z 0.000000 0.000000 2.200360 
# 
# From -- ./inp_files/1091.got.cif
#   From: 2010.05.17/outbox.cif.g08.bks.cpg/sg33_1_cif.got.tgz:1091.got - 2010.06.03 17:15:25.
