data_PCOD9346628
_publ_section_title
;
Structure prediction by ZEFSAII (Michael W. Deem and Ramdas Pophale) SiO2 
 PCOD9346628
Probable space group: P N A 21
;
_chemical_formula_sum "Si O2"
_cell_formula_units_Z 32
_cell_length_a 14.724215
_cell_length_b 12.048145
_cell_length_c 8.745544
_cell_angle_alpha 90.000000
_cell_angle_beta 90.000000
_cell_angle_gamma 90.000000
_cell_volume 1551.454935
_symmetry_space_group_name_H-M "P N A 21"
_symmetry_group_IT_number 33
_symmetry_cell_setting 'orthorhombic'
loop_
_space_group_symop_operation_xyz
x,y,z
-x,-y,1/2+z
1/2-x,1/2+y,1/2+z
1/2+x,1/2-y,z
loop_
_atom_site_type_symbol
_atom_site_label
_atom_site_fract_x
_atom_site_fract_y
_atom_site_fract_z
Si Si1 0.331317 0.380021 0.169090
Si Si2 0.510353 0.278819 0.008558
Si Si3 0.830438 0.773721 0.757027
Si Si4 0.261912 0.496663 0.891505
Si Si5 0.047584 0.882195 0.939590
Si Si6 0.965264 0.647881 0.971257
Si Si7 0.445991 0.937196 0.321535
Si Si8 0.059160 0.944665 0.277324
O O1 0.418255 0.315328 0.096880
O O2 0.247245 0.299130 0.179006
O O3 0.365223 0.409676 0.338214
O O4 0.297915 0.482514 0.065376
O O5 0.594291 0.290624 0.123888
O O6 0.513804 0.157047 0.934283
O O7 0.507900 0.361146 0.863361
O O8 0.779878 0.882317 0.822382
O O9 0.876231 0.702797 0.894588
O O10 0.159449 0.458515 0.864983
O O11 0.335588 0.417871 0.806354
O O12 0.043939 0.942485 0.099935
O O13 0.963786 0.936104 0.848461
O O14 0.035596 0.751506 0.967409
O O15 0.954136 0.602011 0.144264
O O16 0.000821 0.550562 0.860375
#
# Coordination Sequence:
#
# PCOD9346628 Si02
#       8
#     4   4   4   4   4   4   4   4
#     4  11  25  42  73 104 146 188 246 303 365 439
#     4  11  23  47  74 105 147 194 241 304 372 432
#     4  12  24  47  72 107 143 192 247 305 364 439
#     4  11  24  44  72 106 145 186 250 308 363 438
#     4  12  23  44  70 106 137 193 241 302 370 432
#     4  12  27  47  73 102 148 195 244 296 371 448
#     4  12  27  48  74 104 154 199 244 300 377 448
#     4  11  23  43  72 104 142 185 245 306 366 430
#
# _framework density 20.625799000000001
#
# number of rings (size 3 to 8) (size 9 to 14) (size 15 to 20)
#    0.000    0.500    5.000    3.750    3.500    0.000 
#    0.000    0.000    2.750    0.000    0.000    0.000 
#    0.000    0.000    0.000    0.000    0.000    0.000 
#
# Total GULP energy -178706.543956 kJ/mol
# GULP energy per Si atom -5584.579499 kJ/mol
# Density = 2.057885 g / cm^3
# Si number density = 20.625799 Si / 1000 Ang^3
#
#
#
# Elastic Constant Matrix: (Units=GPa)
#
#
# Indices 1 2 3 4 5 6 
#
# 1 64.4593 7.8487 26.4053 0.0000 0.0000 0.0000
# 2 7.8487 101.2910 38.8967 0.0000 0.0000 0.0000
# 3 26.4053 38.8967 153.2636 0.0000 0.0000 0.0000
# 4 0.0000 0.0000 0.0000 45.1553 0.0000 0.0000
# 5 0.0000 0.0000 0.0000 0.0000 24.2886 0.0000
# 6 0.0000 0.0000 0.0000 0.0000 0.0000 27.7490
#
#
#
# Elastic Compliance Matrix: (Units=1/GPa)
#
#
# Indices 1 2 3 4 5 6 
#
# 1 0.016696 -0.000210 -0.002823 0.000000 0.000000 0.000000
# 2 -0.000210 0.010941 -0.002741 0.000000 0.000000 0.000000
# 3 -0.002823 -0.002741 0.007707 0.000000 0.000000 0.000000
# 4 0.000000 0.000000 0.000000 0.022146 0.000000 0.000000
# 5 0.000000 0.000000 0.000000 0.000000 0.041172 0.000000
# 6 0.000000 0.000000 0.000000 0.000000 0.000000 0.036037
#
#
# Mechanical properties :
#
#
# Convention : Reuss Voigt Hill
#
# Bulk Modulus (GPa) = 42.02269 51.70169 46.86219
# Shear Modulus (GPa) = 32.43014 35.82946 34.12980
#
# Velocity S-wave (km/s) = 3.96954 4.17240 4.07223
# Velocity P-wave (km/s) = 6.43644 6.95218 6.69927
#
# Compressibility (1/GPa) = 0.02379667
#
# Stress axis : x y z
#
# Youngs Moduli (GPa) = 59.89562 91.39743 129.75766
#
# Poissons Ratio (x) = 0.01915 0.36634
# Poissons Ratio (y) = 0.01255 0.35562
# Poissons Ratio (z) = 0.16910 0.25049
#
# Static dielectric constant tensor:
#      x y z
#    x 1.752130 0.000000 0.000000 
#    y 0.000000 1.760570 0.000000 
#    z 0.000000 0.000000 1.768040 
# 
# From -- ./inp_files/4460.got.cif
#   From: 2010.05.17/outbox.cif.g08.bks.cpg/sg33_3_cif.got.tgz:4460.got - 2010.06.03 17:15:25.
