data_PCOD9346271
_publ_section_title
;
Structure prediction by ZEFSAII (Michael W. Deem and Ramdas Pophale) SiO2 
 PCOD9346271
Probable space group: P N A 21
;
_chemical_formula_sum "Si O2"
_cell_formula_units_Z 24
_cell_length_a 12.954506
_cell_length_b 7.190693
_cell_length_c 10.780104
_cell_angle_alpha 90.000000
_cell_angle_beta 90.000000
_cell_angle_gamma 90.000000
_cell_volume 1004.186907
_symmetry_space_group_name_H-M "P N A 21"
_symmetry_group_IT_number 33
_symmetry_cell_setting 'orthorhombic'
loop_
_space_group_symop_operation_xyz
x,y,z
-x,-y,1/2+z
1/2-x,1/2+y,1/2+z
1/2+x,1/2-y,z
loop_
_atom_site_type_symbol
_atom_site_label
_atom_site_fract_x
_atom_site_fract_y
_atom_site_fract_z
Si Si1 0.631176 0.735028 0.278140
Si Si2 0.733779 0.572722 0.737469
Si Si3 0.368824 0.764972 0.949341
Si Si4 0.997764 0.900626 0.724051
Si Si5 0.502235 0.900626 0.503430
Si Si6 0.266221 0.927278 0.490013
O O1 0.683985 0.907567 0.211431
O O2 0.576121 0.577113 0.197735
O O3 0.548864 0.808417 0.379172
O O4 0.723440 0.655172 0.362810
O O5 0.776559 0.655172 0.864672
O O6 0.613686 0.534370 0.752167
O O7 0.750000 0.698592 0.613741
O O8 0.451135 0.691583 0.848309
O O9 0.316015 0.592433 0.016051
O O10 0.423879 0.922887 0.029746
O O11 1.000000 0.750000 0.613740
O O12 0.386313 0.965629 0.475314
#
# Coordination Sequence:
#
# PCOD9346271 Si02
#       6
#     4   4   4   4   4   4
#     4  10  24  43  66  99 137 175 222 281 339 398
#     4  11  22  43  65  98 132 176 225 275 340 400
#     4  10  24  43  66  99 137 175 222 281 339 398
#     4  11  22  44  70  98 136 176 225 280 337 403
#     4  11  22  44  70  98 136 176 225 280 337 403
#     4  11  22  43  65  98 132 176 225 275 340 400
#
# _framework density 23.899933999999998
#
# number of rings (size 3 to 8) (size 9 to 14) (size 15 to 20)
#    0.000    1.333    3.333    2.000    0.000    1.333 
#   18.000    0.000    0.000    0.000    0.000    0.000 
#    0.000    0.000    0.000    0.000    0.000    0.000 
#
# Total GULP energy -134159.513676 kJ/mol
# GULP energy per Si atom -5589.979736 kJ/mol
# Density = 2.384554 g / cm^3
# Si number density = 23.899934 Si / 1000 Ang^3
#
#
#
# Elastic Constant Matrix: (Units=GPa)
#
#
# Indices 1 2 3 4 5 6 
#
# 1 179.8858 48.4511 45.8711 0.0000 0.0000 0.0000
# 2 48.4511 81.8683 17.9222 0.0000 0.0000 0.0000
# 3 45.8711 17.9222 71.8327 0.0000 0.0000 0.0000
# 4 0.0000 0.0000 0.0000 79.8146 0.0000 0.0000
# 5 0.0000 0.0000 0.0000 0.0000 37.5060 0.0000
# 6 0.0000 0.0000 0.0000 0.0000 0.0000 13.7611
#
#
#
# Elastic Compliance Matrix: (Units=1/GPa)
#
#
# Indices 1 2 3 4 5 6 
#
# 1 0.007525 -0.003598 -0.003907 0.000000 0.000000 0.000000
# 2 -0.003598 0.014641 -0.001355 0.000000 0.000000 0.000000
# 3 -0.003907 -0.001355 0.016755 0.000000 0.000000 0.000000
# 4 0.000000 0.000000 0.000000 0.012529 0.000000 0.000000
# 5 0.000000 0.000000 0.000000 0.000000 0.026662 0.000000
# 6 0.000000 0.000000 0.000000 0.000000 0.000000 0.072669
#
#
# Mechanical properties :
#
#
# Convention : Reuss Voigt Hill
#
# Bulk Modulus (GPa) = 47.17261 62.00841 54.59051
# Shear Modulus (GPa) = 28.47911 40.97248 34.72580
#
# Velocity S-wave (km/s) = 3.45570 4.14494 3.81591
# Velocity P-wave (km/s) = 5.97519 6.99348 6.50429
#
# Compressibility (1/GPa) = 0.02119874
#
# Stress axis : x y z
#
# Youngs Moduli (GPa) = 132.89914 68.30291 59.68514
#
# Poissons Ratio (x) = 0.24574 0.23321
# Poissons Ratio (y) = 0.47814 0.08090
# Poissons Ratio (z) = 0.51929 0.09258
#
# Static dielectric constant tensor:
#      x y z
#    x 1.917340 0.000000 0.000000 
#    y 0.000000 1.986570 0.000000 
#    z 0.000000 0.000000 2.040150 
# 
# From -- ./inp_files/6295.got.cif
#   From: 2010.05.17/outbox.cif.g08.bks.cpg/sg33_4_cif.got.tgz:6295.got - 2010.06.03 17:15:25.
