data_PCOD9346319
_publ_section_title
;
Structure prediction by ZEFSAII (Michael W. Deem and Ramdas Pophale) SiO2 
 PCOD9346319
Probable space group: P N A 21
;
_chemical_formula_sum "Si O2"
_cell_formula_units_Z 24
_cell_length_a 10.641306
_cell_length_b 9.972329
_cell_length_c 9.271822
_cell_angle_alpha 90.000000
_cell_angle_beta 90.000000
_cell_angle_gamma 90.000000
_cell_volume 983.912811
_symmetry_space_group_name_H-M "P N A 21"
_symmetry_group_IT_number 33
_symmetry_cell_setting 'orthorhombic'
loop_
_space_group_symop_operation_xyz
x,y,z
-x,-y,1/2+z
1/2-x,1/2+y,1/2+z
1/2+x,1/2-y,z
loop_
_atom_site_type_symbol
_atom_site_label
_atom_site_fract_x
_atom_site_fract_y
_atom_site_fract_z
Si Si1 0.135040 0.437252 0.986400
Si Si2 0.754120 0.725353 0.828503
Si Si3 0.130002 0.920001 0.063478
Si Si4 0.097301 0.008722 0.365288
Si Si5 0.092662 0.547464 0.286664
Si Si6 0.269971 0.184589 0.036121
O O1 0.280951 0.461379 0.952735
O O2 0.145327 0.277472 0.018596
O O3 0.046000 0.463130 0.851637
O O4 0.087446 0.533698 0.114115
O O5 0.860198 0.839071 0.829617
O O6 0.820604 0.582622 0.813596
O O7 0.671489 0.754244 0.684406
O O8 0.680213 0.710153 0.979217
O O9 0.076950 0.917045 0.224621
O O10 0.025499 0.982767 0.960205
O O11 0.238194 0.031646 0.076936
O O12 0.156488 0.665040 0.384801
#
# Coordination Sequence:
#
# PCOD9346319 Si02
#       6
#     4   4   4   4   4   4
#     4  11  26  43  69 104 139 186 241 292 363 424
#     4   9  22  44  71  96 137 188 229 289 358 415
#     4  10  24  45  70  99 140 182 241 293 356 425
#     4  11  26  43  69 104 139 186 241 292 363 424
#     4  10  24  45  70  99 140 182 241 293 356 425
#     4   9  22  44  71  96 137 188 229 289 358 415
#
# _framework density 24.392403000000002
#
# number of rings (size 3 to 8) (size 9 to 14) (size 15 to 20)
#    0.000    2.000    0.000    0.000   18.667    2.667 
#    0.000    0.000    0.000    0.000    0.000    0.000 
#    0.000    0.000    0.000    0.000    0.000    0.000 
#
# Total GULP energy -133861.392263 kJ/mol
# GULP energy per Si atom -5577.558011 kJ/mol
# Density = 2.433688 g / cm^3
# Si number density = 24.392403 Si / 1000 Ang^3
#
#
#
# Elastic Constant Matrix: (Units=GPa)
#
#
# Indices 1 2 3 4 5 6 
#
# 1 35.8569 9.5644 23.4393 0.0000 0.0000 0.0000
# 2 9.5644 93.8534 57.5813 0.0000 0.0000 0.0000
# 3 23.4393 57.5813 137.2427 0.0000 0.0000 0.0000
# 4 0.0000 0.0000 0.0000 41.7733 0.0000 0.0000
# 5 0.0000 0.0000 0.0000 0.0000 49.0940 0.0000
# 6 0.0000 0.0000 0.0000 0.0000 0.0000 6.5796
#
#
#
# Elastic Compliance Matrix: (Units=1/GPa)
#
#
# Indices 1 2 3 4 5 6 
#
# 1 0.031394 0.000122 -0.005413 0.000000 0.000000 0.000000
# 2 0.000122 0.014349 -0.006041 0.000000 0.000000 0.000000
# 3 -0.005413 -0.006041 0.010745 0.000000 0.000000 0.000000
# 4 0.000000 0.000000 0.000000 0.023939 0.000000 0.000000
# 5 0.000000 0.000000 0.000000 0.000000 0.020369 0.000000
# 6 0.000000 0.000000 0.000000 0.000000 0.000000 0.151986
#
#
# Mechanical properties :
#
#
# Convention : Reuss Voigt Hill
#
# Bulk Modulus (GPa) = 29.56458 49.79144 39.67801
# Shear Modulus (GPa) = 17.43853 31.24723 24.34288
#
# Velocity S-wave (km/s) = 2.67669 3.58302 3.16249
# Velocity P-wave (km/s) = 4.65829 6.12979 5.44399
#
# Compressibility (1/GPa) = 0.03382426
#
# Stress axis : x y z
#
# Youngs Moduli (GPa) = 31.85276 69.69238 93.06396
#
# Poissons Ratio (x) = -0.00847 0.50373
# Poissons Ratio (y) = -0.00387 0.56219
# Poissons Ratio (z) = 0.17241 0.42100
#
# Static dielectric constant tensor:
#      x y z
#    x 1.910600 0.000000 0.000000 
#    y 0.000000 2.081550 0.000000 
#    z 0.000000 0.000000 2.139330 
# 
# From -- ./inp_files/3804.got.cif
#   From: 2010.05.17/outbox.cif.g08.bks.cpg/sg33_2_cif.got.tgz:3804.got - 2010.06.03 17:15:25.
