data_PCOD9346688
_publ_section_title
;
Structure prediction by ZEFSAII (Michael W. Deem and Ramdas Pophale) SiO2 
 PCOD9346688
Probable space group: P N A 21
;
_chemical_formula_sum "Si O2"
_cell_formula_units_Z 24
_cell_length_a 9.352711
_cell_length_b 9.763227
_cell_length_c 11.863672
_cell_angle_alpha 90.000000
_cell_angle_beta 90.000000
_cell_angle_gamma 90.000000
_cell_volume 1083.303217
_symmetry_space_group_name_H-M "P N A 21"
_symmetry_group_IT_number 33
_symmetry_cell_setting 'orthorhombic'
loop_
_space_group_symop_operation_xyz
x,y,z
-x,-y,1/2+z
1/2-x,1/2+y,1/2+z
1/2+x,1/2-y,z
loop_
_atom_site_type_symbol
_atom_site_label
_atom_site_fract_x
_atom_site_fract_y
_atom_site_fract_z
Si Si1 0.466259 0.817545 0.626480
Si Si2 0.832492 0.402848 0.325019
Si Si3 0.584841 0.481818 0.161000
Si Si4 0.761062 0.955882 0.205940
Si Si5 0.089926 0.532101 0.432967
Si Si6 0.257696 0.291165 0.532476
O O1 0.563299 0.823973 0.738520
O O2 0.404736 0.668206 0.607139
O O3 0.572826 0.853972 0.526226
O O4 0.342320 0.931274 0.645835
O O5 0.702190 0.473709 0.260010
O O6 0.785215 0.297375 0.420926
O O7 0.934397 0.516560 0.378265
O O8 0.425101 0.499107 0.205881
O O9 0.621745 0.601186 0.072651
O O10 0.700720 0.943434 0.332588
O O11 0.757211 0.815594 0.134616
O O12 0.126674 0.391525 0.500088
#
# Coordination Sequence:
#
# PCOD9346688 Si02
#       6
#     4   4   4   4   4   4
#     4  11  23  50  73 109 151 198 244 313 371 442
#     4  11  23  48  79 104 147 197 243 308 374 439
#     4  12  26  47  78 113 143 194 258 303 376 446
#     4  11  27  46  76 113 148 196 253 305 376 442
#     4  11  24  48  74 104 156 193 244 312 371 440
#     4  12  25  49  78 109 149 200 248 309 372 447
#
# _framework density 22.154464000000001
#
# number of rings (size 3 to 8) (size 9 to 14) (size 15 to 20)
#    0.000    0.667    3.333    5.000    0.000    1.333 
#   12.000    0.000    0.000    0.000    0.000    0.000 
#    0.000    0.000    0.000    0.000    0.000    0.000 
#
# Total GULP energy -134293.952438 kJ/mol
# GULP energy per Si atom -5595.581352 kJ/mol
# Density = 2.210404 g / cm^3
# Si number density = 22.154464 Si / 1000 Ang^3
#
#
#
# Elastic Constant Matrix: (Units=GPa)
#
#
# Indices 1 2 3 4 5 6 
#
# 1 111.6970 13.1394 25.2490 0.0000 0.0000 0.0000
# 2 13.1394 63.4319 48.1644 0.0000 0.0000 0.0000
# 3 25.2490 48.1644 90.2564 0.0000 0.0000 0.0000
# 4 0.0000 0.0000 0.0000 10.5695 0.0000 0.0000
# 5 0.0000 0.0000 0.0000 0.0000 30.7041 0.0000
# 6 0.0000 0.0000 0.0000 0.0000 0.0000 31.4833
#
#
#
# Elastic Compliance Matrix: (Units=1/GPa)
#
#
# Indices 1 2 3 4 5 6 
#
# 1 0.009557 0.000085 -0.002719 0.000000 0.000000 0.000000
# 2 0.000085 0.026505 -0.014168 0.000000 0.000000 0.000000
# 3 -0.002719 -0.014168 0.019401 0.000000 0.000000 0.000000
# 4 0.000000 0.000000 0.000000 0.094612 0.000000 0.000000
# 5 0.000000 0.000000 0.000000 0.000000 0.032569 0.000000
# 6 0.000000 0.000000 0.000000 0.000000 0.000000 0.031763
#
#
# Mechanical properties :
#
#
# Convention : Reuss Voigt Hill
#
# Bulk Modulus (GPa) = 45.74737 48.72122 47.23429
# Shear Modulus (GPa) = 19.58496 26.47354 23.02925
#
# Velocity S-wave (km/s) = 2.97647 3.46056 3.22760
# Velocity P-wave (km/s) = 5.70146 6.16495 5.93773
#
# Compressibility (1/GPa) = 0.02185918
#
# Stress axis : x y z
#
# Youngs Moduli (GPa) = 104.63065 37.72838 51.54441
#
# Poissons Ratio (x) = -0.00320 0.14014
# Poissons Ratio (y) = -0.00887 0.73028
# Poissons Ratio (z) = 0.28448 0.53453
#
# Static dielectric constant tensor:
#      x y z
#    x 1.825010 0.000000 0.000000 
#    y 0.000000 1.832060 0.000000 
#    z 0.000000 0.000000 1.823630 
# 
# From -- ./inp_files/5757.got.cif
#   From: 2010.05.17/outbox.cif.g08.bks.cpg/sg33_3_cif.got.tgz:5757.got - 2010.06.03 17:15:25.
