data_PCOD9346258
_publ_section_title
;
Structure prediction by ZEFSAII (Michael W. Deem and Ramdas Pophale) SiO2 
 PCOD9346258
Probable space group: P N A 21
;
_chemical_formula_sum "Si O2"
_cell_formula_units_Z 32
_cell_length_a 5.434670
_cell_length_b 31.188300
_cell_length_c 7.836898
_cell_angle_alpha 90.000000
_cell_angle_beta 90.000000
_cell_angle_gamma 90.000000
_cell_volume 1328.339465
_symmetry_space_group_name_H-M "P N A 21"
_symmetry_group_IT_number 33
_symmetry_cell_setting 'orthorhombic'
loop_
_space_group_symop_operation_xyz
x,y,z
-x,-y,1/2+z
1/2-x,1/2+y,1/2+z
1/2+x,1/2-y,z
loop_
_atom_site_type_symbol
_atom_site_label
_atom_site_fract_x
_atom_site_fract_y
_atom_site_fract_z
Si Si1 0.725382 0.917932 0.486050
Si Si2 0.470982 0.761193 0.274255
Si Si3 0.572371 0.638461 0.697669
Si Si4 0.993985 0.772918 0.888321
Si Si5 0.375867 0.435562 0.731095
Si Si6 0.358134 0.855799 0.338834
Si Si7 0.582148 0.550462 0.865804
Si Si8 0.069297 0.514854 0.720768
O O1 0.591543 0.886662 0.354925
O O2 0.536100 0.952802 0.560865
O O3 0.823665 0.883188 0.623450
O O4 0.960987 0.940994 0.400407
O O5 0.229220 0.744294 0.367784
O O6 0.425694 0.811416 0.252786
O O7 0.489018 0.734525 0.096007
O O8 0.529105 0.679478 0.815840
O O9 0.739179 0.648981 0.529755
O O10 0.666311 0.597941 0.806878
O O11 0.231788 0.745806 0.830107
O O12 0.325909 0.384914 0.730796
O O13 0.510442 0.448389 0.559341
O O14 0.130986 0.464666 0.712586
O O15 0.341761 0.532368 0.772439
O O16 0.827373 0.523056 0.831762
#
# Coordination Sequence:
#
# PCOD9346258 Si02
#       8
#     4   4   4   4   4   4   4   4
#     4  10  24  47  68 104 145 196 232 302 353 440
#     4  10  25  46  69 100 137 176 229 298 354 428
#     4  10  24  45  70  98 142 184 240 288 367 427
#     4  10  24  42  70  99 132 178 227 297 350 425
#     4  11  27  40  75 104 144 193 244 298 356 430
#     4  11  25  45  73 100 145 186 235 293 371 430
#     4  11  26  44  72 105 139 193 241 301 350 429
#     4  11  25  47  69 104 150 188 246 293 361 423
#
# _framework density 24.090228
#
# number of rings (size 3 to 8) (size 9 to 14) (size 15 to 20)
#    0.000    1.500    1.250    0.750   14.000    2.000 
#    2.250    0.000    0.000    0.000    0.000    0.000 
#    0.000    0.000    0.000    0.000    0.000    0.000 
#
# Total GULP energy -178573.591330 kJ/mol
# GULP energy per Si atom -5580.424729 kJ/mol
# Density = 2.403540 g / cm^3
# Si number density = 24.090228 Si / 1000 Ang^3
#
#
#
# Elastic Constant Matrix: (Units=GPa)
#
#
# Indices 1 2 3 4 5 6 
#
# 1 114.6766 25.0164 -2.3396 0.0000 0.0000 0.0000
# 2 25.0164 134.2859 10.3065 0.0000 0.0000 0.0000
# 3 -2.3396 10.3065 58.6329 0.0000 0.0000 0.0000
# 4 0.0000 0.0000 0.0000 41.0646 0.0000 0.0000
# 5 0.0000 0.0000 0.0000 0.0000 14.3804 0.0000
# 6 0.0000 0.0000 0.0000 0.0000 0.0000 37.1073
#
#
#
# Elastic Compliance Matrix: (Units=1/GPa)
#
#
# Indices 1 2 3 4 5 6 
#
# 1 0.009116 -0.001750 0.000671 0.000000 0.000000 0.000000
# 2 -0.001750 0.007884 -0.001456 0.000000 0.000000 0.000000
# 3 0.000671 -0.001456 0.017338 0.000000 0.000000 0.000000
# 4 0.000000 0.000000 0.000000 0.024352 0.000000 0.000000
# 5 0.000000 0.000000 0.000000 0.000000 0.069539 0.000000
# 6 0.000000 0.000000 0.000000 0.000000 0.000000 0.026949
#
#
# Mechanical properties :
#
#
# Convention : Reuss Voigt Hill
#
# Bulk Modulus (GPa) = 34.16503 41.50690 37.83596
# Shear Modulus (GPa) = 29.41133 36.81793 33.11463
#
# Velocity S-wave (km/s) = 3.49790 3.91363 3.71159
# Velocity P-wave (km/s) = 5.52509 6.13915 5.84020
#
# Compressibility (1/GPa) = 0.02926970
#
# Stress axis : x y z
#
# Youngs Moduli (GPa) = 109.70250 126.83138 57.67697
#
# Poissons Ratio (x) = 0.22191 -0.03872
# Poissons Ratio (y) = 0.19194 0.08396
# Poissons Ratio (z) = -0.07364 0.18464
#
# Static dielectric constant tensor:
#      x y z
#    x 1.957670 0.000000 0.000000 
#    y 0.000000 1.913310 0.000000 
#    z 0.000000 0.000000 2.041690 
# 
# From -- ./inp_files/2847.got.cif
#   From: 2010.05.17/outbox.cif.g08.bks.cpg/sg33_2_cif.got.tgz:2847.got - 2010.06.03 17:15:25.
