data_PCOD9346914
_publ_section_title
;
Structure prediction by ZEFSAII (Michael W. Deem and Ramdas Pophale) SiO2 
 PCOD9346914
Probable space group: P N A 21
;
_chemical_formula_sum "Si O2"
_cell_formula_units_Z 20
_cell_length_a 8.028501
_cell_length_b 18.575113
_cell_length_c 5.092665
_cell_angle_alpha 90.000000
_cell_angle_beta 90.000000
_cell_angle_gamma 90.000000
_cell_volume 759.470727
_symmetry_space_group_name_H-M "P N A 21"
_symmetry_group_IT_number 33
_symmetry_cell_setting 'orthorhombic'
loop_
_space_group_symop_operation_xyz
x,y,z
-x,-y,1/2+z
1/2-x,1/2+y,1/2+z
1/2+x,1/2-y,z
loop_
_atom_site_type_symbol
_atom_site_label
_atom_site_fract_x
_atom_site_fract_y
_atom_site_fract_z
Si Si1 0.790739 0.745609 0.993550
Si Si2 0.754916 0.872933 0.636606
Si Si3 0.266845 0.459541 0.656624
Si Si4 0.379054 0.889154 0.667651
Si Si5 0.957774 0.169563 0.739992
O O1 0.738904 0.824992 0.898232
O O2 0.792976 0.683456 0.775860
O O3 0.725277 0.705397 0.255562
O O4 0.982220 0.767291 0.046010
O O5 0.561566 0.873420 0.549854
O O6 0.902846 0.838631 0.460839
O O7 0.799849 0.956494 0.658495
O O8 0.130285 0.438629 0.434004
O O9 0.427327 0.408153 0.608434
O O10 0.217019 0.433900 0.947333
#
# Coordination Sequence:
#
# PCOD9346914 Si02
#       5
#     4   4   4   4   4
#     4  11  27  49  74 113 154 218 267 338 401 492
#     4  12  28  45  84 109 165 211 269 336 416 480
#     4  11  29  51  80 119 161 209 275 338 413 492
#     4  11  27  53  78 114 157 213 272 335 405 496
#     4  11  29  46  78 111 161 205 275 331 407 486
#
# _framework density 26.334130999999999
#
# number of rings (size 3 to 8) (size 9 to 14) (size 15 to 20)
#    0.000    0.800    2.000    1.200   22.400    0.000 
#    0.000    0.000    0.000    0.000    0.000    0.000 
#    0.000    0.000    0.000    0.000    0.000    0.000 
#
# Total GULP energy -111547.109314 kJ/mol
# GULP energy per Si atom -5577.355466 kJ/mol
# Density = 2.627419 g / cm^3
# Si number density = 26.334131 Si / 1000 Ang^3
#
#
#
# Elastic Constant Matrix: (Units=GPa)
#
#
# Indices 1 2 3 4 5 6 
#
# 1 70.8681 41.7262 37.2537 0.0000 0.0000 0.0000
# 2 41.7262 200.8444 63.4466 0.0000 0.0000 0.0000
# 3 37.2537 63.4466 130.0529 0.0000 0.0000 0.0000
# 4 0.0000 0.0000 0.0000 39.1130 0.0000 0.0000
# 5 0.0000 0.0000 0.0000 0.0000 28.9448 0.0000
# 6 0.0000 0.0000 0.0000 0.0000 0.0000 35.9129
#
#
#
# Elastic Compliance Matrix: (Units=1/GPa)
#
#
# Indices 1 2 3 4 5 6 
#
# 1 0.017565 -0.002435 -0.003844 0.000000 0.000000 0.000000
# 2 -0.002435 0.006224 -0.002339 0.000000 0.000000 0.000000
# 3 -0.003844 -0.002339 0.009931 0.000000 0.000000 0.000000
# 4 0.000000 0.000000 0.000000 0.025567 0.000000 0.000000
# 5 0.000000 0.000000 0.000000 0.000000 0.034549 0.000000
# 6 0.000000 0.000000 0.000000 0.000000 0.000000 0.027845
#
#
# Mechanical properties :
#
#
# Convention : Reuss Voigt Hill
#
# Bulk Modulus (GPa) = 60.66076 76.29093 68.47585
# Shear Modulus (GPa) = 34.62367 38.08339 36.35353
#
# Velocity S-wave (km/s) = 3.62993 3.80697 3.71950
# Velocity P-wave (km/s) = 6.37601 6.95394 6.67124
#
# Compressibility (1/GPa) = 0.01648512
#
# Stress axis : x y z
#
# Youngs Moduli (GPa) = 56.93184 160.67717 100.69362
#
# Poissons Ratio (x) = 0.39125 0.38702
# Poissons Ratio (y) = 0.13863 0.23549
# Poissons Ratio (z) = 0.21882 0.37578
#
# Static dielectric constant tensor:
#      x y z
#    x 2.498790 0.000000 0.000000 
#    y 0.000000 2.003080 0.000000 
#    z 0.000000 0.000000 2.145900 
# 
# From -- ./inp_files/336.got.cif
#   From: 2010.05.17/outbox.cif.g08.bks.cpg/sg33_1_cif.got.tgz:336.got - 2010.06.03 17:15:25.
