data_PCOD9346822
_publ_section_title
;
Structure prediction by ZEFSAII (Michael W. Deem and Ramdas Pophale) SiO2 
 PCOD9346822
Probable space group: P N A 21
;
_chemical_formula_sum "Si O2"
_cell_formula_units_Z 20
_cell_length_a 24.828564
_cell_length_b 5.583479
_cell_length_c 5.070775
_cell_angle_alpha 90.000000
_cell_angle_beta 90.000000
_cell_angle_gamma 90.000000
_cell_volume 702.960350
_symmetry_space_group_name_H-M "P N A 21"
_symmetry_group_IT_number 33
_symmetry_cell_setting 'orthorhombic'
loop_
_space_group_symop_operation_xyz
x,y,z
-x,-y,1/2+z
1/2-x,1/2+y,1/2+z
1/2+x,1/2-y,z
loop_
_atom_site_type_symbol
_atom_site_label
_atom_site_fract_x
_atom_site_fract_y
_atom_site_fract_z
Si Si1 0.778906 0.718753 0.904140
Si Si2 0.881895 0.750887 0.578186
Si Si3 0.028668 0.910612 0.898208
Si Si4 0.081396 0.539821 0.582288
Si Si5 0.817333 0.214855 0.130776
O O1 0.819367 0.752222 0.653616
O O2 0.713970 0.739303 0.906257
O O3 0.793033 0.452763 0.996891
O O4 0.797336 0.953524 0.057139
O O5 0.914849 0.994684 0.519773
O O6 0.888615 0.610533 0.306803
O O7 0.913402 0.607305 0.812545
O O8 0.031696 0.660277 0.738172
O O9 0.008342 0.088406 0.662364
O O10 0.120513 0.770534 0.557026
#
# Coordination Sequence:
#
# PCOD9346822 Si02
#       5
#     4   4   4   4   4
#     4  11  25  43  75 115 159 207 259 318 394 479
#     4  11  27  48  78 112 156 203 259 329 398 478
#     4  12  28  48  82 110 154 208 270 340 410 474
#     4  11  27  48  78 112 156 203 259 329 398 478
#     4  11  25  43  75 115 159 207 259 318 394 479
#
# _framework density 28.451107
#
# number of rings (size 3 to 8) (size 9 to 14) (size 15 to 20)
#    0.000    0.800    0.000    4.800   16.800    3.200 
#    0.000    0.000    0.000    0.000    0.000    0.000 
#    0.000    0.000    0.000    0.000    0.000    0.000 
#
# Total GULP energy -111723.423170 kJ/mol
# GULP energy per Si atom -5586.171158 kJ/mol
# Density = 2.838635 g / cm^3
# Si number density = 28.451107 Si / 1000 Ang^3
#
#
#
# Elastic Constant Matrix: (Units=GPa)
#
#
# Indices 1 2 3 4 5 6 
#
# 1 80.3574 5.5002 20.2692 0.0000 0.0000 0.0000
# 2 5.5002 128.1502 62.4649 0.0000 0.0000 0.0000
# 3 20.2692 62.4649 160.6462 0.0000 0.0000 0.0000
# 4 0.0000 0.0000 0.0000 66.7678 0.0000 0.0000
# 5 0.0000 0.0000 0.0000 0.0000 -11.5496 0.0000
# 6 0.0000 0.0000 0.0000 0.0000 0.0000 -7.9629
#
#
#
# Elastic Compliance Matrix: (Units=1/GPa)
#
#
# Indices 1 2 3 4 5 6 
#
# 1 0.012862 0.000295 -0.001738 0.000000 0.000000 0.000000
# 2 0.000295 0.009635 -0.003784 0.000000 0.000000 0.000000
# 3 -0.001738 -0.003784 0.007915 0.000000 0.000000 0.000000
# 4 0.000000 0.000000 0.000000 0.014977 0.000000 0.000000
# 5 0.000000 0.000000 0.000000 0.000000 -0.086583 0.000000
# 6 0.000000 0.000000 0.000000 0.000000 0.000000 -0.125582
#
#
# Mechanical properties :
#
#
# Convention : Reuss Voigt Hill
#
# Bulk Modulus (GPa) = 50.09975 60.62470 55.36223
# Shear Modulus (GPa) = -33.40703 28.17902 -2.61400
#
# Velocity S-wave (km/s) = -3.43036 3.15053 -0.95957
# Velocity P-wave (km/s) = 1.39908 5.88125 4.27473
#
# Compressibility (1/GPa) = 0.01996018
#
# Stress axis : x y z
#
# Youngs Moduli (GPa) = 77.74539 103.78872 126.33763
#
# Poissons Ratio (x) = -0.03061 0.21952
# Poissons Ratio (y) = -0.02293 0.47801
# Poissons Ratio (z) = 0.13509 0.39270
#
# Static dielectric constant tensor:
#      x y z
#    x 2.541110 0.000000 0.000000 
#    y 0.000000 2.272070 0.000000 
#    z 0.000000 0.000000 2.274210 
# 
# From -- ./inp_files/2356.got.cif
#   From: 2010.05.17/outbox.cif.g08.bks.cpg/sg33_2_cif.got.tgz:2356.got - 2010.06.03 17:15:25.
