data_PCOD9346456
_publ_section_title
;
Structure prediction by ZEFSAII (Michael W. Deem and Ramdas Pophale) SiO2 
 PCOD9346456
Probable space group: P N A 21
;
_chemical_formula_sum "Si O2"
_cell_formula_units_Z 12
_cell_length_a 9.238756
_cell_length_b 4.982575
_cell_length_c 8.995170
_cell_angle_alpha 90.000000
_cell_angle_beta 90.000000
_cell_angle_gamma 90.000000
_cell_volume 414.072814
_symmetry_space_group_name_H-M "P N A 21"
_symmetry_group_IT_number 33
_symmetry_cell_setting 'orthorhombic'
loop_
_space_group_symop_operation_xyz
x,y,z
-x,-y,1/2+z
1/2-x,1/2+y,1/2+z
1/2+x,1/2-y,z
loop_
_atom_site_type_symbol
_atom_site_label
_atom_site_fract_x
_atom_site_fract_y
_atom_site_fract_z
Si Si1 0.250000 0.750001 0.603100
Si Si2 0.500000 0.466788 0.422345
Si Si3 0.500000 0.113438 0.671219
O O1 0.355532 0.580396 0.499307
O O2 0.144467 0.919605 0.499307
O O3 0.144181 0.559786 0.698461
O O4 0.355818 0.940214 0.698461
O O5 0.500000 0.167291 0.492029
O O6 0.500000 0.608056 0.261502
#
# Coordination Sequence:
#
# PCOD9346456 Si02
#       3
#     4   4   4
#     4  10  26  50  76 122 162 216 270 338 404 498
#     4  11  26  48  83 120 160 216 271 342 404 493
#     4  11  26  54  83 118 166 214 275 338 414 483
#
# _framework density 28.980408000000001
#
# number of rings (size 3 to 8) (size 9 to 14) (size 15 to 20)
#    0.000    1.333    0.000    2.000    9.333   10.667 
#    0.000    0.000    0.000    4.000    0.000    0.000 
#    0.000    0.000    0.000    0.000    0.000    0.000 
#
# Total GULP energy -67299.984712 kJ/mol
# GULP energy per Si atom -5608.332059 kJ/mol
# Density = 2.891445 g / cm^3
# Si number density = 28.980408 Si / 1000 Ang^3
#
#
#
# Elastic Constant Matrix: (Units=GPa)
#
#
# Indices 1 2 3 4 5 6 
#
# 1 211.9783 49.4518 63.6804 0.0000 0.0000 0.0000
# 2 49.4518 135.5604 45.1833 0.0000 0.0000 0.0000
# 3 63.6804 45.1833 178.5671 0.0000 0.0000 0.0000
# 4 0.0000 0.0000 0.0000 24.1082 0.0000 0.0000
# 5 0.0000 0.0000 0.0000 0.0000 39.7992 0.0000
# 6 0.0000 0.0000 0.0000 0.0000 0.0000 32.9694
#
#
#
# Elastic Compliance Matrix: (Units=1/GPa)
#
#
# Indices 1 2 3 4 5 6 
#
# 1 0.005546 -0.001490 -0.001601 0.000000 0.000000 0.000000
# 2 -0.001490 0.008456 -0.001609 0.000000 0.000000 0.000000
# 3 -0.001601 -0.001609 0.006578 0.000000 0.000000 0.000000
# 4 0.000000 0.000000 0.000000 0.041480 0.000000 0.000000
# 5 0.000000 0.000000 0.000000 0.000000 0.025126 0.000000
# 6 0.000000 0.000000 0.000000 0.000000 0.000000 0.030331
#
#
# Mechanical properties :
#
#
# Convention : Reuss Voigt Hill
#
# Bulk Modulus (GPa) = 89.42644 93.63742 91.53193
# Shear Modulus (GPa) = 38.27242 43.89471 41.08356
#
# Velocity S-wave (km/s) = 3.63799 3.89605 3.76923
# Velocity P-wave (km/s) = 6.96930 7.25394 7.11305
#
# Compressibility (1/GPa) = 0.01118237
#
# Stress axis : x y z
#
# Youngs Moduli (GPa) = 180.31453 118.25511 152.02093
#
# Poissons Ratio (x) = 0.17614 0.24336
# Poissons Ratio (y) = 0.26858 0.24453
# Poissons Ratio (z) = 0.28866 0.19022
#
# Static dielectric constant tensor:
#      x y z
#    x 2.102810 0.000000 0.000000 
#    y 0.000000 2.296590 0.000000 
#    z 0.000000 0.000000 2.303570 
# 
# From -- ./inp_files/2879.got.cif
#   From: 2010.05.17/outbox.cif.g08.bks.cpg/sg33_2_cif.got.tgz:2879.got - 2010.06.03 17:15:25.
