data_PCOD9346397
_publ_section_title
;
Structure prediction by ZEFSAII (Michael W. Deem and Ramdas Pophale) SiO2 
 PCOD9346397
Probable space group: P N A 21
;
_chemical_formula_sum "Si O2"
_cell_formula_units_Z 28
_cell_length_a 17.471051
_cell_length_b 5.152995
_cell_length_c 11.265588
_cell_angle_alpha 90.000000
_cell_angle_beta 90.000000
_cell_angle_gamma 90.000000
_cell_volume 1014.221043
_symmetry_space_group_name_H-M "P N A 21"
_symmetry_group_IT_number 33
_symmetry_cell_setting 'orthorhombic'
loop_
_space_group_symop_operation_xyz
x,y,z
-x,-y,1/2+z
1/2-x,1/2+y,1/2+z
1/2+x,1/2-y,z
loop_
_atom_site_type_symbol
_atom_site_label
_atom_site_fract_x
_atom_site_fract_y
_atom_site_fract_z
Si Si1 0.177103 0.212429 0.069930
Si Si2 0.317791 0.028663 0.185961
Si Si3 0.382436 0.637577 0.995159
Si Si4 0.033632 0.917079 0.105734
Si Si5 0.411187 0.092359 0.407169
Si Si6 0.439105 0.006298 0.807898
Si Si7 0.275922 0.222955 0.874567
O O1 0.248159 0.225090 0.159386
O O2 0.101204 0.116947 0.139367
O O3 0.148433 0.454172 0.993984
O O4 0.221119 0.058111 0.962490
O O5 0.356010 0.887563 0.072928
O O6 0.379410 0.141157 0.276753
O O7 0.274947 0.812343 0.264851
O O8 0.446132 0.503577 0.081132
O O9 0.425179 0.726363 0.874045
O O10 0.312581 0.458199 0.954024
O O11 0.036926 0.656133 0.185955
O O12 0.065784 0.845492 0.976735
O O13 0.487284 0.917145 0.389542
O O14 0.353176 0.103931 0.824842
#
# Coordination Sequence:
#
# PCOD9346397 Si02
#       7
#     4   4   4   4   4   4   4
#     4  11  24  43  65 101 139 178 234 289 345 420
#     4  11  23  43  63 101 138 175 237 287 347 414
#     4  11  25  47  68 103 143 189 235 292 362 421
#     4  11  24  46  75  99 141 186 236 291 354 425
#     4  10  25  44  64 101 140 184 231 290 352 422
#     4  11  22  44  72  99 138 184 238 292 345 433
#     4  11  25  41  69 100 141 184 233 291 359 419
#
# _framework density 27.607393999999999
#
# number of rings (size 3 to 8) (size 9 to 14) (size 15 to 20)
#    0.000    1.143    4.286    0.857    6.000    0.000 
#    5.143    1.429    0.000    0.000    0.000    0.000 
#    0.000    0.000    0.000    0.000    0.000    0.000 
#
# Total GULP energy -156127.386551 kJ/mol
# GULP energy per Si atom -5575.978091 kJ/mol
# Density = 2.754456 g / cm^3
# Si number density = 27.607394 Si / 1000 Ang^3
#
#
#
# Elastic Constant Matrix: (Units=GPa)
#
#
# Indices 1 2 3 4 5 6 
#
# 1 127.0801 22.4722 49.9681 0.0000 0.0000 0.0000
# 2 22.4722 48.5727 26.5448 0.0000 0.0000 0.0000
# 3 49.9681 26.5448 133.8532 0.0000 0.0000 0.0000
# 4 0.0000 0.0000 0.0000 35.1101 0.0000 0.0000
# 5 0.0000 0.0000 0.0000 0.0000 57.0963 0.0000
# 6 0.0000 0.0000 0.0000 0.0000 0.0000 7.0047
#
#
#
# Elastic Compliance Matrix: (Units=1/GPa)
#
#
# Indices 1 2 3 4 5 6 
#
# 1 0.009544 -0.002768 -0.003014 0.000000 0.000000 0.000000
# 2 -0.002768 0.023893 -0.003705 0.000000 0.000000 0.000000
# 3 -0.003014 -0.003705 0.009331 0.000000 0.000000 0.000000
# 4 0.000000 0.000000 0.000000 0.028482 0.000000 0.000000
# 5 0.000000 0.000000 0.000000 0.000000 0.017514 0.000000
# 6 0.000000 0.000000 0.000000 0.000000 0.000000 0.142761
#
#
# Mechanical properties :
#
#
# Convention : Reuss Voigt Hill
#
# Bulk Modulus (GPa) = 42.02824 56.38626 49.20725
# Shear Modulus (GPa) = 19.34767 33.87697 26.61232
#
# Velocity S-wave (km/s) = 2.65016 3.50680 3.10813
# Velocity P-wave (km/s) = 4.96196 6.07170 5.54466
#
# Compressibility (1/GPa) = 0.02379353
#
# Stress axis : x y z
#
# Youngs Moduli (GPa) = 104.78254 41.85295 107.17415
#
# Poissons Ratio (x) = 0.11587 0.32299
# Poissons Ratio (y) = 0.29008 0.39707
# Poissons Ratio (z) = 0.31578 0.15506
#
# Static dielectric constant tensor:
#      x y z
#    x 2.231730 0.000000 0.000000 
#    y 0.000000 2.292000 0.000000 
#    z 0.000000 0.000000 2.260210 
# 
# From -- ./inp_files/6953.got.cif
#   From: 2010.05.17/outbox.cif.g08.bks.cpg/sg33_4_cif.got.tgz:6953.got - 2010.06.03 17:15:25.
