data_PCOD9346537
_publ_section_title
;
Structure prediction by ZEFSAII (Michael W. Deem and Ramdas Pophale) SiO2 
 PCOD9346537
Probable space group: P N A 21
;
_chemical_formula_sum "Si O2"
_cell_formula_units_Z 24
_cell_length_a 13.470250
_cell_length_b 11.800374
_cell_length_c 5.897842
_cell_angle_alpha 90.000000
_cell_angle_beta 90.000000
_cell_angle_gamma 90.000000
_cell_volume 937.485506
_symmetry_space_group_name_H-M "P N A 21"
_symmetry_group_IT_number 33
_symmetry_cell_setting 'orthorhombic'
loop_
_space_group_symop_operation_xyz
x,y,z
-x,-y,1/2+z
1/2-x,1/2+y,1/2+z
1/2+x,1/2-y,z
loop_
_atom_site_type_symbol
_atom_site_label
_atom_site_fract_x
_atom_site_fract_y
_atom_site_fract_z
Si Si1 0.664375 0.295054 0.363010
Si Si2 0.120473 0.958144 0.866895
Si Si3 0.368033 0.063144 0.374202
Si Si4 0.991499 0.154652 0.007706
Si Si5 0.026065 0.759179 0.093193
Si Si6 0.333721 0.970709 0.875418
O O1 0.760112 0.374427 0.371146
O O2 0.586752 0.321112 0.162440
O O3 0.586289 0.302954 0.569548
O O4 0.689507 0.162933 0.364511
O O5 0.222980 0.022723 0.881953
O O6 0.105307 0.885068 0.640789
O O7 0.103199 0.861277 0.054951
O O8 0.026943 0.040916 0.881196
O O9 0.450034 0.161460 0.415712
O O10 0.374814 0.000518 0.622299
O O11 0.378902 0.001280 0.127440
O O12 0.965222 0.264315 0.858117
#
# Coordination Sequence:
#
# PCOD9346537 Si02
#       6
#     4   4   4   4   4   4
#     4  11  27  48  73 109 149 200 251 315 376 451
#     4  11  22  40  72 109 142 188 245 317 370 430
#     4  12  29  49  75 113 148 197 253 304 377 453
#     4  11  23  42  74 110 148 195 255 316 384 440
#     4  11  26  46  74 103 151 199 247 310 375 452
#     4  12  29  47  76 108 152 195 249 306 374 456
#
# _framework density 25.600394999999999
#
# number of rings (size 3 to 8) (size 9 to 14) (size 15 to 20)
#    0.000    0.667    5.000    1.000   11.667    1.333 
#    0.000    0.000    0.000    0.000    0.000    0.000 
#    0.000    0.000    0.000    0.000    0.000    0.000 
#
# Total GULP energy -133813.014898 kJ/mol
# GULP energy per Si atom -5575.542287 kJ/mol
# Density = 2.554213 g / cm^3
# Si number density = 25.600395 Si / 1000 Ang^3
#
#
#
# Elastic Constant Matrix: (Units=GPa)
#
#
# Indices 1 2 3 4 5 6 
#
# 1 93.7596 2.1777 11.4689 0.0000 0.0000 0.0000
# 2 2.1777 68.4088 53.5562 0.0000 0.0000 0.0000
# 3 11.4689 53.5562 160.6230 0.0000 0.0000 0.0000
# 4 0.0000 0.0000 0.0000 -160.1471 0.0000 0.0000
# 5 0.0000 0.0000 0.0000 0.0000 4.1987 0.0000
# 6 0.0000 0.0000 0.0000 0.0000 0.0000 37.0828
#
#
#
# Elastic Compliance Matrix: (Units=1/GPa)
#
#
# Indices 1 2 3 4 5 6 
#
# 1 0.010766 0.000351 -0.000886 0.000000 0.000000 0.000000
# 2 0.000351 0.019793 -0.006625 0.000000 0.000000 0.000000
# 3 -0.000886 -0.006625 0.008498 0.000000 0.000000 0.000000
# 4 0.000000 0.000000 0.000000 -0.006244 0.000000 0.000000
# 5 0.000000 0.000000 0.000000 0.000000 0.238170 0.000000
# 6 0.000000 0.000000 0.000000 0.000000 0.000000 0.026967
#
#
# Mechanical properties :
#
#
# Convention : Reuss Voigt Hill
#
# Bulk Modulus (GPa) = 40.42442 50.79967 45.61204
# Shear Modulus (GPa) = 15.59994 -6.73387 4.43304
#
# Velocity S-wave (km/s) = 2.47121 -1.62360 1.31734
# Velocity P-wave (km/s) = 4.89564 4.04618 4.49104
#
# Compressibility (1/GPa) = 0.02473752
#
# Stress axis : x y z
#
# Youngs Moduli (GPa) = 92.88707 50.52249 117.67713
#
# Poissons Ratio (x) = -0.01771 0.10422
# Poissons Ratio (y) = -0.03257 0.77957
# Poissons Ratio (z) = 0.08226 0.33469
#
# Static dielectric constant tensor:
#      x y z
#    x 2.072430 0.000000 0.000000 
#    y 0.000000 2.060660 0.000000 
#    z 0.000000 0.000000 2.186690 
# 
# From -- ./inp_files/1269.got.cif
#   From: 2010.05.17/outbox.cif.g08.bks.cpg/sg33_1_cif.got.tgz:1269.got - 2010.06.03 17:15:25.
