data_PCOD9346155
_publ_section_title
;
Structure prediction by ZEFSAII (Michael W. Deem and Ramdas Pophale) SiO2 
 PCOD9346155
Probable space group: P N A 21
;
_chemical_formula_sum "Si O2"
_cell_formula_units_Z 24
_cell_length_a 16.151115
_cell_length_b 7.615930
_cell_length_c 7.988082
_cell_angle_alpha 90.000000
_cell_angle_beta 90.000000
_cell_angle_gamma 90.000000
_cell_volume 982.580107
_symmetry_space_group_name_H-M "P N A 21"
_symmetry_group_IT_number 33
_symmetry_cell_setting 'orthorhombic'
loop_
_space_group_symop_operation_xyz
x,y,z
-x,-y,1/2+z
1/2-x,1/2+y,1/2+z
1/2+x,1/2-y,z
loop_
_atom_site_type_symbol
_atom_site_label
_atom_site_fract_x
_atom_site_fract_y
_atom_site_fract_z
Si Si1 0.549471 0.975553 0.882360
Si Si2 0.820783 0.903103 0.562678
Si Si3 0.001414 0.880673 0.724789
Si Si4 0.804921 0.644288 0.253961
Si Si5 0.564146 0.706136 0.401536
Si Si6 0.825409 0.275357 0.584767
O O1 0.513418 0.787705 0.839453
O O2 0.601925 0.076082 0.740031
O O3 0.479648 0.109354 0.933484
O O4 0.622179 0.932487 0.013940
O O5 0.003002 0.932167 0.312333
O O6 0.836587 0.096004 0.478695
O O7 0.797226 0.753378 0.429437
O O8 0.908997 0.857540 0.645143
O O9 0.072975 0.874436 0.584675
O O10 0.748654 0.469915 0.200398
O O11 0.772068 0.784242 0.116526
O O12 0.636919 0.735496 0.269718
#
# Coordination Sequence:
#
# PCOD9346155 Si02
#       6
#     4   4   4   4   4   4
#     4  12  24  44  76 106 138 194 252 305 366 456
#     4   9  21  46  67 101 150 196 243 311 376 450
#     4  11  23  42  73 103 148 186 247 313 364 442
#     4  10  23  45  70 103 150 192 245 304 382 451
#     4  11  23  43  71 102 142 190 243 301 371 432
#     4   9  24  46  67 103 148 186 246 304 369 453
#
# _framework density 24.42549
#
# number of rings (size 3 to 8) (size 9 to 14) (size 15 to 20)
#    1.000    0.667    1.667    3.000    2.333    0.000 
#    6.000    1.667    0.000    0.000    0.000    0.000 
#    0.000    0.000    0.000    0.000    0.000    0.000 
#
# Total GULP energy -133623.047411 kJ/mol
# GULP energy per Si atom -5567.626975 kJ/mol
# Density = 2.436990 g / cm^3
# Si number density = 24.425490 Si / 1000 Ang^3
#
#
#
# Elastic Constant Matrix: (Units=GPa)
#
#
# Indices 1 2 3 4 5 6 
#
# 1 45.0063 25.5498 10.3693 0.0000 0.0000 0.0000
# 2 25.5498 133.4197 48.5736 0.0000 0.0000 0.0000
# 3 10.3693 48.5736 64.1042 0.0000 0.0000 0.0000
# 4 0.0000 0.0000 0.0000 44.2327 0.0000 0.0000
# 5 0.0000 0.0000 0.0000 0.0000 33.0006 0.0000
# 6 0.0000 0.0000 0.0000 0.0000 0.0000 36.2675
#
#
#
# Elastic Compliance Matrix: (Units=1/GPa)
#
#
# Indices 1 2 3 4 5 6 
#
# 1 0.024945 -0.004568 -0.000574 0.000000 0.000000 0.000000
# 2 -0.004568 0.011187 -0.007738 0.000000 0.000000 0.000000
# 3 -0.000574 -0.007738 0.021556 0.000000 0.000000 0.000000
# 4 0.000000 0.000000 0.000000 0.022608 0.000000 0.000000
# 5 0.000000 0.000000 0.000000 0.000000 0.030302 0.000000
# 6 0.000000 0.000000 0.000000 0.000000 0.000000 0.027573
#
#
# Mechanical properties :
#
#
# Convention : Reuss Voigt Hill
#
# Bulk Modulus (GPa) = 31.32032 45.72396 38.52214
# Shear Modulus (GPa) = 28.64153 33.23599 30.93876
#
# Velocity S-wave (km/s) = 3.42805 3.69278 3.56288
# Velocity P-wave (km/s) = 5.34035 6.07804 5.72110
#
# Compressibility (1/GPa) = 0.03192816
#
# Stress axis : x y z
#
# Youngs Moduli (GPa) = 40.08897 89.38957 46.39185
#
# Poissons Ratio (x) = 0.40834 0.02661
# Poissons Ratio (y) = 0.18313 0.35897
# Poissons Ratio (z) = 0.02300 0.69168
#
# Static dielectric constant tensor:
#      x y z
#    x 1.987700 0.000000 0.000000 
#    y 0.000000 1.933130 0.000000 
#    z 0.000000 0.000000 2.076430 
# 
# From -- ./inp_files/4654.got.cif
#   From: 2010.05.17/outbox.cif.g08.bks.cpg/sg33_3_cif.got.tgz:4654.got - 2010.06.03 17:15:25.
