data_PCOD9346656
_publ_section_title
;
Structure prediction by ZEFSAII (Michael W. Deem and Ramdas Pophale) SiO2 
 PCOD9346656
Probable space group: P N A 21
;
_chemical_formula_sum "Si O2"
_cell_formula_units_Z 28
_cell_length_a 15.895708
_cell_length_b 5.089792
_cell_length_c 13.221375
_cell_angle_alpha 90.000000
_cell_angle_beta 90.000000
_cell_angle_gamma 90.000000
_cell_volume 1069.686548
_symmetry_space_group_name_H-M "P N A 21"
_symmetry_group_IT_number 33
_symmetry_cell_setting 'orthorhombic'
loop_
_space_group_symop_operation_xyz
x,y,z
-x,-y,1/2+z
1/2-x,1/2+y,1/2+z
1/2+x,1/2-y,z
loop_
_atom_site_type_symbol
_atom_site_label
_atom_site_fract_x
_atom_site_fract_y
_atom_site_fract_z
Si Si1 0.483879 0.869416 0.649170
Si Si2 0.729653 0.661881 0.230575
Si Si3 0.556819 0.438020 0.956800
Si Si4 0.732600 0.517382 0.007561
Si Si5 0.095481 0.266102 0.538879
Si Si6 0.191078 0.840118 0.663034
Si Si7 0.051938 0.869325 0.277786
O O1 0.435425 0.744939 0.555207
O O2 0.480521 0.646241 0.734220
O O3 0.571031 0.967720 0.598896
O O4 0.450799 0.136310 0.696986
O O5 0.701347 0.651937 0.112148
O O6 0.799663 0.431836 0.228295
O O7 0.650721 0.602724 0.301691
O O8 0.760706 0.956489 0.237016
O O9 0.487646 0.664031 0.982311
O O10 0.510146 0.288965 0.866979
O O11 0.652181 0.520147 0.935970
O O12 0.761005 0.238890 0.057417
O O13 0.820360 0.657216 0.978129
O O14 0.119610 0.040605 0.620011
#
# Coordination Sequence:
#
# PCOD9346656 Si02
#       7
#     4   4   4   4   4   4   4
#     4  12  25  48  73 108 154 195 252 316 365 452
#     4   9  17  37  65  98 137 183 239 297 354 437
#     4  12  26  46  81 111 153 206 246 318 380 450
#     4   9  20  41  71 103 144 200 241 303 378 440
#     4  11  23  45  77 109 145 202 249 309 385 443
#     4   9  19  37  71  96 136 198 238 289 378 427
#     4  12  26  44  76 119 147 196 265 300 382 461
#
# _framework density 26.175892999999999
#
# number of rings (size 3 to 8) (size 9 to 14) (size 15 to 20)
#    0.857    0.571    2.857    2.571    2.000    2.286 
#    0.000    4.286    3.143    0.000    0.000    0.000 
#    0.000    0.000    0.000    0.000    0.000    0.000 
#
# Total GULP energy -156164.768544 kJ/mol
# GULP energy per Si atom -5577.313162 kJ/mol
# Density = 2.611632 g / cm^3
# Si number density = 26.175893 Si / 1000 Ang^3
#
#
#
# Elastic Constant Matrix: (Units=GPa)
#
#
# Indices 1 2 3 4 5 6 
#
# 1 141.6686 33.8117 18.9614 0.0000 0.0000 0.0000
# 2 33.8117 150.4976 14.0166 0.0000 0.0000 0.0000
# 3 18.9614 14.0166 63.0006 0.0000 0.0000 0.0000
# 4 0.0000 0.0000 0.0000 18.7336 0.0000 0.0000
# 5 0.0000 0.0000 0.0000 0.0000 29.6117 0.0000
# 6 0.0000 0.0000 0.0000 0.0000 0.0000 45.8618
#
#
#
# Elastic Compliance Matrix: (Units=1/GPa)
#
#
# Indices 1 2 3 4 5 6 
#
# 1 0.007691 -0.001544 -0.001971 0.000000 0.000000 0.000000
# 2 -0.001544 0.007095 -0.001114 0.000000 0.000000 0.000000
# 3 -0.001971 -0.001114 0.016714 0.000000 0.000000 0.000000
# 4 0.000000 0.000000 0.000000 0.053380 0.000000 0.000000
# 5 0.000000 0.000000 0.000000 0.000000 0.033770 0.000000
# 6 0.000000 0.000000 0.000000 0.000000 0.000000 0.021805
#
#
# Mechanical properties :
#
#
# Convention : Reuss Voigt Hill
#
# Bulk Modulus (GPa) = 44.96063 54.30515 49.63289
# Shear Modulus (GPa) = 31.82114 38.06655 34.94385
#
# Velocity S-wave (km/s) = 3.49042 3.81761 3.65768
# Velocity P-wave (km/s) = 5.78426 6.34220 6.06965
#
# Compressibility (1/GPa) = 0.02224168
#
# Stress axis : x y z
#
# Youngs Moduli (GPa) = 130.01961 140.93798 59.83031
#
# Poissons Ratio (x) = 0.21766 0.11794
# Poissons Ratio (y) = 0.20080 0.06664
# Poissons Ratio (z) = 0.25630 0.15697
#
# Static dielectric constant tensor:
#      x y z
#    x 2.289100 0.000000 0.000000 
#    y 0.000000 2.130060 0.000000 
#    z 0.000000 0.000000 2.096100 
# 
# From -- ./inp_files/8191.got.cif
#   From: 2010.05.17/outbox.cif.g08.bks.cpg/sg33_5_cif.got.tgz:8191.got - 2010.06.03 17:15:25.
