data_PCOD9346795
_publ_section_title
;
Structure prediction by ZEFSAII (Michael W. Deem and Ramdas Pophale) SiO2 
 PCOD9346795
Probable space group: P N A 21
;
_chemical_formula_sum "Si O2"
_cell_formula_units_Z 32
_cell_length_a 9.109218
_cell_length_b 11.670022
_cell_length_c 13.846148
_cell_angle_alpha 90.000000
_cell_angle_beta 90.000000
_cell_angle_gamma 90.000000
_cell_volume 1471.911640
_symmetry_space_group_name_H-M "P N A 21"
_symmetry_group_IT_number 33
_symmetry_cell_setting 'orthorhombic'
loop_
_space_group_symop_operation_xyz
x,y,z
-x,-y,1/2+z
1/2-x,1/2+y,1/2+z
1/2+x,1/2-y,z
loop_
_atom_site_type_symbol
_atom_site_label
_atom_site_fract_x
_atom_site_fract_y
_atom_site_fract_z
Si Si1 0.714311 0.299123 0.821630
Si Si2 0.435248 0.312065 0.504023
Si Si3 0.412507 0.160506 0.313017
Si Si4 0.231659 0.160596 0.610867
Si Si5 0.546343 0.424956 0.993607
Si Si6 0.212852 0.412743 0.045699
Si Si7 0.032001 0.401058 0.862866
Si Si8 0.645038 0.292770 0.182404
O O1 0.669399 0.347866 0.718067
O O2 0.668884 0.166295 0.815844
O O3 0.882994 0.333857 0.838792
O O4 0.623265 0.351424 0.910539
O O5 0.403346 0.229087 0.413947
O O6 0.347849 0.261206 0.595171
O O7 0.604871 0.313688 0.534045
O O8 0.401123 0.444086 0.481864
O O9 0.515901 0.234720 0.243402
O O10 0.257389 0.152847 0.258499
O O11 0.473994 0.033133 0.331484
O O12 0.303148 0.038104 0.590379
O O13 0.369222 0.415369 0.989955
O O14 0.591494 0.379826 0.099761
O O15 0.218631 0.311991 0.123253
O O16 0.074178 0.395676 0.975825
#
# Coordination Sequence:
#
# PCOD9346795 Si02
#       8
#     4   4   4   4   4   4   4   4
#     4  12  27  47  73 107 142 192 242 305 367 443
#     4  11  26  46  71 105 148 192 242 306 360 439
#     4  12  28  48  76 110 146 200 245 304 369 444
#     4  11  25  47  71 101 146 186 248 296 365 431
#     4  11  27  45  72 105 149 195 241 306 363 434
#     4  11  24  49  69 105 147 189 240 309 357 439
#     4  12  27  48  76 105 150 192 246 305 370 437
#     4  12  26  48  74 106 150 192 250 297 369 439
#
# _framework density 21.740435999999999
#
# number of rings (size 3 to 8) (size 9 to 14) (size 15 to 20)
#    0.000    0.500    3.750    3.000   10.500    0.000 
#    0.000    0.000    0.000    0.000    0.000    0.000 
#    0.000    0.000    0.000    0.000    0.000    0.000 
#
# Total GULP energy -178975.125831 kJ/mol
# GULP energy per Si atom -5592.972682 kJ/mol
# Density = 2.169095 g / cm^3
# Si number density = 21.740436 Si / 1000 Ang^3
#
#
#
# Elastic Constant Matrix: (Units=GPa)
#
#
# Indices 1 2 3 4 5 6 
#
# 1 57.5122 19.0478 25.7920 0.0000 0.0000 0.0000
# 2 19.0478 95.0832 25.3416 0.0000 0.0000 0.0000
# 3 25.7920 25.3416 103.5342 0.0000 0.0000 0.0000
# 4 0.0000 0.0000 0.0000 28.7339 0.0000 0.0000
# 5 0.0000 0.0000 0.0000 0.0000 27.0916 0.0000
# 6 0.0000 0.0000 0.0000 0.0000 0.0000 27.1589
#
#
#
# Elastic Compliance Matrix: (Units=1/GPa)
#
#
# Indices 1 2 3 4 5 6 
#
# 1 0.020299 -0.002909 -0.004345 0.000000 0.000000 0.000000
# 2 -0.002909 0.011668 -0.002131 0.000000 0.000000 0.000000
# 3 -0.004345 -0.002131 0.011263 0.000000 0.000000 0.000000
# 4 0.000000 0.000000 0.000000 0.034802 0.000000 0.000000
# 5 0.000000 0.000000 0.000000 0.000000 0.036912 0.000000
# 6 0.000000 0.000000 0.000000 0.000000 0.000000 0.036820
#
#
# Mechanical properties :
#
#
# Convention : Reuss Voigt Hill
#
# Bulk Modulus (GPa) = 40.88254 44.05469 42.46861
# Shear Modulus (GPa) = 27.98184 28.99343 28.48764
#
# Velocity S-wave (km/s) = 3.59149 3.65584 3.62381
# Velocity P-wave (km/s) = 6.00367 6.17480 6.08984
#
# Compressibility (1/GPa) = 0.02446032
#
# Stress axis : x y z
#
# Youngs Moduli (GPa) = 49.26238 85.70603 88.78841
#
# Poissons Ratio (x) = 0.24928 0.38579
# Poissons Ratio (y) = 0.14328 0.18924
# Poissons Ratio (z) = 0.21405 0.18267
#
# Static dielectric constant tensor:
#      x y z
#    x 1.798270 0.000000 0.000000 
#    y 0.000000 1.789220 0.000000 
#    z 0.000000 0.000000 1.802150 
# 
# From -- ./inp_files/7677.got.cif
#   From: 2010.05.17/outbox.cif.g08.bks.cpg/sg33_4_cif.got.tgz:7677.got - 2010.06.03 17:15:25.
