data_PCOD9346408
_publ_section_title
;
Structure prediction by ZEFSAII (Michael W. Deem and Ramdas Pophale) SiO2 
 PCOD9346408
Probable space group: P N A 21
;
_chemical_formula_sum "Si O2"
_cell_formula_units_Z 32
_cell_length_a 30.352424
_cell_length_b 4.928163
_cell_length_c 8.476884
_cell_angle_alpha 90.000000
_cell_angle_beta 90.000000
_cell_angle_gamma 90.000000
_cell_volume 1267.986659
_symmetry_space_group_name_H-M "P N A 21"
_symmetry_group_IT_number 33
_symmetry_cell_setting 'orthorhombic'
loop_
_space_group_symop_operation_xyz
x,y,z
-x,-y,1/2+z
1/2-x,1/2+y,1/2+z
1/2+x,1/2-y,z
loop_
_atom_site_type_symbol
_atom_site_label
_atom_site_fract_x
_atom_site_fract_y
_atom_site_fract_z
Si Si1 0.611575 0.446449 0.871100
Si Si2 0.620501 0.694514 0.539708
Si Si3 0.339282 0.042181 0.498966
Si Si4 0.246748 0.342852 0.848348
Si Si5 0.300195 0.963505 0.057890
Si Si6 0.514649 0.621725 0.902662
Si Si7 0.528057 0.868888 0.556045
Si Si8 0.338571 0.635011 0.791902
O O1 0.607221 0.501610 0.685167
O O2 0.629587 0.143473 0.888998
O O3 0.563415 0.508289 0.939433
O O4 0.644001 0.651097 0.970844
O O5 0.580535 0.908271 0.542594
O O6 0.626890 0.585802 0.359426
O O7 0.668464 0.789562 0.604366
O O8 0.287960 0.017497 0.450270
O O9 0.344591 0.867051 0.660542
O O10 0.218581 0.280304 0.694643
O O11 0.290681 0.488308 0.781515
O O12 0.262201 0.091276 0.950535
O O13 0.332815 0.800473 0.951140
O O14 0.515528 0.749576 0.727579
O O15 0.483432 0.364771 0.929291
O O16 0.498587 0.860854 0.017135
#
# Coordination Sequence:
#
# PCOD9346408 Si02
#       8
#     4   4   4   4   4   4   4   4
#     4  11  26  47  72  99 140 181 234 280 356 415
#     4  10  25  45  68 100 137 189 226 288 345 426
#     4  12  26  44  71 101 138 183 231 293 343 410
#     4  11  24  41  64  97 135 187 229 287 340 408
#     4  11  24  43  65  95 138 181 237 282 346 407
#     4  11  25  47  73 108 139 187 231 294 357 432
#     4  11  25  46  76 104 145 184 236 286 366 424
#     4  11  27  41  65 102 138 180 238 286 349 406
#
# _framework density 25.236861999999999
#
# number of rings (size 3 to 8) (size 9 to 14) (size 15 to 20)
#    0.000    1.000    2.500    2.250    8.750    5.000 
#    0.000    0.000    0.000    0.000    0.000    0.000 
#    0.000    0.000    0.000    0.000    0.000    0.000 
#
# Total GULP energy -178901.454857 kJ/mol
# GULP energy per Si atom -5590.670464 kJ/mol
# Density = 2.517942 g / cm^3
# Si number density = 25.236862 Si / 1000 Ang^3
#
#
#
# Elastic Constant Matrix: (Units=GPa)
#
#
# Indices 1 2 3 4 5 6 
#
# 1 103.5607 26.9135 27.0136 0.0000 0.0000 0.0000
# 2 26.9135 95.6801 3.4319 0.0000 0.0000 0.0000
# 3 27.0136 3.4319 81.9030 0.0000 0.0000 0.0000
# 4 0.0000 0.0000 0.0000 30.2369 0.0000 0.0000
# 5 0.0000 0.0000 0.0000 0.0000 32.6390 0.0000
# 6 0.0000 0.0000 0.0000 0.0000 0.0000 23.7837
#
#
#
# Elastic Compliance Matrix: (Units=1/GPa)
#
#
# Indices 1 2 3 4 5 6 
#
# 1 0.011403 -0.003077 -0.003632 0.000000 0.000000 0.000000
# 2 -0.003077 0.011298 0.000542 0.000000 0.000000 0.000000
# 3 -0.003632 0.000542 0.013385 0.000000 0.000000 0.000000
# 4 0.000000 0.000000 0.000000 0.033072 0.000000 0.000000
# 5 0.000000 0.000000 0.000000 0.000000 0.030638 0.000000
# 6 0.000000 0.000000 0.000000 0.000000 0.000000 0.042046
#
#
# Mechanical properties :
#
#
# Convention : Reuss Voigt Hill
#
# Bulk Modulus (GPa) = 42.10514 43.98464 43.04489
# Shear Modulus (GPa) = 30.84624 32.25090 31.54857
#
# Velocity S-wave (km/s) = 3.49989 3.57869 3.53951
# Velocity P-wave (km/s) = 5.74913 5.87730 5.81357
#
# Compressibility (1/GPa) = 0.02375007
#
# Stress axis : x y z
#
# Youngs Moduli (GPa) = 87.69348 88.51371 74.71136
#
# Poissons Ratio (x) = 0.27239 0.27136
# Poissons Ratio (y) = 0.26986 -0.04046
# Poissons Ratio (z) = 0.31852 -0.04794
#
# Static dielectric constant tensor:
#      x y z
#    x 2.013070 0.000000 0.000000 
#    y 0.000000 2.174770 0.000000 
#    z 0.000000 0.000000 2.042110 
# 
# From -- ./inp_files/5316.got.cif
#   From: 2010.05.17/outbox.cif.g08.bks.cpg/sg33_3_cif.got.tgz:5316.got - 2010.06.03 17:15:25.
