data_PCOD9346285
_publ_section_title
;
Structure prediction by ZEFSAII (Michael W. Deem and Ramdas Pophale) SiO2 
 PCOD9346285
Probable space group: P N A 21
;
_chemical_formula_sum "Si O2"
_cell_formula_units_Z 32
_cell_length_a 29.528705
_cell_length_b 9.612543
_cell_length_c 5.182070
_cell_angle_alpha 90.000000
_cell_angle_beta 90.000000
_cell_angle_gamma 90.000000
_cell_volume 1470.909564
_symmetry_space_group_name_H-M "P N A 21"
_symmetry_group_IT_number 33
_symmetry_cell_setting 'orthorhombic'
loop_
_space_group_symop_operation_xyz
x,y,z
-x,-y,1/2+z
1/2-x,1/2+y,1/2+z
1/2+x,1/2-y,z
loop_
_atom_site_type_symbol
_atom_site_label
_atom_site_fract_x
_atom_site_fract_y
_atom_site_fract_z
Si Si1 0.723354 0.629426 0.212080
Si Si2 0.388535 0.797520 0.249654
Si Si3 0.332734 0.857695 0.729876
Si Si4 0.150632 0.001719 0.813406
Si Si5 0.888581 0.294054 0.376400
Si Si6 0.530443 0.999024 0.820230
Si Si7 0.776539 0.867349 0.914948
Si Si8 0.332760 0.145503 0.896366
O O1 0.749895 0.748460 0.063402
O O2 0.751555 0.498475 0.313425
O O3 0.699925 0.723422 0.431451
O O4 0.684838 0.554593 0.037236
O O5 0.360372 0.876083 0.471322
O O6 0.382052 0.636570 0.338463
O O7 0.437495 0.868422 0.256910
O O8 0.365973 0.818623 0.968540
O O9 0.309648 0.001560 0.813520
O O10 0.300011 0.726667 0.695814
O O11 0.184933 0.058030 0.590039
O O12 0.117934 0.866908 0.787855
O O13 0.937559 0.364941 0.372041
O O14 0.865786 0.315352 0.656884
O O15 0.860668 0.372763 0.153997
O O16 0.501381 0.026795 0.075313
#
# Coordination Sequence:
#
# PCOD9346285 Si02
#       8
#     4   4   4   4   4   4   4   4
#     4  11  25  41  63  95 140 182 234 304 343 389
#     4  11  22  42  69  94 136 173 222 267 327 429
#     4  11  21  40  66  95 126 185 233 266 335 400
#     4  10  24  44  64  93 126 190 236 263 340 404
#     4  11  22  42  69  94 136 173 222 267 327 429
#     4  12  24  42  68 111 136 162 210 281 354 406
#     4  11  25  41  63  95 140 182 234 304 343 389
#     4  11  21  40  66  95 126 185 233 266 335 400
#
# _framework density 21.755244000000001
#
# number of rings (size 3 to 8) (size 9 to 14) (size 15 to 20)
#    0.000    1.000    5.000    1.500    1.750    5.000 
#    0.000    1.250    0.000    0.000    0.000    0.000 
#    0.000    0.000    0.000    0.000    0.000    0.000 
#
# Total GULP energy -178711.743593 kJ/mol
# GULP energy per Si atom -5584.741987 kJ/mol
# Density = 2.170573 g / cm^3
# Si number density = 21.755244 Si / 1000 Ang^3
#
#
#
# Elastic Constant Matrix: (Units=GPa)
#
#
# Indices 1 2 3 4 5 6 
#
# 1 55.1534 40.9909 8.6309 0.0000 0.0000 0.0000
# 2 40.9909 214.8072 12.2515 0.0000 0.0000 0.0000
# 3 8.6309 12.2515 89.9431 0.0000 0.0000 0.0000
# 4 0.0000 0.0000 0.0000 39.1191 0.0000 0.0000
# 5 0.0000 0.0000 0.0000 0.0000 38.4220 0.0000
# 6 0.0000 0.0000 0.0000 0.0000 0.0000 4.4168
#
#
#
# Elastic Compliance Matrix: (Units=1/GPa)
#
#
# Indices 1 2 3 4 5 6 
#
# 1 0.021328 -0.003984 -0.001504 0.000000 0.000000 0.000000
# 2 -0.003984 0.005436 -0.000358 0.000000 0.000000 0.000000
# 3 -0.001504 -0.000358 0.011311 0.000000 0.000000 0.000000
# 4 0.000000 0.000000 0.000000 0.025563 0.000000 0.000000
# 5 0.000000 0.000000 0.000000 0.000000 0.026027 0.000000
# 6 0.000000 0.000000 0.000000 0.000000 0.000000 0.226409
#
#
# Mechanical properties :
#
#
# Convention : Reuss Voigt Hill
#
# Bulk Modulus (GPa) = 37.90376 53.73893 45.82135
# Shear Modulus (GPa) = 14.85618 36.26026 25.55822
#
# Velocity S-wave (km/s) = 2.61603 4.08700 3.43126
# Velocity P-wave (km/s) = 5.15611 6.85760 6.06680
#
# Compressibility (1/GPa) = 0.02638261
#
# Stress axis : x y z
#
# Youngs Moduli (GPa) = 46.88753 183.95759 88.40763
#
# Poissons Ratio (x) = 0.73291 0.13296
# Poissons Ratio (y) = 0.18680 0.03166
# Poissons Ratio (z) = 0.07051 0.06588
#
# Static dielectric constant tensor:
#      x y z
#    x 1.828760 0.000000 0.000000 
#    y 0.000000 1.888570 0.000000 
#    z 0.000000 0.000000 1.953090 
# 
# From -- ./inp_files/2553.got.cif
#   From: 2010.05.17/outbox.cif.g08.bks.cpg/sg33_2_cif.got.tgz:2553.got - 2010.06.03 17:15:25.
