data_PCOD9346571
_publ_section_title
;
Structure prediction by ZEFSAII (Michael W. Deem and Ramdas Pophale) SiO2 
 PCOD9346571
Probable space group: P N A 21
;
_chemical_formula_sum "Si O2"
_cell_formula_units_Z 24
_cell_length_a 18.813687
_cell_length_b 6.349039
_cell_length_c 9.303478
_cell_angle_alpha 90.000000
_cell_angle_beta 90.000000
_cell_angle_gamma 90.000000
_cell_volume 1111.289585
_symmetry_space_group_name_H-M "P N A 21"
_symmetry_group_IT_number 33
_symmetry_cell_setting 'orthorhombic'
loop_
_space_group_symop_operation_xyz
x,y,z
-x,-y,1/2+z
1/2-x,1/2+y,1/2+z
1/2+x,1/2-y,z
loop_
_atom_site_type_symbol
_atom_site_label
_atom_site_fract_x
_atom_site_fract_y
_atom_site_fract_z
Si Si1 0.424052 0.926832 0.904930
Si Si2 0.362093 0.822413 0.441002
Si Si3 0.303980 0.207598 0.589688
Si Si4 0.587315 0.447351 0.195978
Si Si5 0.270791 0.043230 0.890756
Si Si6 0.474054 0.792859 0.209949
O O1 0.399829 0.712772 0.825667
O O2 0.353243 0.062330 0.932526
O O3 0.475798 0.050151 0.798665
O O4 0.464304 0.870181 0.049126
O O5 0.409991 0.690206 0.551328
O O6 0.283281 0.723988 0.441053
O O7 0.397922 0.796316 0.287097
O O8 0.355537 0.058455 0.497634
O O9 0.350481 0.381433 0.674444
O O10 0.269585 0.062414 0.715710
O O11 0.255961 0.333463 0.474562
O O12 0.513270 0.568473 0.213550
#
# Coordination Sequence:
#
# PCOD9346571 Si02
#       6
#     4   4   4   4   4   4
#     4  12  25  44  73 106 147 189 244 299 365 431
#     4  11  25  46  73 104 146 189 246 301 359 439
#     4  11  24  45  70 103 144 190 244 304 362 434
#     4  11  22  45  70  99 143 184 236 301 362 426
#     4  11  25  44  71 107 144 194 239 301 370 432
#     4  12  25  44  71 107 140 194 243 302 364 434
#
# _framework density 21.596530000000001
#
# number of rings (size 3 to 8) (size 9 to 14) (size 15 to 20)
#    0.000    0.667    3.333    4.000    2.333    2.667 
#    0.000    0.000    0.000    0.000    0.000    0.000 
#    0.000    0.000    0.000    0.000    0.000    0.000 
#
# Total GULP energy -134177.691526 kJ/mol
# GULP energy per Si atom -5590.737147 kJ/mol
# Density = 2.154738 g / cm^3
# Si number density = 21.596530 Si / 1000 Ang^3
#
#
#
# Elastic Constant Matrix: (Units=GPa)
#
#
# Indices 1 2 3 4 5 6 
#
# 1 71.0191 17.7813 3.7513 0.0000 0.0000 0.0000
# 2 17.7813 52.3183 13.7536 0.0000 0.0000 0.0000
# 3 3.7513 13.7536 88.2121 0.0000 0.0000 0.0000
# 4 0.0000 0.0000 0.0000 37.1113 0.0000 0.0000
# 5 0.0000 0.0000 0.0000 0.0000 42.0010 0.0000
# 6 0.0000 0.0000 0.0000 0.0000 0.0000 30.6008
#
#
#
# Elastic Compliance Matrix: (Units=1/GPa)
#
#
# Indices 1 2 3 4 5 6 
#
# 1 0.015393 -0.005276 0.000168 0.000000 0.000000 0.000000
# 2 -0.005276 0.021739 -0.003165 0.000000 0.000000 0.000000
# 3 0.000168 -0.003165 0.011823 0.000000 0.000000 0.000000
# 4 0.000000 0.000000 0.000000 0.026946 0.000000 0.000000
# 5 0.000000 0.000000 0.000000 0.000000 0.023809 0.000000
# 6 0.000000 0.000000 0.000000 0.000000 0.000000 0.032679
#
#
# Mechanical properties :
#
#
# Convention : Reuss Voigt Hill
#
# Bulk Modulus (GPa) = 30.85589 31.34689 31.10139
# Shear Modulus (GPa) = 31.30158 33.69352 32.49755
#
# Velocity S-wave (km/s) = 3.81120 3.95414 3.88333
# Velocity P-wave (km/s) = 5.80392 5.94922 5.87702
#
# Compressibility (1/GPa) = 0.03240872
#
# Stress axis : x y z
#
# Youngs Moduli (GPa) = 64.96580 46.00066 84.58345
#
# Poissons Ratio (x) = 0.24268 -0.01421
# Poissons Ratio (y) = 0.34274 0.26771
# Poissons Ratio (z) = -0.01091 0.14559
#
# Static dielectric constant tensor:
#      x y z
#    x 1.788750 0.000000 0.000000 
#    y 0.000000 1.771450 0.000000 
#    z 0.000000 0.000000 1.760570 
# 
# From -- ./inp_files/4624.got.cif
#   From: 2010.05.17/outbox.cif.g08.bks.cpg/sg33_3_cif.got.tgz:4624.got - 2010.06.03 17:15:25.
