data_PCOD9346627
_publ_section_title
;
Structure prediction by ZEFSAII (Michael W. Deem and Ramdas Pophale) SiO2 
 PCOD9346627
Probable space group: P N A 21
;
_chemical_formula_sum "Si O2"
_cell_formula_units_Z 20
_cell_length_a 24.377248
_cell_length_b 6.235895
_cell_length_c 5.055031
_cell_angle_alpha 90.000000
_cell_angle_beta 90.000000
_cell_angle_gamma 90.000000
_cell_volume 768.435275
_symmetry_space_group_name_H-M "P N A 21"
_symmetry_group_IT_number 33
_symmetry_cell_setting 'orthorhombic'
loop_
_space_group_symop_operation_xyz
x,y,z
-x,-y,1/2+z
1/2-x,1/2+y,1/2+z
1/2+x,1/2-y,z
loop_
_atom_site_type_symbol
_atom_site_label
_atom_site_fract_x
_atom_site_fract_y
_atom_site_fract_z
Si Si1 0.464290 0.482439 0.172260
Si Si2 0.607446 0.896957 0.906050
Si Si3 0.194862 0.551119 0.552589
Si Si4 0.816679 0.082111 0.671833
Si Si5 0.382243 0.789883 0.855945
O O1 0.497552 0.574306 0.421748
O O2 0.434844 0.267853 0.282536
O O3 0.423525 0.659527 0.052187
O O4 0.664706 0.768161 0.968068
O O5 0.589546 0.029506 0.161519
O O6 0.635128 0.035936 0.669699
O O7 0.185559 0.787608 0.445682
O O8 0.255820 0.503875 0.635917
O O9 0.183535 0.373130 0.326895
O O10 0.867283 0.922303 0.669847
#
# Coordination Sequence:
#
# PCOD9346627 Si02
#       5
#     4   4   4   4   4
#     4  12  29  55  83 112 158 215 280 358 422 485
#     4  11  26  48  77 114 153 210 274 328 416 496
#     4  11  24  40  75 114 158 209 263 318 409 503
#     4  11  23  43  71 117 163 207 259 323 408 497
#     4  11  26  48  78 111 158 209 268 343 403 499
#
# _framework density 26.026918999999999
#
# number of rings (size 3 to 8) (size 9 to 14) (size 15 to 20)
#    0.000    0.800    2.000    3.600   11.200    3.200 
#    3.600    0.000    0.000    0.000    0.000    0.000 
#    0.000    0.000    0.000    0.000    0.000    0.000 
#
# Total GULP energy -111337.755972 kJ/mol
# GULP energy per Si atom -5566.887799 kJ/mol
# Density = 2.596768 g / cm^3
# Si number density = 26.026919 Si / 1000 Ang^3
#
#
#
# Elastic Constant Matrix: (Units=GPa)
#
#
# Indices 1 2 3 4 5 6 
#
# 1 119.3126 80.5632 59.1066 0.0000 0.0000 0.0000
# 2 80.5632 103.8772 47.7028 0.0000 0.0000 0.0000
# 3 59.1066 47.7028 130.9231 0.0000 0.0000 0.0000
# 4 0.0000 0.0000 0.0000 35.1700 0.0000 0.0000
# 5 0.0000 0.0000 0.0000 0.0000 46.2841 0.0000
# 6 0.0000 0.0000 0.0000 0.0000 0.0000 37.9334
#
#
#
# Elastic Compliance Matrix: (Units=1/GPa)
#
#
# Indices 1 2 3 4 5 6 
#
# 1 0.019103 -0.013037 -0.003874 0.000000 0.000000 0.000000
# 2 -0.013037 0.020458 -0.001568 0.000000 0.000000 0.000000
# 3 -0.003874 -0.001568 0.009959 0.000000 0.000000 0.000000
# 4 0.000000 0.000000 0.000000 0.028433 0.000000 0.000000
# 5 0.000000 0.000000 0.000000 0.000000 0.021606 0.000000
# 6 0.000000 0.000000 0.000000 0.000000 0.000000 0.026362
#
#
# Mechanical properties :
#
#
# Convention : Reuss Voigt Hill
#
# Bulk Modulus (GPa) = 79.61236 80.98423 80.29829
# Shear Modulus (GPa) = 29.92817 34.99353 32.46085
#
# Velocity S-wave (km/s) = 3.39469 3.67074 3.53541
# Velocity P-wave (km/s) = 6.78381 7.01063 6.89815
#
# Compressibility (1/GPa) = 0.01256086
#
# Stress axis : x y z
#
# Youngs Moduli (GPa) = 52.34667 48.88135 100.41492
#
# Poissons Ratio (x) = 0.63725 0.38905
# Poissons Ratio (y) = 0.68242 0.15749
# Poissons Ratio (z) = 0.20281 0.07666
#
# Static dielectric constant tensor:
#      x y z
#    x 2.825660 0.000000 0.000000 
#    y 0.000000 2.137980 0.000000 
#    z 0.000000 0.000000 2.521020 
# 
# From -- ./inp_files/2345.got.cif
#   From: 2010.05.17/outbox.cif.g08.bks.cpg/sg33_2_cif.got.tgz:2345.got - 2010.06.03 17:15:25.
