data_PCOD9346174
_publ_section_title
;
Structure prediction by ZEFSAII (Michael W. Deem and Ramdas Pophale) SiO2 
 PCOD9346174
Probable space group: P N A 21
;
_chemical_formula_sum "Si O2"
_cell_formula_units_Z 24
_cell_length_a 10.474834
_cell_length_b 8.361281
_cell_length_c 11.813193
_cell_angle_alpha 90.000000
_cell_angle_beta 90.000000
_cell_angle_gamma 90.000000
_cell_volume 1034.635243
_symmetry_space_group_name_H-M "P N A 21"
_symmetry_group_IT_number 33
_symmetry_cell_setting 'orthorhombic'
loop_
_space_group_symop_operation_xyz
x,y,z
-x,-y,1/2+z
1/2-x,1/2+y,1/2+z
1/2+x,1/2-y,z
loop_
_atom_site_type_symbol
_atom_site_label
_atom_site_fract_x
_atom_site_fract_y
_atom_site_fract_z
Si Si1 0.713009 0.904019 0.232730
Si Si2 0.586897 0.161729 0.373569
Si Si3 0.112006 0.450563 0.004501
Si Si4 0.994154 0.139736 0.769490
Si Si5 0.489778 0.666855 0.650339
Si Si6 0.633463 0.500918 0.469126
O O1 0.597545 0.790344 0.272170
O O2 0.857006 0.837167 0.240368
O O3 0.699319 0.063931 0.310181
O O4 0.670044 0.938645 0.103924
O O5 0.504360 0.235389 0.268223
O O6 0.627850 0.309426 0.453573
O O7 0.505621 0.038098 0.447290
O O8 0.231185 0.440918 0.919717
O O9 0.079730 0.284866 0.064408
O O10 0.933276 0.005988 0.685039
O O11 0.982958 0.059540 0.891864
O O12 0.614274 0.603641 0.584281
#
# Coordination Sequence:
#
# PCOD9346174 Si02
#       6
#     4   4   4   4   4   4
#     4  11  25  48  71 110 147 193 250 310 373 456
#     4  10  25  44  73 105 143 194 244 314 365 452
#     4  11  24  45  73 103 144 194 255 296 388 439
#     4  11  25  45  73 107 149 191 248 309 377 446
#     4  10  23  46  67 105 146 187 247 310 361 447
#     4  11  24  42  73 102 143 191 242 307 376 440
#
# _framework density 23.196580999999998
#
# number of rings (size 3 to 8) (size 9 to 14) (size 15 to 20)
#    0.000    1.333    1.667    2.000    9.333    1.333 
#    3.000    0.000    0.000    0.000    0.000    0.000 
#    0.000    0.000    0.000    0.000    0.000    0.000 
#
# Total GULP energy -133754.684087 kJ/mol
# GULP energy per Si atom -5573.111837 kJ/mol
# Density = 2.314378 g / cm^3
# Si number density = 23.196581 Si / 1000 Ang^3
#
#
#
# Elastic Constant Matrix: (Units=GPa)
#
#
# Indices 1 2 3 4 5 6 
#
# 1 99.3757 56.2401 46.1524 0.0000 0.0000 0.0000
# 2 56.2401 124.3466 52.8642 0.0000 0.0000 0.0000
# 3 46.1524 52.8642 60.4757 0.0000 0.0000 0.0000
# 4 0.0000 0.0000 0.0000 47.8417 0.0000 0.0000
# 5 0.0000 0.0000 0.0000 0.0000 29.9875 0.0000
# 6 0.0000 0.0000 0.0000 0.0000 0.0000 28.2051
#
#
#
# Elastic Compliance Matrix: (Units=1/GPa)
#
#
# Indices 1 2 3 4 5 6 
#
# 1 0.016415 -0.003340 -0.009608 0.000000 0.000000 0.000000
# 2 -0.003340 0.013478 -0.009233 0.000000 0.000000 0.000000
# 3 -0.009608 -0.009233 0.031939 0.000000 0.000000 0.000000
# 4 0.000000 0.000000 0.000000 0.020902 0.000000 0.000000
# 5 0.000000 0.000000 0.000000 0.000000 0.033347 0.000000
# 6 0.000000 0.000000 0.000000 0.000000 0.000000 0.035455
#
#
# Mechanical properties :
#
#
# Convention : Reuss Voigt Hill
#
# Bulk Modulus (GPa) = 57.23850 66.07905 61.65877
# Shear Modulus (GPa) = 24.78694 29.80297 27.29495
#
# Velocity S-wave (km/s) = 3.27243 3.58830 3.43400
# Velocity P-wave (km/s) = 6.24559 6.76138 6.50859
#
# Compressibility (1/GPa) = 0.01747076
#
# Stress axis : x y z
#
# Youngs Moduli (GPa) = 60.92024 74.19699 31.31008
#
# Poissons Ratio (x) = 0.24778 0.30082
# Poissons Ratio (y) = 0.20345 0.28908
# Poissons Ratio (z) = 0.58532 0.68504
#
# Static dielectric constant tensor:
#      x y z
#    x 1.871550 0.000000 0.000000 
#    y 0.000000 1.908700 0.000000 
#    z 0.000000 0.000000 2.032010 
# 
# From -- ./inp_files/6282.got.cif
#   From: 2010.05.17/outbox.cif.g08.bks.cpg/sg33_4_cif.got.tgz:6282.got - 2010.06.03 17:15:25.
