data_PCOD9346298
_publ_section_title
;
Structure prediction by ZEFSAII (Michael W. Deem and Ramdas Pophale) SiO2 
 PCOD9346298
Probable space group: P N A 21
;
_chemical_formula_sum "Si O2"
_cell_formula_units_Z 20
_cell_length_a 13.170908
_cell_length_b 6.768729
_cell_length_c 9.986401
_cell_angle_alpha 90.000000
_cell_angle_beta 90.000000
_cell_angle_gamma 90.000000
_cell_volume 890.290714
_symmetry_space_group_name_H-M "P N A 21"
_symmetry_group_IT_number 33
_symmetry_cell_setting 'orthorhombic'
loop_
_space_group_symop_operation_xyz
x,y,z
-x,-y,1/2+z
1/2-x,1/2+y,1/2+z
1/2+x,1/2-y,z
loop_
_atom_site_type_symbol
_atom_site_label
_atom_site_fract_x
_atom_site_fract_y
_atom_site_fract_z
Si Si1 0.136605 0.342999 0.313050
Si Si2 0.126504 0.138882 0.585642
Si Si3 0.674354 0.766064 0.963715
Si Si4 0.452759 0.890138 0.325141
Si Si5 0.555394 0.402289 0.071647
O O1 0.093219 0.212407 0.437472
O O2 0.252870 0.357529 0.361269
O O3 0.118083 0.219848 0.179888
O O4 0.068157 0.537516 0.303887
O O5 0.246905 0.121770 0.563727
O O6 0.098310 0.308026 0.690998
O O7 0.059226 0.949099 0.620043
O O8 0.610370 0.925599 0.882982
O O9 0.609140 0.610869 0.046237
O O10 0.450320 0.719879 0.435593
#
# Coordination Sequence:
#
# PCOD9346298 Si02
#       5
#     4   4   4   4   4
#     4  10  24  44  68  99 138 176 229 278 344 401
#     4  10  24  44  68  99 138 176 229 278 344 401
#     4  10  24  46  68 104 130 184 232 284 332 416
#     4  12  24  46  71  98 141 181 229 285 342 409
#     4  12  24  46  71  98 141 181 229 285 342 409
#
# _framework density 22.464569999999998
#
# number of rings (size 3 to 8) (size 9 to 14) (size 15 to 20)
#    1.200    0.000    2.000    3.600    0.000    3.200 
#    0.000    0.000    0.000    0.000    0.000    0.000 
#    0.000    0.000    0.000    0.000    0.000    0.000 
#
# Total GULP energy -111783.055067 kJ/mol
# GULP energy per Si atom -5589.152753 kJ/mol
# Density = 2.241344 g / cm^3
# Si number density = 22.464570 Si / 1000 Ang^3
#
#
#
# Elastic Constant Matrix: (Units=GPa)
#
#
# Indices 1 2 3 4 5 6 
#
# 1 108.6831 27.0962 11.5419 0.0000 0.0000 0.0000
# 2 27.0962 47.7259 20.0649 0.0000 0.0000 0.0000
# 3 11.5419 20.0649 55.4203 0.0000 0.0000 0.0000
# 4 0.0000 0.0000 0.0000 43.9070 0.0000 0.0000
# 5 0.0000 0.0000 0.0000 0.0000 14.2116 0.0000
# 6 0.0000 0.0000 0.0000 0.0000 0.0000 28.5996
#
#
#
# Elastic Compliance Matrix: (Units=1/GPa)
#
#
# Indices 1 2 3 4 5 6 
#
# 1 0.010718 -0.006071 -0.000034 0.000000 0.000000 0.000000
# 2 -0.006071 0.028153 -0.008929 0.000000 0.000000 0.000000
# 3 -0.000034 -0.008929 0.021284 0.000000 0.000000 0.000000
# 4 0.000000 0.000000 0.000000 0.022775 0.000000 0.000000
# 5 0.000000 0.000000 0.000000 0.000000 0.070365 0.000000
# 6 0.000000 0.000000 0.000000 0.000000 0.000000 0.034966
#
#
# Mechanical properties :
#
#
# Convention : Reuss Voigt Hill
#
# Bulk Modulus (GPa) = 33.23592 36.58170 34.90881
# Shear Modulus (GPa) = 21.89542 27.55206 24.72374
#
# Velocity S-wave (km/s) = 3.12535 3.50589 3.32108
# Velocity P-wave (km/s) = 5.27737 5.71908 5.50266
#
# Compressibility (1/GPa) = 0.03008793
#
# Stress axis : x y z
#
# Youngs Moduli (GPa) = 93.29884 35.51961 46.98437
#
# Poissons Ratio (x) = 0.21563 0.00161
# Poissons Ratio (y) = 0.56640 0.41951
# Poissons Ratio (z) = 0.00320 0.31714
#
# Static dielectric constant tensor:
#      x y z
#    x 1.853860 0.000000 0.000000 
#    y 0.000000 1.783270 0.000000 
#    z 0.000000 0.000000 1.817360 
# 
# From -- ./inp_files/6592.got.cif
#   From: 2010.05.17/outbox.cif.g08.bks.cpg/sg33_4_cif.got.tgz:6592.got - 2010.06.03 17:15:25.
