data_PCOD9346634
_publ_section_title
;
Structure prediction by ZEFSAII (Michael W. Deem and Ramdas Pophale) SiO2 
 PCOD9346634
Probable space group: P N A 21
;
_chemical_formula_sum "Si O2"
_cell_formula_units_Z 32
_cell_length_a 8.808103
_cell_length_b 11.448010
_cell_length_c 14.219331
_cell_angle_alpha 90.000000
_cell_angle_beta 90.000000
_cell_angle_gamma 90.000000
_cell_volume 1433.809814
_symmetry_space_group_name_H-M "P N A 21"
_symmetry_group_IT_number 33
_symmetry_cell_setting 'orthorhombic'
loop_
_space_group_symop_operation_xyz
x,y,z
-x,-y,1/2+z
1/2-x,1/2+y,1/2+z
1/2+x,1/2-y,z
loop_
_atom_site_type_symbol
_atom_site_label
_atom_site_fract_x
_atom_site_fract_y
_atom_site_fract_z
Si Si1 0.984976 0.846875 0.831790
Si Si2 0.492356 0.395113 0.658252
Si Si3 0.805653 0.313680 0.570782
Si Si4 0.308061 0.612059 0.642733
Si Si5 0.701545 0.154698 0.398525
Si Si6 0.956002 0.093750 0.883470
Si Si7 0.166186 0.280097 0.975838
Si Si8 0.450014 0.014110 0.034534
O O1 0.166616 0.860632 0.821125
O O2 0.868097 0.858881 0.745765
O O3 0.951381 0.714975 0.862934
O O4 0.950510 0.954101 0.903497
O O5 0.659600 0.363174 0.624259
O O6 0.383405 0.290233 0.628279
O O7 0.434561 0.516278 0.612267
O O8 0.473239 0.405560 0.770388
O O9 0.759981 0.250351 0.473880
O O10 0.927376 0.415335 0.556602
O O11 0.295319 0.725600 0.577601
O O12 0.147835 0.547842 0.626461
O O13 0.662909 0.039067 0.456323
O O14 0.805962 0.157350 0.923633
O O15 0.096289 0.169889 0.920882
O O16 0.035178 0.374845 0.992505
#
# Coordination Sequence:
#
# PCOD9346634 Si02
#       8
#     4   4   4   4   4   4   4   4
#     4  11  27  45  72 104 145 183 244 307 359 422
#     4  11  23  44  71 105 146 184 246 304 359 426
#     4  12  22  41  75 107 141 189 237 302 366 426
#     4  11  26  48  68 103 152 191 240 301 363 444
#     4  12  23  46  73 105 139 187 243 299 362 436
#     4  11  26  46  70 101 142 191 242 299 354 433
#     4  12  26  45  72 100 147 195 240 287 371 435
#     4  12  25  43  75 109 140 198 242 295 360 452
#
# _framework density 22.318163999999999
#
# number of rings (size 3 to 8) (size 9 to 14) (size 15 to 20)
#    0.000    0.500    5.000    2.250    5.250    1.000 
#    2.250    0.000    0.000    0.000    0.000    0.000 
#    0.000    0.000    0.000    0.000    0.000    0.000 
#
# Total GULP energy -178834.231684 kJ/mol
# GULP energy per Si atom -5588.569740 kJ/mol
# Density = 2.226737 g / cm^3
# Si number density = 22.318164 Si / 1000 Ang^3
#
#
#
# Elastic Constant Matrix: (Units=GPa)
#
#
# Indices 1 2 3 4 5 6 
#
# 1 100.0411 20.0232 -6.6208 0.0000 0.0000 0.0000
# 2 20.0232 100.3751 1.9914 0.0000 0.0000 0.0000
# 3 -6.6208 1.9914 26.9831 0.0000 0.0000 0.0000
# 4 0.0000 0.0000 0.0000 26.6905 0.0000 0.0000
# 5 0.0000 0.0000 0.0000 0.0000 26.2519 0.0000
# 6 0.0000 0.0000 0.0000 0.0000 0.0000 36.1667
#
#
#
# Elastic Compliance Matrix: (Units=1/GPa)
#
#
# Indices 1 2 3 4 5 6 
#
# 1 0.010614 -0.002172 0.002765 0.000000 0.000000 0.000000
# 2 -0.002172 0.010422 -0.001302 0.000000 0.000000 0.000000
# 3 0.002765 -0.001302 0.037835 0.000000 0.000000 0.000000
# 4 0.000000 0.000000 0.000000 0.037467 0.000000 0.000000
# 5 0.000000 0.000000 0.000000 0.000000 0.038092 0.000000
# 6 0.000000 0.000000 0.000000 0.000000 0.000000 0.027650
#
#
# Mechanical properties :
#
#
# Convention : Reuss Voigt Hill
#
# Bulk Modulus (GPa) = 17.40619 28.68742 23.04681
# Shear Modulus (GPa) = 27.37500 31.95552 29.66526
#
# Velocity S-wave (km/s) = 3.50606 3.78804 3.64977
# Velocity P-wave (km/s) = 4.91995 5.65810 5.30189
#
# Compressibility (1/GPa) = 0.05745081
#
# Stress axis : x y z
#
# Youngs Moduli (GPa) = 94.21879 95.95311 26.43074
#
# Poissons Ratio (x) = 0.20842 -0.07307
# Poissons Ratio (y) = 0.20465 0.03442
# Poissons Ratio (z) = -0.26047 0.12494
#
# Static dielectric constant tensor:
#      x y z
#    x 1.834940 0.000000 0.000000 
#    y 0.000000 1.860500 0.000000 
#    z 0.000000 0.000000 1.860300 
# 
# From -- ./inp_files/7672.got.cif
#   From: 2010.05.17/outbox.cif.g08.bks.cpg/sg33_4_cif.got.tgz:7672.got - 2010.06.03 17:15:25.
