data_PCOD9346673
_publ_section_title
;
Structure prediction by ZEFSAII (Michael W. Deem and Ramdas Pophale) SiO2 
 PCOD9346673
Probable space group: P N A 21
;
_chemical_formula_sum "Si O2"
_cell_formula_units_Z 32
_cell_length_a 12.653512
_cell_length_b 8.516564
_cell_length_c 13.782481
_cell_angle_alpha 90.000000
_cell_angle_beta 90.000000
_cell_angle_gamma 90.000000
_cell_volume 1485.261413
_symmetry_space_group_name_H-M "P N A 21"
_symmetry_group_IT_number 33
_symmetry_cell_setting 'orthorhombic'
loop_
_space_group_symop_operation_xyz
x,y,z
-x,-y,1/2+z
1/2-x,1/2+y,1/2+z
1/2+x,1/2-y,z
loop_
_atom_site_type_symbol
_atom_site_label
_atom_site_fract_x
_atom_site_fract_y
_atom_site_fract_z
Si Si1 0.921645 0.944096 0.433880
Si Si2 0.085358 0.912110 0.610033
Si Si3 0.210288 0.630513 0.547997
Si Si4 0.524290 0.316665 0.303386
Si Si5 0.505698 0.257554 0.642108
Si Si6 0.024212 0.437662 0.449600
Si Si7 0.104502 0.353478 0.819580
Si Si8 0.309765 0.443181 0.726498
O O1 0.807905 0.904806 0.477441
O O2 0.941093 0.811217 0.354809
O O3 0.004237 0.924794 0.520754
O O4 0.939779 0.105777 0.377442
O O5 0.185772 0.811737 0.575186
O O6 0.031928 0.813948 0.698392
O O7 0.089779 0.095617 0.642225
O O8 0.107636 0.559837 0.494459
O O9 0.242996 0.538555 0.646009
O O10 0.564548 0.161011 0.356473
O O11 0.621511 0.434997 0.288786
O O12 0.500710 0.180160 0.537228
O O13 0.542087 0.126109 0.718661
O O14 0.393873 0.331981 0.672648
O O15 0.923734 0.525759 0.404132
O O16 0.227258 0.353733 0.794131
#
# Coordination Sequence:
#
# PCOD9346673 Si02
#       8
#     4   4   4   4   4   4   4   4
#     4  12  24  45  68 102 141 185 229 289 354 416
#     4  11  23  47  71  96 140 183 227 288 347 411
#     4  12  25  43  71 105 138 180 236 291 345 417
#     4  11  24  46  71  99 140 188 225 287 355 410
#     4  11  24  50  70 101 146 184 227 299 352 414
#     4  12  26  43  73 104 143 175 239 291 345 416
#     4  12  26  44  70 104 139 185 235 292 346 425
#     4  11  24  46  72  97 145 182 236 287 352 415
#
# _framework density 21.545029
#
# number of rings (size 3 to 8) (size 9 to 14) (size 15 to 20)
#    0.000    0.500    8.750    0.750    3.500    3.000 
#    2.250    0.000    0.000    0.000    0.000    0.000 
#    0.000    0.000    0.000    0.000    0.000    0.000 
#
# Total GULP energy -178685.860679 kJ/mol
# GULP energy per Si atom -5583.933146 kJ/mol
# Density = 2.149599 g / cm^3
# Si number density = 21.545029 Si / 1000 Ang^3
#
#
#
# Elastic Constant Matrix: (Units=GPa)
#
#
# Indices 1 2 3 4 5 6 
#
# 1 61.0204 5.4021 8.4962 0.0000 0.0000 0.0000
# 2 5.4021 51.3260 12.4756 0.0000 0.0000 0.0000
# 3 8.4962 12.4756 75.9403 0.0000 0.0000 0.0000
# 4 0.0000 0.0000 0.0000 36.8604 0.0000 0.0000
# 5 0.0000 0.0000 0.0000 0.0000 37.8910 0.0000
# 6 0.0000 0.0000 0.0000 0.0000 0.0000 16.0832
#
#
#
# Elastic Compliance Matrix: (Units=1/GPa)
#
#
# Indices 1 2 3 4 5 6 
#
# 1 0.016738 -0.001361 -0.001649 0.000000 0.000000 0.000000
# 2 -0.001361 0.020404 -0.003200 0.000000 0.000000 0.000000
# 3 -0.001649 -0.003200 0.013878 0.000000 0.000000 0.000000
# 4 0.000000 0.000000 0.000000 0.027129 0.000000 0.000000
# 5 0.000000 0.000000 0.000000 0.000000 0.026391 0.000000
# 6 0.000000 0.000000 0.000000 0.000000 0.000000 0.062176
#
#
# Mechanical properties :
#
#
# Convention : Reuss Voigt Hill
#
# Bulk Modulus (GPa) = 25.90587 26.78160 26.34373
# Shear Modulus (GPa) = 26.04102 28.96111 27.50107
#
# Velocity S-wave (km/s) = 3.48038 3.67033 3.57661
# Velocity P-wave (km/s) = 5.31045 5.51537 5.41388
#
# Compressibility (1/GPa) = 0.03860129
#
# Stress axis : x y z
#
# Youngs Moduli (GPa) = 59.74410 49.00925 72.05437
#
# Poissons Ratio (x) = 0.06669 0.11882
# Poissons Ratio (y) = 0.08130 0.23056
# Poissons Ratio (z) = 0.09852 0.15682
#
# Static dielectric constant tensor:
#      x y z
#    x 1.754980 0.000000 0.000000 
#    y 0.000000 1.825950 0.000000 
#    z 0.000000 0.000000 1.818240 
# 
# From -- ./inp_files/7985.got.cif
#   From: 2010.05.17/outbox.cif.g08.bks.cpg/sg33_4_cif.got.tgz:7985.got - 2010.06.03 17:15:25.
