data_PCOD9346068
_publ_section_title
;
Structure prediction by ZEFSAII (Michael W. Deem and Ramdas Pophale) SiO2 
 PCOD9346068
Probable space group: P N A 21
;
_chemical_formula_sum "Si O2"
_cell_formula_units_Z 20
_cell_length_a 9.661769
_cell_length_b 15.398019
_cell_length_c 5.205624
_cell_angle_alpha 90.000000
_cell_angle_beta 90.000000
_cell_angle_gamma 90.000000
_cell_volume 774.451628
_symmetry_space_group_name_H-M "P N A 21"
_symmetry_group_IT_number 33
_symmetry_cell_setting 'orthorhombic'
loop_
_space_group_symop_operation_xyz
x,y,z
-x,-y,1/2+z
1/2-x,1/2+y,1/2+z
1/2+x,1/2-y,z
loop_
_atom_site_type_symbol
_atom_site_label
_atom_site_fract_x
_atom_site_fract_y
_atom_site_fract_z
Si Si1 0.555761 0.541799 0.554550
Si Si2 0.697425 0.173518 0.615411
Si Si3 0.458431 0.133791 0.995959
Si Si4 0.340132 0.986148 0.742981
Si Si5 0.961541 0.219305 0.359283
O O1 0.490367 0.525710 0.277735
O O2 0.720164 0.528942 0.536385
O O3 0.523884 0.633854 0.686433
O O4 0.600022 0.167798 0.864513
O O5 0.699252 0.079915 0.472763
O O6 0.856548 0.203338 0.597474
O O7 0.606352 0.240647 0.446955
O O8 0.354112 0.087696 0.802139
O O9 0.512225 0.050790 0.156472
O O10 0.397266 0.206389 0.176891
#
# Coordination Sequence:
#
# PCOD9346068 Si02
#       5
#     4   4   4   4   4
#     4  11  28  47  71 103 150 193 244 302 366 439
#     4  10  23  43  69  99 149 177 245 296 363 434
#     4  11  22  43  74 100 142 187 240 305 366 442
#     4  10  23  42  71 105 136 189 240 294 361 439
#     4  10  26  43  67 109 137 194 239 303 366 438
#
# _framework density 25.824725000000001
#
# number of rings (size 3 to 8) (size 9 to 14) (size 15 to 20)
#    0.000    1.600    2.000    0.000   11.200    4.800 
#    0.000    0.000    0.000    0.000    0.000    0.000 
#    0.000    0.000    0.000    0.000    0.000    0.000 
#
# Total GULP energy -111931.343853 kJ/mol
# GULP energy per Si atom -5596.567193 kJ/mol
# Density = 2.576595 g / cm^3
# Si number density = 25.824725 Si / 1000 Ang^3
#
#
#
# Elastic Constant Matrix: (Units=GPa)
#
#
# Indices 1 2 3 4 5 6 
#
# 1 90.7616 30.0246 20.2165 0.0000 0.0000 0.0000
# 2 30.0246 102.8424 2.8731 0.0000 0.0000 0.0000
# 3 20.2165 2.8731 66.4036 0.0000 0.0000 0.0000
# 4 0.0000 0.0000 0.0000 35.6509 0.0000 0.0000
# 5 0.0000 0.0000 0.0000 0.0000 16.0870 0.0000
# 6 0.0000 0.0000 0.0000 0.0000 0.0000 26.5682
#
#
#
# Elastic Compliance Matrix: (Units=1/GPa)
#
#
# Indices 1 2 3 4 5 6 
#
# 1 0.013100 -0.003718 -0.003828 0.000000 0.000000 0.000000
# 2 -0.003718 0.010790 0.000665 0.000000 0.000000 0.000000
# 3 -0.003828 0.000665 0.016196 0.000000 0.000000 0.000000
# 4 0.000000 0.000000 0.000000 0.028050 0.000000 0.000000
# 5 0.000000 0.000000 0.000000 0.000000 0.062162 0.000000
# 6 0.000000 0.000000 0.000000 0.000000 0.000000 0.037639
#
#
# Mechanical properties :
#
#
# Convention : Reuss Voigt Hill
#
# Bulk Modulus (GPa) = 37.98499 40.69289 39.33894
# Shear Modulus (GPa) = 26.25043 29.45412 27.85228
#
# Velocity S-wave (km/s) = 3.19169 3.38085 3.28763
# Velocity P-wave (km/s) = 5.32196 5.57062 5.44771
#
# Compressibility (1/GPa) = 0.02632619
#
# Stress axis : x y z
#
# Youngs Moduli (GPa) = 76.33442 92.67494 61.74390
#
# Poissons Ratio (x) = 0.34453 0.23633
# Poissons Ratio (y) = 0.28379 -0.04106
# Poissons Ratio (z) = 0.29217 -0.06163
#
# Static dielectric constant tensor:
#      x y z
#    x 1.993730 0.000000 0.000000 
#    y 0.000000 2.031580 0.000000 
#    z 0.000000 0.000000 2.077030 
# 
# From -- ./inp_files/337.got.cif
#   From: 2010.05.17/outbox.cif.g08.bks.cpg/sg33_1_cif.got.tgz:337.got - 2010.06.03 17:15:25.
