data_PCOD9346765
_publ_section_title
;
Structure prediction by ZEFSAII (Michael W. Deem and Ramdas Pophale) SiO2 
 PCOD9346765
Probable space group: P N A 21
;
_chemical_formula_sum "Si O2"
_cell_formula_units_Z 20
_cell_length_a 18.307034
_cell_length_b 6.343703
_cell_length_c 7.496593
_cell_angle_alpha 90.000000
_cell_angle_beta 90.000000
_cell_angle_gamma 90.000000
_cell_volume 870.612229
_symmetry_space_group_name_H-M "P N A 21"
_symmetry_group_IT_number 33
_symmetry_cell_setting 'orthorhombic'
loop_
_space_group_symop_operation_xyz
x,y,z
-x,-y,1/2+z
1/2-x,1/2+y,1/2+z
1/2+x,1/2-y,z
loop_
_atom_site_type_symbol
_atom_site_label
_atom_site_fract_x
_atom_site_fract_y
_atom_site_fract_z
Si Si1 0.420081 0.532727 0.860750
Si Si2 0.976967 0.696907 0.548197
Si Si3 0.386427 0.927593 0.033455
Si Si4 0.677697 0.055958 0.894043
Si Si5 0.308425 0.199604 0.741920
O O1 0.462084 0.697542 0.737559
O O2 0.359542 0.407214 0.747674
O O3 0.476540 0.364565 0.936040
O O4 0.384131 0.675214 0.015856
O O5 0.899607 0.644373 0.462106
O O6 0.029771 0.496135 0.562091
O O7 0.340992 0.027666 0.196295
O O8 0.352606 0.024455 0.853901
O O9 0.736984 0.235480 0.852820
O O10 0.703494 0.889426 0.043227
#
# Coordination Sequence:
#
# PCOD9346765 Si02
#       5
#     4   4   4   4   4
#     4  11  24  46  71 111 146 195 252 306 383 446
#     4  11  25  42  77 106 146 191 250 311 376 447
#     4  11  25  48  72 107 149 188 250 313 376 450
#     4  12  26  47  75 102 152 195 248 311 377 446
#     4  11  28  47  69 108 147 199 248 305 376 453
#
# _framework density 22.972341
#
# number of rings (size 3 to 8) (size 9 to 14) (size 15 to 20)
#    0.000    0.800    2.000    3.600   11.200    3.200 
#    0.000    0.000    0.000    0.000    0.000    0.000 
#    0.000    0.000    0.000    0.000    0.000    0.000 
#
# Total GULP energy -111905.730048 kJ/mol
# GULP energy per Si atom -5595.286502 kJ/mol
# Density = 2.292005 g / cm^3
# Si number density = 22.972341 Si / 1000 Ang^3
#
#
#
# Elastic Constant Matrix: (Units=GPa)
#
#
# Indices 1 2 3 4 5 6 
#
# 1 124.7291 40.3913 23.7911 0.0000 0.0000 0.0000
# 2 40.3913 95.6440 35.4399 0.0000 0.0000 0.0000
# 3 23.7911 35.4399 122.7448 0.0000 0.0000 0.0000
# 4 0.0000 0.0000 0.0000 43.2604 0.0000 0.0000
# 5 0.0000 0.0000 0.0000 0.0000 36.7254 0.0000
# 6 0.0000 0.0000 0.0000 0.0000 0.0000 25.5740
#
#
#
# Elastic Compliance Matrix: (Units=1/GPa)
#
#
# Indices 1 2 3 4 5 6 
#
# 1 0.009349 -0.003669 -0.000753 0.000000 0.000000 0.000000
# 2 -0.003669 0.013148 -0.003085 0.000000 0.000000 0.000000
# 3 -0.000753 -0.003085 0.009184 0.000000 0.000000 0.000000
# 4 0.000000 0.000000 0.000000 0.023116 0.000000 0.000000
# 5 0.000000 0.000000 0.000000 0.000000 0.027229 0.000000
# 6 0.000000 0.000000 0.000000 0.000000 0.000000 0.039102
#
#
# Mechanical properties :
#
#
# Convention : Reuss Voigt Hill
#
# Bulk Modulus (GPa) = 59.99930 60.26250 60.13090
# Shear Modulus (GPa) = 35.28634 37.34499 36.31566
#
# Velocity S-wave (km/s) = 3.92348 4.03631 3.98029
# Velocity P-wave (km/s) = 6.83372 6.92907 6.88156
#
# Compressibility (1/GPa) = 0.01666686
#
# Stress axis : x y z
#
# Youngs Moduli (GPa) = 106.96108 76.05618 108.88962
#
# Poissons Ratio (x) = 0.27908 0.08196
# Poissons Ratio (y) = 0.39248 0.33593
# Poissons Ratio (z) = 0.08051 0.23464
#
# Static dielectric constant tensor:
#      x y z
#    x 1.857610 0.000000 0.000000 
#    y 0.000000 1.847490 0.000000 
#    z 0.000000 0.000000 1.903400 
# 
# From -- ./inp_files/4576.got.cif
#   From: 2010.05.17/outbox.cif.g08.bks.cpg/sg33_3_cif.got.tgz:4576.got - 2010.06.03 17:15:25.
