data_PCOD9346842
_publ_section_title
;
Structure prediction by ZEFSAII (Michael W. Deem and Ramdas Pophale) SiO2 
 PCOD9346842
Probable space group: P N A 21
;
_chemical_formula_sum "Si O2"
_cell_formula_units_Z 28
_cell_length_a 16.874867
_cell_length_b 11.699181
_cell_length_c 5.337518
_cell_angle_alpha 90.000000
_cell_angle_beta 90.000000
_cell_angle_gamma 90.000000
_cell_volume 1053.744137
_symmetry_space_group_name_H-M "P N A 21"
_symmetry_group_IT_number 33
_symmetry_cell_setting 'orthorhombic'
loop_
_space_group_symop_operation_xyz
x,y,z
-x,-y,1/2+z
1/2-x,1/2+y,1/2+z
1/2+x,1/2-y,z
loop_
_atom_site_type_symbol
_atom_site_label
_atom_site_fract_x
_atom_site_fract_y
_atom_site_fract_z
Si Si1 0.683540 0.444134 0.505970
Si Si2 0.693442 0.091072 0.852515
Si Si3 0.081237 0.901640 0.120240
Si Si4 0.701791 0.771815 0.076407
Si Si5 0.457054 0.847327 0.649813
Si Si6 0.558460 0.371881 0.914358
Si Si7 0.616332 0.947041 0.452179
O O1 0.753771 0.534455 0.571801
O O2 0.632960 0.518662 0.309782
O O3 0.733993 0.335628 0.405677
O O4 0.634424 0.394095 0.738997
O O5 0.743665 0.197249 0.759887
O O6 0.604529 0.122869 0.926140
O O7 0.683044 0.996803 0.635771
O O8 0.139542 0.819220 0.967589
O O9 0.015550 0.825402 0.255516
O O10 0.035766 0.997361 0.967752
O O11 0.651005 0.863129 0.238573
O O12 0.440267 0.710823 0.656573
O O13 0.548044 0.877348 0.598980
O O14 0.426877 0.937387 0.854023
#
# Coordination Sequence:
#
# PCOD9346842 Si02
#       7
#     4   4   4   4   4   4   4
#     4  11  25  46  69 105 149 186 244 305 360 443
#     4  11  26  45  71 109 148 194 240 301 376 436
#     4  11  26  47  71 108 144 192 245 299 375 440
#     4  11  25  46  69 105 151 183 239 308 360 449
#     4  12  25  45  79 108 146 193 245 311 366 449
#     4  12  25  48  74 108 146 192 249 304 373 442
#     4  12  26  49  73 111 146 194 252 302 380 449
#
# _framework density 26.571916000000002
#
# number of rings (size 3 to 8) (size 9 to 14) (size 15 to 20)
#    0.000    0.571    7.143    0.000    6.000    0.000 
#   10.286    0.000    0.000    0.000    0.000    0.000 
#    0.000    0.000    0.000    0.000    0.000    0.000 
#
# Total GULP energy -156381.187257 kJ/mol
# GULP energy per Si atom -5585.042402 kJ/mol
# Density = 2.651144 g / cm^3
# Si number density = 26.571916 Si / 1000 Ang^3
#
#
#
# Elastic Constant Matrix: (Units=GPa)
#
#
# Indices 1 2 3 4 5 6 
#
# 1 122.8976 54.0605 23.5657 0.0000 0.0000 0.0000
# 2 54.0605 137.7123 24.0370 0.0000 0.0000 0.0000
# 3 23.5657 24.0370 39.9277 0.0000 0.0000 0.0000
# 4 0.0000 0.0000 0.0000 33.8344 0.0000 0.0000
# 5 0.0000 0.0000 0.0000 0.0000 35.1046 0.0000
# 6 0.0000 0.0000 0.0000 0.0000 0.0000 48.4262
#
#
#
# Elastic Compliance Matrix: (Units=1/GPa)
#
#
# Indices 1 2 3 4 5 6 
#
# 1 0.010407 -0.003367 -0.004115 0.000000 0.000000 0.000000
# 2 -0.003367 0.009204 -0.003553 0.000000 0.000000 0.000000
# 3 -0.004115 -0.003553 0.029613 0.000000 0.000000 0.000000
# 4 0.000000 0.000000 0.000000 0.029556 0.000000 0.000000
# 5 0.000000 0.000000 0.000000 0.000000 0.028486 0.000000
# 6 0.000000 0.000000 0.000000 0.000000 0.000000 0.020650
#
#
# Mechanical properties :
#
#
# Convention : Reuss Voigt Hill
#
# Bulk Modulus (GPa) = 36.82917 55.98488 46.40702
# Shear Modulus (GPa) = 31.43898 36.73134 34.08516
#
# Velocity S-wave (km/s) = 3.44345 3.72201 3.58544
# Velocity P-wave (km/s) = 5.44978 6.29175 5.88584
#
# Compressibility (1/GPa) = 0.02715239
#
# Stress axis : x y z
#
# Youngs Moduli (GPa) = 96.08824 108.65400 33.76862
#
# Poissons Ratio (x) = 0.36585 0.13897
# Poissons Ratio (y) = 0.32354 0.11999
# Poissons Ratio (z) = 0.39543 0.38608
#
# Static dielectric constant tensor:
#      x y z
#    x 2.092580 0.000000 0.000000 
#    y 0.000000 2.120200 0.000000 
#    z 0.000000 0.000000 2.124640 
# 
# From -- ./inp_files/1736.got.cif
#   From: 2010.05.17/outbox.cif.g08.bks.cpg/sg33_1_cif.got.tgz:1736.got - 2010.06.03 17:15:25.
