data_PCOD9346754
_publ_section_title
;
Structure prediction by ZEFSAII (Michael W. Deem and Ramdas Pophale) SiO2 
 PCOD9346754
Probable space group: P N A 21
;
_chemical_formula_sum "Si O2"
_cell_formula_units_Z 28
_cell_length_a 10.654003
_cell_length_b 9.278426
_cell_length_c 13.088943
_cell_angle_alpha 90.000000
_cell_angle_beta 90.000000
_cell_angle_gamma 90.000000
_cell_volume 1293.873147
_symmetry_space_group_name_H-M "P N A 21"
_symmetry_group_IT_number 33
_symmetry_cell_setting 'orthorhombic'
loop_
_space_group_symop_operation_xyz
x,y,z
-x,-y,1/2+z
1/2-x,1/2+y,1/2+z
1/2+x,1/2-y,z
loop_
_atom_site_type_symbol
_atom_site_label
_atom_site_fract_x
_atom_site_fract_y
_atom_site_fract_z
Si Si1 0.995977 0.681605 0.679640
Si Si2 0.855811 0.165672 0.813258
Si Si3 0.844232 0.573155 0.144795
Si Si4 0.995111 0.104583 0.996798
Si Si5 0.722630 0.639427 0.755303
Si Si6 0.073773 0.118241 0.652910
Si Si7 0.761775 0.439724 0.931943
O O1 0.021001 0.759740 0.571324
O O2 0.850551 0.703916 0.708306
O O3 0.031107 0.513671 0.677796
O O4 0.101538 0.757026 0.750592
O O5 0.747351 0.098203 0.742181
O O6 0.836396 0.324552 0.862271
O O7 0.884298 0.077983 0.916695
O O8 0.979089 0.159494 0.743229
O O9 0.870007 0.735521 0.110057
O O10 0.797019 0.478837 0.048379
O O11 0.123276 0.126825 0.937488
O O12 0.004823 0.966733 0.068709
O O13 0.677143 0.496274 0.693073
O O14 0.754670 0.586375 0.868046
#
# Coordination Sequence:
#
# PCOD9346754 Si02
#       7
#     4   4   4   4   4   4   4
#     4  11  26  45  73 105 142 193 249 310 363 455
#     4  12  23  46  75 104 147 198 243 313 386 437
#     4  12  25  44  72 105 145 190 253 304 373 459
#     4  11  24  45  73 103 145 197 249 308 387 441
#     4  11  25  46  70 103 147 191 250 308 378 441
#     4  11  25  45  72 100 151 194 242 318 372 446
#     4  12  24  43  73 108 145 197 246 307 385 445
#
# _framework density 21.640453000000001
#
# number of rings (size 3 to 8) (size 9 to 14) (size 15 to 20)
#    0.000    0.571    5.714    1.714    4.000    2.286 
#    0.000    0.000    0.000    0.000    0.000    0.000 
#    0.000    0.000    0.000    0.000    0.000    0.000 
#
# Total GULP energy -156264.045945 kJ/mol
# GULP energy per Si atom -5580.858784 kJ/mol
# Density = 2.159120 g / cm^3
# Si number density = 21.640453 Si / 1000 Ang^3
#
#
#
# Elastic Constant Matrix: (Units=GPa)
#
#
# Indices 1 2 3 4 5 6 
#
# 1 101.2062 36.8321 38.4614 0.0000 0.0000 0.0000
# 2 36.8321 99.4902 25.9044 0.0000 0.0000 0.0000
# 3 38.4614 25.9044 110.2668 0.0000 0.0000 0.0000
# 4 0.0000 0.0000 0.0000 11.4104 0.0000 0.0000
# 5 0.0000 0.0000 0.0000 0.0000 32.6945 0.0000
# 6 0.0000 0.0000 0.0000 0.0000 0.0000 27.3043
#
#
#
# Elastic Compliance Matrix: (Units=1/GPa)
#
#
# Indices 1 2 3 4 5 6 
#
# 1 0.012576 -0.003742 -0.003507 0.000000 0.000000 0.000000
# 2 -0.003742 0.011820 -0.001471 0.000000 0.000000 0.000000
# 3 -0.003507 -0.001471 0.010638 0.000000 0.000000 0.000000
# 4 0.000000 0.000000 0.000000 0.087639 0.000000 0.000000
# 5 0.000000 0.000000 0.000000 0.000000 0.030586 0.000000
# 6 0.000000 0.000000 0.000000 0.000000 0.000000 0.036624
#
#
# Mechanical properties :
#
#
# Convention : Reuss Voigt Hill
#
# Bulk Modulus (GPa) = 56.84636 57.03987 56.94312
# Shear Modulus (GPa) = 23.45340 28.26620 25.85980
#
# Velocity S-wave (km/s) = 3.29565 3.61802 3.46059
# Velocity P-wave (km/s) = 6.38806 6.62334 6.50676
#
# Compressibility (1/GPa) = 0.01759127
#
# Stress axis : x y z
#
# Youngs Moduli (GPa) = 79.51863 84.60357 94.00337
#
# Poissons Ratio (x) = 0.31662 0.32969
# Poissons Ratio (y) = 0.29759 0.13832
# Poissons Ratio (z) = 0.27889 0.12449
#
# Static dielectric constant tensor:
#      x y z
#    x 1.823350 0.000000 0.000000 
#    y 0.000000 1.810850 0.000000 
#    z 0.000000 0.000000 1.812100 
# 
# From -- ./inp_files/6343.got.cif
#   From: 2010.05.17/outbox.cif.g08.bks.cpg/sg33_4_cif.got.tgz:6343.got - 2010.06.03 17:15:25.
