data_PCOD9346941
_publ_section_title
;
Structure prediction by ZEFSAII (Michael W. Deem and Ramdas Pophale) SiO2 
 PCOD9346941
Probable space group: P N A 21
;
_chemical_formula_sum "Si O2"
_cell_formula_units_Z 32
_cell_length_a 8.612761
_cell_length_b 11.490093
_cell_length_c 13.746875
_cell_angle_alpha 90.000000
_cell_angle_beta 90.000000
_cell_angle_gamma 90.000000
_cell_volume 1360.410338
_symmetry_space_group_name_H-M "P N A 21"
_symmetry_group_IT_number 33
_symmetry_cell_setting 'orthorhombic'
loop_
_space_group_symop_operation_xyz
x,y,z
-x,-y,1/2+z
1/2-x,1/2+y,1/2+z
1/2+x,1/2-y,z
loop_
_atom_site_type_symbol
_atom_site_label
_atom_site_fract_x
_atom_site_fract_y
_atom_site_fract_z
Si Si1 0.899338 0.913301 0.501040
Si Si2 0.232508 0.137138 0.801143
Si Si3 0.099520 0.384267 0.776249
Si Si4 0.704472 0.490044 0.600568
Si Si5 0.396288 0.192635 0.478154
Si Si6 0.592863 0.215124 0.144359
Si Si7 0.694840 0.858190 0.769899
Si Si8 0.699017 0.115319 0.557858
O O1 0.867227 0.920822 0.386779
O O2 0.911220 0.782193 0.541831
O O3 0.051519 0.974955 0.542390
O O4 0.753754 0.983976 0.544998
O O5 0.195242 0.273650 0.812865
O O6 0.418713 0.116389 0.807814
O O7 0.178902 0.088231 0.696653
O O8 0.181054 0.506683 0.798280
O O9 0.111517 0.372081 0.659544
O O10 0.811281 0.416616 0.527761
O O11 0.789875 0.607361 0.635940
O O12 0.342598 0.210681 0.368234
O O13 0.577048 0.162367 0.479588
O O14 0.348543 0.302398 0.544376
O O15 0.434409 0.167192 0.188048
O O16 0.648946 0.312614 0.221395
#
# Coordination Sequence:
#
# PCOD9346941 Si02
#       8
#     4   4   4   4   4   4   4   4
#     4  12  30  46  81 106 155 199 260 311 395 459
#     4  12  29  49  75 111 151 200 252 319 381 458
#     4  12  25  48  75 106 154 198 250 312 378 448
#     4  12  27  50  72 109 156 194 255 322 375 459
#     4  12  26  43  78 108 154 196 255 306 379 451
#     4  12  26  49  71 108 150 197 244 319 375 454
#     4  12  26  47  76 109 148 199 246 311 379 450
#     4  12  23  48  70 111 146 205 246 316 374 447
#
# _framework density 23.522313
#
# number of rings (size 3 to 8) (size 9 to 14) (size 15 to 20)
#    0.000    0.000    6.250    2.250    7.000    1.000 
#    0.000    0.000    0.000    0.000    0.000    0.000 
#    0.000    0.000    0.000    0.000    0.000    0.000 
#
# Total GULP energy -179226.587871 kJ/mol
# GULP energy per Si atom -5600.830871 kJ/mol
# Density = 2.346878 g / cm^3
# Si number density = 23.522313 Si / 1000 Ang^3
#
#
#
# Elastic Constant Matrix: (Units=GPa)
#
#
# Indices 1 2 3 4 5 6 
#
# 1 70.6035 41.1951 22.2002 0.0000 0.0000 0.0000
# 2 41.1951 104.2822 24.2822 0.0000 0.0000 0.0000
# 3 22.2002 24.2822 64.1087 0.0000 0.0000 0.0000
# 4 0.0000 0.0000 0.0000 19.4647 0.0000 0.0000
# 5 0.0000 0.0000 0.0000 0.0000 20.5884 0.0000
# 6 0.0000 0.0000 0.0000 0.0000 0.0000 35.5554
#
#
#
# Elastic Compliance Matrix: (Units=1/GPa)
#
#
# Indices 1 2 3 4 5 6 
#
# 1 0.019376 -0.006681 -0.004179 0.000000 0.000000 0.000000
# 2 -0.006681 0.012821 -0.002542 0.000000 0.000000 0.000000
# 3 -0.004179 -0.002542 0.018009 0.000000 0.000000 0.000000
# 4 0.000000 0.000000 0.000000 0.051375 0.000000 0.000000
# 5 0.000000 0.000000 0.000000 0.000000 0.048571 0.000000
# 6 0.000000 0.000000 0.000000 0.000000 0.000000 0.028125
#
#
# Mechanical properties :
#
#
# Convention : Reuss Voigt Hill
#
# Bulk Modulus (GPa) = 42.73510 46.03884 44.38697
# Shear Modulus (GPa) = 23.48725 25.20949 24.34837
#
# Velocity S-wave (km/s) = 3.16335 3.27728 3.22082
# Velocity P-wave (km/s) = 5.61691 5.82543 5.72212
#
# Compressibility (1/GPa) = 0.02339997
#
# Stress axis : x y z
#
# Youngs Moduli (GPa) = 51.61066 77.99937 55.52880
#
# Poissons Ratio (x) = 0.52112 0.23206
# Poissons Ratio (y) = 0.34481 0.14118
# Poissons Ratio (z) = 0.21569 0.19831
#
# Static dielectric constant tensor:
#      x y z
#    x 1.879780 0.000000 0.000000 
#    y 0.000000 1.916700 0.000000 
#    z 0.000000 0.000000 1.891300 
# 
# From -- ./inp_files/7701.got.cif
#   From: 2010.05.17/outbox.cif.g08.bks.cpg/sg33_4_cif.got.tgz:7701.got - 2010.06.03 17:15:25.
