data_PCOD9346222
_publ_section_title
;
Structure prediction by ZEFSAII (Michael W. Deem and Ramdas Pophale) SiO2 
 PCOD9346222
Probable space group: P N A 21
;
_chemical_formula_sum "Si O2"
_cell_formula_units_Z 20
_cell_length_a 9.213879
_cell_length_b 5.098926
_cell_length_c 18.313245
_cell_angle_alpha 90.000000
_cell_angle_beta 90.000000
_cell_angle_gamma 90.000000
_cell_volume 860.372498
_symmetry_space_group_name_H-M "P N A 21"
_symmetry_group_IT_number 33
_symmetry_cell_setting 'orthorhombic'
loop_
_space_group_symop_operation_xyz
x,y,z
-x,-y,1/2+z
1/2-x,1/2+y,1/2+z
1/2+x,1/2-y,z
loop_
_atom_site_type_symbol
_atom_site_label
_atom_site_fract_x
_atom_site_fract_y
_atom_site_fract_z
Si Si1 0.118155 0.510326 0.708140
Si Si2 0.114444 0.841147 0.271920
Si Si3 0.484721 0.067454 0.049139
Si Si4 0.260499 0.318788 0.332925
Si Si5 0.340676 0.429250 0.495937
O O1 0.036221 0.261672 0.741853
O O2 0.286332 0.426307 0.702280
O O3 0.042170 0.604348 0.635428
O O4 0.126320 0.729620 0.770546
O O5 0.180780 0.581912 0.309240
O O6 0.147907 0.073948 0.328938
O O7 0.556483 0.322761 0.012962
O O8 0.592177 0.823453 0.035970
O O9 0.324912 0.998175 0.018174
O O10 0.332652 0.357616 0.410611
#
# Coordination Sequence:
#
# PCOD9346222 Si02
#       5
#     4   4   4   4   4
#     4  10  26  44  75 107 144 191 249 307 362 450
#     4  10  24  40  74 100 144 181 254 298 367 424
#     4  12  28  47  80 106 161 192 260 300 400 436
#     4  10  26  43  73 102 149 192 251 297 370 441
#     4  12  28  50  74 113 154 206 242 322 375 463
#
# _framework density 23.245742
#
# number of rings (size 3 to 8) (size 9 to 14) (size 15 to 20)
#    1.200    0.000    0.000    3.600   11.200    0.000 
#    0.000    0.000    0.000    0.000    0.000    0.000 
#    0.000    0.000    0.000    0.000    0.000    0.000 
#
# Total GULP energy -111799.395919 kJ/mol
# GULP energy per Si atom -5589.969796 kJ/mol
# Density = 2.319283 g / cm^3
# Si number density = 23.245742 Si / 1000 Ang^3
#
#
#
# Elastic Constant Matrix: (Units=GPa)
#
#
# Indices 1 2 3 4 5 6 
#
# 1 88.6474 35.6808 39.7470 0.0000 0.0000 0.0000
# 2 35.6808 155.8753 51.4350 0.0000 0.0000 0.0000
# 3 39.7470 51.4350 143.2707 0.0000 0.0000 0.0000
# 4 0.0000 0.0000 0.0000 30.9046 0.0000 0.0000
# 5 0.0000 0.0000 0.0000 0.0000 12.5238 0.0000
# 6 0.0000 0.0000 0.0000 0.0000 0.0000 44.9437
#
#
#
# Elastic Compliance Matrix: (Units=1/GPa)
#
#
# Indices 1 2 3 4 5 6 
#
# 1 0.013462 -0.002098 -0.002982 0.000000 0.000000 0.000000
# 2 -0.002098 0.007604 -0.002148 0.000000 0.000000 0.000000
# 3 -0.002982 -0.002148 0.008578 0.000000 0.000000 0.000000
# 4 0.000000 0.000000 0.000000 0.032358 0.000000 0.000000
# 5 0.000000 0.000000 0.000000 0.000000 0.079848 0.000000
# 6 0.000000 0.000000 0.000000 0.000000 0.000000 0.022250
#
#
# Mechanical properties :
#
#
# Convention : Reuss Voigt Hill
#
# Bulk Modulus (GPa) = 65.83404 71.27988 68.55696
# Shear Modulus (GPa) = 27.23051 35.06980 31.15015
#
# Velocity S-wave (km/s) = 3.42631 3.88835 3.66462
# Velocity P-wave (km/s) = 6.63590 7.13367 6.88928
#
# Compressibility (1/GPa) = 0.01518971
#
# Stress axis : x y z
#
# Youngs Moduli (GPa) = 74.28415 131.50357 116.57549
#
# Poissons Ratio (x) = 0.27585 0.34758
# Poissons Ratio (y) = 0.15582 0.25041
# Poissons Ratio (z) = 0.22148 0.28248
#
# Static dielectric constant tensor:
#      x y z
#    x 1.976030 0.000000 0.000000 
#    y 0.000000 1.874750 0.000000 
#    z 0.000000 0.000000 1.860010 
# 
# From -- ./inp_files/8906.got.cif
#   From: 2010.05.17/outbox.cif.g08.bks.cpg/sg33_5_cif.got.tgz:8906.got - 2010.06.03 17:15:25.
