data_PCOD9346269
_publ_section_title
;
Structure prediction by ZEFSAII (Michael W. Deem and Ramdas Pophale) SiO2 
 PCOD9346269
Probable space group: P N A 21
;
_chemical_formula_sum "Si O2"
_cell_formula_units_Z 28
_cell_length_a 11.109765
_cell_length_b 6.913403
_cell_length_c 16.009587
_cell_angle_alpha 90.000000
_cell_angle_beta 90.000000
_cell_angle_gamma 90.000000
_cell_volume 1229.636865
_symmetry_space_group_name_H-M "P N A 21"
_symmetry_group_IT_number 33
_symmetry_cell_setting 'orthorhombic'
loop_
_space_group_symop_operation_xyz
x,y,z
-x,-y,1/2+z
1/2-x,1/2+y,1/2+z
1/2+x,1/2-y,z
loop_
_atom_site_type_symbol
_atom_site_label
_atom_site_fract_x
_atom_site_fract_y
_atom_site_fract_z
Si Si1 0.421896 0.448174 0.901800
Si Si2 0.084517 0.032997 0.670735
Si Si3 0.160877 0.508585 0.106129
Si Si4 0.530903 0.854164 0.274765
Si Si5 0.723419 0.769451 0.968478
Si Si6 0.120019 0.079866 0.044567
Si Si7 0.078815 0.752356 0.809056
O O1 0.391671 0.262683 0.844029
O O2 0.319417 0.559979 0.952673
O O3 0.469495 0.614185 0.839541
O O4 0.530278 0.394236 0.965193
O O5 0.202943 0.081702 0.619636
O O6 0.109419 0.829639 0.717416
O O7 0.965159 0.014381 0.615534
O O8 0.062284 0.196620 0.739334
O O9 0.096918 0.559395 0.193040
O O10 0.158716 0.284677 0.081899
O O11 0.118439 0.626590 0.024039
O O12 0.460216 0.032079 0.313665
O O13 0.683642 0.714967 0.875184
O O14 0.728757 0.562128 0.016282
#
# Coordination Sequence:
#
# PCOD9346269 Si02
#       7
#     4   4   4   4   4   4   4
#     4  10  24  45  67  99 139 178 231 291 343 423
#     4  11  24  43  65 103 139 175 232 288 346 428
#     4  12  25  42  73 100 133 189 228 287 361 417
#     4  11  24  43  69  97 141 176 231 289 345 419
#     4  11  24  43  70  99 134 183 233 285 352 415
#     4  11  23  47  64 101 142 175 233 285 345 425
#     4  10  24  43  66  97 138 182 226 287 350 411
#
# _framework density 22.770949999999999
#
# number of rings (size 3 to 8) (size 9 to 14) (size 15 to 20)
#    0.000    1.143    4.286    0.857    4.000    2.286 
#    5.143    0.000    0.000    0.000    0.000    0.000 
#    0.000    0.000    0.000    0.000    0.000    0.000 
#
# Total GULP energy -156196.717330 kJ/mol
# GULP energy per Si atom -5578.454190 kJ/mol
# Density = 2.271912 g / cm^3
# Si number density = 22.770950 Si / 1000 Ang^3
#
#
#
# Elastic Constant Matrix: (Units=GPa)
#
#
# Indices 1 2 3 4 5 6 
#
# 1 29.2301 18.3471 12.3679 0.0000 0.0000 0.0000
# 2 18.3471 147.8602 37.6269 0.0000 0.0000 0.0000
# 3 12.3679 37.6269 97.5014 0.0000 0.0000 0.0000
# 4 0.0000 0.0000 0.0000 51.4508 0.0000 0.0000
# 5 0.0000 0.0000 0.0000 0.0000 20.4533 0.0000
# 6 0.0000 0.0000 0.0000 0.0000 0.0000 19.7163
#
#
#
# Elastic Compliance Matrix: (Units=1/GPa)
#
#
# Indices 1 2 3 4 5 6 
#
# 1 0.038053 -0.003874 -0.003332 0.000000 0.000000 0.000000
# 2 -0.003874 0.007894 -0.002555 0.000000 0.000000 0.000000
# 3 -0.003332 -0.002555 0.011665 0.000000 0.000000 0.000000
# 4 0.000000 0.000000 0.000000 0.019436 0.000000 0.000000
# 5 0.000000 0.000000 0.000000 0.000000 0.048892 0.000000
# 6 0.000000 0.000000 0.000000 0.000000 0.000000 0.050719
#
#
# Mechanical properties :
#
#
# Convention : Reuss Voigt Hill
#
# Bulk Modulus (GPa) = 26.25359 45.69726 35.97542
# Shear Modulus (GPa) = 23.93752 32.07406 28.00579
#
# Velocity S-wave (km/s) = 3.24579 3.75714 3.51079
# Velocity P-wave (km/s) = 5.05977 6.23965 5.68043
#
# Compressibility (1/GPa) = 0.03809003
#
# Stress axis : x y z
#
# Youngs Moduli (GPa) = 26.27938 126.67824 85.72711
#
# Poissons Ratio (x) = 0.49073 0.28564
# Poissons Ratio (y) = 0.10180 0.21903
# Poissons Ratio (z) = 0.08756 0.32366
#
# Static dielectric constant tensor:
#      x y z
#    x 1.876050 0.000000 0.000000 
#    y 0.000000 1.870500 0.000000 
#    z 0.000000 0.000000 1.992300 
# 
# From -- ./inp_files/8622.got.cif
#   From: 2010.05.17/outbox.cif.g08.bks.cpg/sg33_5_cif.got.tgz:8622.got - 2010.06.03 17:15:25.
