data_PCOD9346763
_publ_section_title
;
Structure prediction by ZEFSAII (Michael W. Deem and Ramdas Pophale) SiO2 
 PCOD9346763
Probable space group: P N A 21
;
_chemical_formula_sum "Si O2"
_cell_formula_units_Z 24
_cell_length_a 13.625273
_cell_length_b 8.007547
_cell_length_c 8.154834
_cell_angle_alpha 90.000000
_cell_angle_beta 90.000000
_cell_angle_gamma 90.000000
_cell_volume 889.733277
_symmetry_space_group_name_H-M "P N A 21"
_symmetry_group_IT_number 33
_symmetry_cell_setting 'orthorhombic'
loop_
_space_group_symop_operation_xyz
x,y,z
-x,-y,1/2+z
1/2-x,1/2+y,1/2+z
1/2+x,1/2-y,z
loop_
_atom_site_type_symbol
_atom_site_label
_atom_site_fract_x
_atom_site_fract_y
_atom_site_fract_z
Si Si1 0.299579 0.679173 0.576360
Si Si2 0.795079 0.434079 0.722226
Si Si3 0.013975 0.044779 0.257352
Si Si4 0.984272 0.463438 0.546657
Si Si5 0.885006 0.835080 0.049064
Si Si6 0.884962 0.352801 0.256375
O O1 0.252499 0.623185 0.398559
O O2 0.407708 0.609168 0.619041
O O3 0.222561 0.602704 0.704370
O O4 0.289834 0.872825 0.649206
O O5 0.909280 0.397551 0.686561
O O6 0.727356 0.332306 0.594367
O O7 0.084897 0.030022 0.413265
O O8 0.923840 0.171370 0.309783
O O9 0.952813 0.887029 0.200729
O O10 0.916660 0.486013 0.390761
O O11 0.071232 0.339010 0.491537
O O12 0.042797 0.620945 0.604690
#
# Coordination Sequence:
#
# PCOD9346763 Si02
#       6
#     4   4   4   4   4   4
#     4  12  27  45  76 105 154 196 260 318 397 468
#     4  12  27  47  74 109 148 204 254 320 395 470
#     4  11  24  46  71 102 145 190 248 311 386 462
#     4  11  26  44  74 105 144 194 252 314 389 466
#     4  11  26  44  74 105 144 194 252 314 389 466
#     4  11  24  46  71 102 145 190 248 311 386 462
#
# _framework density 26.974377
#
# number of rings (size 3 to 8) (size 9 to 14) (size 15 to 20)
#    0.000    0.667    3.333    3.000    9.333    4.000 
#    0.000    0.000    0.000    0.000    0.000    0.000 
#    0.000    0.000    0.000    0.000    0.000    0.000 
#
# Total GULP energy -133856.484262 kJ/mol
# GULP energy per Si atom -5577.353511 kJ/mol
# Density = 2.691298 g / cm^3
# Si number density = 26.974377 Si / 1000 Ang^3
#
#
#
# Elastic Constant Matrix: (Units=GPa)
#
#
# Indices 1 2 3 4 5 6 
#
# 1 134.4030 3.9083 8.7778 0.0000 0.0000 0.0000
# 2 3.9083 46.8233 3.2946 0.0000 0.0000 0.0000
# 3 8.7778 3.2946 83.7479 0.0000 0.0000 0.0000
# 4 0.0000 0.0000 0.0000 26.7113 0.0000 0.0000
# 5 0.0000 0.0000 0.0000 0.0000 51.3308 0.0000
# 6 0.0000 0.0000 0.0000 0.0000 0.0000 26.6723
#
#
#
# Elastic Compliance Matrix: (Units=1/GPa)
#
#
# Indices 1 2 3 4 5 6 
#
# 1 0.007507 -0.000573 -0.000764 0.000000 0.000000 0.000000
# 2 -0.000573 0.021460 -0.000784 0.000000 0.000000 0.000000
# 3 -0.000764 -0.000784 0.012052 0.000000 0.000000 0.000000
# 4 0.000000 0.000000 0.000000 0.037437 0.000000 0.000000
# 5 0.000000 0.000000 0.000000 0.000000 0.019481 0.000000
# 6 0.000000 0.000000 0.000000 0.000000 0.000000 0.037492
#
#
# Mechanical properties :
#
#
# Convention : Reuss Voigt Hill
#
# Bulk Modulus (GPa) = 27.19184 32.99285 30.09235
# Shear Modulus (GPa) = 32.90983 37.54245 35.22614
#
# Velocity S-wave (km/s) = 3.49670 3.73471 3.61766
# Velocity P-wave (km/s) = 5.13858 5.55474 5.35071
#
# Compressibility (1/GPa) = 0.03677574
#
# Stress axis : x y z
#
# Youngs Moduli (GPa) = 133.21115 46.59863 82.97687
#
# Poissons Ratio (x) = 0.02669 0.06342
# Poissons Ratio (y) = 0.07631 0.06507
# Poissons Ratio (z) = 0.10181 0.03654
#
# Static dielectric constant tensor:
#      x y z
#    x 2.109360 0.000000 0.000000 
#    y 0.000000 2.210270 0.000000 
#    z 0.000000 0.000000 2.237130 
# 
# From -- ./inp_files/4266.got.cif
#   From: 2010.05.17/outbox.cif.g08.bks.cpg/sg33_3_cif.got.tgz:4266.got - 2010.06.03 17:15:25.
