data_PCOD9346028
_publ_section_title
;
Structure prediction by ZEFSAII (Michael W. Deem and Ramdas Pophale) SiO2 
 PCOD9346028
Probable space group: P N A 21
;
_chemical_formula_sum "Si O2"
_cell_formula_units_Z 32
_cell_length_a 11.998268
_cell_length_b 15.240378
_cell_length_c 7.883187
_cell_angle_alpha 90.000000
_cell_angle_beta 90.000000
_cell_angle_gamma 90.000000
_cell_volume 1441.504909
_symmetry_space_group_name_H-M "P N A 21"
_symmetry_group_IT_number 33
_symmetry_cell_setting 'orthorhombic'
loop_
_space_group_symop_operation_xyz
x,y,z
-x,-y,1/2+z
1/2-x,1/2+y,1/2+z
1/2+x,1/2-y,z
loop_
_atom_site_type_symbol
_atom_site_label
_atom_site_fract_x
_atom_site_fract_y
_atom_site_fract_z
Si Si1 0.849821 0.559961 0.894670
Si Si2 0.854285 0.263395 0.971180
Si Si3 0.281266 0.601611 0.271579
Si Si4 0.838561 0.188918 0.345482
Si Si5 0.039436 0.566369 0.632679
Si Si6 0.982537 0.098076 0.876020
Si Si7 0.061064 0.089858 0.266984
Si Si8 0.793219 0.374625 0.405058
O O1 0.762396 0.479963 0.880080
O O2 0.770612 0.642905 0.921641
O O3 0.920842 0.572259 0.723333
O O4 0.938492 0.523029 0.030087
O O5 0.820211 0.215255 0.146689
O O6 0.935357 0.345320 0.022900
O O7 0.913124 0.186852 0.866132
O O8 0.757164 0.310244 0.866224
O O9 0.412668 0.600289 0.251795
O O10 0.226986 0.588848 0.089552
O O11 0.856716 0.282725 0.429473
O O12 0.948745 0.129119 0.350815
O O13 0.134048 0.568493 0.777914
O O14 0.034585 0.092499 0.066276
O O15 0.918638 0.009059 0.831843
O O16 0.172803 0.141376 0.316896
#
# Coordination Sequence:
#
# PCOD9346028 Si02
#       8
#     4   4   4   4   4   4   4   4
#     4  11  22  43  67  93 129 171 219 263 326 395
#     4   9  23  41  65  93 129 174 210 265 329 388
#     4  11  23  44  61  95 132 168 214 273 321 392
#     4  10  23  41  67  92 126 175 209 270 324 389
#     4  10  23  44  66  95 131 173 213 271 328 386
#     4  11  22  42  64  97 127 169 217 267 327 388
#     4  11  23  40  68  95 130 169 217 267 330 383
#     4  11  25  41  64  96 132 167 219 266 325 391
#
# _framework density 22.199023
#
# number of rings (size 3 to 8) (size 9 to 14) (size 15 to 20)
#    0.000    1.500    1.250    3.750    8.750    2.000 
#    4.500    0.000    0.000    0.000    0.000    0.000 
#    0.000    0.000    0.000    0.000    0.000    0.000 
#
# Total GULP energy -178814.773009 kJ/mol
# GULP energy per Si atom -5587.961657 kJ/mol
# Density = 2.214850 g / cm^3
# Si number density = 22.199023 Si / 1000 Ang^3
#
#
#
# Elastic Constant Matrix: (Units=GPa)
#
#
# Indices 1 2 3 4 5 6 
#
# 1 62.9707 15.7000 -7.9844 0.0000 0.0000 0.0000
# 2 15.7000 70.0605 12.8983 0.0000 0.0000 0.0000
# 3 -7.9844 12.8983 22.4186 0.0000 0.0000 0.0000
# 4 0.0000 0.0000 0.0000 27.6536 0.0000 0.0000
# 5 0.0000 0.0000 0.0000 0.0000 26.9059 0.0000
# 6 0.0000 0.0000 0.0000 0.0000 0.0000 31.5659
#
#
#
# Elastic Compliance Matrix: (Units=1/GPa)
#
#
# Indices 1 2 3 4 5 6 
#
# 1 0.018673 -0.006050 0.010131 0.000000 0.000000 0.000000
# 2 -0.006050 0.017924 -0.012467 0.000000 0.000000 0.000000
# 3 0.010131 -0.012467 0.055387 0.000000 0.000000 0.000000
# 4 0.000000 0.000000 0.000000 0.036162 0.000000 0.000000
# 5 0.000000 0.000000 0.000000 0.000000 0.037167 0.000000
# 6 0.000000 0.000000 0.000000 0.000000 0.000000 0.031680
#
#
# Mechanical properties :
#
#
# Convention : Reuss Voigt Hill
#
# Bulk Modulus (GPa) = 13.29557 21.85306 17.57432
# Shear Modulus (GPa) = 20.93498 26.21417 23.57457
#
# Velocity S-wave (km/s) = 3.07426 3.44011 3.26231
# Velocity P-wave (km/s) = 4.31320 5.06405 4.70363
#
# Compressibility (1/GPa) = 0.07521303
#
# Stress axis : x y z
#
# Youngs Moduli (GPa) = 53.55244 55.79022 18.05482
#
# Poissons Ratio (x) = 0.33751 -0.18292
# Poissons Ratio (y) = 0.32398 0.22509
# Poissons Ratio (z) = -0.54255 0.69555
#
# Static dielectric constant tensor:
#      x y z
#    x 1.785140 0.000000 0.000000 
#    y 0.000000 1.796230 0.000000 
#    z 0.000000 0.000000 1.865740 
# 
# From -- ./inp_files/3960.got.cif
#   From: 2010.05.17/outbox.cif.g08.bks.cpg/sg33_2_cif.got.tgz:3960.got - 2010.06.03 17:15:25.
