data_PCOD9346717
_publ_section_title
;
Structure prediction by ZEFSAII (Michael W. Deem and Ramdas Pophale) SiO2 
 PCOD9346717
Probable space group: P N A 21
;
_chemical_formula_sum "Si O2"
_cell_formula_units_Z 24
_cell_length_a 11.377400
_cell_length_b 5.235462
_cell_length_c 15.729898
_cell_angle_alpha 90.000000
_cell_angle_beta 90.000000
_cell_angle_gamma 90.000000
_cell_volume 936.966245
_symmetry_space_group_name_H-M "P N A 21"
_symmetry_group_IT_number 33
_symmetry_cell_setting 'orthorhombic'
loop_
_space_group_symop_operation_xyz
x,y,z
-x,-y,1/2+z
1/2-x,1/2+y,1/2+z
1/2+x,1/2-y,z
loop_
_atom_site_type_symbol
_atom_site_label
_atom_site_fract_x
_atom_site_fract_y
_atom_site_fract_z
Si Si1 0.439858 0.264340 0.676920
Si Si2 0.249737 0.088444 0.978728
Si Si3 0.078312 0.474356 0.332793
Si Si4 0.435926 0.228101 0.121813
Si Si5 0.742624 0.415935 0.254505
Si Si6 0.138851 0.579431 0.937365
O O1 0.480964 0.193285 0.774366
O O2 0.501884 0.499885 0.630537
O O3 0.305856 0.345588 0.699316
O O4 0.475416 0.012439 0.625730
O O5 0.312885 0.074577 0.887203
O O6 0.148689 0.301001 0.978175
O O7 0.195408 0.807329 0.991818
O O8 0.349336 0.183440 0.042848
O O9 0.989711 0.359518 0.401748
O O10 0.129779 0.267130 0.267630
O O11 0.347926 0.208313 0.202488
O O12 0.786485 0.447512 0.350206
#
# Coordination Sequence:
#
# PCOD9346717 Si02
#       6
#     4   4   4   4   4   4
#     4  12  24  44  70 103 137 182 237 286 341 424
#     4  11  27  46  67 105 143 182 229 291 357 413
#     4  11  25  44  74 104 133 189 240 290 339 423
#     4  12  28  44  72 105 146 183 230 295 355 413
#     4  11  24  43  72 103 135 181 239 285 348 412
#     4  11  24  43  71  96 138 181 235 283 346 419
#
# _framework density 25.614584000000001
#
# number of rings (size 3 to 8) (size 9 to 14) (size 15 to 20)
#    0.000    0.667    5.000    1.000    9.333    2.667 
#    0.000    0.000    0.000    0.000    0.000    0.000 
#    0.000    0.000    0.000    0.000    0.000    0.000 
#
# Total GULP energy -134327.067241 kJ/mol
# GULP energy per Si atom -5596.961135 kJ/mol
# Density = 2.555628 g / cm^3
# Si number density = 25.614584 Si / 1000 Ang^3
#
#
#
# Elastic Constant Matrix: (Units=GPa)
#
#
# Indices 1 2 3 4 5 6 
#
# 1 73.1927 33.1967 1.8452 0.0000 0.0000 0.0000
# 2 33.1967 134.7465 31.3180 0.0000 0.0000 0.0000
# 3 1.8452 31.3180 67.7096 0.0000 0.0000 0.0000
# 4 0.0000 0.0000 0.0000 38.1529 0.0000 0.0000
# 5 0.0000 0.0000 0.0000 0.0000 58.3291 0.0000
# 6 0.0000 0.0000 0.0000 0.0000 0.0000 38.9044
#
#
#
# Elastic Compliance Matrix: (Units=1/GPa)
#
#
# Indices 1 2 3 4 5 6 
#
# 1 0.015517 -0.004173 0.001507 0.000000 0.000000 0.000000
# 2 -0.004173 0.009438 -0.004251 0.000000 0.000000 0.000000
# 3 0.001507 -0.004251 0.016694 0.000000 0.000000 0.000000
# 4 0.000000 0.000000 0.000000 0.026210 0.000000 0.000000
# 5 0.000000 0.000000 0.000000 0.000000 0.017144 0.000000
# 6 0.000000 0.000000 0.000000 0.000000 0.000000 0.025704
#
#
# Mechanical properties :
#
#
# Convention : Reuss Voigt Hill
#
# Bulk Modulus (GPa) = 35.95234 45.37429 40.66331
# Shear Modulus (GPa) = 37.36528 41.02986 39.19757
#
# Velocity S-wave (km/s) = 3.82350 4.00661 3.91613
# Velocity P-wave (km/s) = 5.79298 6.25752 6.02973
#
# Compressibility (1/GPa) = 0.02781460
#
# Stress axis : x y z
#
# Youngs Moduli (GPa) = 64.44394 105.95883 59.90057
#
# Poissons Ratio (x) = 0.44220 -0.09029
# Poissons Ratio (y) = 0.26894 0.25467
# Poissons Ratio (z) = -0.09714 0.45048
#
# Static dielectric constant tensor:
#      x y z
#    x 2.036360 0.000000 0.000000 
#    y 0.000000 2.057630 0.000000 
#    z 0.000000 0.000000 2.030560 
# 
# From -- ./inp_files/7867.got.cif
#   From: 2010.05.17/outbox.cif.g08.bks.cpg/sg33_4_cif.got.tgz:7867.got - 2010.06.03 17:15:25.
