data_PCOD9346902
_publ_section_title
;
Structure prediction by ZEFSAII (Michael W. Deem and Ramdas Pophale) SiO2 
 PCOD9346902
Probable space group: P N A 21
;
_chemical_formula_sum "Si O2"
_cell_formula_units_Z 28
_cell_length_a 12.843920
_cell_length_b 15.628717
_cell_length_c 6.016524
_cell_angle_alpha 90.000000
_cell_angle_beta 90.000000
_cell_angle_gamma 90.000000
_cell_volume 1207.720874
_symmetry_space_group_name_H-M "P N A 21"
_symmetry_group_IT_number 33
_symmetry_cell_setting 'orthorhombic'
loop_
_space_group_symop_operation_xyz
x,y,z
-x,-y,1/2+z
1/2-x,1/2+y,1/2+z
1/2+x,1/2-y,z
loop_
_atom_site_type_symbol
_atom_site_label
_atom_site_fract_x
_atom_site_fract_y
_atom_site_fract_z
Si Si1 0.194188 0.725357 0.423190
Si Si2 0.510165 0.534196 0.700460
Si Si3 0.479987 0.137498 0.626355
Si Si4 0.797265 0.903032 0.746022
Si Si5 0.282796 0.375979 0.230856
Si Si6 0.836209 0.748720 0.048370
Si Si7 0.636350 0.023878 0.920952
O O1 0.107715 0.689811 0.258098
O O2 0.219119 0.650836 0.594416
O O3 0.167008 0.811983 0.549111
O O4 0.302614 0.748180 0.302481
O O5 0.533059 0.499347 0.446666
O O6 0.411079 0.592817 0.640579
O O7 0.622656 0.563304 0.786977
O O8 0.550619 0.209005 0.505769
O O9 0.559951 0.085848 0.786183
O O10 0.424872 0.063164 0.483895
O O11 0.738537 0.992161 0.787434
O O12 0.815826 0.843933 0.961414
O O13 0.242765 0.315623 0.426393
O O14 0.184660 0.427916 0.133604
#
# Coordination Sequence:
#
# PCOD9346902 Si02
#       7
#     4   4   4   4   4   4   4
#     4  11  26  48  72 106 148 202 250 320 392 475
#     4  12  30  47  81 114 152 206 258 320 398 459
#     4  12  26  43  81 102 150 192 258 318 398 459
#     4  11  27  47  74 107 154 194 260 321 388 470
#     4  11  27  47  74 107 154 194 260 321 388 470
#     4  11  26  48  72 106 148 202 250 320 392 475
#     4  12  24  48  70 118 138 198 252 332 376 462
#
# _framework density 23.184165
#
# number of rings (size 3 to 8) (size 9 to 14) (size 15 to 20)
#    0.000    0.571    4.286    1.714   12.000    0.000 
#    0.000    0.000    0.000    0.000    0.000    0.000 
#    0.000    0.000    0.000    0.000    0.000    0.000 
#
# Total GULP energy -156240.228487 kJ/mol
# GULP energy per Si atom -5580.008160 kJ/mol
# Density = 2.313140 g / cm^3
# Si number density = 23.184165 Si / 1000 Ang^3
#
#
#
# Elastic Constant Matrix: (Units=GPa)
#
#
# Indices 1 2 3 4 5 6 
#
# 1 101.5359 10.0639 1.2688 0.0000 0.0000 0.0000
# 2 10.0639 46.9616 16.1764 0.0000 0.0000 0.0000
# 3 1.2688 16.1764 32.3708 0.0000 0.0000 0.0000
# 4 0.0000 0.0000 0.0000 23.8128 0.0000 0.0000
# 5 0.0000 0.0000 0.0000 0.0000 35.4699 0.0000
# 6 0.0000 0.0000 0.0000 0.0000 0.0000 -87.3173
#
#
#
# Elastic Compliance Matrix: (Units=1/GPa)
#
#
# Indices 1 2 3 4 5 6 
#
# 1 0.010081 -0.002445 0.000827 0.000000 0.000000 0.000000
# 2 -0.002445 0.026315 -0.013054 0.000000 0.000000 0.000000
# 3 0.000827 -0.013054 0.037383 0.000000 0.000000 0.000000
# 4 0.000000 0.000000 0.000000 0.041994 0.000000 0.000000
# 5 0.000000 0.000000 0.000000 0.000000 0.028193 0.000000
# 6 0.000000 0.000000 0.000000 0.000000 0.000000 -0.011452
#
#
# Mechanical properties :
#
#
# Convention : Reuss Voigt Hill
#
# Bulk Modulus (GPa) = 22.50559 26.20963 24.35761
# Shear Modulus (GPa) = 28.30145 4.61704 16.45925
#
# Velocity S-wave (km/s) = 3.49768 1.41272 2.66735
# Velocity P-wave (km/s) = 5.10294 3.74040 4.47385
#
# Compressibility (1/GPa) = 0.04443341
#
# Stress axis : x y z
#
# Youngs Moduli (GPa) = 99.19901 38.00166 26.75003
#
# Poissons Ratio (x) = 0.09292 -0.02212
# Poissons Ratio (y) = 0.24255 0.34920
# Poissons Ratio (z) = -0.08201 0.49608
#
# Static dielectric constant tensor:
#      x y z
#    x 1.872230 0.000000 0.000000 
#    y 0.000000 1.949820 0.000000 
#    z 0.000000 0.000000 1.915190 
# 
# From -- ./inp_files/904.got.cif
#   From: 2010.05.17/outbox.cif.g08.bks.cpg/sg33_1_cif.got.tgz:904.got - 2010.06.03 17:15:25.
