data_PCOD9346703
_publ_section_title
;
Structure prediction by ZEFSAII (Michael W. Deem and Ramdas Pophale) SiO2 
 PCOD9346703
Probable space group: P N A 21
;
_chemical_formula_sum "Si O2"
_cell_formula_units_Z 20
_cell_length_a 18.419492
_cell_length_b 4.649076
_cell_length_c 8.551007
_cell_angle_alpha 90.000000
_cell_angle_beta 90.000000
_cell_angle_gamma 90.000000
_cell_volume 732.253669
_symmetry_space_group_name_H-M "P N A 21"
_symmetry_group_IT_number 33
_symmetry_cell_setting 'orthorhombic'
loop_
_space_group_symop_operation_xyz
x,y,z
-x,-y,1/2+z
1/2-x,1/2+y,1/2+z
1/2+x,1/2-y,z
loop_
_atom_site_type_symbol
_atom_site_label
_atom_site_fract_x
_atom_site_fract_y
_atom_site_fract_z
Si Si1 0.614729 0.309101 0.756600
Si Si2 0.670800 0.999647 0.475475
Si Si3 0.412676 0.071976 0.685268
Si Si4 0.528756 0.811419 0.871478
Si Si5 0.772569 0.532247 0.470716
O O1 0.617166 0.177991 0.585124
O O2 0.592608 0.634218 0.786401
O O3 0.691777 0.209784 0.827895
O O4 0.551194 0.146561 0.853383
O O5 0.624729 0.825655 0.345847
O O6 0.728792 0.246148 0.425783
O O7 0.717569 0.749863 0.554707
O O8 0.458037 0.803979 0.760522
O O9 0.340707 0.018523 0.582851
O O10 0.462564 0.237849 0.557786
#
# Coordination Sequence:
#
# PCOD9346703 Si02
#       5
#     4   4   4   4   4
#     4  11  24  44  66 100 141 184 238 297 362 435
#     4  12  24  42  71 101 138 187 239 298 364 432
#     4  11  26  47  73 105 145 189 244 303 364 437
#     4  11  26  45  70 102 142 188 238 300 366 431
#     4  11  24  42  68 102 140 186 239 300 362 433
#
# _framework density 27.312935
#
# number of rings (size 3 to 8) (size 9 to 14) (size 15 to 20)
#    0.000    0.800    0.000    7.200    0.000   12.800 
#    0.000    0.000    0.000    0.000    0.000    0.000 
#    0.000    0.000    0.000    0.000    0.000    0.000 
#
# Total GULP energy -111663.245056 kJ/mol
# GULP energy per Si atom -5583.162253 kJ/mol
# Density = 2.725077 g / cm^3
# Si number density = 27.312935 Si / 1000 Ang^3
#
#
#
# Elastic Constant Matrix: (Units=GPa)
#
#
# Indices 1 2 3 4 5 6 
#
# 1 123.1643 25.8435 22.5445 0.0000 0.0000 0.0000
# 2 25.8435 91.8728 13.0744 0.0000 0.0000 0.0000
# 3 22.5445 13.0744 134.1740 0.0000 0.0000 0.0000
# 4 0.0000 0.0000 0.0000 31.9342 0.0000 0.0000
# 5 0.0000 0.0000 0.0000 0.0000 47.6714 0.0000
# 6 0.0000 0.0000 0.0000 0.0000 0.0000 36.2010
#
#
#
# Elastic Compliance Matrix: (Units=1/GPa)
#
#
# Indices 1 2 3 4 5 6 
#
# 1 0.008834 -0.002306 -0.001260 0.000000 0.000000 0.000000
# 2 -0.002306 0.011639 -0.000747 0.000000 0.000000 0.000000
# 3 -0.001260 -0.000747 0.007737 0.000000 0.000000 0.000000
# 4 0.000000 0.000000 0.000000 0.031314 0.000000 0.000000
# 5 0.000000 0.000000 0.000000 0.000000 0.020977 0.000000
# 6 0.000000 0.000000 0.000000 0.000000 0.000000 0.027624
#
#
# Mechanical properties :
#
#
# Convention : Reuss Voigt Hill
#
# Bulk Modulus (GPa) = 51.05564 52.45956 51.75760
# Shear Modulus (GPa) = 40.55870 42.34457 41.45163
#
# Velocity S-wave (km/s) = 3.85770 3.94172 3.89994
# Velocity P-wave (km/s) = 6.21095 6.32177 6.26660
#
# Compressibility (1/GPa) = 0.01958647
#
# Stress axis : x y z
#
# Youngs Moduli (GPa) = 113.20441 85.91469 129.24206
#
# Poissons Ratio (x) = 0.19809 0.16279
# Poissons Ratio (y) = 0.26100 0.09652
# Poissons Ratio (z) = 0.14259 0.06416
#
# Static dielectric constant tensor:
#      x y z
#    x 2.312300 0.000000 0.000000 
#    y 0.000000 2.058370 0.000000 
#    z 0.000000 0.000000 2.220680 
# 
# From -- ./inp_files/4607.got.cif
#   From: 2010.05.17/outbox.cif.g08.bks.cpg/sg33_3_cif.got.tgz:4607.got - 2010.06.03 17:15:25.
