data_PCOD9346060
_publ_section_title
;
Structure prediction by ZEFSAII (Michael W. Deem and Ramdas Pophale) SiO2 
 PCOD9346060
Probable space group: P N A 21
;
_chemical_formula_sum "Si O2"
_cell_formula_units_Z 28
_cell_length_a 5.795781
_cell_length_b 23.066667
_cell_length_c 9.554313
_cell_angle_alpha 90.000000
_cell_angle_beta 90.000000
_cell_angle_gamma 90.000000
_cell_volume 1277.309898
_symmetry_space_group_name_H-M "P N A 21"
_symmetry_group_IT_number 33
_symmetry_cell_setting 'orthorhombic'
loop_
_space_group_symop_operation_xyz
x,y,z
-x,-y,1/2+z
1/2-x,1/2+y,1/2+z
1/2+x,1/2-y,z
loop_
_atom_site_type_symbol
_atom_site_label
_atom_site_fract_x
_atom_site_fract_y
_atom_site_fract_z
Si Si1 0.673444 0.400566 0.383660
Si Si2 0.339304 0.891728 0.410362
Si Si3 0.135329 0.574034 0.174632
Si Si4 0.956732 0.982961 0.408486
Si Si5 0.769158 0.233247 0.951200
Si Si6 0.117374 0.544981 0.632541
Si Si7 0.301878 0.726548 0.772388
O O1 0.748295 0.394843 0.544139
O O2 0.470347 0.448448 0.384674
O O3 0.866313 0.432515 0.289327
O O4 0.635899 0.339712 0.308748
O O5 0.462381 0.885542 0.261111
O O6 0.193442 0.835917 0.450471
O O7 0.512982 0.904448 0.536868
O O8 0.199550 0.951223 0.397128
O O9 0.305217 0.549291 0.293089
O O10 0.014933 0.515467 0.120016
O O11 0.864100 0.969038 0.563323
O O12 0.508594 0.241670 0.888510
O O13 0.729276 0.259545 0.106805
O O14 0.536370 0.760292 0.824256
#
# Coordination Sequence:
#
# PCOD9346060 Si02
#       7
#     4   4   4   4   4   4   4
#     4  12  23  42  70 102 143 181 234 306 350 440
#     4  11  24  42  69  96 143 178 234 294 352 440
#     4  11  24  42  60 106 144 181 228 283 378 436
#     4  11  24  40  67 104 139 189 227 286 372 427
#     4  10  23  42  69 100 128 180 244 298 345 410
#     4  11  22  40  65 103 138 181 230 283 356 429
#     4  10  24  44  66 101 133 182 245 298 355 408
#
# _framework density 21.92107
#
# number of rings (size 3 to 8) (size 9 to 14) (size 15 to 20)
#    0.000    1.143    2.857    3.429    8.000    2.286 
#    0.000    1.429    0.000    0.000    0.000    0.000 
#    0.000    0.000    0.000    0.000    0.000    0.000 
#
# Total GULP energy -156145.628439 kJ/mol
# GULP energy per Si atom -5576.629587 kJ/mol
# Density = 2.187118 g / cm^3
# Si number density = 21.921070 Si / 1000 Ang^3
#
#
#
# Elastic Constant Matrix: (Units=GPa)
#
#
# Indices 1 2 3 4 5 6 
#
# 1 77.5018 -1.9222 6.2499 0.0000 0.0000 0.0000
# 2 -1.9222 102.3860 11.0030 0.0000 0.0000 0.0000
# 3 6.2499 11.0030 86.1510 0.0000 0.0000 0.0000
# 4 0.0000 0.0000 0.0000 25.6759 0.0000 0.0000
# 5 0.0000 0.0000 0.0000 0.0000 17.8190 0.0000
# 6 0.0000 0.0000 0.0000 0.0000 0.0000 28.0953
#
#
#
# Elastic Compliance Matrix: (Units=1/GPa)
#
#
# Indices 1 2 3 4 5 6 
#
# 1 0.012991 0.000350 -0.000987 0.000000 0.000000 0.000000
# 2 0.000350 0.009912 -0.001291 0.000000 0.000000 0.000000
# 3 -0.000987 -0.001291 0.011844 0.000000 0.000000 0.000000
# 4 0.000000 0.000000 0.000000 0.038947 0.000000 0.000000
# 5 0.000000 0.000000 0.000000 0.000000 0.056120 0.000000
# 6 0.000000 0.000000 0.000000 0.000000 0.000000 0.035593
#
#
# Mechanical properties :
#
#
# Convention : Reuss Voigt Hill
#
# Bulk Modulus (GPa) = 32.37241 32.96670 32.66956
# Shear Modulus (GPa) = 27.84558 31.03191 29.43874
#
# Velocity S-wave (km/s) = 3.56795 3.76655 3.66859
# Velocity P-wave (km/s) = 5.63679 5.82987 5.73414
#
# Compressibility (1/GPa) = 0.03089050
#
# Stress axis : x y z
#
# Youngs Moduli (GPa) = 76.97512 100.88471 84.43042
#
# Poissons Ratio (x) = -0.03531 0.08335
# Poissons Ratio (y) = -0.02694 0.10903
# Poissons Ratio (z) = 0.07599 0.13028
#
# Static dielectric constant tensor:
#      x y z
#    x 1.956100 0.000000 0.000000 
#    y 0.000000 1.785580 0.000000 
#    z 0.000000 0.000000 1.815590 
# 
# From -- ./inp_files/2730.got.cif
#   From: 2010.05.17/outbox.cif.g08.bks.cpg/sg33_2_cif.got.tgz:2730.got - 2010.06.03 17:15:25.
