data_PCOD9346344
_publ_section_title
;
Structure prediction by ZEFSAII (Michael W. Deem and Ramdas Pophale) SiO2 
 PCOD9346344
Probable space group: P N A 21
;
_chemical_formula_sum "Si O2"
_cell_formula_units_Z 28
_cell_length_a 8.752777
_cell_length_b 23.196978
_cell_length_c 5.316019
_cell_angle_alpha 90.000000
_cell_angle_beta 90.000000
_cell_angle_gamma 90.000000
_cell_volume 1079.353736
_symmetry_space_group_name_H-M "P N A 21"
_symmetry_group_IT_number 33
_symmetry_cell_setting 'orthorhombic'
loop_
_space_group_symop_operation_xyz
x,y,z
-x,-y,1/2+z
1/2-x,1/2+y,1/2+z
1/2+x,1/2-y,z
loop_
_atom_site_type_symbol
_atom_site_label
_atom_site_fract_x
_atom_site_fract_y
_atom_site_fract_z
Si Si1 0.523375 0.253729 0.364120
Si Si2 0.729483 0.717019 0.512217
Si Si3 0.340811 0.952187 0.715639
Si Si4 0.766005 0.118607 0.626455
Si Si5 0.443682 0.075752 0.843654
Si Si6 0.927635 0.024076 0.874961
Si Si7 0.274376 0.182338 0.676805
O O1 0.421257 0.291035 0.174081
O O2 0.415201 0.213400 0.532370
O O3 0.629104 0.211625 0.199006
O O4 0.624395 0.297713 0.527596
O O5 0.740418 0.681151 0.254514
O O6 0.731272 0.784189 0.440150
O O7 0.487199 0.916440 0.622084
O O8 0.242282 0.982309 0.490546
O O9 0.226633 0.906545 0.845270
O O10 0.395646 0.009298 0.854148
O O11 0.596907 0.092218 0.687969
O O12 0.908571 0.088842 0.769596
O O13 0.312232 0.116663 0.738667
O O14 0.033436 0.011343 0.118820
#
# Coordination Sequence:
#
# PCOD9346344 Si02
#       7
#     4   4   4   4   4   4   4
#     4  10  24  46  71 112 153 195 255 318 395 471
#     4  11  24  47  71 112 149 198 256 310 401 464
#     4  11  24  45  73 108 146 197 259 326 387 474
#     4  11  24  44  76 102 151 204 252 324 392 470
#     4  11  24  44  72 109 145 194 261 318 396 459
#     4  11  24  47  69 102 146 194 255 313 384 464
#     4  11  24  45  76 107 156 196 254 325 389 478
#
# _framework density 25.941447
#
# number of rings (size 3 to 8) (size 9 to 14) (size 15 to 20)
#    0.000    1.143    2.857    2.571    0.000   11.429 
#    5.143    0.000    0.000    0.000    0.000    0.000 
#    0.000    0.000    0.000    0.000    0.000    0.000 
#
# Total GULP energy -156339.916705 kJ/mol
# GULP energy per Si atom -5583.568454 kJ/mol
# Density = 2.588240 g / cm^3
# Si number density = 25.941447 Si / 1000 Ang^3
#
#
#
# Elastic Constant Matrix: (Units=GPa)
#
#
# Indices 1 2 3 4 5 6 
#
# 1 99.7926 27.8633 39.1632 0.0000 0.0000 0.0000
# 2 27.8633 132.0232 38.2107 0.0000 0.0000 0.0000
# 3 39.1632 38.2107 119.5406 0.0000 0.0000 0.0000
# 4 0.0000 0.0000 0.0000 22.7173 0.0000 0.0000
# 5 0.0000 0.0000 0.0000 0.0000 53.0624 0.0000
# 6 0.0000 0.0000 0.0000 0.0000 0.0000 31.5851
#
#
#
# Elastic Compliance Matrix: (Units=1/GPa)
#
#
# Indices 1 2 3 4 5 6 
#
# 1 0.011765 -0.001507 -0.003373 0.000000 0.000000 0.000000
# 2 -0.001507 0.008540 -0.002236 0.000000 0.000000 0.000000
# 3 -0.003373 -0.002236 0.010185 0.000000 0.000000 0.000000
# 4 0.000000 0.000000 0.000000 0.044019 0.000000 0.000000
# 5 0.000000 0.000000 0.000000 0.000000 0.018846 0.000000
# 6 0.000000 0.000000 0.000000 0.000000 0.000000 0.031661
#
#
# Mechanical properties :
#
#
# Convention : Reuss Voigt Hill
#
# Bulk Modulus (GPa) = 61.50598 62.42562 61.96580
# Shear Modulus (GPa) = 34.56236 37.88092 36.22164
#
# Velocity S-wave (km/s) = 3.65406 3.82546 3.74074
# Velocity P-wave (km/s) = 6.44700 6.60519 6.52658
#
# Compressibility (1/GPa) = 0.01625858
#
# Stress axis : x y z
#
# Youngs Moduli (GPa) = 84.99685 117.10158 98.18319
#
# Poissons Ratio (x) = 0.17646 0.33115
# Poissons Ratio (y) = 0.12808 0.21954
# Poissons Ratio (z) = 0.28667 0.26184
#
# Static dielectric constant tensor:
#      x y z
#    x 2.082720 0.000000 0.000000 
#    y 0.000000 2.025370 0.000000 
#    z 0.000000 0.000000 2.349370 
# 
# From -- ./inp_files/528.got.cif
#   From: 2010.05.17/outbox.cif.g08.bks.cpg/sg33_1_cif.got.tgz:528.got - 2010.06.03 17:15:25.
