data_PCOD9346133
_publ_section_title
;
Structure prediction by ZEFSAII (Michael W. Deem and Ramdas Pophale) SiO2 
 PCOD9346133
Probable space group: P N A 21
;
_chemical_formula_sum "Si O2"
_cell_formula_units_Z 24
_cell_length_a 14.056547
_cell_length_b 12.018291
_cell_length_c 5.890048
_cell_angle_alpha 90.000000
_cell_angle_beta 90.000000
_cell_angle_gamma 90.000000
_cell_volume 995.039219
_symmetry_space_group_name_H-M "P N A 21"
_symmetry_group_IT_number 33
_symmetry_cell_setting 'orthorhombic'
loop_
_space_group_symop_operation_xyz
x,y,z
-x,-y,1/2+z
1/2-x,1/2+y,1/2+z
1/2+x,1/2-y,z
loop_
_atom_site_type_symbol
_atom_site_label
_atom_site_fract_x
_atom_site_fract_y
_atom_site_fract_z
Si Si1 0.603793 0.300987 0.192640
Si Si2 0.402709 0.292474 0.936230
Si Si3 0.404171 0.135291 0.557575
Si Si4 0.550218 0.482046 0.498887
Si Si5 0.392113 0.921749 0.868599
Si Si6 0.786696 0.411544 0.152218
O O1 0.582947 0.358370 0.436894
O O2 0.651243 0.181008 0.230958
O O3 0.678535 0.388135 0.086893
O O4 0.509954 0.288378 0.039519
O O5 0.399191 0.254934 0.675357
O O6 0.372388 0.418379 0.987087
O O7 0.344436 0.193532 0.050400
O O8 0.503667 0.125550 0.427210
O O9 0.311225 0.106597 0.414236
O O10 0.411594 0.033342 0.730719
O O11 0.506526 0.491045 0.754652
O O12 0.328348 0.970344 0.071765
#
# Coordination Sequence:
#
# PCOD9346133 Si02
#       6
#     4   4   4   4   4   4
#     4  11  24  45  67 101 139 188 232 295 359 431
#     4  10  23  44  69  96 139 181 230 293 363 428
#     4  11  20  41  72  94 130 178 227 294 356 425
#     4  10  23  45  70  97 137 188 235 285 360 434
#     4  11  21  41  66  95 131 175 225 291 358 421
#     4  11  25  42  66 105 132 180 247 288 358 435
#
# _framework density 24.119651999999999
#
# number of rings (size 3 to 8) (size 9 to 14) (size 15 to 20)
#    0.000    1.333    3.333    2.000    2.333    2.667 
#   24.000    0.000    0.000    0.000    0.000    0.000 
#    0.000    0.000    0.000    0.000    0.000    0.000 
#
# Total GULP energy -133789.456586 kJ/mol
# GULP energy per Si atom -5574.560691 kJ/mol
# Density = 2.406475 g / cm^3
# Si number density = 24.119652 Si / 1000 Ang^3
#
#
#
# Elastic Constant Matrix: (Units=GPa)
#
#
# Indices 1 2 3 4 5 6 
#
# 1 83.6555 -7.2801 10.5396 0.0000 0.0000 0.0000
# 2 -7.2801 101.8276 -0.9321 0.0000 0.0000 0.0000
# 3 10.5396 -0.9321 54.4339 0.0000 0.0000 0.0000
# 4 0.0000 0.0000 0.0000 45.3676 0.0000 0.0000
# 5 0.0000 0.0000 0.0000 0.0000 1.7511 0.0000
# 6 0.0000 0.0000 0.0000 0.0000 0.0000 21.9524
#
#
#
# Elastic Compliance Matrix: (Units=1/GPa)
#
#
# Indices 1 2 3 4 5 6 
#
# 1 0.012327 0.000860 -0.002372 0.000000 0.000000 0.000000
# 2 0.000860 0.009882 0.000003 0.000000 0.000000 0.000000
# 3 -0.002372 0.000003 0.018830 0.000000 0.000000 0.000000
# 4 0.000000 0.000000 0.000000 0.022042 0.000000 0.000000
# 5 0.000000 0.000000 0.000000 0.000000 0.571084 0.000000
# 6 0.000000 0.000000 0.000000 0.000000 0.000000 0.045553
#
#
# Mechanical properties :
#
#
# Convention : Reuss Voigt Hill
#
# Bulk Modulus (GPa) = 26.30179 27.17465 26.73822
# Shear Modulus (GPa) = 7.18998 29.65351 18.42175
#
# Velocity S-wave (km/s) = 1.72842 3.51013 2.76663
# Velocity P-wave (km/s) = 3.86156 5.26489 4.61686
#
# Compressibility (1/GPa) = 0.03802022
#
# Stress axis : x y z
#
# Youngs Moduli (GPa) = 81.11970 101.19410 53.10606
#
# Poissons Ratio (x) = -0.08699 0.12597
# Poissons Ratio (y) = -0.06973 -0.00015
# Poissons Ratio (z) = 0.19243 -0.00028
#
# Static dielectric constant tensor:
#      x y z
#    x 1.988560 0.000000 0.000000 
#    y 0.000000 1.898310 0.000000 
#    z 0.000000 0.000000 2.124480 
# 
# From -- ./inp_files/1267.got.cif
#   From: 2010.05.17/outbox.cif.g08.bks.cpg/sg33_1_cif.got.tgz:1267.got - 2010.06.03 17:15:25.
