data_PCOD9346181
_publ_section_title
;
Structure prediction by ZEFSAII (Michael W. Deem and Ramdas Pophale) SiO2 
 PCOD9346181
Probable space group: P N A 21
;
_chemical_formula_sum "Si O2"
_cell_formula_units_Z 20
_cell_length_a 8.854288
_cell_length_b 9.190690
_cell_length_c 9.631433
_cell_angle_alpha 90.000000
_cell_angle_beta 90.000000
_cell_angle_gamma 90.000000
_cell_volume 783.777279
_symmetry_space_group_name_H-M "P N A 21"
_symmetry_group_IT_number 33
_symmetry_cell_setting 'orthorhombic'
loop_
_space_group_symop_operation_xyz
x,y,z
-x,-y,1/2+z
1/2-x,1/2+y,1/2+z
1/2+x,1/2-y,z
loop_
_atom_site_type_symbol
_atom_site_label
_atom_site_fract_x
_atom_site_fract_y
_atom_site_fract_z
Si Si1 0.683960 0.285805 0.856210
Si Si2 0.444266 0.128201 0.670827
Si Si3 0.767534 0.807782 0.941727
Si Si4 0.085982 0.903437 0.528490
Si Si5 0.492713 0.171948 0.246483
O O1 0.593626 0.196082 0.738088
O O2 0.818309 0.377081 0.790238
O O3 0.772303 0.185568 0.965974
O O4 0.557293 0.381000 0.929539
O O5 0.363378 0.227022 0.554270
O O6 0.472474 0.958177 0.638362
O O7 0.663859 0.872148 0.818994
O O8 0.877833 0.695820 0.863453
O O9 0.863451 0.931163 0.019475
O O10 0.038047 0.825899 0.671336
#
# Coordination Sequence:
#
# PCOD9346181 Si02
#       5
#     4   4   4   4   4
#     4  10  23  46  72 104 147 190 249 306 374 442
#     4  11  24  47  73 109 147 199 247 314 378 447
#     4  12  26  45  71 108 147 195 247 311 373 449
#     4  11  24  47  72 105 144 200 240 313 373 442
#     4  12  27  47  76 110 149 198 257 308 376 462
#
# _framework density 25.517453
#
# number of rings (size 3 to 8) (size 9 to 14) (size 15 to 20)
#    0.000    0.800    2.000    4.800    8.400    0.000 
#    0.000    0.000    0.000    0.000    0.000    0.000 
#    0.000    0.000    0.000    0.000    0.000    0.000 
#
# Total GULP energy -111852.453431 kJ/mol
# GULP energy per Si atom -5592.622672 kJ/mol
# Density = 2.545937 g / cm^3
# Si number density = 25.517453 Si / 1000 Ang^3
#
#
#
# Elastic Constant Matrix: (Units=GPa)
#
#
# Indices 1 2 3 4 5 6 
#
# 1 145.4203 40.3640 21.9598 0.0000 0.0000 0.0000
# 2 40.3640 79.0785 26.7814 0.0000 0.0000 0.0000
# 3 21.9598 26.7814 65.9584 0.0000 0.0000 0.0000
# 4 0.0000 0.0000 0.0000 32.0154 0.0000 0.0000
# 5 0.0000 0.0000 0.0000 0.0000 64.2103 0.0000
# 6 0.0000 0.0000 0.0000 0.0000 0.0000 -38.0623
#
#
#
# Elastic Compliance Matrix: (Units=1/GPa)
#
#
# Indices 1 2 3 4 5 6 
#
# 1 0.008090 -0.003730 -0.001179 0.000000 0.000000 0.000000
# 2 -0.003730 0.016382 -0.005410 0.000000 0.000000 0.000000
# 3 -0.001179 -0.005410 0.017750 0.000000 0.000000 0.000000
# 4 0.000000 0.000000 0.000000 0.031235 0.000000 0.000000
# 5 0.000000 0.000000 0.000000 0.000000 0.015574 0.000000
# 6 0.000000 0.000000 0.000000 0.000000 0.000000 -0.026273
#
#
# Mechanical properties :
#
#
# Convention : Reuss Voigt Hill
#
# Bulk Modulus (GPa) = 46.32964 52.07418 49.20191
# Shear Modulus (GPa) = 55.19372 25.05614 40.12493
#
# Velocity S-wave (km/s) = 4.65583 3.13696 3.96972
# Velocity P-wave (km/s) = 6.86278 5.79416 6.35099
#
# Compressibility (1/GPa) = 0.02158445
#
# Stress axis : x y z
#
# Youngs Moduli (GPa) = 123.60940 61.04372 56.33781
#
# Poissons Ratio (x) = 0.22770 0.06641
# Poissons Ratio (y) = 0.46108 0.30477
# Poissons Ratio (z) = 0.14572 0.33023
#
# Static dielectric constant tensor:
#      x y z
#    x 1.980220 0.000000 0.000000 
#    y 0.000000 1.990360 0.000000 
#    z 0.000000 0.000000 2.068220 
# 
# From -- ./inp_files/3040.got.cif
#   From: 2010.05.17/outbox.cif.g08.bks.cpg/sg33_2_cif.got.tgz:3040.got - 2010.06.03 17:15:25.
