data_PCOD9346248
_publ_section_title
;
Structure prediction by ZEFSAII (Michael W. Deem and Ramdas Pophale) SiO2 
 PCOD9346248
Probable space group: P N A 21
;
_chemical_formula_sum "Si O2"
_cell_formula_units_Z 28
_cell_length_a 19.367390
_cell_length_b 7.025922
_cell_length_c 9.047857
_cell_angle_alpha 90.000000
_cell_angle_beta 90.000000
_cell_angle_gamma 90.000000
_cell_volume 1231.176026
_symmetry_space_group_name_H-M "P N A 21"
_symmetry_group_IT_number 33
_symmetry_cell_setting 'orthorhombic'
loop_
_space_group_symop_operation_xyz
x,y,z
-x,-y,1/2+z
1/2-x,1/2+y,1/2+z
1/2+x,1/2-y,z
loop_
_atom_site_type_symbol
_atom_site_label
_atom_site_fract_x
_atom_site_fract_y
_atom_site_fract_z
Si Si1 0.198474 0.962058 0.544370
Si Si2 0.708935 0.718204 0.989015
Si Si3 0.047044 0.405476 0.573371
Si Si4 0.156231 0.269639 0.340474
Si Si5 0.672577 0.302284 0.025760
Si Si6 0.567463 0.836723 0.854601
Si Si7 0.582189 0.440722 0.763670
O O1 0.247220 0.141314 0.590971
O O2 0.252574 0.796945 0.508488
O O3 0.139114 0.946463 0.664986
O O4 0.160797 0.051531 0.399952
O O5 0.636642 0.214879 0.170660
O O6 0.685826 0.524139 0.061153
O O7 0.644713 0.827732 0.918733
O O8 0.109588 0.381841 0.456710
O O9 0.061277 0.561627 0.697384
O O10 0.980536 0.438999 0.473867
O O11 0.041407 0.204390 0.660774
O O12 0.235838 0.333266 0.360710
O O13 0.624548 0.313686 0.881979
O O14 0.542816 0.615202 0.840412
#
# Coordination Sequence:
#
# PCOD9346248 Si02
#       7
#     4   4   4   4   4   4   4
#     4   9  21  36  60  99 130 180 206 276 338 387
#     4   9  22  38  66 100 136 168 229 271 326 413
#     4  11  26  47  68  96 139 180 233 283 341 415
#     4   9  23  39  63  99 133 170 221 279 325 405
#     4  11  19  36  64  96 134 175 212 274 340 382
#     4  11  25  46  71  98 136 189 227 283 348 407
#     4  10  24  42  68  96 138 178 222 292 332 411
#
# _framework density 22.742483
#
# number of rings (size 3 to 8) (size 9 to 14) (size 15 to 20)
#    0.857    1.143    0.000    2.571    6.000    5.714 
#    0.000    2.857    0.000    0.000    0.000    0.000 
#    0.000    0.000    0.000    0.000    0.000    0.000 
#
# Total GULP energy -156246.060544 kJ/mol
# GULP energy per Si atom -5580.216448 kJ/mol
# Density = 2.269072 g / cm^3
# Si number density = 22.742483 Si / 1000 Ang^3
#
#
#
# Elastic Constant Matrix: (Units=GPa)
#
#
# Indices 1 2 3 4 5 6 
#
# 1 73.2299 21.5205 37.6194 0.0000 0.0000 0.0000
# 2 21.5205 66.1150 26.5766 0.0000 0.0000 0.0000
# 3 37.6194 26.5766 118.1426 0.0000 0.0000 0.0000
# 4 0.0000 0.0000 0.0000 35.3825 0.0000 0.0000
# 5 0.0000 0.0000 0.0000 0.0000 30.3129 0.0000
# 6 0.0000 0.0000 0.0000 0.0000 0.0000 17.7825
#
#
#
# Elastic Compliance Matrix: (Units=1/GPa)
#
#
# Indices 1 2 3 4 5 6 
#
# 1 0.017119 -0.003717 -0.004615 0.000000 0.000000 0.000000
# 2 -0.003717 0.017436 -0.002739 0.000000 0.000000 0.000000
# 3 -0.004615 -0.002739 0.010550 0.000000 0.000000 0.000000
# 4 0.000000 0.000000 0.000000 0.028263 0.000000 0.000000
# 5 0.000000 0.000000 0.000000 0.000000 0.032989 0.000000
# 6 0.000000 0.000000 0.000000 0.000000 0.000000 0.056235
#
#
# Mechanical properties :
#
#
# Convention : Reuss Voigt Hill
#
# Bulk Modulus (GPa) = 43.54763 47.65783 45.60273
# Shear Modulus (GPa) = 25.98926 28.14697 27.06812
#
# Velocity S-wave (km/s) = 3.38414 3.52183 3.45367
# Velocity P-wave (km/s) = 5.87023 6.12687 5.99993
#
# Compressibility (1/GPa) = 0.02296336
#
# Stress axis : x y z
#
# Youngs Moduli (GPa) = 58.41564 57.35272 94.78766
#
# Poissons Ratio (x) = 0.21319 0.43743
# Poissons Ratio (y) = 0.21714 0.25959
# Poissons Ratio (z) = 0.26958 0.15707
#
# Static dielectric constant tensor:
#      x y z
#    x 1.848810 0.000000 0.000000 
#    y 0.000000 1.877000 0.000000 
#    z 0.000000 0.000000 1.875760 
# 
# From -- ./inp_files/7141.got.cif
#   From: 2010.05.17/outbox.cif.g08.bks.cpg/sg33_4_cif.got.tgz:7141.got - 2010.06.03 17:15:25.
