data_PCOD9346145
_publ_section_title
;
Structure prediction by ZEFSAII (Michael W. Deem and Ramdas Pophale) SiO2 
 PCOD9346145
Probable space group: P N A 21
;
_chemical_formula_sum "Si O2"
_cell_formula_units_Z 20
_cell_length_a 9.721961
_cell_length_b 8.565324
_cell_length_c 10.774846
_cell_angle_alpha 90.000000
_cell_angle_beta 90.000000
_cell_angle_gamma 90.000000
_cell_volume 897.240238
_symmetry_space_group_name_H-M "P N A 21"
_symmetry_group_IT_number 33
_symmetry_cell_setting 'orthorhombic'
loop_
_space_group_symop_operation_xyz
x,y,z
-x,-y,1/2+z
1/2-x,1/2+y,1/2+z
1/2+x,1/2-y,z
loop_
_atom_site_type_symbol
_atom_site_label
_atom_site_fract_x
_atom_site_fract_y
_atom_site_fract_z
Si Si1 0.398109 0.433678 0.268820
Si Si2 0.348365 0.418962 0.888936
Si Si3 0.380774 0.419505 0.609413
Si Si4 0.169101 0.563783 0.416364
Si Si5 0.897316 0.359949 0.429146
O O1 0.503092 0.502017 0.373655
O O2 0.483491 0.477327 0.145703
O O3 0.255492 0.522534 0.291281
O O4 0.379874 0.253854 0.308560
O O5 0.310451 0.394947 0.743382
O O6 0.352529 0.245717 0.940470
O O7 0.238065 0.535784 0.945550
O O8 0.266493 0.498599 0.524371
O O9 0.418043 0.255630 0.545503
O O10 0.027247 0.471050 0.412669
#
# Coordination Sequence:
#
# PCOD9346145 Si02
#       5
#     4   4   4   4   4
#     4   9  21  43  64  93 137 175 226 280 347 409
#     4  10  23  45  65  97 142 179 228 287 348 419
#     4   9  24  43  67  95 140 183 220 285 361 401
#     4  11  22  41  67 100 132 181 236 281 343 418
#     4  11  22  44  71  97 139 180 236 289 337 423
#
# _framework density 22.290572000000001
#
# number of rings (size 3 to 8) (size 9 to 14) (size 15 to 20)
#    1.200    0.800    0.000    3.600    2.800    0.000 
#   14.400    0.000    0.000    0.000    0.000    0.000 
#    0.000    0.000    0.000    0.000    0.000    0.000 
#
# Total GULP energy -111640.669615 kJ/mol
# GULP energy per Si atom -5582.033481 kJ/mol
# Density = 2.223984 g / cm^3
# Si number density = 22.290572 Si / 1000 Ang^3
#
#
#
# Elastic Constant Matrix: (Units=GPa)
#
#
# Indices 1 2 3 4 5 6 
#
# 1 102.7583 51.7593 -13.8938 0.0000 0.0000 0.0000
# 2 51.7593 161.5031 -5.1940 0.0000 0.0000 0.0000
# 3 -13.8938 -5.1940 38.1274 0.0000 0.0000 0.0000
# 4 0.0000 0.0000 0.0000 18.6008 0.0000 0.0000
# 5 0.0000 0.0000 0.0000 0.0000 20.6231 0.0000
# 6 0.0000 0.0000 0.0000 0.0000 0.0000 45.7952
#
#
#
# Elastic Compliance Matrix: (Units=1/GPa)
#
#
# Indices 1 2 3 4 5 6 
#
# 1 0.012161 -0.003771 0.003918 0.000000 0.000000 0.000000
# 2 -0.003771 0.007389 -0.000368 0.000000 0.000000 0.000000
# 3 0.003918 -0.000368 0.027605 0.000000 0.000000 0.000000
# 4 0.000000 0.000000 0.000000 0.053761 0.000000 0.000000
# 5 0.000000 0.000000 0.000000 0.000000 0.048489 0.000000
# 6 0.000000 0.000000 0.000000 0.000000 0.000000 0.021836
#
#
# Mechanical properties :
#
#
# Convention : Reuss Voigt Hill
#
# Bulk Modulus (GPa) = 21.40771 40.85910 31.13340
# Shear Modulus (GPa) = 26.70149 34.98497 30.84323
#
# Velocity S-wave (km/s) = 3.46480 3.96598 3.72383
# Velocity P-wave (km/s) = 5.06273 6.27232 5.69971
#
# Compressibility (1/GPa) = 0.04671215
#
# Stress axis : x y z
#
# Youngs Moduli (GPa) = 82.23045 135.34213 36.22478
#
# Poissons Ratio (x) = 0.51043 -0.14192
# Poissons Ratio (y) = 0.31012 0.01332
# Poissons Ratio (z) = -0.32216 0.04978
#
# Static dielectric constant tensor:
#      x y z
#    x 1.766970 0.000000 0.000000 
#    y 0.000000 1.767040 0.000000 
#    z 0.000000 0.000000 1.971360 
# 
# From -- ./inp_files/7502.got.cif
#   From: 2010.05.17/outbox.cif.g08.bks.cpg/sg33_4_cif.got.tgz:7502.got - 2010.06.03 17:15:25.
