data_PCOD9346589
_publ_section_title
;
Structure prediction by ZEFSAII (Michael W. Deem and Ramdas Pophale) SiO2 
 PCOD9346589
Probable space group: P N A 21
;
_chemical_formula_sum "Si O2"
_cell_formula_units_Z 28
_cell_length_a 5.321951
_cell_length_b 14.251185
_cell_length_c 16.019691
_cell_angle_alpha 90.000000
_cell_angle_beta 90.000000
_cell_angle_gamma 90.000000
_cell_volume 1214.999179
_symmetry_space_group_name_H-M "P N A 21"
_symmetry_group_IT_number 33
_symmetry_cell_setting 'orthorhombic'
loop_
_space_group_symop_operation_xyz
x,y,z
-x,-y,1/2+z
1/2-x,1/2+y,1/2+z
1/2+x,1/2-y,z
loop_
_atom_site_type_symbol
_atom_site_label
_atom_site_fract_x
_atom_site_fract_y
_atom_site_fract_z
Si Si1 0.884153 0.802500 0.857900
Si Si2 0.245906 0.512656 0.590171
Si Si3 0.077522 0.669539 0.140282
Si Si4 0.515212 0.643130 0.042591
Si Si5 0.484425 0.111754 0.810996
Si Si6 0.536574 0.811244 0.498856
Si Si7 0.481956 0.505384 0.767265
O O1 0.100771 0.727079 0.835985
O O2 0.966209 0.898316 0.816944
O O3 0.900960 0.817066 0.957376
O O4 0.400504 0.463151 0.515556
O O5 0.080806 0.597836 0.557580
O O6 0.401642 0.536127 0.672807
O O7 0.109851 0.412642 0.611110
O O8 0.336509 0.617469 0.120165
O O9 0.132929 0.762986 0.086533
O O10 0.027506 0.688660 0.236492
O O11 0.455577 0.153847 0.902656
O O12 0.752638 0.060554 0.799802
O O13 0.251657 0.042741 0.786685
O O14 0.272374 0.758756 0.513201
#
# Coordination Sequence:
#
# PCOD9346589 Si02
#       7
#     4   4   4   4   4   4   4
#     4  12  25  41  65  99 137 177 226 282 344 405
#     4  11  26  45  69 101 139 187 233 287 346 414
#     4  11  23  39  72 103 139 171 221 287 362 420
#     4  12  22  40  69 104 138 171 216 286 360 417
#     4  11  25  45  70 102 137 178 231 289 354 412
#     4  12  30  48  71 100 142 196 244 287 338 415
#     4  11  25  44  70  99 136 186 233 286 348 415
#
# _framework density 23.045283999999999
#
# number of rings (size 3 to 8) (size 9 to 14) (size 15 to 20)
#    0.000    0.571    4.286    2.571    6.000    1.143 
#    0.000    0.000    0.000    0.000    0.000    0.000 
#    0.000    0.000    0.000    0.000    0.000    0.000 
#
# Total GULP energy -155913.473579 kJ/mol
# GULP energy per Si atom -5568.338342 kJ/mol
# Density = 2.299283 g / cm^3
# Si number density = 23.045284 Si / 1000 Ang^3
#
#
#
# Elastic Constant Matrix: (Units=GPa)
#
#
# Indices 1 2 3 4 5 6 
#
# 1 149.8128 -35.9040 -10.7359 0.0000 0.0000 0.0000
# 2 -35.9040 78.7168 31.4345 0.0000 0.0000 0.0000
# 3 -10.7359 31.4345 70.1737 0.0000 0.0000 0.0000
# 4 0.0000 0.0000 0.0000 150.0906 0.0000 0.0000
# 5 0.0000 0.0000 0.0000 0.0000 19.9423 0.0000
# 6 0.0000 0.0000 0.0000 0.0000 0.0000 26.9479
#
#
#
# Elastic Compliance Matrix: (Units=1/GPa)
#
#
# Indices 1 2 3 4 5 6 
#
# 1 0.007507 0.003611 -0.000469 0.000000 0.000000 0.000000
# 2 0.003611 0.017209 -0.007156 0.000000 0.000000 0.000000
# 3 -0.000469 -0.007156 0.017384 0.000000 0.000000 0.000000
# 4 0.000000 0.000000 0.000000 0.006663 0.000000 0.000000
# 5 0.000000 0.000000 0.000000 0.000000 0.050145 0.000000
# 6 0.000000 0.000000 0.000000 0.000000 0.000000 0.037109
#
#
# Mechanical properties :
#
#
# Convention : Reuss Voigt Hill
#
# Bulk Modulus (GPa) = 29.34988 29.81029 29.58008
# Shear Modulus (GPa) = 32.17484 60.32342 46.24913
#
# Velocity S-wave (km/s) = 3.74057 5.12180 4.48468
# Velocity P-wave (km/s) = 5.60529 6.92393 6.29921
#
# Compressibility (1/GPa) = 0.03407169
#
# Stress axis : x y z
#
# Youngs Moduli (GPa) = 133.21127 58.11008 57.52350
#
# Poissons Ratio (x) = -0.20986 0.02699
# Poissons Ratio (y) = -0.48108 0.41165
# Poissons Ratio (z) = 0.06251 0.41585
#
# Static dielectric constant tensor:
#      x y z
#    x 0.989190 0.000000 0.000000 
#    y 0.000000 1.786960 0.000000 
#    z 0.000000 0.000000 1.774130 
# 
# From -- ./inp_files/8353.got.cif
#   From: 2010.05.17/outbox.cif.g08.bks.cpg/sg33_5_cif.got.tgz:8353.got - 2010.06.03 17:15:25.
