data_PCOD9346020
_publ_section_title
;
Structure prediction by ZEFSAII (Michael W. Deem and Ramdas Pophale) SiO2 
 PCOD9346020
Probable space group: P N A 21
;
_chemical_formula_sum "Si O2"
_cell_formula_units_Z 32
_cell_length_a 14.921837
_cell_length_b 9.264374
_cell_length_c 9.225852
_cell_angle_alpha 90.000000
_cell_angle_beta 90.000000
_cell_angle_gamma 90.000000
_cell_volume 1275.395423
_symmetry_space_group_name_H-M "P N A 21"
_symmetry_group_IT_number 33
_symmetry_cell_setting 'orthorhombic'
loop_
_space_group_symop_operation_xyz
x,y,z
-x,-y,1/2+z
1/2-x,1/2+y,1/2+z
1/2+x,1/2-y,z
loop_
_atom_site_type_symbol
_atom_site_label
_atom_site_fract_x
_atom_site_fract_y
_atom_site_fract_z
Si Si1 0.073745 0.832765 0.039040
Si Si2 0.387794 0.022560 0.181771
Si Si3 0.040778 0.210585 0.787515
Si Si4 0.644381 0.951724 0.992132
Si Si5 0.227930 0.386409 0.438373
Si Si6 0.107337 0.102954 0.386098
Si Si7 0.050354 0.267551 0.109709
Si Si8 0.197680 0.020497 0.654049
O O1 0.065477 0.662769 0.996950
O O2 0.046884 0.843073 0.205566
O O3 0.173805 0.881972 0.010269
O O4 0.994095 0.899321 0.945698
O O5 0.325967 0.050338 0.324154
O O6 0.462390 0.147795 0.168009
O O7 0.436044 0.873701 0.234556
O O8 0.331365 0.999343 0.034371
O O9 0.122980 0.112550 0.735057
O O10 0.026967 0.201423 0.956183
O O11 0.714730 0.891384 0.107372
O O12 0.617606 0.105525 0.056039
O O13 0.162326 0.248026 0.436143
O O14 0.260894 0.412700 0.272463
O O15 0.092304 0.149682 0.217615
O O16 0.157679 0.984631 0.492680
#
# Coordination Sequence:
#
# PCOD9346020 Si02
#       8
#     4   4   4   4   4   4   4   4
#     4  11  21  42  67  97 139 186 230 297 367 408
#     4  11  22  38  65 109 129 174 241 298 349 415
#     4  10  23  41  65 100 140 181 228 294 362 420
#     4  11  20  35  67  97 132 171 225 296 353 410
#     4  12  24  42  70 102 138 191 243 288 364 435
#     4  11  22  43  68  99 142 186 230 300 358 426
#     4  11  22  37  69 107 134 172 245 296 355 420
#     4  11  24  42  63  97 142 183 224 291 362 428
#
# _framework density 25.090259
#
# number of rings (size 3 to 8) (size 9 to 14) (size 15 to 20)
#    0.000    1.000    7.500    0.000    3.500    1.000 
#    0.000    8.750    0.000    0.000    0.000    0.000 
#    0.000    0.000    0.000    0.000    0.000    0.000 
#
# Total GULP energy -178381.128921 kJ/mol
# GULP energy per Si atom -5574.410279 kJ/mol
# Density = 2.503315 g / cm^3
# Si number density = 25.090259 Si / 1000 Ang^3
#
#
#
# Elastic Constant Matrix: (Units=GPa)
#
#
# Indices 1 2 3 4 5 6 
#
# 1 100.2356 26.6815 65.0674 0.0000 0.0000 0.0000
# 2 26.6815 84.3176 31.1654 0.0000 0.0000 0.0000
# 3 65.0674 31.1654 186.5771 0.0000 0.0000 0.0000
# 4 0.0000 0.0000 0.0000 22.4004 0.0000 0.0000
# 5 0.0000 0.0000 0.0000 0.0000 46.6883 0.0000
# 6 0.0000 0.0000 0.0000 0.0000 0.0000 23.1905
#
#
#
# Elastic Compliance Matrix: (Units=1/GPa)
#
#
# Indices 1 2 3 4 5 6 
#
# 1 0.013444 -0.002687 -0.004240 0.000000 0.000000 0.000000
# 2 -0.002687 0.013177 -0.001264 0.000000 0.000000 0.000000
# 3 -0.004240 -0.001264 0.007049 0.000000 0.000000 0.000000
# 4 0.000000 0.000000 0.000000 0.044642 0.000000 0.000000
# 5 0.000000 0.000000 0.000000 0.000000 0.021419 0.000000
# 6 0.000000 0.000000 0.000000 0.000000 0.000000 0.043121
#
#
# Mechanical properties :
#
#
# Convention : Reuss Voigt Hill
#
# Bulk Modulus (GPa) = 57.83958 68.55099 63.19529
# Shear Modulus (GPa) = 30.30357 35.00357 32.65357
#
# Velocity S-wave (km/s) = 3.47909 3.73916 3.61147
# Velocity P-wave (km/s) = 6.26429 6.78402 6.52933
#
# Compressibility (1/GPa) = 0.01728920
#
# Stress axis : x y z
#
# Youngs Moduli (GPa) = 74.38318 75.88719 141.85642
#
# Poissons Ratio (x) = 0.20392 0.60141
# Poissons Ratio (y) = 0.19988 0.17931
# Poissons Ratio (z) = 0.31536 0.09592
#
# Static dielectric constant tensor:
#      x y z
#    x 1.977180 0.000000 0.000000 
#    y 0.000000 2.072820 0.000000 
#    z 0.000000 0.000000 2.045070 
# 
# From -- ./inp_files/4424.got.cif
#   From: 2010.05.17/outbox.cif.g08.bks.cpg/sg33_3_cif.got.tgz:4424.got - 2010.06.03 17:15:25.
