data_PCOD9346865
_publ_section_title
;
Structure prediction by ZEFSAII (Michael W. Deem and Ramdas Pophale) SiO2 
 PCOD9346865
Probable space group: P N A 21
;
_chemical_formula_sum "Si O2"
_cell_formula_units_Z 24
_cell_length_a 9.199049
_cell_length_b 5.319034
_cell_length_c 17.938554
_cell_angle_alpha 90.000000
_cell_angle_beta 90.000000
_cell_angle_gamma 90.000000
_cell_volume 877.734423
_symmetry_space_group_name_H-M "P N A 21"
_symmetry_group_IT_number 33
_symmetry_cell_setting 'orthorhombic'
loop_
_space_group_symop_operation_xyz
x,y,z
-x,-y,1/2+z
1/2-x,1/2+y,1/2+z
1/2+x,1/2-y,z
loop_
_atom_site_type_symbol
_atom_site_label
_atom_site_fract_x
_atom_site_fract_y
_atom_site_fract_z
Si Si1 0.564459 0.902537 0.861790
Si Si2 0.815411 0.263394 0.883178
Si Si3 0.996470 0.068982 0.492469
Si Si4 0.048544 0.741102 0.695644
Si Si5 0.704676 0.048306 0.582146
Si Si6 0.623272 0.735903 0.212432
O O1 0.651240 0.157131 0.882926
O O2 0.392412 0.964195 0.874184
O O3 0.609210 0.802597 0.779998
O O4 0.589507 0.696012 0.923483
O O5 0.856249 0.178369 0.799196
O O6 0.894221 0.130396 0.953657
O O7 0.092381 0.283249 0.534746
O O8 0.857046 0.987616 0.541686
O O9 0.136545 0.697825 0.619710
O O10 0.930792 0.515944 0.697287
O O11 0.985428 0.015430 0.691590
O O12 0.742129 0.195735 0.658557
#
# Coordination Sequence:
#
# PCOD9346865 Si02
#       6
#     4   4   4   4   4   4
#     4  11  25  47  78 110 150 206 264 319 385 472
#     4  11  25  47  78 110 150 206 264 319 385 472
#     4  12  26  50  74 112 156 198 260 328 400 456
#     4  11  25  50  80 113 151 204 259 316 383 468
#     4  12  26  48  76 116 158 200 260 330 402 454
#     4  11  25  50  80 113 151 204 259 316 383 468
#
# _framework density 27.343126000000002
#
# number of rings (size 3 to 8) (size 9 to 14) (size 15 to 20)
#    0.000    0.667    6.667    0.000    2.333    2.667 
#    9.000    0.000    0.000    0.000    0.000    0.000 
#    0.000    0.000    0.000    0.000    0.000    0.000 
#
# Total GULP energy -134226.649646 kJ/mol
# GULP energy per Si atom -5592.777069 kJ/mol
# Density = 2.728089 g / cm^3
# Si number density = 27.343126 Si / 1000 Ang^3
#
#
#
# Elastic Constant Matrix: (Units=GPa)
#
#
# Indices 1 2 3 4 5 6 
#
# 1 103.8197 7.7550 33.5716 0.0000 0.0000 0.0000
# 2 7.7550 40.1676 13.7843 0.0000 0.0000 0.0000
# 3 33.5716 13.7843 196.6207 0.0000 0.0000 0.0000
# 4 0.0000 0.0000 0.0000 41.0663 0.0000 0.0000
# 5 0.0000 0.0000 0.0000 0.0000 45.1218 0.0000
# 6 0.0000 0.0000 0.0000 0.0000 0.0000 14.9894
#
#
#
# Elastic Compliance Matrix: (Units=1/GPa)
#
#
# Indices 1 2 3 4 5 6 
#
# 1 0.010273 -0.001415 -0.001655 0.000000 0.000000 0.000000
# 2 -0.001415 0.025704 -0.001560 0.000000 0.000000 0.000000
# 3 -0.001655 -0.001560 0.005478 0.000000 0.000000 0.000000
# 4 0.000000 0.000000 0.000000 0.024351 0.000000 0.000000
# 5 0.000000 0.000000 0.000000 0.000000 0.022162 0.000000
# 6 0.000000 0.000000 0.000000 0.000000 0.000000 0.066714
#
#
# Mechanical properties :
#
#
# Convention : Reuss Voigt Hill
#
# Bulk Modulus (GPa) = 31.06175 50.09222 40.57699
# Shear Modulus (GPa) = 28.62467 39.26864 33.94666
#
# Velocity S-wave (km/s) = 3.23905 3.79376 3.52732
# Velocity P-wave (km/s) = 5.03718 6.12779 5.60905
#
# Compressibility (1/GPa) = 0.03219393
#
# Stress axis : x y z
#
# Youngs Moduli (GPa) = 97.34333 38.90384 182.55270
#
# Poissons Ratio (x) = 0.05507 0.30209
# Poissons Ratio (y) = 0.13779 0.28485
# Poissons Ratio (z) = 0.16108 0.06070
#
# Static dielectric constant tensor:
#      x y z
#    x 2.242190 0.000000 0.000000 
#    y 0.000000 2.168060 0.000000 
#    z 0.000000 0.000000 2.199870 
# 
# From -- ./inp_files/8592.got.cif
#   From: 2010.05.17/outbox.cif.g08.bks.cpg/sg33_5_cif.got.tgz:8592.got - 2010.06.03 17:15:25.
