data_PCOD9346904
_publ_section_title
;
Structure prediction by ZEFSAII (Michael W. Deem and Ramdas Pophale) SiO2 
 PCOD9346904
Probable space group: P N A 21
;
_chemical_formula_sum "Si O2"
_cell_formula_units_Z 20
_cell_length_a 9.737397
_cell_length_b 4.952738
_cell_length_c 14.498088
_cell_angle_alpha 90.000000
_cell_angle_beta 90.000000
_cell_angle_gamma 90.000000
_cell_volume 699.196044
_symmetry_space_group_name_H-M "P N A 21"
_symmetry_group_IT_number 33
_symmetry_cell_setting 'orthorhombic'
loop_
_space_group_symop_operation_xyz
x,y,z
-x,-y,1/2+z
1/2-x,1/2+y,1/2+z
1/2+x,1/2-y,z
loop_
_atom_site_type_symbol
_atom_site_label
_atom_site_fract_x
_atom_site_fract_y
_atom_site_fract_z
Si Si1 0.633435 0.018717 0.298740
Si Si2 0.949775 0.789022 0.150354
Si Si3 0.285920 0.608641 0.654838
Si Si4 0.042203 0.807735 0.945947
Si Si5 0.785558 0.689562 0.453327
O O1 0.743009 0.190850 0.239108
O O2 0.548737 0.224938 0.361175
O O3 0.529563 0.882491 0.227430
O O4 0.696669 0.803627 0.369692
O O5 0.048731 0.056986 0.155235
O O6 0.794506 0.674578 0.163232
O O7 0.975418 0.724743 0.042657
O O8 0.240669 0.748548 0.558600
O O9 0.178472 0.622715 0.943464
O O10 0.079385 0.121249 0.945265
#
# Coordination Sequence:
#
# PCOD9346904 Si02
#       5
#     4   4   4   4   4
#     4  12  26  46  80 111 159 219 271 339 419 489
#     4  11  26  49  78 116 165 212 276 341 412 498
#     4  11  26  51  76 121 163 221 275 348 415 502
#     4  11  26  49  75 111 161 208 267 342 405 491
#     4  11  26  49  73 113 160 208 273 336 411 492
#
# _framework density 28.604279999999999
#
# number of rings (size 3 to 8) (size 9 to 14) (size 15 to 20)
#    0.000    0.800    4.000    1.200    8.400    1.600 
#    3.600    0.000    0.000    0.000    0.000    0.000 
#    0.000    0.000    0.000    0.000    0.000    0.000 
#
# Total GULP energy -112129.784033 kJ/mol
# GULP energy per Si atom -5606.489202 kJ/mol
# Density = 2.853917 g / cm^3
# Si number density = 28.604280 Si / 1000 Ang^3
#
#
#
# Elastic Constant Matrix: (Units=GPa)
#
#
# Indices 1 2 3 4 5 6 
#
# 1 101.6327 19.0423 44.6606 0.0000 0.0000 0.0000
# 2 19.0423 96.1890 33.6668 0.0000 0.0000 0.0000
# 3 44.6606 33.6668 212.4282 0.0000 0.0000 0.0000
# 4 0.0000 0.0000 0.0000 43.6655 0.0000 0.0000
# 5 0.0000 0.0000 0.0000 0.0000 37.0566 0.0000
# 6 0.0000 0.0000 0.0000 0.0000 0.0000 36.7805
#
#
#
# Elastic Compliance Matrix: (Units=1/GPa)
#
#
# Indices 1 2 3 4 5 6 
#
# 1 0.011029 -0.001452 -0.002089 0.000000 0.000000 0.000000
# 2 -0.001452 0.011198 -0.001469 0.000000 0.000000 0.000000
# 3 -0.002089 -0.001469 0.005379 0.000000 0.000000 0.000000
# 4 0.000000 0.000000 0.000000 0.022901 0.000000 0.000000
# 5 0.000000 0.000000 0.000000 0.000000 0.026986 0.000000
# 6 0.000000 0.000000 0.000000 0.000000 0.000000 0.027188
#
#
# Mechanical properties :
#
#
# Convention : Reuss Voigt Hill
#
# Bulk Modulus (GPa) = 56.86343 67.22102 62.04223
# Shear Modulus (GPa) = 41.47143 44.35921 42.91532
#
# Velocity S-wave (km/s) = 3.81180 3.94228 3.87759
# Velocity P-wave (km/s) = 6.26862 6.65383 6.46409
#
# Compressibility (1/GPa) = 0.01758599
#
# Stress axis : x y z
#
# Youngs Moduli (GPa) = 90.66785 89.30147 185.89266
#
# Poissons Ratio (x) = 0.12970 0.38825
# Poissons Ratio (y) = 0.13169 0.27315
# Poissons Ratio (z) = 0.18937 0.13122
#
# Static dielectric constant tensor:
#      x y z
#    x 2.310150 0.000000 0.000000 
#    y 0.000000 2.177630 0.000000 
#    z 0.000000 0.000000 2.136100 
# 
# From -- ./inp_files/7785.got.cif
#   From: 2010.05.17/outbox.cif.g08.bks.cpg/sg33_4_cif.got.tgz:7785.got - 2010.06.03 17:15:25.
