data_PCOD9346061
_publ_section_title
;
Structure prediction by ZEFSAII (Michael W. Deem and Ramdas Pophale) SiO2 
 PCOD9346061
Probable space group: P N A 21
;
_chemical_formula_sum "Si O2"
_cell_formula_units_Z 24
_cell_length_a 9.585038
_cell_length_b 9.171929
_cell_length_c 10.320795
_cell_angle_alpha 90.000000
_cell_angle_beta 90.000000
_cell_angle_gamma 90.000000
_cell_volume 907.335023
_symmetry_space_group_name_H-M "P N A 21"
_symmetry_group_IT_number 33
_symmetry_cell_setting 'orthorhombic'
loop_
_space_group_symop_operation_xyz
x,y,z
-x,-y,1/2+z
1/2-x,1/2+y,1/2+z
1/2+x,1/2-y,z
loop_
_atom_site_type_symbol
_atom_site_label
_atom_site_fract_x
_atom_site_fract_y
_atom_site_fract_z
Si Si1 0.931013 0.288586 0.723970
Si Si2 0.910450 0.559063 0.001361
Si Si3 0.673266 0.759074 0.632053
Si Si4 0.089548 0.940939 0.033472
Si Si5 0.326735 0.740929 0.402779
Si Si6 0.931014 0.788587 0.810862
O O1 0.941448 0.118959 0.677387
O O2 0.785418 0.311001 0.795992
O O3 0.971393 0.375464 0.595303
O O4 0.053712 0.319479 0.825047
O O5 0.891784 0.395296 0.053890
O O6 0.749998 0.619615 0.017416
O O7 0.058554 0.381041 0.357446
O O8 0.750001 0.670913 0.517417
O O9 0.553713 0.680525 0.709785
O O10 0.785419 0.811007 0.738841
O O11 0.971392 0.875467 0.939529
O O12 0.108214 0.104706 0.980943
#
# Coordination Sequence:
#
# PCOD9346061 Si02
#       6
#     4   4   4   4   4   4
#     4  11  23  46  70  99 146 174 235 295 331 420
#     4  10  23  42  69 100 134 188 229 280 354 399
#     4  11  25  42  71 102 138 184 229 284 353 412
#     4  10  23  42  69 100 134 188 229 280 354 399
#     4  11  25  42  71 102 138 184 229 284 353 412
#     4  11  23  46  70  99 146 174 235 295 331 420
#
# _framework density 26.451087999999999
#
# number of rings (size 3 to 8) (size 9 to 14) (size 15 to 20)
#    0.000    1.333    3.333    1.000    9.333    0.000 
#    0.000    0.000    0.000    0.000    0.000    0.000 
#    0.000    0.000    0.000    0.000    0.000    0.000 
#
# Total GULP energy -134177.969455 kJ/mol
# GULP energy per Si atom -5590.748727 kJ/mol
# Density = 2.639088 g / cm^3
# Si number density = 26.451088 Si / 1000 Ang^3
#
#
#
# Elastic Constant Matrix: (Units=GPa)
#
#
# Indices 1 2 3 4 5 6 
#
# 1 98.5739 3.0676 12.6297 0.0000 0.0000 0.0000
# 2 3.0676 73.5703 16.4042 0.0000 0.0000 0.0000
# 3 12.6297 16.4042 121.2732 0.0000 0.0000 0.0000
# 4 0.0000 0.0000 0.0000 13.2115 0.0000 0.0000
# 5 0.0000 0.0000 0.0000 0.0000 71.7094 0.0000
# 6 0.0000 0.0000 0.0000 0.0000 0.0000 26.9650
#
#
#
# Elastic Compliance Matrix: (Units=1/GPa)
#
#
# Indices 1 2 3 4 5 6 
#
# 1 0.010285 -0.000196 -0.001045 0.000000 0.000000 0.000000
# 2 -0.000196 0.014019 -0.001876 0.000000 0.000000 0.000000
# 3 -0.001045 -0.001876 0.008608 0.000000 0.000000 0.000000
# 4 0.000000 0.000000 0.000000 0.075691 0.000000 0.000000
# 5 0.000000 0.000000 0.000000 0.000000 0.013945 0.000000
# 6 0.000000 0.000000 0.000000 0.000000 0.000000 0.037085
#
#
# Mechanical properties :
#
#
# Convention : Reuss Voigt Hill
#
# Bulk Modulus (GPa) = 37.48247 39.73559 38.60903
# Shear Modulus (GPa) = 28.61079 39.79825 34.20452
#
# Velocity S-wave (km/s) = 3.29241 3.88312 3.59990
# Velocity P-wave (km/s) = 5.35299 5.92957 5.64864
#
# Compressibility (1/GPa) = 0.02667914
#
# Stress axis : x y z
#
# Youngs Moduli (GPa) = 97.23268 71.33241 116.16604
#
# Poissons Ratio (x) = 0.01398 0.12134
# Poissons Ratio (y) = 0.01905 0.21791
# Poissons Ratio (z) = 0.10157 0.13381
#
# Static dielectric constant tensor:
#      x y z
#    x 2.109280 0.000000 0.000000 
#    y 0.000000 2.224450 0.000000 
#    z 0.000000 0.000000 2.082120 
# 
# From -- ./inp_files/5794.got.cif
#   From: 2010.05.17/outbox.cif.g08.bks.cpg/sg33_3_cif.got.tgz:5794.got - 2010.06.03 17:15:25.
