data_PCOD9346411
_publ_section_title
;
Structure prediction by ZEFSAII (Michael W. Deem and Ramdas Pophale) SiO2 
 PCOD9346411
Probable space group: P N A 21
;
_chemical_formula_sum "Si O2"
_cell_formula_units_Z 20
_cell_length_a 5.339347
_cell_length_b 13.687850
_cell_length_c 9.959352
_cell_angle_alpha 90.000000
_cell_angle_beta 90.000000
_cell_angle_gamma 90.000000
_cell_volume 727.871083
_symmetry_space_group_name_H-M "P N A 21"
_symmetry_group_IT_number 33
_symmetry_cell_setting 'orthorhombic'
loop_
_space_group_symop_operation_xyz
x,y,z
-x,-y,1/2+z
1/2-x,1/2+y,1/2+z
1/2+x,1/2-y,z
loop_
_atom_site_type_symbol
_atom_site_label
_atom_site_fract_x
_atom_site_fract_y
_atom_site_fract_z
Si Si1 0.802793 0.333629 0.360690
Si Si2 0.023021 0.700952 0.581744
Si Si3 0.202508 0.794261 0.121979
Si Si4 0.968193 0.471947 0.911833
Si Si5 0.952700 0.023182 0.757828
O O1 0.974376 0.291464 0.242239
O O2 0.747932 0.255356 0.475417
O O3 0.604132 0.406578 0.280756
O O4 0.965312 0.416514 0.437369
O O5 0.262516 0.758675 0.530365
O O6 0.064829 0.588861 0.545557
O O7 0.472524 0.768095 0.186937
O O8 0.095923 0.906824 0.127680
O O9 0.729735 0.461927 0.815446
O O10 0.227722 0.434118 0.848006
#
# Coordination Sequence:
#
# PCOD9346411 Si02
#       5
#     4   4   4   4   4
#     4  10  28  47  74 110 147 197 255 301 377 448
#     4  12  27  46  72 103 149 192 240 313 376 437
#     4  12  27  44  76 111 149 195 253 315 374 453
#     4  10  25  48  70 104 148 191 248 309 370 442
#     4  10  25  45  74 108 147 189 254 308 369 444
#
# _framework density 27.477394
#
# number of rings (size 3 to 8) (size 9 to 14) (size 15 to 20)
#    1.200    0.000    0.000    3.600    8.400    4.800 
#    0.000    0.000    0.000    0.000    0.000    0.000 
#    0.000    0.000    0.000    0.000    0.000    0.000 
#
# Total GULP energy -111666.416595 kJ/mol
# GULP energy per Si atom -5583.320830 kJ/mol
# Density = 2.741485 g / cm^3
# Si number density = 27.477394 Si / 1000 Ang^3
#
#
#
# Elastic Constant Matrix: (Units=GPa)
#
#
# Indices 1 2 3 4 5 6 
#
# 1 224.0760 57.0830 -76.4195 0.0000 0.0000 0.0000
# 2 57.0830 224.7898 -2.2546 0.0000 0.0000 0.0000
# 3 -76.4195 -2.2546 214.8124 0.0000 0.0000 0.0000
# 4 0.0000 0.0000 0.0000 47.6749 0.0000 0.0000
# 5 0.0000 0.0000 0.0000 0.0000 -6.6433 0.0000
# 6 0.0000 0.0000 0.0000 0.0000 0.0000 30.8253
#
#
#
# Elastic Compliance Matrix: (Units=1/GPa)
#
#
# Indices 1 2 3 4 5 6 
#
# 1 0.005471 -0.001370 0.001932 0.000000 0.000000 0.000000
# 2 -0.001370 0.004792 -0.000437 0.000000 0.000000 0.000000
# 3 0.001932 -0.000437 0.005338 0.000000 0.000000 0.000000
# 4 0.000000 0.000000 0.000000 0.020975 0.000000 0.000000
# 5 0.000000 0.000000 0.000000 0.000000 -0.150526 0.000000
# 6 0.000000 0.000000 0.000000 0.000000 0.000000 0.032441
#
#
# Mechanical properties :
#
#
# Convention : Reuss Voigt Hill
#
# Bulk Modulus (GPa) = 63.09005 68.94400 66.01702
# Shear Modulus (GPa) = -65.37982 60.05599 -2.66192
#
# Velocity S-wave (km/s) = -4.88321 4.68017 -0.98533
# Velocity P-wave (km/s) = 2.96373 7.37231 4.77322
#
# Compressibility (1/GPa) = 0.01585036
#
# Stress axis : x y z
#
# Youngs Moduli (GPa) = 182.79720 208.67830 187.34084
#
# Poissons Ratio (x) = 0.28585 -0.36190
# Poissons Ratio (y) = 0.25040 0.08187
# Poissons Ratio (z) = -0.35312 0.09120
#
# Static dielectric constant tensor:
#      x y z
#    x 2.328600 0.000000 0.000000 
#    y 0.000000 2.168030 0.000000 
#    z 0.000000 0.000000 2.218930 
# 
# From -- ./inp_files/5411.got.cif
#   From: 2010.05.17/outbox.cif.g08.bks.cpg/sg33_3_cif.got.tgz:5411.got - 2010.06.03 17:15:25.
