data_PCOD9346677
_publ_section_title
;
Structure prediction by ZEFSAII (Michael W. Deem and Ramdas Pophale) SiO2 
 PCOD9346677
Probable space group: P N A 21
;
_chemical_formula_sum "Si O2"
_cell_formula_units_Z 24
_cell_length_a 13.290329
_cell_length_b 8.145710
_cell_length_c 9.887839
_cell_angle_alpha 90.000000
_cell_angle_beta 90.000000
_cell_angle_gamma 90.000000
_cell_volume 1070.449202
_symmetry_space_group_name_H-M "P N A 21"
_symmetry_group_IT_number 33
_symmetry_cell_setting 'orthorhombic'
loop_
_space_group_symop_operation_xyz
x,y,z
-x,-y,1/2+z
1/2-x,1/2+y,1/2+z
1/2+x,1/2-y,z
loop_
_atom_site_type_symbol
_atom_site_label
_atom_site_fract_x
_atom_site_fract_y
_atom_site_fract_z
Si Si1 0.988960 0.340116 0.279690
Si Si2 0.974589 0.274270 0.731665
Si Si3 0.200984 0.926563 0.121285
Si Si4 0.440771 0.711651 0.508798
Si Si5 0.863127 0.776763 0.000525
Si Si6 0.694665 0.987007 0.904633
O O1 0.018972 0.531495 0.260168
O O2 0.072696 0.245561 0.365513
O O3 0.887649 0.346900 0.368230
O O4 0.986001 0.264022 0.130882
O O5 0.869504 0.223941 0.667191
O O6 0.996524 0.181436 0.872433
O O7 0.061813 0.225575 0.626538
O O8 0.259052 0.974476 0.257966
O O9 0.287544 0.876345 0.017181
O O10 0.127811 0.063233 0.060045
O O11 0.366139 0.862779 0.470577
O O12 0.788124 0.929519 0.993896
#
# Coordination Sequence:
#
# PCOD9346677 Si02
#       6
#     4   4   4   4   4   4
#     4  11  23  47  73 103 140 186 229 296 355 418
#     4  11  26  45  70 101 145 182 236 290 354 414
#     4  12  26  44  69 107 135 186 236 281 357 418
#     4  11  25  46  73 103 140 184 232 303 342 424
#     4  12  24  47  73 101 146 185 231 294 349 426
#     4  11  26  45  70 105 138 183 236 282 361 418
#
# _framework density 22.420493
#
# number of rings (size 3 to 8) (size 9 to 14) (size 15 to 20)
#    0.000    0.667    5.000    4.000    4.667    2.667 
#    0.000    0.000    0.000    0.000    0.000    0.000 
#    0.000    0.000    0.000    0.000    0.000    0.000 
#
# Total GULP energy -134315.688252 kJ/mol
# GULP energy per Si atom -5596.487010 kJ/mol
# Density = 2.236946 g / cm^3
# Si number density = 22.420493 Si / 1000 Ang^3
#
#
#
# Elastic Constant Matrix: (Units=GPa)
#
#
# Indices 1 2 3 4 5 6 
#
# 1 95.0633 8.5422 23.3460 0.0000 0.0000 0.0000
# 2 8.5422 19.4662 10.2113 0.0000 0.0000 0.0000
# 3 23.3460 10.2113 118.2628 0.0000 0.0000 0.0000
# 4 0.0000 0.0000 0.0000 18.2172 0.0000 0.0000
# 5 0.0000 0.0000 0.0000 0.0000 20.1253 0.0000
# 6 0.0000 0.0000 0.0000 0.0000 0.0000 37.5972
#
#
#
# Elastic Compliance Matrix: (Units=1/GPa)
#
#
# Indices 1 2 3 4 5 6 
#
# 1 0.011343 -0.003983 -0.001895 0.000000 0.000000 0.000000
# 2 -0.003983 0.055207 -0.003980 0.000000 0.000000 0.000000
# 3 -0.001895 -0.003980 0.009174 0.000000 0.000000 0.000000
# 4 0.000000 0.000000 0.000000 0.054893 0.000000 0.000000
# 5 0.000000 0.000000 0.000000 0.000000 0.049689 0.000000
# 6 0.000000 0.000000 0.000000 0.000000 0.000000 0.026598
#
#
# Mechanical properties :
#
#
# Convention : Reuss Voigt Hill
#
# Bulk Modulus (GPa) = 17.85544 35.22126 26.53835
# Shear Modulus (GPa) = 20.38412 27.90080 24.14246
#
# Velocity S-wave (km/s) = 3.01852 3.53148 3.28503
# Velocity P-wave (km/s) = 4.48663 5.68964 5.12356
#
# Compressibility (1/GPa) = 0.05600536
#
# Stress axis : x y z
#
# Youngs Moduli (GPa) = 88.16272 18.11365 109.00892
#
# Poissons Ratio (x) = 0.07215 0.20659
# Poissons Ratio (y) = 0.35117 0.43391
# Poissons Ratio (z) = 0.16709 0.07210
#
# Static dielectric constant tensor:
#      x y z
#    x 1.804080 0.000000 0.000000 
#    y 0.000000 1.860920 0.000000 
#    z 0.000000 0.000000 1.802420 
# 
# From -- ./inp_files/3720.got.cif
#   From: 2010.05.17/outbox.cif.g08.bks.cpg/sg33_2_cif.got.tgz:3720.got - 2010.06.03 17:15:25.
