data_PCOD9346098
_publ_section_title
;
Structure prediction by ZEFSAII (Michael W. Deem and Ramdas Pophale) SiO2 
 PCOD9346098
Probable space group: P N A 21
;
_chemical_formula_sum "Si O2"
_cell_formula_units_Z 32
_cell_length_a 15.405228
_cell_length_b 8.664793
_cell_length_c 11.692134
_cell_angle_alpha 90.000000
_cell_angle_beta 90.000000
_cell_angle_gamma 90.000000
_cell_volume 1560.702429
_symmetry_space_group_name_H-M "P N A 21"
_symmetry_group_IT_number 33
_symmetry_cell_setting 'orthorhombic'
loop_
_space_group_symop_operation_xyz
x,y,z
-x,-y,1/2+z
1/2-x,1/2+y,1/2+z
1/2+x,1/2-y,z
loop_
_atom_site_type_symbol
_atom_site_label
_atom_site_fract_x
_atom_site_fract_y
_atom_site_fract_z
Si Si1 0.147794 0.220703 0.050800
Si Si2 0.508193 0.662584 0.713864
Si Si3 0.188843 0.157618 0.577480
Si Si4 0.338372 0.293145 0.050366
Si Si5 0.083479 0.649712 0.340081
Si Si6 0.588650 0.339391 0.799900
Si Si7 0.374402 0.087882 0.584185
Si Si8 0.459258 0.831708 0.945077
O O1 0.249602 0.204235 0.079336
O O2 0.129691 0.406843 0.049102
O O3 0.080354 0.149189 0.140991
O O4 0.129306 0.151199 0.925858
O O5 0.579373 0.741724 0.630859
O O6 0.545124 0.498746 0.756846
O O7 0.490854 0.764374 0.824801
O O8 0.159891 0.206093 0.705179
O O9 0.289008 0.181960 0.546245
O O10 0.119691 0.233035 0.493684
O O11 0.179089 0.973227 0.570902
O O12 0.363379 0.268941 0.917955
O O13 0.125720 0.598480 0.221482
O O14 0.073104 0.503302 0.421543
O O15 0.989391 0.717809 0.310280
O O16 0.460751 0.161835 0.532473
#
# Coordination Sequence:
#
# PCOD9346098 Si02
#       8
#     4   4   4   4   4   4   4   4
#     4  11  22  44  68  96 132 178 214 277 336 391
#     4  11  24  41  66  97 131 173 222 269 331 397
#     4  10  24  44  64  99 132 170 226 278 327 403
#     4  10  23  43  69  94 131 170 222 275 333 396
#     4  12  22  42  70  94 129 176 217 273 338 397
#     4  11  22  40  71  91 130 177 218 270 333 390
#     4  11  23  43  68  97 133 175 221 276 335 398
#     4  12  24  41  68  94 134 171 216 272 335 398
#
# _framework density 20.503587
#
# number of rings (size 3 to 8) (size 9 to 14) (size 15 to 20)
#    0.000    1.000    5.000    1.500    1.750    1.000 
#    6.750    0.000    0.000    0.000    0.000    0.000 
#    0.000    0.000    0.000    0.000    0.000    0.000 
#
# Total GULP energy -178836.291447 kJ/mol
# GULP energy per Si atom -5588.634108 kJ/mol
# Density = 2.045692 g / cm^3
# Si number density = 20.503587 Si / 1000 Ang^3
#
#
#
# Elastic Constant Matrix: (Units=GPa)
#
#
# Indices 1 2 3 4 5 6 
#
# 1 131.0925 13.2725 44.4154 0.0000 0.0000 0.0000
# 2 13.2725 16.1850 10.1951 0.0000 0.0000 0.0000
# 3 44.4154 10.1951 115.7485 0.0000 0.0000 0.0000
# 4 0.0000 0.0000 0.0000 36.6790 0.0000 0.0000
# 5 0.0000 0.0000 0.0000 0.0000 -196.9570 0.0000
# 6 0.0000 0.0000 0.0000 0.0000 0.0000 20.9960
#
#
#
# Elastic Compliance Matrix: (Units=1/GPa)
#
#
# Indices 1 2 3 4 5 6 
#
# 1 0.009232 -0.005653 -0.003045 0.000000 0.000000 0.000000
# 2 -0.005653 0.068876 -0.003897 0.000000 0.000000 0.000000
# 3 -0.003045 -0.003897 0.010151 0.000000 0.000000 0.000000
# 4 0.000000 0.000000 0.000000 0.027264 0.000000 0.000000
# 5 0.000000 0.000000 0.000000 0.000000 -0.005077 0.000000
# 6 0.000000 0.000000 0.000000 0.000000 0.000000 0.047628
#
#
# Mechanical properties :
#
#
# Convention : Reuss Voigt Hill
#
# Bulk Modulus (GPa) = 15.85556 44.31023 30.08289
# Shear Modulus (GPa) = 24.47536 -14.84687 4.81424
#
# Velocity S-wave (km/s) = 3.45876 -2.69385 1.53398
# Velocity P-wave (km/s) = 4.86832 3.46152 4.22390
#
# Compressibility (1/GPa) = 0.06306937
#
# Stress axis : x y z
#
# Youngs Moduli (GPa) = 108.31780 14.51878 98.51227
#
# Poissons Ratio (x) = 0.08207 0.29994
# Poissons Ratio (y) = 0.61231 0.38395
# Poissons Ratio (z) = 0.32979 0.05659
#
# Static dielectric constant tensor:
#      x y z
#    x 1.766150 0.000000 0.000000 
#    y 0.000000 1.736750 0.000000 
#    z 0.000000 0.000000 1.708510 
# 
# From -- ./inp_files/6818.got.cif
#   From: 2010.05.17/outbox.cif.g08.bks.cpg/sg33_4_cif.got.tgz:6818.got - 2010.06.03 17:15:25.
