data_PCOD9346194
_publ_section_title
;
Structure prediction by ZEFSAII (Michael W. Deem and Ramdas Pophale) SiO2 
 PCOD9346194
Probable space group: P N A 21
;
_chemical_formula_sum "Si O2"
_cell_formula_units_Z 24
_cell_length_a 13.102243
_cell_length_b 5.371614
_cell_length_c 12.379920
_cell_angle_alpha 90.000000
_cell_angle_beta 90.000000
_cell_angle_gamma 90.000000
_cell_volume 871.301146
_symmetry_space_group_name_H-M "P N A 21"
_symmetry_group_IT_number 33
_symmetry_cell_setting 'orthorhombic'
loop_
_space_group_symop_operation_xyz
x,y,z
-x,-y,1/2+z
1/2-x,1/2+y,1/2+z
1/2+x,1/2-y,z
loop_
_atom_site_type_symbol
_atom_site_label
_atom_site_fract_x
_atom_site_fract_y
_atom_site_fract_z
Si Si1 0.833096 0.321457 0.859270
Si Si2 0.250202 0.975919 0.627360
Si Si3 0.991856 0.079264 0.111986
Si Si4 0.335682 0.384555 0.467838
Si Si5 0.278697 0.081231 0.277377
Si Si6 0.510893 0.092609 0.742508
O O1 0.791682 0.408013 0.740984
O O2 0.947806 0.419446 0.854203
O O3 0.809673 0.029126 0.851878
O O4 0.763687 0.440657 0.951006
O O5 0.266281 0.688762 0.667108
O O6 0.129867 0.965699 0.596007
O O7 0.309223 0.141928 0.539988
O O8 0.005527 0.351711 0.165733
O O9 0.065246 0.029943 0.009671
O O10 0.022045 0.853689 0.191081
O O11 0.344723 0.281167 0.345621
O O12 0.368536 0.888176 0.256640
#
# Coordination Sequence:
#
# PCOD9346194 Si02
#       6
#     4   4   4   4   4   4
#     4  11  24  43  71 106 144 190 244 312 372 448
#     4  10  23  47  70 101 146 197 243 306 379 447
#     4  11  25  47  73 103 143 195 247 305 372 452
#     4  11  26  42  72 109 144 190 253 309 374 462
#     4  10  25  48  70 108 149 193 252 314 378 463
#     4  11  25  47  76  97 146 197 243 308 381 440
#
# _framework density 27.545010000000001
#
# number of rings (size 3 to 8) (size 9 to 14) (size 15 to 20)
#    0.000    1.333    3.333    0.000    9.333    1.333 
#    3.000    0.000    0.000    0.000    0.000    0.000 
#    0.000    0.000    0.000    0.000    0.000    0.000 
#
# Total GULP energy -134121.224547 kJ/mol
# GULP energy per Si atom -5588.384356 kJ/mol
# Density = 2.748232 g / cm^3
# Si number density = 27.545010 Si / 1000 Ang^3
#
#
#
# Elastic Constant Matrix: (Units=GPa)
#
#
# Indices 1 2 3 4 5 6 
#
# 1 120.5501 40.0647 5.3419 0.0000 0.0000 0.0000
# 2 40.0647 114.6455 26.1690 0.0000 0.0000 0.0000
# 3 5.3419 26.1690 105.4332 0.0000 0.0000 0.0000
# 4 0.0000 0.0000 0.0000 34.6890 0.0000 0.0000
# 5 0.0000 0.0000 0.0000 0.0000 44.9680 0.0000
# 6 0.0000 0.0000 0.0000 0.0000 0.0000 48.6138
#
#
#
# Elastic Compliance Matrix: (Units=1/GPa)
#
#
# Indices 1 2 3 4 5 6 
#
# 1 0.009398 -0.003366 0.000359 0.000000 0.000000 0.000000
# 2 -0.003366 0.010452 -0.002424 0.000000 0.000000 0.000000
# 3 0.000359 -0.002424 0.010068 0.000000 0.000000 0.000000
# 4 0.000000 0.000000 0.000000 0.028828 0.000000 0.000000
# 5 0.000000 0.000000 0.000000 0.000000 0.022238 0.000000
# 6 0.000000 0.000000 0.000000 0.000000 0.000000 0.020570
#
#
# Mechanical properties :
#
#
# Convention : Reuss Voigt Hill
#
# Bulk Modulus (GPa) = 52.47414 53.75333 53.11373
# Shear Modulus (GPa) = 42.09881 43.59103 42.84492
#
# Velocity S-wave (km/s) = 3.91367 3.98243 3.94820
# Velocity P-wave (km/s) = 6.28603 6.37992 6.33315
#
# Compressibility (1/GPa) = 0.01905701
#
# Stress axis : x y z
#
# Youngs Moduli (GPa) = 106.40342 95.67348 99.32411
#
# Poissons Ratio (x) = 0.32207 -0.03570
# Poissons Ratio (y) = 0.35819 0.24073
# Poissons Ratio (z) = -0.03824 0.23189
#
# Static dielectric constant tensor:
#      x y z
#    x 2.126460 0.000000 0.000000 
#    y 0.000000 2.394700 0.000000 
#    z 0.000000 0.000000 2.167340 
# 
# From -- ./inp_files/6665.got.cif
#   From: 2010.05.17/outbox.cif.g08.bks.cpg/sg33_4_cif.got.tgz:6665.got - 2010.06.03 17:15:25.
