data_PCOD9346485
_publ_section_title
;
Structure prediction by ZEFSAII (Michael W. Deem and Ramdas Pophale) SiO2 
 PCOD9346485
Probable space group: P N A 21
;
_chemical_formula_sum "Si O2"
_cell_formula_units_Z 20
_cell_length_a 5.581638
_cell_length_b 22.718080
_cell_length_c 7.027076
_cell_angle_alpha 90.000000
_cell_angle_beta 90.000000
_cell_angle_gamma 90.000000
_cell_volume 891.062038
_symmetry_space_group_name_H-M "P N A 21"
_symmetry_group_IT_number 33
_symmetry_cell_setting 'orthorhombic'
loop_
_space_group_symop_operation_xyz
x,y,z
-x,-y,1/2+z
1/2-x,1/2+y,1/2+z
1/2+x,1/2-y,z
loop_
_atom_site_type_symbol
_atom_site_label
_atom_site_fract_x
_atom_site_fract_y
_atom_site_fract_z
Si Si1 0.639966 0.158892 0.040000
Si Si2 0.672299 0.969596 0.865858
Si Si3 0.333917 0.236915 0.258195
Si Si4 0.015447 0.064178 0.022030
Si Si5 0.394503 0.085941 0.740020
O O1 0.409440 0.174907 0.168875
O O2 0.791794 0.218146 0.079089
O O3 0.809410 0.105868 0.106341
O O4 0.550586 0.137601 0.834628
O O5 0.775046 0.945345 0.671126
O O6 0.489765 0.022371 0.817321
O O7 0.586070 0.920916 0.014817
O O8 0.892710 0.002637 0.970526
O O9 0.076846 0.240106 0.359559
O O10 0.129778 0.091275 0.830083
#
# Coordination Sequence:
#
# PCOD9346485 Si02
#       5
#     4   4   4   4   4
#     4   9  20  34  60  86 120 156 216 241 324 354
#     4  11  22  36  58  80 130 156 210 245 312 368
#     4   8  16  34  58  88 112 156 200 266 296 374
#     4  11  21  36  56  90 117 167 197 258 299 382
#     4  11  21  36  56  90 117 167 197 258 299 382
#
# _framework density 22.445125999999998
#
# number of rings (size 3 to 8) (size 9 to 14) (size 15 to 20)
#    1.200    0.800    4.000    1.200    0.000    0.000 
#    0.000    0.000    0.000    2.400    0.000    0.000 
#    0.000    0.000    0.000    0.000    0.000    0.000 
#
# Total GULP energy -111408.219896 kJ/mol
# GULP energy per Si atom -5570.410995 kJ/mol
# Density = 2.239404 g / cm^3
# Si number density = 22.445126 Si / 1000 Ang^3
#
#
#
# Elastic Constant Matrix: (Units=GPa)
#
#
# Indices 1 2 3 4 5 6 
#
# 1 99.9979 6.7477 0.2619 0.0000 0.0000 0.0000
# 2 6.7477 60.7658 2.5674 0.0000 0.0000 0.0000
# 3 0.2619 2.5674 60.9036 0.0000 0.0000 0.0000
# 4 0.0000 0.0000 0.0000 -7.5817 0.0000 0.0000
# 5 0.0000 0.0000 0.0000 0.0000 20.6099 0.0000
# 6 0.0000 0.0000 0.0000 0.0000 0.0000 401.1289
#
#
#
# Elastic Compliance Matrix: (Units=1/GPa)
#
#
# Indices 1 2 3 4 5 6 
#
# 1 0.010076 -0.001119 0.000004 0.000000 0.000000 0.000000
# 2 -0.001119 0.016610 -0.000695 0.000000 0.000000 0.000000
# 3 0.000004 -0.000695 0.016449 0.000000 0.000000 0.000000
# 4 0.000000 0.000000 0.000000 -0.131897 0.000000 0.000000
# 5 0.000000 0.000000 0.000000 0.000000 0.048520 0.000000
# 6 0.000000 0.000000 0.000000 0.000000 0.000000 0.002493
#
#
# Mechanical properties :
#
#
# Convention : Reuss Voigt Hill
#
# Bulk Modulus (GPa) = 25.30778 26.75791 26.03285
# Shear Modulus (GPa) = -238.59396 96.97077 -70.81160
#
# Velocity S-wave (km/s) = -10.32142 6.58007 -5.62292
# Velocity P-wave (km/s) = 11.43427 8.34728 5.52564
#
# Compressibility (1/GPa) = 0.03951355
#
# Stress axis : x y z
#
# Youngs Moduli (GPa) = 99.24861 60.20370 60.79513
#
# Poissons Ratio (x) = 0.06737 -0.00023
# Poissons Ratio (y) = 0.11106 0.04228
# Poissons Ratio (z) = -0.00038 0.04187
#
# Static dielectric constant tensor:
#      x y z
#    x 1.899460 0.000000 0.000000 
#    y 0.000000 1.829060 0.000000 
#    z 0.000000 0.000000 1.802170 
# 
# From -- ./inp_files/165.got.cif
#   From: 2010.05.17/outbox.cif.g08.bks.cpg/sg33_1_cif.got.tgz:165.got - 2010.06.03 17:15:25.
