data_PCOD9346527
_publ_section_title
;
Structure prediction by ZEFSAII (Michael W. Deem and Ramdas Pophale) SiO2 
 PCOD9346527
Probable space group: P N A 21
;
_chemical_formula_sum "Si O2"
_cell_formula_units_Z 24
_cell_length_a 9.780286
_cell_length_b 4.793627
_cell_length_c 18.242804
_cell_angle_alpha 90.000000
_cell_angle_beta 90.000000
_cell_angle_gamma 90.000000
_cell_volume 855.278165
_symmetry_space_group_name_H-M "P N A 21"
_symmetry_group_IT_number 33
_symmetry_cell_setting 'orthorhombic'
loop_
_space_group_symop_operation_xyz
x,y,z
-x,-y,1/2+z
1/2-x,1/2+y,1/2+z
1/2+x,1/2-y,z
loop_
_atom_site_type_symbol
_atom_site_label
_atom_site_fract_x
_atom_site_fract_y
_atom_site_fract_z
Si Si1 0.159713 0.181921 0.088120
Si Si2 0.551422 0.727049 0.339868
Si Si3 0.014784 0.559920 0.710727
Si Si4 0.840287 0.818079 0.091615
Si Si5 0.307451 0.084539 0.339868
Si Si6 0.514784 0.940080 0.969008
O O1 0.068693 0.234022 0.159462
O O2 0.931307 0.765978 0.020273
O O3 0.297260 0.363925 0.099185
O O4 0.087614 0.328993 0.019644
O O5 0.586070 0.892556 0.265443
O O6 0.702740 0.636075 0.080550
O O7 0.646086 0.456810 0.339868
O O8 0.586070 0.892556 0.414292
O O9 0.087614 0.328993 0.660092
O O10 0.125017 0.699880 0.765620
O O11 0.374983 0.199880 0.414115
O O12 0.885978 0.724442 0.339868
#
# Coordination Sequence:
#
# PCOD9346527 Si02
#       6
#     4   4   4   4   4   4
#     4  11  22  39  62  90 129 162 207 254 311 366
#     4   8  16  34  60  90 125 161 207 257 309 365
#     4   8  20  34  60  94 122 164 208 256 308 368
#     4  11  22  39  62  90 129 162 207 254 311 366
#     4   8  16  34  60  90 125 161 207 257 309 365
#     4   8  20  34  60  94 122 164 208 256 308 368
#
# _framework density 28.061046999999999
#
# number of rings (size 3 to 8) (size 9 to 14) (size 15 to 20)
#    2.000    0.667    0.000    2.000    0.000    5.333 
#    0.000    6.667    0.000   16.000    0.000    0.000 
#    0.000    0.000    0.000    0.000    0.000    0.000 
#
# Total GULP energy -134370.741905 kJ/mol
# GULP energy per Si atom -5598.780913 kJ/mol
# Density = 2.799718 g / cm^3
# Si number density = 28.061047 Si / 1000 Ang^3
#
#
#
# Elastic Constant Matrix: (Units=GPa)
#
#
# Indices 1 2 3 4 5 6 
#
# 1 125.8600 24.6324 44.5134 0.0000 0.0000 0.0000
# 2 24.6324 84.7903 34.3154 0.0000 0.0000 0.0000
# 3 44.5134 34.3154 177.6333 0.0000 0.0000 0.0000
# 4 0.0000 0.0000 0.0000 16.8905 0.0000 0.0000
# 5 0.0000 0.0000 0.0000 0.0000 27.4205 0.0000
# 6 0.0000 0.0000 0.0000 0.0000 0.0000 48.4715
#
#
#
# Elastic Compliance Matrix: (Units=1/GPa)
#
#
# Indices 1 2 3 4 5 6 
#
# 1 0.008975 -0.001841 -0.001893 0.000000 0.000000 0.000000
# 2 -0.001841 0.013172 -0.002083 0.000000 0.000000 0.000000
# 3 -0.001893 -0.002083 0.006506 0.000000 0.000000 0.000000
# 4 0.000000 0.000000 0.000000 0.059205 0.000000 0.000000
# 5 0.000000 0.000000 0.000000 0.000000 0.036469 0.000000
# 6 0.000000 0.000000 0.000000 0.000000 0.000000 0.020631
#
#
# Mechanical properties :
#
#
# Convention : Reuss Voigt Hill
#
# Bulk Modulus (GPa) = 58.76110 66.13400 62.44755
# Shear Modulus (GPa) = 30.81355 37.54467 34.17911
#
# Velocity S-wave (km/s) = 3.31734 3.66179 3.49381
# Velocity P-wave (km/s) = 5.97151 6.44184 6.21113
#
# Compressibility (1/GPa) = 0.01701806
#
# Stress axis : x y z
#
# Youngs Moduli (GPa) = 111.41637 75.92009 153.69269
#
# Poissons Ratio (x) = 0.13978 0.29101
# Poissons Ratio (y) = 0.20513 0.32017
# Poissons Ratio (z) = 0.21096 0.15815
#
# Static dielectric constant tensor:
#      x y z
#    x 2.227860 0.000000 0.000000 
#    y 0.000000 2.104430 0.000000 
#    z 0.000000 0.000000 2.150520 
# 
# From -- ./inp_files/8661.got.cif
#   From: 2010.05.17/outbox.cif.g08.bks.cpg/sg33_5_cif.got.tgz:8661.got - 2010.06.03 17:15:25.
