data_PCOD9346546
_publ_section_title
;
Structure prediction by ZEFSAII (Michael W. Deem and Ramdas Pophale) SiO2 
 PCOD9346546
Probable space group: P N A 21
;
_chemical_formula_sum "Si O2"
_cell_formula_units_Z 32
_cell_length_a 11.063177
_cell_length_b 11.665137
_cell_length_c 10.779000
_cell_angle_alpha 90.000000
_cell_angle_beta 90.000000
_cell_angle_gamma 90.000000
_cell_volume 1391.067411
_symmetry_space_group_name_H-M "P N A 21"
_symmetry_group_IT_number 33
_symmetry_cell_setting 'orthorhombic'
loop_
_space_group_symop_operation_xyz
x,y,z
-x,-y,1/2+z
1/2-x,1/2+y,1/2+z
1/2+x,1/2-y,z
loop_
_atom_site_type_symbol
_atom_site_label
_atom_site_fract_x
_atom_site_fract_y
_atom_site_fract_z
Si Si1 0.053374 0.321176 0.673390
Si Si2 0.360233 0.007617 0.016220
Si Si3 0.252546 0.828553 0.358981
Si Si4 0.820266 0.419763 0.756980
Si Si5 0.417224 0.574425 0.507227
Si Si6 0.261807 0.349071 0.156164
Si Si7 0.997979 0.284950 0.134670
Si Si8 0.486660 0.431416 0.741485
O O1 0.129821 0.378408 0.564439
O O2 0.120696 0.362863 0.798380
O O3 0.919625 0.372018 0.663440
O O4 0.042306 0.185638 0.685951
O O5 0.449271 0.092264 0.090274
O O6 0.384921 0.017045 0.871320
O O7 0.224257 0.055378 0.031101
O O8 0.233924 0.695507 0.318817
O O9 0.241201 0.843284 0.505781
O O10 0.147592 0.898548 0.289763
O O11 0.738880 0.517624 0.695600
O O12 0.466753 0.704229 0.516676
O O13 0.478272 0.515960 0.626008
O O14 0.450251 0.530433 0.370452
O O15 0.380746 0.277121 0.196410
O O16 0.130208 0.298104 0.198001
#
# Coordination Sequence:
#
# PCOD9346546 Si02
#       8
#     4   4   4   4   4   4   4   4
#     4  11  24  43  70  98 144 181 239 289 360 423
#     4  12  23  45  68 104 142 178 235 302 351 422
#     4  11  22  42  70 102 136 186 245 288 358 435
#     4  11  24  41  72 103 139 190 231 294 364 431
#     4  12  25  46  73 102 146 185 243 292 364 422
#     4  12  24  42  73 104 139 188 240 294 353 437
#     4  12  23  43  68 103 140 185 240 287 352 433
#     4  11  25  44  70 104 138 193 235 298 354 435
#
# _framework density 23.003917999999999
#
# number of rings (size 3 to 8) (size 9 to 14) (size 15 to 20)
#    0.000    0.500    6.250    3.000    3.500    0.000 
#    2.250    0.000    2.750    0.000    0.000    0.000 
#    0.000    0.000    0.000    0.000    0.000    0.000 
#
# Total GULP energy -178747.649076 kJ/mol
# GULP energy per Si atom -5585.864034 kJ/mol
# Density = 2.295156 g / cm^3
# Si number density = 23.003918 Si / 1000 Ang^3
#
#
#
# Elastic Constant Matrix: (Units=GPa)
#
#
# Indices 1 2 3 4 5 6 
#
# 1 122.6978 33.6277 20.5355 0.0000 0.0000 0.0000
# 2 33.6277 81.7769 53.7976 0.0000 0.0000 0.0000
# 3 20.5355 53.7976 73.1084 0.0000 0.0000 0.0000
# 4 0.0000 0.0000 0.0000 46.5315 0.0000 0.0000
# 5 0.0000 0.0000 0.0000 0.0000 19.7431 0.0000
# 6 0.0000 0.0000 0.0000 0.0000 0.0000 32.6491
#
#
#
# Elastic Compliance Matrix: (Units=1/GPa)
#
#
# Indices 1 2 3 4 5 6 
#
# 1 0.009191 -0.004034 0.000387 0.000000 0.000000 0.000000
# 2 -0.004034 0.025473 -0.017612 0.000000 0.000000 0.000000
# 3 0.000387 -0.017612 0.026529 0.000000 0.000000 0.000000
# 4 0.000000 0.000000 0.000000 0.021491 0.000000 0.000000
# 5 0.000000 0.000000 0.000000 0.000000 0.050651 0.000000
# 6 0.000000 0.000000 0.000000 0.000000 0.000000 0.030629
#
#
# Mechanical properties :
#
#
# Convention : Reuss Voigt Hill
#
# Bulk Modulus (GPa) = 53.54476 54.83383 54.18930
# Shear Modulus (GPa) = 23.50663 31.09291 27.29977
#
# Velocity S-wave (km/s) = 3.20011 3.68045 3.44865
# Velocity P-wave (km/s) = 6.08122 6.47684 6.28214
#
# Compressibility (1/GPa) = 0.01867596
#
# Stress axis : x y z
#
# Youngs Moduli (GPa) = 108.80294 39.25724 37.69413
#
# Poissons Ratio (x) = 0.15836 -0.01457
# Poissons Ratio (y) = 0.43889 0.66385
# Poissons Ratio (z) = -0.04207 0.69138
#
# Static dielectric constant tensor:
#      x y z
#    x 1.984840 0.000000 0.000000 
#    y 0.000000 1.884670 0.000000 
#    z 0.000000 0.000000 1.818900 
# 
# From -- ./inp_files/6455.got.cif
#   From: 2010.05.17/outbox.cif.g08.bks.cpg/sg33_4_cif.got.tgz:6455.got - 2010.06.03 17:15:25.
