data_PCOD9346561
_publ_section_title
;
Structure prediction by ZEFSAII (Michael W. Deem and Ramdas Pophale) SiO2 
 PCOD9346561
Probable space group: P N A 21
;
_chemical_formula_sum "Si O2"
_cell_formula_units_Z 32
_cell_length_a 8.317312
_cell_length_b 11.728640
_cell_length_c 14.231036
_cell_angle_alpha 90.000000
_cell_angle_beta 90.000000
_cell_angle_gamma 90.000000
_cell_volume 1388.248352
_symmetry_space_group_name_H-M "P N A 21"
_symmetry_group_IT_number 33
_symmetry_cell_setting 'orthorhombic'
loop_
_space_group_symop_operation_xyz
x,y,z
-x,-y,1/2+z
1/2-x,1/2+y,1/2+z
1/2+x,1/2-y,z
loop_
_atom_site_type_symbol
_atom_site_label
_atom_site_fract_x
_atom_site_fract_y
_atom_site_fract_z
Si Si1 0.039487 0.831024 0.919250
Si Si2 0.642630 0.918980 0.504528
Si Si3 0.649156 0.523231 0.347193
Si Si4 0.488465 0.917338 0.844714
Si Si5 0.328617 0.795066 0.248750
Si Si6 0.963118 0.474565 0.661976
Si Si7 0.046466 0.198496 0.943337
Si Si8 0.256580 0.682154 0.052050
O O1 0.990276 0.715786 0.866104
O O2 0.002849 0.936169 0.847658
O O3 0.909496 0.862423 0.997948
O O4 0.183644 0.781989 0.985289
O O5 0.818809 0.866666 0.501040
O O6 0.516872 0.816452 0.485476
O O7 0.611123 0.010659 0.421566
O O8 0.611739 0.973935 0.605342
O O9 0.683893 0.614603 0.264205
O O10 0.603519 0.613427 0.428699
O O11 0.822916 0.459154 0.351586
O O12 0.412499 0.936526 0.741456
O O13 0.486691 0.869767 0.228294
O O14 0.366884 0.724622 0.342529
O O15 0.301930 0.728795 0.153524
O O16 0.858704 0.422723 0.577853
#
# Coordination Sequence:
#
# PCOD9346561 Si02
#       8
#     4   4   4   4   4   4   4   4
#     4  12  25  43  69  99 141 185 221 286 354 409
#     4  12  22  43  68  98 134 181 224 286 346 406
#     4  11  24  42  68  98 135 180 227 277 343 417
#     4  11  23  48  68  96 143 183 225 288 351 406
#     4  11  22  44  67 100 132 179 230 290 334 409
#     4  11  23  41  71  96 132 181 232 281 342 414
#     4  12  24  41  71  98 135 181 226 284 352 407
#     4  12  23  42  68 103 134 178 241 282 336 414
#
# _framework density 23.050630000000002
#
# number of rings (size 3 to 8) (size 9 to 14) (size 15 to 20)
#    0.000    0.500    7.500    1.500    3.500    0.000 
#    4.500    0.000    0.000    0.000    0.000    0.000 
#    0.000    0.000    0.000    0.000    0.000    0.000 
#
# Total GULP energy -178530.066107 kJ/mol
# GULP energy per Si atom -5579.064566 kJ/mol
# Density = 2.299817 g / cm^3
# Si number density = 23.050630 Si / 1000 Ang^3
#
#
#
# Elastic Constant Matrix: (Units=GPa)
#
#
# Indices 1 2 3 4 5 6 
#
# 1 42.9782 1.8324 8.2261 0.0000 0.0000 0.0000
# 2 1.8324 87.8854 13.7997 0.0000 0.0000 0.0000
# 3 8.2261 13.7997 64.0260 0.0000 0.0000 0.0000
# 4 0.0000 0.0000 0.0000 32.6612 0.0000 0.0000
# 5 0.0000 0.0000 0.0000 0.0000 32.7136 0.0000
# 6 0.0000 0.0000 0.0000 0.0000 0.0000 36.0992
#
#
#
# Elastic Compliance Matrix: (Units=1/GPa)
#
#
# Indices 1 2 3 4 5 6 
#
# 1 0.023854 -0.000017 -0.003061 0.000000 0.000000 0.000000
# 2 -0.000017 0.011777 -0.002536 0.000000 0.000000 0.000000
# 3 -0.003061 -0.002536 0.016559 0.000000 0.000000 0.000000
# 4 0.000000 0.000000 0.000000 0.030617 0.000000 0.000000
# 5 0.000000 0.000000 0.000000 0.000000 0.030568 0.000000
# 6 0.000000 0.000000 0.000000 0.000000 0.000000 0.027701
#
#
# Mechanical properties :
#
#
# Convention : Reuss Voigt Hill
#
# Bulk Modulus (GPa) = 24.41306 26.95622 25.68464
# Shear Modulus (GPa) = 30.12791 31.69690 30.91240
#
# Velocity S-wave (km/s) = 3.61921 3.71226 3.66603
# Velocity P-wave (km/s) = 5.29896 5.48582 5.39320
#
# Compressibility (1/GPa) = 0.04096169
#
# Stress axis : x y z
#
# Youngs Moduli (GPa) = 41.92127 84.91101 60.39159
#
# Poissons Ratio (x) = 0.00142 0.18487
# Poissons Ratio (y) = 0.00070 0.15316
# Poissons Ratio (z) = 0.12833 0.21535
#
# Static dielectric constant tensor:
#      x y z
#    x 1.964640 0.000000 0.000000 
#    y 0.000000 1.922720 0.000000 
#    z 0.000000 0.000000 1.837500 
# 
# From -- ./inp_files/7638.got.cif
#   From: 2010.05.17/outbox.cif.g08.bks.cpg/sg33_4_cif.got.tgz:7638.got - 2010.06.03 17:15:25.
