data_PCOD9346006
_publ_section_title
;
Structure prediction by ZEFSAII (Michael W. Deem and Ramdas Pophale) SiO2 
 PCOD9346006
Probable space group: P N A 21
;
_chemical_formula_sum "Si O2"
_cell_formula_units_Z 32
_cell_length_a 5.232459
_cell_length_b 31.259061
_cell_length_c 8.378358
_cell_angle_alpha 90.000000
_cell_angle_beta 90.000000
_cell_angle_gamma 90.000000
_cell_volume 1370.378939
_symmetry_space_group_name_H-M "P N A 21"
_symmetry_group_IT_number 33
_symmetry_cell_setting 'orthorhombic'
loop_
_space_group_symop_operation_xyz
x,y,z
-x,-y,1/2+z
1/2-x,1/2+y,1/2+z
1/2+x,1/2-y,z
loop_
_atom_site_type_symbol
_atom_site_label
_atom_site_fract_x
_atom_site_fract_y
_atom_site_fract_z
Si Si1 0.709837 0.362371 0.903000
Si Si2 0.772599 0.594160 0.513955
Si Si3 0.949290 0.272319 0.893148
Si Si4 0.400676 0.433602 0.336107
Si Si5 0.241133 0.131431 0.535018
Si Si6 0.710707 0.508443 0.357742
Si Si7 0.487942 0.953521 0.089913
Si Si8 0.069709 0.725172 0.004928
O O1 0.837944 0.317389 0.945342
O O2 0.629417 0.360960 0.713944
O O3 0.446962 0.370283 0.995895
O O4 0.947326 0.394481 0.944687
O O5 0.792646 0.582463 0.700493
O O6 0.630614 0.555005 0.418936
O O7 0.736780 0.237739 0.943842
O O8 0.946934 0.273029 0.698948
O O9 0.560361 0.393854 0.410316
O O10 0.557796 0.472921 0.258870
O O11 0.264021 0.456579 0.484020
O O12 0.456307 0.096635 0.580356
O O13 0.352824 0.176022 0.470292
O O14 0.951651 0.523367 0.254991
O O15 0.794947 0.479447 0.503302
O O16 0.296241 0.756940 0.949764
#
# Coordination Sequence:
#
# PCOD9346006 Si02
#       8
#     4   4   4   4   4   4   4   4
#     4  11  24  41  66  99 128 169 216 274 332 395
#     4  12  26  42  65  94 134 172 222 274 328 397
#     4   9  17  34  61  92 126 158 205 265 327 392
#     4  11  26  40  64  91 132 180 222 279 330 401
#     4  10  23  40  66  97 128 171 220 276 334 399
#     4  11  24  40  65  91 131 175 231 273 340 389
#     4  11  23  41  64  93 129 175 225 278 330 398
#     4   9  19  34  61  95 128 160 207 271 331 393
#
# _framework density 23.351203999999999
#
# number of rings (size 3 to 8) (size 9 to 14) (size 15 to 20)
#    0.000    1.500    1.250    3.000    8.750    4.000 
#    0.000    0.000    0.000    4.500    0.000    0.000 
#    0.000    0.000    0.000    0.000    0.000    0.000 
#
# Total GULP energy -178463.894600 kJ/mol
# GULP energy per Si atom -5576.996706 kJ/mol
# Density = 2.329806 g / cm^3
# Si number density = 23.351204 Si / 1000 Ang^3
#
#
#
# Elastic Constant Matrix: (Units=GPa)
#
#
# Indices 1 2 3 4 5 6 
#
# 1 64.0135 -5.8172 -0.3964 0.0000 0.0000 0.0000
# 2 -5.8172 87.5395 1.8937 0.0000 0.0000 0.0000
# 3 -0.3964 1.8937 35.7702 0.0000 0.0000 0.0000
# 4 0.0000 0.0000 0.0000 12.8012 0.0000 0.0000
# 5 0.0000 0.0000 0.0000 0.0000 27.8897 0.0000
# 6 0.0000 0.0000 0.0000 0.0000 0.0000 28.5647
#
#
#
# Elastic Compliance Matrix: (Units=1/GPa)
#
#
# Indices 1 2 3 4 5 6 
#
# 1 0.015717 0.001042 0.000119 0.000000 0.000000 0.000000
# 2 0.001042 0.011506 -0.000598 0.000000 0.000000 0.000000
# 3 0.000119 -0.000598 0.027989 0.000000 0.000000 0.000000
# 4 0.000000 0.000000 0.000000 0.078117 0.000000 0.000000
# 5 0.000000 0.000000 0.000000 0.000000 0.035856 0.000000
# 6 0.000000 0.000000 0.000000 0.000000 0.000000 0.035008
#
#
# Mechanical properties :
#
#
# Convention : Reuss Voigt Hill
#
# Bulk Modulus (GPa) = 17.74983 19.85370 18.80177
# Shear Modulus (GPa) = 22.53815 26.62733 24.58274
#
# Velocity S-wave (km/s) = 3.11011 3.38049 3.24811
# Velocity P-wave (km/s) = 4.52932 4.87418 4.70491
#
# Compressibility (1/GPa) = 0.05633856
#
# Stress axis : x y z
#
# Youngs Moduli (GPa) = 63.62492 86.91437 35.72805
#
# Poissons Ratio (x) = -0.09055 -0.00425
# Poissons Ratio (y) = -0.06629 0.02135
# Poissons Ratio (z) = -0.00757 0.05194
#
# Static dielectric constant tensor:
#      x y z
#    x 1.906110 0.000000 0.000000 
#    y 0.000000 1.895960 0.000000 
#    z 0.000000 0.000000 1.913480 
# 
# From -- ./inp_files/2846.got.cif
#   From: 2010.05.17/outbox.cif.g08.bks.cpg/sg33_2_cif.got.tgz:2846.got - 2010.06.03 17:15:25.
