data_PCOD9346177
_publ_section_title
;
Structure prediction by ZEFSAII (Michael W. Deem and Ramdas Pophale) SiO2 
 PCOD9346177
Probable space group: P N A 21
;
_chemical_formula_sum "Si O2"
_cell_formula_units_Z 32
_cell_length_a 11.027558
_cell_length_b 13.369367
_cell_length_c 9.421386
_cell_angle_alpha 90.000000
_cell_angle_beta 90.000000
_cell_angle_gamma 90.000000
_cell_volume 1389.008788
_symmetry_space_group_name_H-M "P N A 21"
_symmetry_group_IT_number 33
_symmetry_cell_setting 'orthorhombic'
loop_
_space_group_symop_operation_xyz
x,y,z
-x,-y,1/2+z
1/2-x,1/2+y,1/2+z
1/2+x,1/2-y,z
loop_
_atom_site_type_symbol
_atom_site_label
_atom_site_fract_x
_atom_site_fract_y
_atom_site_fract_z
Si Si1 0.454674 0.986109 0.751100
Si Si2 0.803378 0.620097 0.962230
Si Si3 0.673941 0.342318 0.339550
Si Si4 0.761550 0.013718 0.029518
Si Si5 0.757378 0.674435 0.277483
Si Si6 0.420235 0.403258 0.263387
Si Si7 0.481496 0.210368 0.826062
Si Si8 0.377402 0.183708 0.141542
O O1 0.405244 0.954602 0.905665
O O2 0.348509 0.968068 0.637460
O O3 0.560381 0.911589 0.711191
O O4 0.484492 0.101526 0.755986
O O5 0.839756 0.730963 0.903857
O O6 0.679229 0.586207 0.886147
O O7 0.784599 0.623277 0.128115
O O8 0.748488 0.406135 0.455488
O O9 0.555537 0.410643 0.319561
O O10 0.736923 0.329013 0.185546
O O11 0.879654 0.030057 0.129311
O O12 0.755238 0.097348 0.907446
O O13 0.626442 0.726226 0.256807
O O14 0.876768 0.743243 0.315001
O O15 0.412871 0.287395 0.215932
O O16 0.428134 0.195505 0.984059
#
# Coordination Sequence:
#
# PCOD9346177 Si02
#       8
#     4   4   4   4   4   4   4   4
#     4  11  24  47  72 101 137 183 241 286 342 429
#     4  10  25  44  71 101 139 181 234 291 352 417
#     4  11  24  43  71  99 142 186 233 290 360 423
#     4  11  24  45  69 102 141 185 235 287 353 426
#     4  12  27  46  70 108 143 181 234 297 353 420
#     4  10  23  46  69 100 142 186 231 291 359 432
#     4  12  28  44  76 104 145 182 239 297 353 423
#     4  11  23  43  74  99 133 190 235 291 350 424
#
# _framework density 23.038011000000001
#
# number of rings (size 3 to 8) (size 9 to 14) (size 15 to 20)
#    0.000    1.000    3.750    1.500    7.000    1.000 
#    6.750    0.000    0.000    0.000    0.000    0.000 
#    0.000    0.000    0.000    0.000    0.000    0.000 
#
# Total GULP energy -178934.519425 kJ/mol
# GULP energy per Si atom -5591.703732 kJ/mol
# Density = 2.298558 g / cm^3
# Si number density = 23.038011 Si / 1000 Ang^3
#
#
#
# Elastic Constant Matrix: (Units=GPa)
#
#
# Indices 1 2 3 4 5 6 
#
# 1 55.4155 -10.6683 12.4572 0.0000 0.0000 0.0000
# 2 -10.6683 23.2182 -26.1161 0.0000 0.0000 0.0000
# 3 12.4572 -26.1161 112.7299 0.0000 0.0000 0.0000
# 4 0.0000 0.0000 0.0000 27.6988 0.0000 0.0000
# 5 0.0000 0.0000 0.0000 0.0000 15.0490 0.0000
# 6 0.0000 0.0000 0.0000 0.0000 0.0000 24.6647
#
#
#
# Elastic Compliance Matrix: (Units=1/GPa)
#
#
# Indices 1 2 3 4 5 6 
#
# 1 0.019798 0.008974 -0.000109 0.000000 0.000000 0.000000
# 2 0.008974 0.062316 0.013445 0.000000 0.000000 0.000000
# 3 -0.000109 0.013445 0.011998 0.000000 0.000000 0.000000
# 4 0.000000 0.000000 0.000000 0.036103 0.000000 0.000000
# 5 0.000000 0.000000 0.000000 0.000000 0.066450 0.000000
# 6 0.000000 0.000000 0.000000 0.000000 0.000000 0.040544
#
#
# Mechanical properties :
#
#
# Convention : Reuss Voigt Hill
#
# Bulk Modulus (GPa) = 7.20806 15.85658 11.53232
# Shear Modulus (GPa) = 20.93537 27.86190 24.39863
#
# Velocity S-wave (km/s) = 3.01779 3.48140 3.25785
# Velocity P-wave (km/s) = 3.90874 4.80187 4.37814
#
# Compressibility (1/GPa) = 0.13873351
#
# Stress axis : x y z
#
# Youngs Moduli (GPa) = 50.51115 16.04712 83.35002
#
# Poissons Ratio (x) = -0.14401 0.00905
# Poissons Ratio (y) = -0.45331 -1.12065
# Poissons Ratio (z) = 0.00549 -0.21576
#
# Static dielectric constant tensor:
#      x y z
#    x 1.995040 0.000000 0.000000 
#    y 0.000000 1.840080 0.000000 
#    z 0.000000 0.000000 1.848570 
# 
# From -- ./inp_files/3914.got.cif
#   From: 2010.05.17/outbox.cif.g08.bks.cpg/sg33_2_cif.got.tgz:3914.got - 2010.06.03 17:15:25.
