data_PCOD9346192
_publ_section_title
;
Structure prediction by ZEFSAII (Michael W. Deem and Ramdas Pophale) SiO2 
 PCOD9346192
Probable space group: P N A 21
;
_chemical_formula_sum "Si O2"
_cell_formula_units_Z 24
_cell_length_a 12.329486
_cell_length_b 13.873102
_cell_length_c 5.799352
_cell_angle_alpha 90.000000
_cell_angle_beta 90.000000
_cell_angle_gamma 90.000000
_cell_volume 991.968819
_symmetry_space_group_name_H-M "P N A 21"
_symmetry_group_IT_number 33
_symmetry_cell_setting 'orthorhombic'
loop_
_space_group_symop_operation_xyz
x,y,z
-x,-y,1/2+z
1/2-x,1/2+y,1/2+z
1/2+x,1/2-y,z
loop_
_atom_site_type_symbol
_atom_site_label
_atom_site_fract_x
_atom_site_fract_y
_atom_site_fract_z
Si Si1 0.754694 0.136365 0.608740
Si Si2 0.765703 0.501440 0.512026
Si Si3 0.112092 0.685919 0.035125
Si Si4 0.552812 0.477551 0.741080
Si Si5 0.080177 0.244299 0.852209
Si Si6 0.427475 0.867739 0.734733
O O1 0.777626 0.042847 0.766948
O O2 0.846127 0.205126 0.499184
O O3 0.696038 0.212797 0.780938
O O4 0.656210 0.116141 0.438686
O O5 0.789880 0.389420 0.555195
O O6 0.670490 0.525771 0.694062
O O7 0.881168 0.555086 0.554537
O O8 0.047886 0.634558 0.826117
O O9 0.022242 0.696797 0.240132
O O10 0.495091 0.489203 0.489034
O O11 0.565362 0.363804 0.777970
O O12 0.081210 0.261574 0.124981
#
# Coordination Sequence:
#
# PCOD9346192 Si02
#       6
#     4   4   4   4   4   4
#     4  10  23  47  69 105 145 198 258 319 398 476
#     4  11  26  46  74 111 153 207 264 331 400 483
#     4  11  24  44  74 104 152 199 263 331 398 482
#     4  12  29  49  80 116 159 208 269 330 405 490
#     4  10  24  47  67 108 146 203 258 319 401 477
#     4  10  26  43  74 104 151 197 260 322 400 476
#
# _framework density 24.194310999999999
#
# number of rings (size 3 to 8) (size 9 to 14) (size 15 to 20)
#    0.000    1.333    1.667    1.000   16.333    2.667 
#    0.000    0.000    0.000    0.000    0.000    0.000 
#    0.000    0.000    0.000    0.000    0.000    0.000 
#
# Total GULP energy -133726.755357 kJ/mol
# GULP energy per Si atom -5571.948140 kJ/mol
# Density = 2.413924 g / cm^3
# Si number density = 24.194311 Si / 1000 Ang^3
#
#
#
# Elastic Constant Matrix: (Units=GPa)
#
#
# Indices 1 2 3 4 5 6 
#
# 1 58.6972 38.7630 11.1906 0.0000 0.0000 0.0000
# 2 38.7630 105.2472 37.2544 0.0000 0.0000 0.0000
# 3 11.1906 37.2544 72.5217 0.0000 0.0000 0.0000
# 4 0.0000 0.0000 0.0000 36.9011 0.0000 0.0000
# 5 0.0000 0.0000 0.0000 0.0000 43.9707 0.0000
# 6 0.0000 0.0000 0.0000 0.0000 0.0000 36.4013
#
#
#
# Elastic Compliance Matrix: (Units=1/GPa)
#
#
# Indices 1 2 3 4 5 6 
#
# 1 0.022567 -0.008652 0.000962 0.000000 0.000000 0.000000
# 2 -0.008652 0.014930 -0.006335 0.000000 0.000000 0.000000
# 3 0.000962 -0.006335 0.016895 0.000000 0.000000 0.000000
# 4 0.000000 0.000000 0.000000 0.027099 0.000000 0.000000
# 5 0.000000 0.000000 0.000000 0.000000 0.022742 0.000000
# 6 0.000000 0.000000 0.000000 0.000000 0.000000 0.027472
#
#
# Mechanical properties :
#
#
# Convention : Reuss Voigt Hill
#
# Bulk Modulus (GPa) = 37.96069 45.65356 41.80713
# Shear Modulus (GPa) = 29.66742 33.40517 31.53630
#
# Velocity S-wave (km/s) = 3.50553 3.71981 3.61426
# Velocity P-wave (km/s) = 5.66648 6.11227 5.89359
#
# Compressibility (1/GPa) = 0.02634304
#
# Stress axis : x y z
#
# Youngs Moduli (GPa) = 44.31267 66.97768 59.19058
#
# Poissons Ratio (x) = 0.57950 -0.05697
# Poissons Ratio (y) = 0.38340 0.37495
# Poissons Ratio (z) = -0.04265 0.42428
#
# Static dielectric constant tensor:
#      x y z
#    x 2.019150 0.000000 0.000000 
#    y 0.000000 1.988020 0.000000 
#    z 0.000000 0.000000 2.011800 
# 
# From -- ./inp_files/845.got.cif
#   From: 2010.05.17/outbox.cif.g08.bks.cpg/sg33_1_cif.got.tgz:845.got - 2010.06.03 17:15:25.
