data_PCOD9346183
_publ_section_title
;
Structure prediction by ZEFSAII (Michael W. Deem and Ramdas Pophale) SiO2 
 PCOD9346183
Probable space group: P N A 21
;
_chemical_formula_sum "Si O2"
_cell_formula_units_Z 32
_cell_length_a 11.556748
_cell_length_b 8.686520
_cell_length_c 13.082200
_cell_angle_alpha 90.000000
_cell_angle_beta 90.000000
_cell_angle_gamma 90.000000
_cell_volume 1313.294882
_symmetry_space_group_name_H-M "P N A 21"
_symmetry_group_IT_number 33
_symmetry_cell_setting 'orthorhombic'
loop_
_space_group_symop_operation_xyz
x,y,z
-x,-y,1/2+z
1/2-x,1/2+y,1/2+z
1/2+x,1/2-y,z
loop_
_atom_site_type_symbol
_atom_site_label
_atom_site_fract_x
_atom_site_fract_y
_atom_site_fract_z
Si Si1 0.367966 0.136981 0.253720
Si Si2 0.461384 0.979206 0.575900
Si Si3 0.363179 0.448666 0.756214
Si Si4 0.989136 0.158048 0.387471
Si Si5 0.803186 0.016467 0.529829
Si Si6 0.393106 0.738733 0.075524
Si Si7 0.192425 0.929483 0.624005
Si Si8 0.879041 0.275697 0.945168
O O1 0.460598 0.085988 0.169067
O O2 0.439894 0.178892 0.353186
O O3 0.313656 0.297446 0.210597
O O4 0.266482 0.016122 0.273940
O O5 0.326312 0.950288 0.591369
O O6 0.514692 0.889140 0.476997
O O7 0.489523 0.162043 0.585955
O O8 0.461722 0.561536 0.795832
O O9 0.375950 0.478584 0.634251
O O10 0.375219 0.295284 0.829705
O O11 0.096363 0.173201 0.462370
O O12 0.885541 0.072351 0.441698
O O13 0.705224 0.135333 0.565102
O O14 0.734756 0.870026 0.484197
O O15 0.357198 0.599779 0.148746
O O16 0.120614 0.863134 0.527216
#
# Coordination Sequence:
#
# PCOD9346183 Si02
#       8
#     4   4   4   4   4   4   4   4
#     4  11  25  47  73 107 146 196 251 303 382 462
#     4  10  23  46  73 106 148 197 243 312 375 452
#     4  12  24  47  73 106 147 197 253 305 379 465
#     4  12  27  41  76 104 143 196 237 310 382 441
#     4  11  26  50  68 108 154 185 255 319 358 466
#     4  11  23  46  70 104 148 190 241 312 372 443
#     4  11  22  43  78 104 148 194 249 311 379 450
#     4  10  24  44  73 105 150 193 243 308 379 447
#
# _framework density 24.366195000000001
#
# number of rings (size 3 to 8) (size 9 to 14) (size 15 to 20)
#    0.000    1.000    5.000    2.250    5.250    1.000 
#    0.000    3.750    0.000    0.000    0.000    0.000 
#    0.000    0.000    0.000    0.000    0.000    0.000 
#
# Total GULP energy -178720.022079 kJ/mol
# GULP energy per Si atom -5585.000690 kJ/mol
# Density = 2.431074 g / cm^3
# Si number density = 24.366195 Si / 1000 Ang^3
#
#
#
# Elastic Constant Matrix: (Units=GPa)
#
#
# Indices 1 2 3 4 5 6 
#
# 1 70.0155 33.9549 23.2138 0.0000 0.0000 0.0000
# 2 33.9549 121.5445 20.1719 0.0000 0.0000 0.0000
# 3 23.2138 20.1719 50.5303 0.0000 0.0000 0.0000
# 4 0.0000 0.0000 0.0000 23.8291 0.0000 0.0000
# 5 0.0000 0.0000 0.0000 0.0000 31.2158 0.0000
# 6 0.0000 0.0000 0.0000 0.0000 0.0000 38.1912
#
#
#
# Elastic Compliance Matrix: (Units=1/GPa)
#
#
# Indices 1 2 3 4 5 6 
#
# 1 0.018525 -0.004030 -0.006902 0.000000 0.000000 0.000000
# 2 -0.004030 0.009688 -0.002016 0.000000 0.000000 0.000000
# 3 -0.006902 -0.002016 0.023766 0.000000 0.000000 0.000000
# 4 0.000000 0.000000 0.000000 0.041966 0.000000 0.000000
# 5 0.000000 0.000000 0.000000 0.000000 0.032035 0.000000
# 6 0.000000 0.000000 0.000000 0.000000 0.000000 0.026184
#
#
# Mechanical properties :
#
#
# Convention : Reuss Voigt Hill
#
# Bulk Modulus (GPa) = 38.33885 44.08574 41.21230
# Shear Modulus (GPa) = 26.77331 29.63052 28.20191
#
# Velocity S-wave (km/s) = 3.31839 3.49097 3.40578
# Velocity P-wave (km/s) = 5.51824 5.86357 5.69352
#
# Compressibility (1/GPa) = 0.02608320
#
# Stress axis : x y z
#
# Youngs Moduli (GPa) = 53.98060 103.22255 42.07748
#
# Poissons Ratio (x) = 0.41596 0.29041
# Poissons Ratio (y) = 0.21753 0.08483
# Poissons Ratio (z) = 0.37256 0.20811
#
# Static dielectric constant tensor:
#      x y z
#    x 1.905270 0.000000 0.000000 
#    y 0.000000 2.057090 0.000000 
#    z 0.000000 0.000000 1.985060 
# 
# From -- ./inp_files/7942.got.cif
#   From: 2010.05.17/outbox.cif.g08.bks.cpg/sg33_4_cif.got.tgz:7942.got - 2010.06.03 17:15:25.
