data_PCOD9346400
_publ_section_title
;
Structure prediction by ZEFSAII (Michael W. Deem and Ramdas Pophale) SiO2 
 PCOD9346400
Probable space group: P N A 21
;
_chemical_formula_sum "Si O2"
_cell_formula_units_Z 28
_cell_length_a 10.840995
_cell_length_b 9.286929
_cell_length_c 13.003159
_cell_angle_alpha 90.000000
_cell_angle_beta 90.000000
_cell_angle_gamma 90.000000
_cell_volume 1309.152208
_symmetry_space_group_name_H-M "P N A 21"
_symmetry_group_IT_number 33
_symmetry_cell_setting 'orthorhombic'
loop_
_space_group_symop_operation_xyz
x,y,z
-x,-y,1/2+z
1/2-x,1/2+y,1/2+z
1/2+x,1/2-y,z
loop_
_atom_site_type_symbol
_atom_site_label
_atom_site_fract_x
_atom_site_fract_y
_atom_site_fract_z
Si Si1 0.540446 0.472122 0.903690
Si Si2 0.834128 0.694415 0.436756
Si Si3 0.315093 0.446348 0.758493
Si Si4 0.793497 0.003353 0.217915
Si Si5 0.322157 0.185196 0.122715
Si Si6 0.055782 0.509370 0.094460
Si Si7 0.998636 0.829357 0.099767
O O1 0.549626 0.301316 0.925692
O O2 0.420587 0.503880 0.835435
O O3 0.662781 0.497881 0.835475
O O4 0.529937 0.568745 0.003890
O O5 0.778487 0.646370 0.327887
O O6 0.742339 0.782168 0.512884
O O7 0.866764 0.548505 0.497462
O O8 0.256401 0.576197 0.693751
O O9 0.389046 0.347925 0.678960
O O10 0.650898 0.983024 0.189674
O O11 0.876136 0.888637 0.155021
O O12 0.830676 0.160442 0.176434
O O13 0.453707 0.110838 0.113385
O O14 0.992475 0.661769 0.073374
#
# Coordination Sequence:
#
# PCOD9346400 Si02
#       7
#     4   4   4   4   4   4   4
#     4  11  23  44  70  97 143 183 230 293 360 416
#     4  11  23  46  70 103 138 188 234 291 366 427
#     4  11  25  43  73 100 139 185 240 292 356 428
#     4  10  25  44  70  97 138 184 231 285 352 420
#     4  11  25  47  70 101 141 187 239 293 354 432
#     4  11  25  43  71 101 140 179 237 287 352 426
#     4  11  24  45  68 105 139 180 235 299 348 427
#
# _framework density 21.387889999999999
#
# number of rings (size 3 to 8) (size 9 to 14) (size 15 to 20)
#    0.000    1.143    1.429    4.286   14.000    0.000 
#    5.143    0.000    0.000    0.000    0.000    0.000 
#    0.000    0.000    0.000    0.000    0.000    0.000 
#
# Total GULP energy -156608.917200 kJ/mol
# GULP energy per Si atom -5593.175614 kJ/mol
# Density = 2.133921 g / cm^3
# Si number density = 21.387890 Si / 1000 Ang^3
#
#
#
# Elastic Constant Matrix: (Units=GPa)
#
#
# Indices 1 2 3 4 5 6 
#
# 1 72.3672 28.1330 17.2307 0.0000 0.0000 0.0000
# 2 28.1330 113.5841 26.1791 0.0000 0.0000 0.0000
# 3 17.2307 26.1791 93.7497 0.0000 0.0000 0.0000
# 4 0.0000 0.0000 0.0000 28.4237 0.0000 0.0000
# 5 0.0000 0.0000 0.0000 0.0000 22.6927 0.0000
# 6 0.0000 0.0000 0.0000 0.0000 0.0000 27.7125
#
#
#
# Elastic Compliance Matrix: (Units=1/GPa)
#
#
# Indices 1 2 3 4 5 6 
#
# 1 0.015605 -0.003424 -0.001912 0.000000 0.000000 0.000000
# 2 -0.003424 0.010161 -0.002208 0.000000 0.000000 0.000000
# 3 -0.001912 -0.002208 0.011635 0.000000 0.000000 0.000000
# 4 0.000000 0.000000 0.000000 0.035182 0.000000 0.000000
# 5 0.000000 0.000000 0.000000 0.000000 0.044067 0.000000
# 6 0.000000 0.000000 0.000000 0.000000 0.000000 0.036085
#
#
# Mechanical properties :
#
#
# Convention : Reuss Voigt Hill
#
# Bulk Modulus (GPa) = 44.81886 46.97630 45.89758
# Shear Modulus (GPa) = 28.52896 29.64298 29.08597
#
# Velocity S-wave (km/s) = 3.65620 3.72690 3.69172
# Velocity P-wave (km/s) = 6.23093 6.36643 6.29904
#
# Compressibility (1/GPa) = 0.02231204
#
# Stress axis : x y z
#
# Youngs Moduli (GPa) = 64.08251 98.41411 85.94997
#
# Poissons Ratio (x) = 0.33701 0.16432
# Poissons Ratio (y) = 0.21945 0.18978
# Poissons Ratio (z) = 0.12252 0.21730
#
# Static dielectric constant tensor:
#      x y z
#    x 1.793920 0.000000 0.000000 
#    y 0.000000 1.763770 0.000000 
#    z 0.000000 0.000000 1.791910 
# 
# From -- ./inp_files/6334.got.cif
#   From: 2010.05.17/outbox.cif.g08.bks.cpg/sg33_4_cif.got.tgz:6334.got - 2010.06.03 17:15:25.
