data_PCOD9346513
_publ_section_title
;
Structure prediction by ZEFSAII (Michael W. Deem and Ramdas Pophale) SiO2 
 PCOD9346513
Probable space group: P N A 21
;
_chemical_formula_sum "Si O2"
_cell_formula_units_Z 32
_cell_length_a 20.271948
_cell_length_b 7.612681
_cell_length_c 8.532519
_cell_angle_alpha 90.000000
_cell_angle_beta 90.000000
_cell_angle_gamma 90.000000
_cell_volume 1316.771382
_symmetry_space_group_name_H-M "P N A 21"
_symmetry_group_IT_number 33
_symmetry_cell_setting 'orthorhombic'
loop_
_space_group_symop_operation_xyz
x,y,z
-x,-y,1/2+z
1/2-x,1/2+y,1/2+z
1/2+x,1/2-y,z
loop_
_atom_site_type_symbol
_atom_site_label
_atom_site_fract_x
_atom_site_fract_y
_atom_site_fract_z
Si Si1 0.154576 0.998033 0.139740
Si Si2 0.493899 0.809425 0.465717
Si Si3 0.956915 0.057316 0.425719
Si Si4 0.790531 0.344125 0.664218
Si Si5 0.378799 0.338096 0.147727
Si Si6 0.756122 0.712323 0.503325
Si Si7 0.390473 0.641327 0.947888
Si Si8 0.918523 0.536708 0.762656
O O1 0.183369 0.177014 0.072381
O O2 0.149379 0.018576 0.325786
O O3 0.201916 0.843409 0.080044
O O4 0.079509 0.962234 0.090170
O O5 0.463525 0.645345 0.373155
O O6 0.561478 0.735449 0.542643
O O7 0.446573 0.871879 0.605776
O O8 0.517710 0.959212 0.349546
O O9 0.907746 0.169952 0.320634
O O10 0.030254 0.129223 0.431497
O O11 0.769640 0.506978 0.552652
O O12 0.865225 0.392000 0.715843
O O13 0.752969 0.287143 0.825775
O O14 0.310831 0.247519 0.101831
O O15 0.372342 0.547448 0.108906
O O16 0.379838 0.836720 0.885385
#
# Coordination Sequence:
#
# PCOD9346513 Si02
#       8
#     4   4   4   4   4   4   4   4
#     4  12  25  48  75 103 148 198 237 306 377 438
#     4  11  24  41  66 106 144 184 240 305 369 448
#     4  11  22  43  69 108 137 182 242 301 366 447
#     4  12  27  47  74 103 146 197 250 308 375 447
#     4  11  23  43  69 100 138 187 240 296 372 436
#     4  12  26  48  70 105 147 193 255 301 362 461
#     4  11  21  43  73 100 145 187 235 298 379 431
#     4  12  24  43  70 107 149 186 241 303 376 446
#
# _framework density 24.301864999999999
#
# number of rings (size 3 to 8) (size 9 to 14) (size 15 to 20)
#    0.000    0.500    6.250    2.250    3.500    3.000 
#    0.000    1.250    0.000    0.000    0.000    0.000 
#    0.000    0.000    0.000    0.000    0.000    0.000 
#
# Total GULP energy -178660.600912 kJ/mol
# GULP energy per Si atom -5583.143778 kJ/mol
# Density = 2.424655 g / cm^3
# Si number density = 24.301865 Si / 1000 Ang^3
#
#
#
# Elastic Constant Matrix: (Units=GPa)
#
#
# Indices 1 2 3 4 5 6 
#
# 1 86.0341 21.2595 29.4521 0.0000 0.0000 0.0000
# 2 21.2595 105.3638 10.7584 0.0000 0.0000 0.0000
# 3 29.4521 10.7584 46.0166 0.0000 0.0000 0.0000
# 4 0.0000 0.0000 0.0000 32.8505 0.0000 0.0000
# 5 0.0000 0.0000 0.0000 0.0000 38.6221 0.0000
# 6 0.0000 0.0000 0.0000 0.0000 0.0000 38.0311
#
#
#
# Elastic Compliance Matrix: (Units=1/GPa)
#
#
# Indices 1 2 3 4 5 6 
#
# 1 0.015343 -0.002144 -0.009319 0.000000 0.000000 0.000000
# 2 -0.002144 0.010023 -0.000971 0.000000 0.000000 0.000000
# 3 -0.009319 -0.000971 0.027923 0.000000 0.000000 0.000000
# 4 0.000000 0.000000 0.000000 0.030441 0.000000 0.000000
# 5 0.000000 0.000000 0.000000 0.000000 0.025892 0.000000
# 6 0.000000 0.000000 0.000000 0.000000 0.000000 0.026294
#
#
# Mechanical properties :
#
#
# Convention : Reuss Voigt Hill
#
# Bulk Modulus (GPa) = 35.18573 40.03940 37.61257
# Shear Modulus (GPa) = 29.36730 33.63036 31.49883
#
# Velocity S-wave (km/s) = 3.48003 3.72406 3.60411
# Velocity P-wave (km/s) = 5.53692 5.91634 5.72978
#
# Compressibility (1/GPa) = 0.02842061
#
# Stress axis : x y z
#
# Youngs Moduli (GPa) = 65.17496 99.77326 35.81325
#
# Poissons Ratio (x) = 0.21395 0.33374
# Poissons Ratio (y) = 0.13976 0.03477
# Poissons Ratio (z) = 0.60736 0.09686
#
# Static dielectric constant tensor:
#      x y z
#    x 1.915700 0.000000 0.000000 
#    y 0.000000 1.999970 0.000000 
#    z 0.000000 0.000000 1.959540 
# 
# From -- ./inp_files/4996.got.cif
#   From: 2010.05.17/outbox.cif.g08.bks.cpg/sg33_3_cif.got.tgz:4996.got - 2010.06.03 17:15:25.
