data_PCOD9346740
_publ_section_title
;
Structure prediction by ZEFSAII (Michael W. Deem and Ramdas Pophale) SiO2 
 PCOD9346740
Probable space group: P N A 21
;
_chemical_formula_sum "Si O2"
_cell_formula_units_Z 20
_cell_length_a 5.356168
_cell_length_b 14.793697
_cell_length_c 9.002703
_cell_angle_alpha 90.000000
_cell_angle_beta 90.000000
_cell_angle_gamma 90.000000
_cell_volume 713.351917
_symmetry_space_group_name_H-M "P N A 21"
_symmetry_group_IT_number 33
_symmetry_cell_setting 'orthorhombic'
loop_
_space_group_symop_operation_xyz
x,y,z
-x,-y,1/2+z
1/2-x,1/2+y,1/2+z
1/2+x,1/2-y,z
loop_
_atom_site_type_symbol
_atom_site_label
_atom_site_fract_x
_atom_site_fract_y
_atom_site_fract_z
Si Si1 0.414439 0.703015 0.980350
Si Si2 0.497710 0.003671 0.119555
Si Si3 0.744705 0.348533 0.787301
Si Si4 0.848626 0.030522 0.349273
Si Si5 0.170006 0.698182 0.614687
O O1 0.142944 0.734557 0.933058
O O2 0.481345 0.603011 0.927677
O O3 0.396639 0.703998 0.159233
O O4 0.759917 0.047205 0.179370
O O5 0.535709 0.908657 0.206735
O O6 0.328186 0.091363 0.156129
O O7 0.399316 0.976180 0.956705
O O8 0.554803 0.428258 0.842656
O O9 0.838830 0.301483 0.934037
O O10 0.420965 0.748799 0.660301
#
# Coordination Sequence:
#
# PCOD9346740 Si02
#       5
#     4   4   4   4   4
#     4  12  25  45  72 112 152 191 248 320 375 433
#     4   9  21  46  74 108 147 200 249 304 366 459
#     4   9  22  46  71 105 146 210 245 294 369 473
#     4   9  22  45  73 113 144 206 249 307 370 463
#     4  11  24  44  72 110 147 191 247 317 374 434
#
# _framework density 28.036655
#
# number of rings (size 3 to 8) (size 9 to 14) (size 15 to 20)
#    1.200    0.800    0.000    2.400    0.000    6.400 
#    7.200    0.000    0.000    0.000    0.000    0.000 
#    0.000    0.000    0.000    0.000    0.000    0.000 
#
# Total GULP energy -111737.067855 kJ/mol
# GULP energy per Si atom -5586.853393 kJ/mol
# Density = 2.797284 g / cm^3
# Si number density = 28.036655 Si / 1000 Ang^3
#
#
#
# Elastic Constant Matrix: (Units=GPa)
#
#
# Indices 1 2 3 4 5 6 
#
# 1 169.2553 83.8202 68.8071 0.0000 0.0000 0.0000
# 2 83.8202 138.0966 29.5176 0.0000 0.0000 0.0000
# 3 68.8071 29.5176 147.9632 0.0000 0.0000 0.0000
# 4 0.0000 0.0000 0.0000 49.9910 0.0000 0.0000
# 5 0.0000 0.0000 0.0000 0.0000 41.8850 0.0000
# 6 0.0000 0.0000 0.0000 0.0000 0.0000 11.4419
#
#
#
# Elastic Compliance Matrix: (Units=1/GPa)
#
#
# Indices 1 2 3 4 5 6 
#
# 1 0.009990 -0.005297 -0.003589 0.000000 0.000000 0.000000
# 2 -0.005297 0.010372 0.000394 0.000000 0.000000 0.000000
# 3 -0.003589 0.000394 0.008349 0.000000 0.000000 0.000000
# 4 0.000000 0.000000 0.000000 0.020004 0.000000 0.000000
# 5 0.000000 0.000000 0.000000 0.000000 0.023875 0.000000
# 6 0.000000 0.000000 0.000000 0.000000 0.000000 0.087398
#
#
# Mechanical properties :
#
#
# Convention : Reuss Voigt Hill
#
# Bulk Modulus (GPa) = 85.26927 91.06720 88.16824
# Shear Modulus (GPa) = 27.64252 38.87494 33.25873
#
# Velocity S-wave (km/s) = 3.14338 3.72771 3.44795
# Velocity P-wave (km/s) = 6.60711 7.14701 6.88236
#
# Compressibility (1/GPa) = 0.01172755
#
# Stress axis : x y z
#
# Youngs Moduli (GPa) = 100.09599 96.41322 119.77613
#
# Poissons Ratio (x) = 0.51067 0.42990
# Poissons Ratio (y) = 0.53018 -0.04719
# Poissons Ratio (z) = 0.35926 -0.03798
#
# Static dielectric constant tensor:
#      x y z
#    x 2.181240 0.000000 0.000000 
#    y 0.000000 2.168550 0.000000 
#    z 0.000000 0.000000 2.231110 
# 
# From -- ./inp_files/5418.got.cif
#   From: 2010.05.17/outbox.cif.g08.bks.cpg/sg33_3_cif.got.tgz:5418.got - 2010.06.03 17:15:25.
