data_PCOD9346335
_publ_section_title
;
Structure prediction by ZEFSAII (Michael W. Deem and Ramdas Pophale) SiO2 
 PCOD9346335
Probable space group: P N A 21
;
_chemical_formula_sum "Si O2"
_cell_formula_units_Z 28
_cell_length_a 12.184883
_cell_length_b 7.799813
_cell_length_c 10.927628
_cell_angle_alpha 90.000000
_cell_angle_beta 90.000000
_cell_angle_gamma 90.000000
_cell_volume 1038.559676
_symmetry_space_group_name_H-M "P N A 21"
_symmetry_group_IT_number 33
_symmetry_cell_setting 'orthorhombic'
loop_
_space_group_symop_operation_xyz
x,y,z
-x,-y,1/2+z
1/2-x,1/2+y,1/2+z
1/2+x,1/2-y,z
loop_
_atom_site_type_symbol
_atom_site_label
_atom_site_fract_x
_atom_site_fract_y
_atom_site_fract_z
Si Si1 0.133067 0.146132 0.061070
Si Si2 0.675647 0.538773 0.688618
Si Si3 0.744526 0.989370 0.791376
Si Si4 0.825103 0.542034 0.914297
Si Si5 0.580130 0.222302 0.629719
Si Si6 0.362391 0.058320 0.533326
Si Si7 0.910028 0.199597 0.963511
O O1 0.166661 0.095500 0.198921
O O2 0.229148 0.055973 0.986601
O O3 0.123986 0.352253 0.047725
O O4 0.021054 0.095664 0.990232
O O5 0.759445 0.586867 0.793289
O O6 0.577167 0.403512 0.702646
O O7 0.750898 0.411556 0.607501
O O8 0.636941 0.695436 0.604478
O O9 0.664999 0.896697 0.892591
O O10 0.657051 0.097453 0.710832
O O11 0.821391 0.107148 0.878382
O O12 0.917601 0.392096 0.910686
O O13 0.876966 0.696421 0.989055
O O14 0.456952 0.154979 0.606151
#
# Coordination Sequence:
#
# PCOD9346335 Si02
#       7
#     4   4   4   4   4   4   4
#     4  11  23  44  75 103 139 198 237 290 376 420
#     4  11  25  43  66 108 143 177 245 303 347 439
#     4  10  24  46  69 111 146 172 254 303 333 452
#     4  11  23  45  71  99 142 184 242 294 355 439
#     4  11  24  43  72 104 138 195 231 293 371 419
#     4  11  24  45  71 101 147 190 236 293 373 427
#     4  11  23  46  72 102 141 194 239 298 367 424
#
# _framework density 26.960415000000001
#
# number of rings (size 3 to 8) (size 9 to 14) (size 15 to 20)
#    0.000    1.143    5.714    0.000    4.000    5.714 
#    0.000    0.000    0.000    0.000    0.000    0.000 
#    0.000    0.000    0.000    0.000    0.000    0.000 
#
# Total GULP energy -156355.555471 kJ/mol
# GULP energy per Si atom -5584.126981 kJ/mol
# Density = 2.689905 g / cm^3
# Si number density = 26.960415 Si / 1000 Ang^3
#
#
#
# Elastic Constant Matrix: (Units=GPa)
#
#
# Indices 1 2 3 4 5 6 
#
# 1 79.0731 14.4045 16.7183 0.0000 0.0000 0.0000
# 2 14.4045 70.3828 24.3548 0.0000 0.0000 0.0000
# 3 16.7183 24.3548 151.8939 0.0000 0.0000 0.0000
# 4 0.0000 0.0000 0.0000 -14.3217 0.0000 0.0000
# 5 0.0000 0.0000 0.0000 0.0000 57.2860 0.0000
# 6 0.0000 0.0000 0.0000 0.0000 0.0000 24.3972
#
#
#
# Elastic Compliance Matrix: (Units=1/GPa)
#
#
# Indices 1 2 3 4 5 6 
#
# 1 0.013304 -0.002346 -0.001088 0.000000 0.000000 0.000000
# 2 -0.002346 0.015456 -0.002220 0.000000 0.000000 0.000000
# 3 -0.001088 -0.002220 0.007059 0.000000 0.000000 0.000000
# 4 0.000000 0.000000 0.000000 -0.069824 0.000000 0.000000
# 5 0.000000 0.000000 0.000000 0.000000 0.017456 0.000000
# 6 0.000000 0.000000 0.000000 0.000000 0.000000 0.040988
#
#
# Mechanical properties :
#
#
# Convention : Reuss Voigt Hill
#
# Bulk Modulus (GPa) = 40.79832 45.81168 43.30500
# Shear Modulus (GPa) = 113.84500 29.86377 71.85439
#
# Velocity S-wave (km/s) = 6.50526 3.33181 5.16814
# Velocity P-wave (km/s) = 8.46109 5.64184 7.19098
#
# Compressibility (1/GPa) = 0.02451082
#
# Stress axis : x y z
#
# Youngs Moduli (GPa) = 75.16534 64.69808 141.65767
#
# Poissons Ratio (x) = 0.15180 0.15414
# Poissons Ratio (y) = 0.17636 0.31449
# Poissons Ratio (z) = 0.08179 0.14363
#
# Static dielectric constant tensor:
#      x y z
#    x 2.267340 0.000000 0.000000 
#    y 0.000000 2.344150 0.000000 
#    z 0.000000 0.000000 2.133680 
# 
# From -- ./inp_files/6327.got.cif
#   From: 2010.05.17/outbox.cif.g08.bks.cpg/sg33_4_cif.got.tgz:6327.got - 2010.06.03 17:15:25.
