data_PCOD9346207
_publ_section_title
;
Structure prediction by ZEFSAII (Michael W. Deem and Ramdas Pophale) SiO2 
 PCOD9346207
Probable space group: P N A 21
;
_chemical_formula_sum "Si O2"
_cell_formula_units_Z 32
_cell_length_a 15.640944
_cell_length_b 10.407180
_cell_length_c 8.042056
_cell_angle_alpha 90.000000
_cell_angle_beta 90.000000
_cell_angle_gamma 90.000000
_cell_volume 1309.070753
_symmetry_space_group_name_H-M "P N A 21"
_symmetry_group_IT_number 33
_symmetry_cell_setting 'orthorhombic'
loop_
_space_group_symop_operation_xyz
x,y,z
-x,-y,1/2+z
1/2-x,1/2+y,1/2+z
1/2+x,1/2-y,z
loop_
_atom_site_type_symbol
_atom_site_label
_atom_site_fract_x
_atom_site_fract_y
_atom_site_fract_z
Si Si1 0.722088 0.343799 0.956670
Si Si2 0.965797 0.167996 0.600213
Si Si3 0.898226 0.480620 0.345552
Si Si4 0.258071 0.896022 0.905934
Si Si5 0.868746 0.212673 0.155967
Si Si6 0.795682 0.343589 0.593134
Si Si7 0.965716 0.884656 0.466436
Si Si8 0.066577 0.399369 0.496633
O O1 0.734969 0.487700 0.030133
O O2 0.745325 0.363661 0.763163
O O3 0.796022 0.254727 0.025942
O O4 0.624080 0.309264 0.989352
O O5 0.882540 0.259507 0.623808
O O6 0.031547 0.255374 0.497274
O O7 0.950612 0.034170 0.508201
O O8 0.005023 0.135096 0.778048
O O9 0.892403 0.339725 0.259997
O O10 0.823013 0.467465 0.483135
O O11 0.901655 0.573209 0.185886
O O12 0.987443 0.490038 0.445567
O O13 0.183389 0.884307 0.772224
O O14 0.260175 0.754714 0.985007
O O15 0.357119 0.922535 0.867281
O O16 0.955016 0.160756 0.077590
#
# Coordination Sequence:
#
# PCOD9346207 Si02
#       8
#     4   4   4   4   4   4   4   4
#     4  12  24  47  75 107 149 198 258 311 383 454
#     4  11  25  45  73 109 151 198 250 311 382 461
#     4  10  25  43  74 102 154 193 247 312 386 444
#     4  11  24  46  68 105 147 192 253 313 379 452
#     4  11  26  47  72 110 148 200 253 318 374 465
#     4  10  23  49  67 104 153 192 247 324 371 457
#     4  12  26  46  78 104 152 201 254 304 390 449
#     4  11  25  45  73 111 150 198 252 315 387 454
#
# _framework density 24.444823
#
# number of rings (size 3 to 8) (size 9 to 14) (size 15 to 20)
#    0.000    1.000    3.750    1.500   10.500    0.000 
#    4.500    1.250    0.000    0.000    0.000    0.000 
#    0.000    0.000    0.000    0.000    0.000    0.000 
#
# Total GULP energy -178921.027610 kJ/mol
# GULP energy per Si atom -5591.282113 kJ/mol
# Density = 2.438919 g / cm^3
# Si number density = 24.444823 Si / 1000 Ang^3
#
#
#
# Elastic Constant Matrix: (Units=GPa)
#
#
# Indices 1 2 3 4 5 6 
#
# 1 168.9976 36.6626 45.9507 0.0000 0.0000 0.0000
# 2 36.6626 61.0667 9.8275 0.0000 0.0000 0.0000
# 3 45.9507 9.8275 89.6987 0.0000 0.0000 0.0000
# 4 0.0000 0.0000 0.0000 30.8861 0.0000 0.0000
# 5 0.0000 0.0000 0.0000 0.0000 29.3881 0.0000
# 6 0.0000 0.0000 0.0000 0.0000 0.0000 32.2012
#
#
#
# Elastic Compliance Matrix: (Units=1/GPa)
#
#
# Indices 1 2 3 4 5 6 
#
# 1 0.007765 -0.004094 -0.003529 0.000000 0.000000 0.000000
# 2 -0.004094 0.018828 0.000034 0.000000 0.000000 0.000000
# 3 -0.003529 0.000034 0.012953 0.000000 0.000000 0.000000
# 4 0.000000 0.000000 0.000000 0.032377 0.000000 0.000000
# 5 0.000000 0.000000 0.000000 0.000000 0.034027 0.000000
# 6 0.000000 0.000000 0.000000 0.000000 0.000000 0.031055
#
#
# Mechanical properties :
#
#
# Convention : Reuss Voigt Hill
#
# Bulk Modulus (GPa) = 41.03755 56.07161 48.55458
# Shear Modulus (GPa) = 31.19056 33.64989 32.42023
#
# Velocity S-wave (km/s) = 3.57593 3.71423 3.64574
# Velocity P-wave (km/s) = 5.82014 6.43287 6.13416
#
# Compressibility (1/GPa) = 0.02436793
#
# Stress axis : x y z
#
# Youngs Moduli (GPa) = 128.78287 53.11278 77.20429
#
# Poissons Ratio (x) = 0.21744 0.27248
# Poissons Ratio (y) = 0.52723 -0.00266
# Poissons Ratio (z) = 0.45451 -0.00183
#
# Static dielectric constant tensor:
#      x y z
#    x 1.957550 0.000000 0.000000 
#    y 0.000000 1.994340 0.000000 
#    z 0.000000 0.000000 1.993540 
# 
# From -- ./inp_files/4407.got.cif
#   From: 2010.05.17/outbox.cif.g08.bks.cpg/sg33_3_cif.got.tgz:4407.got - 2010.06.03 17:15:25.
