data_PCOD9346514
_publ_section_title
;
Structure prediction by ZEFSAII (Michael W. Deem and Ramdas Pophale) SiO2 
 PCOD9346514
Probable space group: P N A 21
;
_chemical_formula_sum "Si O2"
_cell_formula_units_Z 24
_cell_length_a 10.331131
_cell_length_b 16.519496
_cell_length_c 5.505043
_cell_angle_alpha 90.000000
_cell_angle_beta 90.000000
_cell_angle_gamma 90.000000
_cell_volume 939.518589
_symmetry_space_group_name_H-M "P N A 21"
_symmetry_group_IT_number 33
_symmetry_cell_setting 'orthorhombic'
loop_
_space_group_symop_operation_xyz
x,y,z
-x,-y,1/2+z
1/2-x,1/2+y,1/2+z
1/2+x,1/2-y,z
loop_
_atom_site_type_symbol
_atom_site_label
_atom_site_fract_x
_atom_site_fract_y
_atom_site_fract_z
Si Si1 0.236050 0.359821 0.899500
Si Si2 0.916238 0.241092 0.234286
Si Si3 0.026551 0.673167 0.229814
Si Si4 0.400303 0.600366 0.855612
Si Si5 0.321429 0.019838 0.645462
Si Si6 0.341215 0.466613 0.534180
O O1 0.349113 0.392582 0.724106
O O2 0.127733 0.311087 0.751950
O O3 0.300292 0.315969 0.130798
O O4 0.170728 0.446954 0.955483
O O5 0.905640 0.282010 0.499703
O O6 0.045543 0.186875 0.278414
O O7 0.929797 0.300923 0.002709
O O8 0.062958 0.580480 0.180228
O O9 0.332363 0.557060 0.633097
O O10 0.302270 0.577659 0.073001
O O11 0.529247 0.545781 0.883277
O O12 0.286926 0.965319 0.876999
#
# Coordination Sequence:
#
# PCOD9346514 Si02
#       6
#     4   4   4   4   4   4
#     4  11  28  50  79 111 162 209 270 334 397 495
#     4  12  29  50  76 117 158 214 262 332 416 476
#     4  12  33  48  79 114 166 210 262 334 412 495
#     4  11  22  43  76 110 147 196 264 334 384 479
#     4  11  27  46  80 111 157 209 278 324 409 477
#     4  11  21  43  78 113 140 200 264 332 388 462
#
# _framework density 25.544999000000001
#
# number of rings (size 3 to 8) (size 9 to 14) (size 15 to 20)
#    0.000    0.667    3.333    2.000   16.333    0.000 
#    0.000    0.000    0.000    0.000    0.000    0.000 
#    0.000    0.000    0.000    0.000    0.000    0.000 
#
# Total GULP energy -133836.202098 kJ/mol
# GULP energy per Si atom -5576.508421 kJ/mol
# Density = 2.548686 g / cm^3
# Si number density = 25.544999 Si / 1000 Ang^3
#
#
#
# Elastic Constant Matrix: (Units=GPa)
#
#
# Indices 1 2 3 4 5 6 
#
# 1 90.7899 27.8258 31.1017 0.0000 0.0000 0.0000
# 2 27.8258 66.8278 34.7240 0.0000 0.0000 0.0000
# 3 31.1017 34.7240 129.2570 0.0000 0.0000 0.0000
# 4 0.0000 0.0000 0.0000 25.9676 0.0000 0.0000
# 5 0.0000 0.0000 0.0000 0.0000 28.0491 0.0000
# 6 0.0000 0.0000 0.0000 0.0000 0.0000 48.1203
#
#
#
# Elastic Compliance Matrix: (Units=1/GPa)
#
#
# Indices 1 2 3 4 5 6 
#
# 1 0.013036 -0.004414 -0.001951 0.000000 0.000000 0.000000
# 2 -0.004414 0.018886 -0.004012 0.000000 0.000000 0.000000
# 3 -0.001951 -0.004012 0.009284 0.000000 0.000000 0.000000
# 4 0.000000 0.000000 0.000000 0.038510 0.000000 0.000000
# 5 0.000000 0.000000 0.000000 0.000000 0.035652 0.000000
# 6 0.000000 0.000000 0.000000 0.000000 0.000000 0.020781
#
#
# Mechanical properties :
#
#
# Convention : Reuss Voigt Hill
#
# Bulk Modulus (GPa) = 48.89380 52.68642 50.79011
# Shear Modulus (GPa) = 30.54027 33.30894 31.92460
#
# Velocity S-wave (km/s) = 3.46142 3.61492 3.53900
# Velocity P-wave (km/s) = 5.92934 6.17197 6.05187
#
# Compressibility (1/GPa) = 0.02045249
#
# Stress axis : x y z
#
# Youngs Moduli (GPa) = 76.71311 52.94868 107.71695
#
# Poissons Ratio (x) = 0.23372 0.21013
# Poissons Ratio (y) = 0.33862 0.43211
# Poissons Ratio (z) = 0.14965 0.21241
#
# Static dielectric constant tensor:
#      x y z
#    x 2.041400 0.000000 0.000000 
#    y 0.000000 2.040340 0.000000 
#    z 0.000000 0.000000 2.105240 
# 
# From -- ./inp_files/848.got.cif
#   From: 2010.05.17/outbox.cif.g08.bks.cpg/sg33_1_cif.got.tgz:848.got - 2010.06.03 17:15:25.
