data_PCOD9346244
_publ_section_title
;
Structure prediction by ZEFSAII (Michael W. Deem and Ramdas Pophale) SiO2 
 PCOD9346244
Probable space group: P N A 21
;
_chemical_formula_sum "Si O2"
_cell_formula_units_Z 24
_cell_length_a 8.229087
_cell_length_b 11.996597
_cell_length_c 10.579174
_cell_angle_alpha 90.000000
_cell_angle_beta 90.000000
_cell_angle_gamma 90.000000
_cell_volume 1044.387064
_symmetry_space_group_name_H-M "P N A 21"
_symmetry_group_IT_number 33
_symmetry_cell_setting 'orthorhombic'
loop_
_space_group_symop_operation_xyz
x,y,z
-x,-y,1/2+z
1/2-x,1/2+y,1/2+z
1/2+x,1/2-y,z
loop_
_atom_site_type_symbol
_atom_site_label
_atom_site_fract_x
_atom_site_fract_y
_atom_site_fract_z
Si Si1 0.548482 0.345284 0.652750
Si Si2 0.235122 0.122403 0.884773
Si Si3 0.675064 0.796375 0.977722
Si Si4 0.567794 0.416373 0.135887
Si Si5 0.377510 0.886610 0.821106
Si Si6 0.894695 0.300072 0.125852
O O1 0.647570 0.308007 0.776096
O O2 0.419378 0.261169 0.594672
O O3 0.676885 0.363679 0.538810
O O4 0.466556 0.462482 0.686476
O O5 0.316505 0.012421 0.827240
O O6 0.101887 0.079306 0.986019
O O7 0.362429 0.185557 0.976320
O O8 0.541018 0.867458 0.904603
O O9 0.751677 0.697616 0.891075
O O10 0.736498 0.361477 0.183350
O O11 0.424515 0.328808 0.158368
O O12 0.443527 0.856992 0.681127
#
# Coordination Sequence:
#
# PCOD9346244 Si02
#       6
#     4   4   4   4   4   4
#     4  11  24  44  68  96 145 175 234 288 348 430
#     4  10  26  40  67  99 134 180 224 282 349 406
#     4  10  24  42  68 101 130 189 224 291 355 415
#     4  10  24  43  63 105 130 178 232 275 357 404
#     4  11  22  45  67  98 135 177 238 282 347 425
#     4  10  24  42  67 101 136 175 234 286 346 410
#
# _framework density 22.979987000000001
#
# number of rings (size 3 to 8) (size 9 to 14) (size 15 to 20)
#    1.000    0.667    1.667    1.000    9.333    1.333 
#    0.000    0.000    0.000    0.000    0.000    0.000 
#    0.000    0.000    0.000    0.000    0.000    0.000 
#
# Total GULP energy -133960.356288 kJ/mol
# GULP energy per Si atom -5581.681512 kJ/mol
# Density = 2.292768 g / cm^3
# Si number density = 22.979987 Si / 1000 Ang^3
#
#
#
# Elastic Constant Matrix: (Units=GPa)
#
#
# Indices 1 2 3 4 5 6 
#
# 1 110.0330 18.9712 28.1274 0.0000 0.0000 0.0000
# 2 18.9712 49.6407 -3.1676 0.0000 0.0000 0.0000
# 3 28.1274 -3.1676 92.5427 0.0000 0.0000 0.0000
# 4 0.0000 0.0000 0.0000 27.7827 0.0000 0.0000
# 5 0.0000 0.0000 0.0000 0.0000 59.8537 0.0000
# 6 0.0000 0.0000 0.0000 0.0000 0.0000 35.1220
#
#
#
# Elastic Compliance Matrix: (Units=1/GPa)
#
#
# Indices 1 2 3 4 5 6 
#
# 1 0.010700 -0.004306 -0.003399 0.000000 0.000000 0.000000
# 2 -0.004306 0.021922 0.002059 0.000000 0.000000 0.000000
# 3 -0.003399 0.002059 0.011910 0.000000 0.000000 0.000000
# 4 0.000000 0.000000 0.000000 0.035994 0.000000 0.000000
# 5 0.000000 0.000000 0.000000 0.000000 0.016707 0.000000
# 6 0.000000 0.000000 0.000000 0.000000 0.000000 0.028472
#
#
# Mechanical properties :
#
#
# Convention : Reuss Voigt Hill
#
# Bulk Modulus (GPa) = 30.08579 37.78650 33.93614
# Shear Modulus (GPa) = 33.76642 38.43736 36.10189
#
# Velocity S-wave (km/s) = 3.83741 4.09424 3.96790
# Velocity P-wave (km/s) = 5.72319 6.23131 5.98265
#
# Compressibility (1/GPa) = 0.03323829
#
# Stress axis : x y z
#
# Youngs Moduli (GPa) = 93.46160 45.61675 83.96640
#
# Poissons Ratio (x) = 0.19643 0.28544
# Poissons Ratio (y) = 0.40244 -0.17290
# Poissons Ratio (z) = 0.31772 -0.09393
#
# Static dielectric constant tensor:
#      x y z
#    x 1.883860 0.000000 0.000000 
#    y 0.000000 1.807240 0.000000 
#    z 0.000000 0.000000 1.921420 
# 
# From -- ./inp_files/5818.got.cif
#   From: 2010.05.17/outbox.cif.g08.bks.cpg/sg33_3_cif.got.tgz:5818.got - 2010.06.03 17:15:25.
