data_PCOD9346637
_publ_section_title
;
Structure prediction by ZEFSAII (Michael W. Deem and Ramdas Pophale) SiO2 
 PCOD9346637
Probable space group: P N A 21
;
_chemical_formula_sum "Si O2"
_cell_formula_units_Z 28
_cell_length_a 17.681053
_cell_length_b 12.446753
_cell_length_c 5.447863
_cell_angle_alpha 90.000000
_cell_angle_beta 90.000000
_cell_angle_gamma 90.000000
_cell_volume 1198.920469
_symmetry_space_group_name_H-M "P N A 21"
_symmetry_group_IT_number 33
_symmetry_cell_setting 'orthorhombic'
loop_
_space_group_symop_operation_xyz
x,y,z
-x,-y,1/2+z
1/2-x,1/2+y,1/2+z
1/2+x,1/2-y,z
loop_
_atom_site_type_symbol
_atom_site_label
_atom_site_fract_x
_atom_site_fract_y
_atom_site_fract_z
Si Si1 0.583359 0.250000 0.011000
Si Si2 0.215102 0.178716 0.307606
Si Si3 0.480861 0.444648 0.188505
Si Si4 0.310947 0.459498 0.065303
Si Si5 0.715101 0.178714 0.714392
Si Si6 0.810948 0.459496 0.956695
Si Si7 0.480861 0.055352 0.833494
O O1 0.645330 0.244494 0.228356
O O2 0.529783 0.347399 0.079703
O O3 0.529784 0.152600 0.942299
O O4 0.645329 0.255506 0.793640
O O5 0.256361 0.250001 0.511000
O O6 0.180218 0.064338 0.391676
O O7 0.273644 0.138188 0.104181
O O8 0.502583 0.467329 0.472277
O O9 0.390875 0.428770 0.178903
O O10 0.250000 0.500002 0.261000
O O11 0.273641 0.361814 0.917821
O O12 0.680217 0.064337 0.630318
O O13 0.890876 0.428769 0.843091
O O14 0.497415 0.967329 0.049723
#
# Coordination Sequence:
#
# PCOD9346637 Si02
#       7
#     4   4   4   4   4   4   4
#     4  12  26  46  74 106 152 204 256 314 394 454
#     4  11  23  44  72 105 144 196 255 310 383 457
#     4  12  27  49  76 113 154 198 257 320 385 457
#     4  11  25  46  73 107 151 197 252 320 379 462
#     4  11  23  44  72 105 144 196 255 310 383 457
#     4  11  25  46  73 107 151 197 252 320 379 462
#     4  12  27  49  76 113 154 198 257 320 385 457
#
# _framework density 23.354343
#
# number of rings (size 3 to 8) (size 9 to 14) (size 15 to 20)
#    0.000    0.571    2.857    5.143    4.000    3.429 
#    0.000    0.000    0.000    0.000    0.000    0.000 
#    0.000    0.000    0.000    0.000    0.000    0.000 
#
# Total GULP energy -156408.192657 kJ/mol
# GULP energy per Si atom -5586.006881 kJ/mol
# Density = 2.330119 g / cm^3
# Si number density = 23.354343 Si / 1000 Ang^3
#
#
#
# Elastic Constant Matrix: (Units=GPa)
#
#
# Indices 1 2 3 4 5 6 
#
# 1 167.7390 4.0575 24.6881 0.0000 0.0000 0.0000
# 2 4.0575 65.7567 -2.7715 0.0000 0.0000 0.0000
# 3 24.6881 -2.7715 72.0084 0.0000 0.0000 0.0000
# 4 0.0000 0.0000 0.0000 51.4944 0.0000 0.0000
# 5 0.0000 0.0000 0.0000 0.0000 2.9252 0.0000
# 6 0.0000 0.0000 0.0000 0.0000 0.0000 36.9367
#
#
#
# Elastic Compliance Matrix: (Units=1/GPa)
#
#
# Indices 1 2 3 4 5 6 
#
# 1 0.006294 -0.000480 -0.002176 0.000000 0.000000 0.000000
# 2 -0.000480 0.015269 0.000752 0.000000 0.000000 0.000000
# 3 -0.002176 0.000752 0.014662 0.000000 0.000000 0.000000
# 4 0.000000 0.000000 0.000000 0.019420 0.000000 0.000000
# 5 0.000000 0.000000 0.000000 0.000000 0.341856 0.000000
# 6 0.000000 0.000000 0.000000 0.000000 0.000000 0.027073
#
#
# Mechanical properties :
#
#
# Convention : Reuss Voigt Hill
#
# Bulk Modulus (GPa) = 30.84823 39.71691 35.28257
# Shear Modulus (GPa) = 11.38465 36.90658 24.14562
#
# Velocity S-wave (km/s) = 2.21028 3.97960 3.21889
# Velocity P-wave (km/s) = 4.44424 6.17733 5.38101
#
# Compressibility (1/GPa) = 0.03241677
#
# Stress axis : x y z
#
# Youngs Moduli (GPa) = 158.89264 65.49261 68.20192
#
# Poissons Ratio (x) = 0.03144 0.14842
# Poissons Ratio (y) = 0.07628 -0.05131
# Poissons Ratio (z) = 0.34579 -0.04927
#
# Static dielectric constant tensor:
#      x y z
#    x 1.807090 0.000000 0.000000 
#    y 0.000000 4.596020 0.000000 
#    z 0.000000 0.000000 2.080240 
# 
# From -- ./inp_files/1743.got.cif
#   From: 2010.05.17/outbox.cif.g08.bks.cpg/sg33_1_cif.got.tgz:1743.got - 2010.06.03 17:15:25.
