data_PCOD9346500
_publ_section_title
;
Structure prediction by ZEFSAII (Michael W. Deem and Ramdas Pophale) SiO2 
 PCOD9346500
Probable space group: P N A 21
;
_chemical_formula_sum "Si O2"
_cell_formula_units_Z 32
_cell_length_a 21.360351
_cell_length_b 12.169335
_cell_length_c 5.533178
_cell_angle_alpha 90.000000
_cell_angle_beta 90.000000
_cell_angle_gamma 90.000000
_cell_volume 1438.301300
_symmetry_space_group_name_H-M "P N A 21"
_symmetry_group_IT_number 33
_symmetry_cell_setting 'orthorhombic'
loop_
_space_group_symop_operation_xyz
x,y,z
-x,-y,1/2+z
1/2-x,1/2+y,1/2+z
1/2+x,1/2-y,z
loop_
_atom_site_type_symbol
_atom_site_label
_atom_site_fract_x
_atom_site_fract_y
_atom_site_fract_z
Si Si1 0.948034 0.371053 0.135000
Si Si2 0.436277 0.751623 0.137393
Si Si3 0.589796 0.441700 0.260614
Si Si4 0.807690 0.723689 0.280144
Si Si5 0.721196 0.337918 0.265477
Si Si6 0.526499 0.645661 0.475700
Si Si7 0.835758 0.489297 0.393802
Si Si8 0.919955 0.544662 0.789931
O O1 0.949647 0.239428 0.160451
O O2 0.901284 0.431691 0.319574
O O3 0.018503 0.418702 0.144352
O O4 0.923083 0.420883 0.885130
O O5 0.380739 0.746590 0.332891
O O6 0.500853 0.724319 0.263803
O O7 0.425953 0.655830 0.946312
O O8 0.427089 0.868238 0.008682
O O9 0.662922 0.420786 0.207155
O O10 0.577156 0.558984 0.385323
O O11 0.534493 0.424300 0.062363
O O12 0.770764 0.769892 0.513824
O O13 0.807235 0.593182 0.253685
O O14 0.795322 0.771959 0.012782
O O15 0.783671 0.398759 0.350569
O O16 0.855159 0.547273 0.646283
#
# Coordination Sequence:
#
# PCOD9346500 Si02
#       8
#     4   4   4   4   4   4   4   4
#     4  12  25  39  72 109 142 181 246 311 385 434
#     4  11  21  40  72 100 140 191 245 297 369 454
#     4  11  23  43  67 102 144 196 243 298 367 441
#     4  11  24  47  74 102 138 197 248 303 364 456
#     4  11  28  47  74 103 145 199 254 294 372 460
#     4  12  23  40  68 105 143 186 242 312 371 436
#     4  12  27  47  72 104 147 194 239 313 380 446
#     4  12  23  43  69 109 143 186 237 318 380 443
#
# _framework density 22.248464999999999
#
# number of rings (size 3 to 8) (size 9 to 14) (size 15 to 20)
#    0.000    0.500    6.250    3.000    1.750    1.000 
#    0.000    1.250    0.000    0.000    0.000    0.000 
#    0.000    0.000    0.000    0.000    0.000    0.000 
#
# Total GULP energy -178391.716626 kJ/mol
# GULP energy per Si atom -5574.741145 kJ/mol
# Density = 2.219783 g / cm^3
# Si number density = 22.248465 Si / 1000 Ang^3
#
#
#
# Elastic Constant Matrix: (Units=GPa)
#
#
# Indices 1 2 3 4 5 6 
#
# 1 68.2760 32.6094 23.3350 0.0000 0.0000 0.0000
# 2 32.6094 101.5229 20.8401 0.0000 0.0000 0.0000
# 3 23.3350 20.8401 76.3836 0.0000 0.0000 0.0000
# 4 0.0000 0.0000 0.0000 28.5688 0.0000 0.0000
# 5 0.0000 0.0000 0.0000 0.0000 13.8070 0.0000
# 6 0.0000 0.0000 0.0000 0.0000 0.0000 25.6725
#
#
#
# Elastic Compliance Matrix: (Units=1/GPa)
#
#
# Indices 1 2 3 4 5 6 
#
# 1 0.018532 -0.005075 -0.004277 0.000000 0.000000 0.000000
# 2 -0.005075 0.011824 -0.001676 0.000000 0.000000 0.000000
# 3 -0.004277 -0.001676 0.014856 0.000000 0.000000 0.000000
# 4 0.000000 0.000000 0.000000 0.035003 0.000000 0.000000
# 5 0.000000 0.000000 0.000000 0.000000 0.072427 0.000000
# 6 0.000000 0.000000 0.000000 0.000000 0.000000 0.038952
#
#
# Mechanical properties :
#
#
# Convention : Reuss Voigt Hill
#
# Bulk Modulus (GPa) = 43.18345 44.41682 43.80013
# Shear Modulus (GPa) = 22.58689 24.90285 23.74487
#
# Velocity S-wave (km/s) = 3.18969 3.34923 3.27044
# Velocity P-wave (km/s) = 5.74607 5.91302 5.83014
#
# Compressibility (1/GPa) = 0.02315702
#
# Stress axis : x y z
#
# Youngs Moduli (GPa) = 53.96119 84.57430 67.31464
#
# Poissons Ratio (x) = 0.42917 0.28790
# Poissons Ratio (y) = 0.27383 0.11280
# Poissons Ratio (z) = 0.23079 0.14172
#
# Static dielectric constant tensor:
#      x y z
#    x 1.876590 0.000000 0.000000 
#    y 0.000000 1.833680 0.000000 
#    z 0.000000 0.000000 2.008950 
# 
# From -- ./inp_files/2082.got.cif
#   From: 2010.05.17/outbox.cif.g08.bks.cpg/sg33_2_cif.got.tgz:2082.got - 2010.06.03 17:15:25.
