data_PCOD9346076
_publ_section_title
;
Structure prediction by ZEFSAII (Michael W. Deem and Ramdas Pophale) SiO2 
 PCOD9346076
Probable space group: P N A 21
;
_chemical_formula_sum "Si O2"
_cell_formula_units_Z 28
_cell_length_a 13.689141
_cell_length_b 13.706227
_cell_length_c 6.580383
_cell_angle_alpha 90.000000
_cell_angle_beta 90.000000
_cell_angle_gamma 90.000000
_cell_volume 1234.654060
_symmetry_space_group_name_H-M "P N A 21"
_symmetry_group_IT_number 33
_symmetry_cell_setting 'orthorhombic'
loop_
_space_group_symop_operation_xyz
x,y,z
-x,-y,1/2+z
1/2-x,1/2+y,1/2+z
1/2+x,1/2-y,z
loop_
_atom_site_type_symbol
_atom_site_label
_atom_site_fract_x
_atom_site_fract_y
_atom_site_fract_z
Si Si1 0.445631 0.383381 0.393870
Si Si2 0.076610 0.414962 0.310228
Si Si3 0.068548 0.635483 0.468486
Si Si4 0.209668 0.135495 0.908487
Si Si5 0.068091 0.266266 0.650209
Si Si6 0.720636 0.560427 0.635442
Si Si7 0.375862 0.507365 0.739499
O O1 0.516435 0.300801 0.479301
O O2 0.368271 0.370672 0.212253
O O3 0.383341 0.417916 0.586229
O O4 0.517748 0.472309 0.333921
O O5 0.063057 0.528856 0.360524
O O6 0.096306 0.361699 0.523262
O O7 0.171729 0.397927 0.169180
O O8 0.983164 0.376147 0.186473
O O9 0.181598 0.664027 0.471909
O O10 0.008941 0.707770 0.324819
O O11 0.155805 0.212106 0.764422
O O12 0.215454 0.035443 0.778487
O O13 0.151862 0.103479 0.110954
O O14 0.699800 0.520993 0.412204
#
# Coordination Sequence:
#
# PCOD9346076 Si02
#       7
#     4   4   4   4   4   4   4
#     4  11  22  39  67 105 139 184 228 299 357 425
#     4  11  26  48  70  98 138 195 245 291 361 436
#     4  11  26  48  71  99 140 192 236 303 364 417
#     4  10  25  43  70 107 139 186 234 301 355 427
#     4  12  26  45  70 103 146 181 254 294 350 437
#     4  10  23  42  74 100 140 186 234 289 372 431
#     4  11  20  41  70 102 148 178 227 289 375 423
#
# _framework density 22.678415999999999
#
# number of rings (size 3 to 8) (size 9 to 14) (size 15 to 20)
#    0.000    1.143    4.286    0.857    6.000    1.143 
#    2.571    0.000    0.000    0.000    0.000    0.000 
#    0.000    0.000    0.000    0.000    0.000    0.000 
#
# Total GULP energy -156635.769074 kJ/mol
# GULP energy per Si atom -5594.134610 kJ/mol
# Density = 2.262680 g / cm^3
# Si number density = 22.678416 Si / 1000 Ang^3
#
#
#
# Elastic Constant Matrix: (Units=GPa)
#
#
# Indices 1 2 3 4 5 6 
#
# 1 132.8024 25.3395 36.1497 0.0000 0.0000 0.0000
# 2 25.3395 41.6985 13.3844 0.0000 0.0000 0.0000
# 3 36.1497 13.3844 95.0796 0.0000 0.0000 0.0000
# 4 0.0000 0.0000 0.0000 38.1993 0.0000 0.0000
# 5 0.0000 0.0000 0.0000 0.0000 28.8952 0.0000
# 6 0.0000 0.0000 0.0000 0.0000 0.0000 19.5840
#
#
#
# Elastic Compliance Matrix: (Units=1/GPa)
#
#
# Indices 1 2 3 4 5 6 
#
# 1 0.009195 -0.004677 -0.002838 0.000000 0.000000 0.000000
# 2 -0.004677 0.027495 -0.002092 0.000000 0.000000 0.000000
# 3 -0.002838 -0.002092 0.011891 0.000000 0.000000 0.000000
# 4 0.000000 0.000000 0.000000 0.026178 0.000000 0.000000
# 5 0.000000 0.000000 0.000000 0.000000 0.034608 0.000000
# 6 0.000000 0.000000 0.000000 0.000000 0.000000 0.051062
#
#
# Mechanical properties :
#
#
# Convention : Reuss Voigt Hill
#
# Bulk Modulus (GPa) = 34.05118 46.59198 40.32158
# Shear Modulus (GPa) = 26.39473 30.31617 28.35545
#
# Velocity S-wave (km/s) = 3.41526 3.66017 3.53983
# Velocity P-wave (km/s) = 5.53167 6.20095 5.87584
#
# Compressibility (1/GPa) = 0.02936756
#
# Stress axis : x y z
#
# Youngs Moduli (GPa) = 108.75808 36.36993 84.09795
#
# Poissons Ratio (x) = 0.17009 0.23863
# Poissons Ratio (y) = 0.50863 0.17597
# Poissons Ratio (z) = 0.30860 0.07610
#
# Static dielectric constant tensor:
#      x y z
#    x 1.832090 0.000000 0.000000 
#    y 0.000000 1.864660 0.000000 
#    z 0.000000 0.000000 1.797390 
# 
# From -- ./inp_files/1417.got.cif
#   From: 2010.05.17/outbox.cif.g08.bks.cpg/sg33_1_cif.got.tgz:1417.got - 2010.06.03 17:15:25.
