data_PCOD9346275
_publ_section_title
;
Structure prediction by ZEFSAII (Michael W. Deem and Ramdas Pophale) SiO2 
 PCOD9346275
Probable space group: P N A 21
;
_chemical_formula_sum "Si O2"
_cell_formula_units_Z 24
_cell_length_a 16.826162
_cell_length_b 7.260555
_cell_length_c 7.732406
_cell_angle_alpha 90.000000
_cell_angle_beta 90.000000
_cell_angle_gamma 90.000000
_cell_volume 944.646967
_symmetry_space_group_name_H-M "P N A 21"
_symmetry_group_IT_number 33
_symmetry_cell_setting 'orthorhombic'
loop_
_space_group_symop_operation_xyz
x,y,z
-x,-y,1/2+z
1/2-x,1/2+y,1/2+z
1/2+x,1/2-y,z
loop_
_atom_site_type_symbol
_atom_site_label
_atom_site_fract_x
_atom_site_fract_y
_atom_site_fract_z
Si Si1 0.721785 0.787519 0.159350
Si Si2 0.532065 0.087940 0.776888
Si Si3 0.193703 0.345877 0.992117
Si Si4 0.541665 0.722936 0.568403
Si Si5 0.111348 0.016490 0.135145
Si Si6 0.389114 0.629405 0.029080
O O1 0.741834 0.688289 0.341343
O O2 0.643855 0.683607 0.094012
O O3 0.803607 0.773669 0.050381
O O4 0.707274 0.004180 0.139942
O O5 0.611363 0.098597 0.895912
O O6 0.550132 0.232023 0.622468
O O7 0.524847 0.881633 0.707036
O O8 0.457647 0.160592 0.889818
O O9 0.182154 0.148309 0.075245
O O10 0.467194 0.585417 0.540703
O O11 0.608752 0.574959 0.618954
O O12 0.095403 0.071171 0.333198
#
# Coordination Sequence:
#
# PCOD9346275 Si02
#       6
#     4   4   4   4   4   4
#     4  11  24  45  66 107 139 195 236 290 358 435
#     4  10  24  43  69 106 140 185 241 295 372 434
#     4  10  25  43  69 100 141 187 241 298 358 435
#     4  11  24  45  72 107 143 186 233 305 361 443
#     4  11  25  43  71 104 139 186 238 297 362 433
#     4  11  24  43  71 102 140 191 233 297 361 430
#
# _framework density 25.406319
#
# number of rings (size 3 to 8) (size 9 to 14) (size 15 to 20)
#    0.000    1.333    1.667    2.000    2.333   14.667 
#    0.000    0.000    0.000    0.000    0.000    0.000 
#    0.000    0.000    0.000    0.000    0.000    0.000 
#
# Total GULP energy -134124.188970 kJ/mol
# GULP energy per Si atom -5588.507874 kJ/mol
# Density = 2.534849 g / cm^3
# Si number density = 25.406319 Si / 1000 Ang^3
#
#
#
# Elastic Constant Matrix: (Units=GPa)
#
#
# Indices 1 2 3 4 5 6 
#
# 1 67.8931 42.8322 17.0181 0.0000 0.0000 0.0000
# 2 42.8322 135.1478 32.7856 0.0000 0.0000 0.0000
# 3 17.0181 32.7856 59.2540 0.0000 0.0000 0.0000
# 4 0.0000 0.0000 0.0000 40.3277 0.0000 0.0000
# 5 0.0000 0.0000 0.0000 0.0000 17.9439 0.0000
# 6 0.0000 0.0000 0.0000 0.0000 0.0000 40.6819
#
#
#
# Elastic Compliance Matrix: (Units=1/GPa)
#
#
# Indices 1 2 3 4 5 6 
#
# 1 0.018705 -0.005342 -0.002416 0.000000 0.000000 0.000000
# 2 -0.005342 0.010072 -0.004039 0.000000 0.000000 0.000000
# 3 -0.002416 -0.004039 0.019805 0.000000 0.000000 0.000000
# 4 0.000000 0.000000 0.000000 0.024797 0.000000 0.000000
# 5 0.000000 0.000000 0.000000 0.000000 0.055729 0.000000
# 6 0.000000 0.000000 0.000000 0.000000 0.000000 0.024581
#
#
# Mechanical properties :
#
#
# Convention : Reuss Voigt Hill
#
# Bulk Modulus (GPa) = 40.01924 49.72961 44.87443
# Shear Modulus (GPa) = 26.93783 31.10129 29.01956
#
# Velocity S-wave (km/s) = 3.25973 3.50259 3.38334
# Velocity P-wave (km/s) = 5.47299 5.99781 5.74140
#
# Compressibility (1/GPa) = 0.02498798
#
# Stress axis : x y z
#
# Youngs Moduli (GPa) = 53.46216 99.28469 50.49190
#
# Poissons Ratio (x) = 0.53037 0.12201
# Poissons Ratio (y) = 0.28559 0.20392
# Poissons Ratio (z) = 0.12919 0.40098
#
# Static dielectric constant tensor:
#      x y z
#    x 2.093140 0.000000 0.000000 
#    y 0.000000 1.976480 0.000000 
#    z 0.000000 0.000000 2.071890 
# 
# From -- ./inp_files/4633.got.cif
#   From: 2010.05.17/outbox.cif.g08.bks.cpg/sg33_3_cif.got.tgz:4633.got - 2010.06.03 17:15:25.
