data_PCOD9346913
_publ_section_title
;
Structure prediction by ZEFSAII (Michael W. Deem and Ramdas Pophale) SiO2 
 PCOD9346913
Probable space group: P N A 21
;
_chemical_formula_sum "Si O2"
_cell_formula_units_Z 20
_cell_length_a 17.686558
_cell_length_b 4.914717
_cell_length_c 8.201061
_cell_angle_alpha 90.000000
_cell_angle_beta 90.000000
_cell_angle_gamma 90.000000
_cell_volume 712.872530
_symmetry_space_group_name_H-M "P N A 21"
_symmetry_group_IT_number 33
_symmetry_cell_setting 'orthorhombic'
loop_
_space_group_symop_operation_xyz
x,y,z
-x,-y,1/2+z
1/2-x,1/2+y,1/2+z
1/2+x,1/2-y,z
loop_
_atom_site_type_symbol
_atom_site_label
_atom_site_fract_x
_atom_site_fract_y
_atom_site_fract_z
Si Si1 0.433035 0.045057 0.600650
Si Si2 0.146939 0.112622 0.866227
Si Si3 0.760823 0.550146 0.141545
Si Si4 0.415192 0.265046 0.116717
Si Si5 0.887013 0.939998 0.797772
O O1 0.387808 0.884932 0.453380
O O2 0.520015 0.958552 0.596442
O O3 0.579629 0.643714 0.156330
O O4 0.402176 0.870085 0.753983
O O5 0.198525 0.184173 0.709651
O O6 0.081943 0.922446 0.790019
O O7 0.205164 0.966032 0.988213
O O8 0.832491 0.364418 0.109080
O O9 0.703349 0.472600 0.287259
O O10 0.421124 0.468708 0.966459
#
# Coordination Sequence:
#
# PCOD9346913 Si02
#       5
#     4   4   4   4   4
#     4  11  29  52  79 116 160 205 264 323 396 463
#     4  11  28  48  79 111 158 205 264 322 391 467
#     4  11  27  46  76 112 154 203 257 317 390 457
#     4  12  28  47  83 112 158 207 264 322 396 460
#     4  11  28  51  77 115 160 204 263 322 389 471
#
# _framework density 28.055508
#
# number of rings (size 3 to 8) (size 9 to 14) (size 15 to 20)
#    0.000    0.800    2.000    1.200   22.400    0.000 
#    0.000    0.000    0.000    0.000    0.000    0.000 
#    0.000    0.000    0.000    0.000    0.000    0.000 
#
# Total GULP energy -112116.971513 kJ/mol
# GULP energy per Si atom -5605.848576 kJ/mol
# Density = 2.799165 g / cm^3
# Si number density = 28.055508 Si / 1000 Ang^3
#
#
#
# Elastic Constant Matrix: (Units=GPa)
#
#
# Indices 1 2 3 4 5 6 
#
# 1 166.6587 25.8141 40.1460 0.0000 0.0000 0.0000
# 2 25.8141 68.5499 30.7456 0.0000 0.0000 0.0000
# 3 40.1460 30.7456 142.6681 0.0000 0.0000 0.0000
# 4 0.0000 0.0000 0.0000 44.6040 0.0000 0.0000
# 5 0.0000 0.0000 0.0000 0.0000 19.0356 0.0000
# 6 0.0000 0.0000 0.0000 0.0000 0.0000 47.2692
#
#
#
# Elastic Compliance Matrix: (Units=1/GPa)
#
#
# Indices 1 2 3 4 5 6 
#
# 1 0.006640 -0.001840 -0.001472 0.000000 0.000000 0.000000
# 2 -0.001840 0.016659 -0.003072 0.000000 0.000000 0.000000
# 3 -0.001472 -0.003072 0.008086 0.000000 0.000000 0.000000
# 4 0.000000 0.000000 0.000000 0.022419 0.000000 0.000000
# 5 0.000000 0.000000 0.000000 0.000000 0.052533 0.000000
# 6 0.000000 0.000000 0.000000 0.000000 0.000000 0.021155
#
#
# Mechanical properties :
#
#
# Convention : Reuss Voigt Hill
#
# Bulk Modulus (GPa) = 53.71837 63.47645 58.59741
# Shear Modulus (GPa) = 34.13758 40.92651 37.53204
#
# Velocity S-wave (km/s) = 3.49203 3.82353 3.66153
# Velocity P-wave (km/s) = 5.95380 6.49361 6.22955
#
# Compressibility (1/GPa) = 0.01861561
#
# Stress axis : x y z
#
# Youngs Moduli (GPa) = 150.60520 60.02820 123.67792
#
# Poissons Ratio (x) = 0.11047 0.18203
# Poissons Ratio (y) = 0.27715 0.37996
# Poissons Ratio (z) = 0.22167 0.18442
#
# Static dielectric constant tensor:
#      x y z
#    x 2.122720 0.000000 0.000000 
#    y 0.000000 2.173930 0.000000 
#    z 0.000000 0.000000 2.270740 
# 
# From -- ./inp_files/4567.got.cif
#   From: 2010.05.17/outbox.cif.g08.bks.cpg/sg33_3_cif.got.tgz:4567.got - 2010.06.03 17:15:25.
