data_PCOD9346186
_publ_section_title
;
Structure prediction by ZEFSAII (Michael W. Deem and Ramdas Pophale) SiO2 
 PCOD9346186
Probable space group: P N A 21
;
_chemical_formula_sum "Si O2"
_cell_formula_units_Z 24
_cell_length_a 20.805330
_cell_length_b 5.084963
_cell_length_c 8.193585
_cell_angle_alpha 90.000000
_cell_angle_beta 90.000000
_cell_angle_gamma 90.000000
_cell_volume 866.834862
_symmetry_space_group_name_H-M "P N A 21"
_symmetry_group_IT_number 33
_symmetry_cell_setting 'orthorhombic'
loop_
_space_group_symop_operation_xyz
x,y,z
-x,-y,1/2+z
1/2-x,1/2+y,1/2+z
1/2+x,1/2-y,z
loop_
_atom_site_type_symbol
_atom_site_label
_atom_site_fract_x
_atom_site_fract_y
_atom_site_fract_z
Si Si1 0.207382 0.023903 0.279470
Si Si2 0.473693 0.473719 0.460950
Si Si3 0.819720 0.792367 0.128567
Si Si4 0.428341 0.223232 0.778629
Si Si5 0.363931 0.855191 0.564543
Si Si6 0.613643 0.815362 0.759609
O O1 0.208830 0.177491 0.448686
O O2 0.201178 0.227711 0.128806
O O3 0.139213 0.875593 0.278547
O O4 0.263613 0.819629 0.244389
O O5 0.473675 0.311208 0.627329
O O6 0.409700 0.651873 0.471647
O O7 0.457959 0.270801 0.313786
O O8 0.532321 0.670171 0.431647
O O9 0.874431 0.565173 0.142939
O O10 0.651999 0.570454 0.685573
O O11 0.404110 0.937127 0.726577
O O12 0.358287 0.094147 0.437902
#
# Coordination Sequence:
#
# PCOD9346186 Si02
#       6
#     4   4   4   4   4   4
#     4  11  30  50  77 121 155 218 264 337 393 482
#     4  10  23  46  77 113 158 206 258 336 393 478
#     4  12  30  50  83 113 167 204 274 325 403 473
#     4  10  25  46  76 112 160 203 270 323 405 470
#     4  10  24  50  79 114 161 207 271 322 402 474
#     4  11  26  50  80 117 151 216 257 329 396 475
#
# _framework density 27.686933
#
# number of rings (size 3 to 8) (size 9 to 14) (size 15 to 20)
#    0.000    1.333    1.667    0.000   14.000    5.333 
#    0.000    0.000    0.000    0.000    0.000    0.000 
#    0.000    0.000    0.000    0.000    0.000    0.000 
#
# Total GULP energy -134549.663314 kJ/mol
# GULP energy per Si atom -5606.235971 kJ/mol
# Density = 2.762392 g / cm^3
# Si number density = 27.686933 Si / 1000 Ang^3
#
#
#
# Elastic Constant Matrix: (Units=GPa)
#
#
# Indices 1 2 3 4 5 6 
#
# 1 84.1448 19.0446 13.5164 0.0000 0.0000 0.0000
# 2 19.0446 138.1579 21.5744 0.0000 0.0000 0.0000
# 3 13.5164 21.5744 103.6430 0.0000 0.0000 0.0000
# 4 0.0000 0.0000 0.0000 49.7336 0.0000 0.0000
# 5 0.0000 0.0000 0.0000 0.0000 39.9700 0.0000
# 6 0.0000 0.0000 0.0000 0.0000 0.0000 41.6827
#
#
#
# Elastic Compliance Matrix: (Units=1/GPa)
#
#
# Indices 1 2 3 4 5 6 
#
# 1 0.012436 -0.001510 -0.001307 0.000000 0.000000 0.000000
# 2 -0.001510 0.007665 -0.001399 0.000000 0.000000 0.000000
# 3 -0.001307 -0.001399 0.010110 0.000000 0.000000 0.000000
# 4 0.000000 0.000000 0.000000 0.020107 0.000000 0.000000
# 5 0.000000 0.000000 0.000000 0.000000 0.025019 0.000000
# 6 0.000000 0.000000 0.000000 0.000000 0.000000 0.023991
#
#
# Mechanical properties :
#
#
# Convention : Reuss Voigt Hill
#
# Bulk Modulus (GPa) = 45.91660 48.24629 47.08145
# Shear Modulus (GPa) = 43.47096 44.39795 43.93446
#
# Velocity S-wave (km/s) = 3.96673 4.00881 3.98783
# Velocity P-wave (km/s) = 6.13190 6.23625 6.18430
#
# Compressibility (1/GPa) = 0.02177862
#
# Stress axis : x y z
#
# Youngs Moduli (GPa) = 80.41121 130.46913 98.91059
#
# Poissons Ratio (x) = 0.19702 0.12932
# Poissons Ratio (y) = 0.12143 0.13833
# Poissons Ratio (z) = 0.10514 0.18247
#
# Static dielectric constant tensor:
#      x y z
#    x 2.126410 0.000000 0.000000 
#    y 0.000000 2.165560 0.000000 
#    z 0.000000 0.000000 2.212390 
# 
# From -- ./inp_files/5114.got.cif
#   From: 2010.05.17/outbox.cif.g08.bks.cpg/sg33_3_cif.got.tgz:5114.got - 2010.06.03 17:15:25.
