data_PCOD9346835
_publ_section_title
;
Structure prediction by ZEFSAII (Michael W. Deem and Ramdas Pophale) SiO2 
 PCOD9346835
Probable space group: P N A 21
;
_chemical_formula_sum "Si O2"
_cell_formula_units_Z 32
_cell_length_a 13.169893
_cell_length_b 19.124856
_cell_length_c 6.200516
_cell_angle_alpha 90.000000
_cell_angle_beta 90.000000
_cell_angle_gamma 90.000000
_cell_volume 1561.738271
_symmetry_space_group_name_H-M "P N A 21"
_symmetry_group_IT_number 33
_symmetry_cell_setting 'orthorhombic'
loop_
_space_group_symop_operation_xyz
x,y,z
-x,-y,1/2+z
1/2-x,1/2+y,1/2+z
1/2+x,1/2-y,z
loop_
_atom_site_type_symbol
_atom_site_label
_atom_site_fract_x
_atom_site_fract_y
_atom_site_fract_z
Si Si1 0.825441 0.306373 0.067920
Si Si2 0.750280 0.446461 0.848255
Si Si3 0.171692 0.220926 0.413654
Si Si4 0.924239 0.927266 0.014957
Si Si5 0.852984 0.042779 0.671216
Si Si6 0.060170 0.333690 0.124788
Si Si7 0.764633 0.680360 0.307184
Si Si8 0.953766 0.512723 0.740066
O O1 0.775722 0.305373 0.303946
O O2 0.944541 0.318478 0.067628
O O3 0.772138 0.370115 0.943118
O O4 0.796992 0.232678 0.962213
O O5 0.644554 0.444397 0.721960
O O6 0.848948 0.470027 0.715900
O O7 0.732162 0.504793 0.028853
O O8 0.106048 0.152404 0.463506
O O9 0.107689 0.268244 0.249515
O O10 0.202913 0.271547 0.607151
O O11 0.043869 0.935557 0.049143
O O12 0.887994 0.983675 0.839817
O O13 0.803526 0.113130 0.761471
O O14 0.064364 0.404561 0.260635
O O15 0.131756 0.344290 0.919147
O O16 0.004901 0.506836 0.490516
#
# Coordination Sequence:
#
# PCOD9346835 Si02
#       8
#     4   4   4   4   4   4   4   4
#     4  11  25  45  71 104 141 192 246 305 384 461
#     4  12  25  46  73 102 148 192 253 312 378 467
#     4  11  26  45  72 103 146 191 249 308 386 457
#     4  12  26  46  74 102 146 197 248 314 382 468
#     4  12  27  46  73 111 144 193 255 312 388 458
#     4  11  27  46  71 107 148 192 254 309 391 461
#     4  11  27  46  72 109 144 194 245 324 377 462
#     4  12  29  48  78 114 153 203 254 320 394 468
#
# _framework density 20.489989000000001
#
# number of rings (size 3 to 8) (size 9 to 14) (size 15 to 20)
#    0.000    0.500    5.000    1.500   10.500    2.000 
#    0.000    0.000    0.000    0.000    0.000    0.000 
#    0.000    0.000    0.000    0.000    0.000    0.000 
#
# Total GULP energy -178631.463077 kJ/mol
# GULP energy per Si atom -5582.233221 kJ/mol
# Density = 2.044335 g / cm^3
# Si number density = 20.489989 Si / 1000 Ang^3
#
#
#
# Elastic Constant Matrix: (Units=GPa)
#
#
# Indices 1 2 3 4 5 6 
#
# 1 102.9543 43.2556 34.4107 0.0000 0.0000 0.0000
# 2 43.2556 192.5563 54.0082 0.0000 0.0000 0.0000
# 3 34.4107 54.0082 70.7536 0.0000 0.0000 0.0000
# 4 0.0000 0.0000 0.0000 20.8873 0.0000 0.0000
# 5 0.0000 0.0000 0.0000 0.0000 28.3142 0.0000
# 6 0.0000 0.0000 0.0000 0.0000 0.0000 32.7921
#
#
#
# Elastic Compliance Matrix: (Units=1/GPa)
#
#
# Indices 1 2 3 4 5 6 
#
# 1 0.011861 -0.001332 -0.004752 0.000000 0.000000 0.000000
# 2 -0.001332 0.006758 -0.004511 0.000000 0.000000 0.000000
# 3 -0.004752 -0.004511 0.019888 0.000000 0.000000 0.000000
# 4 0.000000 0.000000 0.000000 0.047876 0.000000 0.000000
# 5 0.000000 0.000000 0.000000 0.000000 0.035318 0.000000
# 6 0.000000 0.000000 0.000000 0.000000 0.000000 0.030495
#
#
# Mechanical properties :
#
#
# Convention : Reuss Voigt Hill
#
# Bulk Modulus (GPa) = 57.74446 69.95702 63.85074
# Shear Modulus (GPa) = 27.90861 32.03803 29.97332
#
# Velocity S-wave (km/s) = 3.69461 3.95852 3.82884
# Velocity P-wave (km/s) = 6.81493 7.42357 7.12575
#
# Compressibility (1/GPa) = 0.01731768
#
# Stress axis : x y z
#
# Youngs Moduli (GPa) = 84.31154 147.98283 50.28215
#
# Poissons Ratio (x) = 0.19704 0.23894
# Poissons Ratio (y) = 0.11226 0.22680
# Poissons Ratio (z) = 0.40065 0.66750
#
# Static dielectric constant tensor:
#      x y z
#    x 1.692780 0.000000 0.000000 
#    y 0.000000 1.667710 0.000000 
#    z 0.000000 0.000000 1.794560 
# 
# From -- ./inp_files/1079.got.cif
#   From: 2010.05.17/outbox.cif.g08.bks.cpg/sg33_1_cif.got.tgz:1079.got - 2010.06.03 17:15:25.
