data_PCOD9346226
_publ_section_title
;
Structure prediction by ZEFSAII (Michael W. Deem and Ramdas Pophale) SiO2 
 PCOD9346226
Probable space group: P N A 21
;
_chemical_formula_sum "Si O2"
_cell_formula_units_Z 28
_cell_length_a 8.680898
_cell_length_b 5.172460
_cell_length_c 25.346832
_cell_angle_alpha 90.000000
_cell_angle_beta 90.000000
_cell_angle_gamma 90.000000
_cell_volume 1138.113253
_symmetry_space_group_name_H-M "P N A 21"
_symmetry_group_IT_number 33
_symmetry_cell_setting 'orthorhombic'
loop_
_space_group_symop_operation_xyz
x,y,z
-x,-y,1/2+z
1/2-x,1/2+y,1/2+z
1/2+x,1/2-y,z
loop_
_atom_site_type_symbol
_atom_site_label
_atom_site_fract_x
_atom_site_fract_y
_atom_site_fract_z
Si Si1 0.902622 0.571740 0.508240
Si Si2 0.601773 0.980187 0.665064
Si Si3 0.734540 0.058964 0.548489
Si Si4 0.066198 0.975333 0.202698
Si Si5 0.868716 0.004754 0.307571
Si Si6 0.902340 0.655842 0.856686
Si Si7 0.740444 0.170666 0.894636
O O1 0.804688 0.336303 0.533482
O O2 0.847435 0.618106 0.448534
O O3 0.081354 0.502642 0.514710
O O4 0.861278 0.838536 0.537638
O O5 0.677617 0.032622 0.608447
O O6 0.479345 0.204724 0.676271
O O7 0.749350 0.992550 0.704564
O O8 0.513485 0.709682 0.670740
O O9 0.977815 0.972089 0.258445
O O10 0.688109 0.071746 0.302512
O O11 0.931046 0.247496 0.340758
O O12 0.868706 0.758315 0.345884
O O13 0.848419 0.427232 0.895179
O O14 0.841042 0.922816 0.881604
#
# Coordination Sequence:
#
# PCOD9346226 Si02
#       7
#     4   4   4   4   4   4   4
#     4  12  26  47  75 107 138 196 233 308 359 450
#     4  12  26  48  71 112 140 194 238 317 351 451
#     4  12  26  48  77 104 149 182 252 299 381 413
#     4  12  26  43  76 102 150 186 251 284 385 420
#     4  10  26  42  69  97 143 184 233 288 348 430
#     4  10  24  41  66  94 142 179 227 287 341 408
#     4  10  26  41  68  98 142 177 240 281 353 424
#
# _framework density 24.602119999999999
#
# number of rings (size 3 to 8) (size 9 to 14) (size 15 to 20)
#    0.857    0.000    0.000    6.000    8.000    1.143 
#    0.000    0.000    0.000    0.000    0.000    0.000 
#    0.000    0.000    0.000    0.000    0.000    0.000 
#
# Total GULP energy -156687.400631 kJ/mol
# GULP energy per Si atom -5595.978594 kJ/mol
# Density = 2.454612 g / cm^3
# Si number density = 24.602120 Si / 1000 Ang^3
#
#
#
# Elastic Constant Matrix: (Units=GPa)
#
#
# Indices 1 2 3 4 5 6 
#
# 1 69.1603 3.6653 -19.9698 0.0000 0.0000 0.0000
# 2 3.6653 148.8287 28.0469 0.0000 0.0000 0.0000
# 3 -19.9698 28.0469 67.5466 0.0000 0.0000 0.0000
# 4 0.0000 0.0000 0.0000 24.3102 0.0000 0.0000
# 5 0.0000 0.0000 0.0000 0.0000 30.3440 0.0000
# 6 0.0000 0.0000 0.0000 0.0000 0.0000 1.1136
#
#
#
# Elastic Compliance Matrix: (Units=1/GPa)
#
#
# Indices 1 2 3 4 5 6 
#
# 1 0.016074 -0.001401 0.005334 0.000000 0.000000 0.000000
# 2 -0.001401 0.007412 -0.003492 0.000000 0.000000 0.000000
# 3 0.005334 -0.003492 0.017831 0.000000 0.000000 0.000000
# 4 0.000000 0.000000 0.000000 0.041135 0.000000 0.000000
# 5 0.000000 0.000000 0.000000 0.000000 0.032955 0.000000
# 6 0.000000 0.000000 0.000000 0.000000 0.000000 0.897957
#
#
# Mechanical properties :
#
#
# Convention : Reuss Voigt Hill
#
# Bulk Modulus (GPa) = 23.69744 34.33559 29.01652
# Shear Modulus (GPa) = 4.87069 29.40646 17.13857
#
# Velocity S-wave (km/s) = 1.40857 3.46103 2.64224
# Velocity P-wave (km/s) = 3.50694 5.47342 4.59657
#
# Compressibility (1/GPa) = 0.04219865
#
# Stress axis : x y z
#
# Youngs Moduli (GPa) = 62.21412 134.92279 56.08115
#
# Poissons Ratio (x) = 0.18903 -0.29912
# Poissons Ratio (y) = 0.08716 0.19582
# Poissons Ratio (z) = -0.33184 0.47111
#
# Static dielectric constant tensor:
#      x y z
#    x 2.034980 0.000000 0.000000 
#    y 0.000000 1.968380 0.000000 
#    z 0.000000 0.000000 1.997130 
# 
# From -- ./inp_files/9343.got.cif
#   From: 2010.05.17/outbox.cif.g08.bks.cpg/sg33_5_cif.got.tgz:9343.got - 2010.06.03 17:15:25.
