data_PCOD9346139
_publ_section_title
;
Structure prediction by ZEFSAII (Michael W. Deem and Ramdas Pophale) SiO2 
 PCOD9346139
Probable space group: P N A 21
;
_chemical_formula_sum "Si O2"
_cell_formula_units_Z 28
_cell_length_a 5.183896
_cell_length_b 18.983484
_cell_length_c 11.466525
_cell_angle_alpha 90.000000
_cell_angle_beta 90.000000
_cell_angle_gamma 90.000000
_cell_volume 1128.402456
_symmetry_space_group_name_H-M "P N A 21"
_symmetry_group_IT_number 33
_symmetry_cell_setting 'orthorhombic'
loop_
_space_group_symop_operation_xyz
x,y,z
-x,-y,1/2+z
1/2-x,1/2+y,1/2+z
1/2+x,1/2-y,z
loop_
_atom_site_type_symbol
_atom_site_label
_atom_site_fract_x
_atom_site_fract_y
_atom_site_fract_z
Si Si1 0.833908 0.971422 0.924400
Si Si2 0.204512 0.206258 0.057955
Si Si3 0.964589 0.498269 0.737960
Si Si4 0.865298 0.118601 0.230988
Si Si5 0.622071 0.205695 0.428129
Si Si6 0.851576 0.098797 0.612795
Si Si7 0.920402 0.887273 0.343190
O O1 0.999370 0.927902 0.830229
O O2 0.557355 0.969724 0.862910
O O3 0.924136 0.052386 0.914432
O O4 0.901663 0.932799 0.043782
O O5 0.001379 0.271091 0.068407
O O6 0.086210 0.152873 0.152861
O O7 0.167491 0.171356 0.931868
O O8 0.818181 0.560787 0.671588
O O9 0.804929 0.430955 0.780118
O O10 0.192987 0.469028 0.657876
O O11 0.695179 0.175435 0.300961
O O12 0.327499 0.230107 0.440392
O O13 0.696521 0.148891 0.526011
O O14 0.918026 0.139280 0.732176
#
# Coordination Sequence:
#
# PCOD9346139 Si02
#       7
#     4   4   4   4   4   4   4
#     4   9  22  42  70 106 138 178 239 319 373 424
#     4  12  30  48  72 102 149 202 241 292 352 453
#     4  10  23  44  75 106 146 190 240 332 376 448
#     4  10  24  46  73 106 139 187 254 309 376 428
#     4  11  26  45  74 106 145 197 245 306 362 443
#     4  10  24  44  69 107 144 189 249 304 381 437
#     4  10  25  43  67 103 141 191 244 294 372 441
#
# _framework density 24.813839999999999
#
# number of rings (size 3 to 8) (size 9 to 14) (size 15 to 20)
#    0.000    1.714    0.000    0.857   18.000    3.429 
#    5.143    0.000    0.000    0.000    0.000    0.000 
#    0.000    0.000    0.000    0.000    0.000    0.000 
#
# Total GULP energy -156759.273978 kJ/mol
# GULP energy per Si atom -5598.545499 kJ/mol
# Density = 2.475736 g / cm^3
# Si number density = 24.813840 Si / 1000 Ang^3
#
#
#
# Elastic Constant Matrix: (Units=GPa)
#
#
# Indices 1 2 3 4 5 6 
#
# 1 51.7155 7.0289 12.2265 0.0000 0.0000 0.0000
# 2 7.0289 65.7856 34.4235 0.0000 0.0000 0.0000
# 3 12.2265 34.4235 125.7529 0.0000 0.0000 0.0000
# 4 0.0000 0.0000 0.0000 44.1799 0.0000 0.0000
# 5 0.0000 0.0000 0.0000 0.0000 35.3203 0.0000
# 6 0.0000 0.0000 0.0000 0.0000 0.0000 38.3088
#
#
#
# Elastic Compliance Matrix: (Units=1/GPa)
#
#
# Indices 1 2 3 4 5 6 
#
# 1 0.019886 -0.001299 -0.001578 0.000000 0.000000 0.000000
# 2 -0.001299 0.017827 -0.004754 0.000000 0.000000 0.000000
# 3 -0.001578 -0.004754 0.009407 0.000000 0.000000 0.000000
# 4 0.000000 0.000000 0.000000 0.022635 0.000000 0.000000
# 5 0.000000 0.000000 0.000000 0.000000 0.028312 0.000000
# 6 0.000000 0.000000 0.000000 0.000000 0.000000 0.026104
#
#
# Mechanical properties :
#
#
# Convention : Reuss Voigt Hill
#
# Bulk Modulus (GPa) = 31.38850 38.95688 35.17269
# Shear Modulus (GPa) = 33.32185 36.20014 34.76100
#
# Velocity S-wave (km/s) = 3.66850 3.82366 3.74688
# Velocity P-wave (km/s) = 5.53362 5.93528 5.73796
#
# Compressibility (1/GPa) = 0.03185881
#
# Stress axis : x y z
#
# Youngs Moduli (GPa) = 50.28621 56.09424 106.30630
#
# Poissons Ratio (x) = 0.07287 0.16773
# Poissons Ratio (y) = 0.06533 0.50535
# Poissons Ratio (z) = 0.07934 0.26665
#
# Static dielectric constant tensor:
#      x y z
#    x 2.039040 0.000000 0.000000 
#    y 0.000000 1.956520 0.000000 
#    z 0.000000 0.000000 1.949780 
# 
# From -- ./inp_files/5498.got.cif
#   From: 2010.05.17/outbox.cif.g08.bks.cpg/sg33_3_cif.got.tgz:5498.got - 2010.06.03 17:15:25.
