data_PCOD9346658
_publ_section_title
;
Structure prediction by ZEFSAII (Michael W. Deem and Ramdas Pophale) SiO2 
 PCOD9346658
Probable space group: P N A 21
;
_chemical_formula_sum "Si O2"
_cell_formula_units_Z 28
_cell_length_a 12.059514
_cell_length_b 16.219483
_cell_length_c 6.586349
_cell_angle_alpha 90.000000
_cell_angle_beta 90.000000
_cell_angle_gamma 90.000000
_cell_volume 1288.283820
_symmetry_space_group_name_H-M "P N A 21"
_symmetry_group_IT_number 33
_symmetry_cell_setting 'orthorhombic'
loop_
_space_group_symop_operation_xyz
x,y,z
-x,-y,1/2+z
1/2-x,1/2+y,1/2+z
1/2+x,1/2-y,z
loop_
_atom_site_type_symbol
_atom_site_label
_atom_site_fract_x
_atom_site_fract_y
_atom_site_fract_z
Si Si1 0.906463 0.396975 0.601760
Si Si2 0.781462 0.547189 0.547588
Si Si3 0.599961 0.784141 0.718930
Si Si4 0.877938 0.980919 0.709846
Si Si5 0.781527 0.841893 0.414525
Si Si6 0.896254 0.099728 0.370926
Si Si7 0.916476 0.690149 0.376185
O O1 0.893346 0.495380 0.591000
O O2 0.897999 0.356826 0.381879
O O3 0.802414 0.371277 0.741911
O O4 0.013832 0.358264 0.707217
O O5 0.704909 0.492568 0.398063
O O6 0.710899 0.568819 0.746039
O O7 0.816517 0.630660 0.437805
O O8 0.709035 0.791959 0.580183
O O9 0.594111 0.696958 0.833640
O O10 0.496085 0.795109 0.569222
O O11 0.833774 0.917725 0.538574
O O12 0.995545 0.946033 0.782035
O O13 0.888453 0.069626 0.601724
O O14 0.870915 0.779972 0.318820
#
# Coordination Sequence:
#
# PCOD9346658 Si02
#       7
#     4   4   4   4   4   4   4
#     4  11  27  43  69 100 135 181 227 277 340 413
#     4  12  26  45  67 103 142 180 224 284 347 402
#     4  11  25  45  67  98 137 182 225 277 348 402
#     4  12  25  42  70 100 137 176 226 285 344 404
#     4  11  23  46  66  99 139 173 224 291 335 400
#     4  12  25  42  71 102 132 177 230 282 342 405
#     4  11  27  43  70  98 140 177 230 282 336 418
#
# _framework density 21.734341000000001
#
# number of rings (size 3 to 8) (size 9 to 14) (size 15 to 20)
#    0.000    0.571    7.143    0.000    4.000    4.571 
#    0.000    0.000    0.000    0.000    0.000    0.000 
#    0.000    0.000    0.000    0.000    0.000    0.000 
#
# Total GULP energy -156689.630849 kJ/mol
# GULP energy per Si atom -5596.058245 kJ/mol
# Density = 2.168487 g / cm^3
# Si number density = 21.734341 Si / 1000 Ang^3
#
#
#
# Elastic Constant Matrix: (Units=GPa)
#
#
# Indices 1 2 3 4 5 6 
#
# 1 41.0993 -3.4864 -5.5614 0.0000 0.0000 0.0000
# 2 -3.4864 71.0555 -18.8489 0.0000 0.0000 0.0000
# 3 -5.5614 -18.8489 16.8344 0.0000 0.0000 0.0000
# 4 0.0000 0.0000 0.0000 26.2508 0.0000 0.0000
# 5 0.0000 0.0000 0.0000 0.0000 18.6834 0.0000
# 6 0.0000 0.0000 0.0000 0.0000 0.0000 31.9321
#
#
#
# Elastic Compliance Matrix: (Units=1/GPa)
#
#
# Indices 1 2 3 4 5 6 
#
# 1 0.026757 0.005203 0.014665 0.000000 0.000000 0.000000
# 2 0.005203 0.021031 0.025267 0.000000 0.000000 0.000000
# 3 0.014665 0.025267 0.092538 0.000000 0.000000 0.000000
# 4 0.000000 0.000000 0.000000 0.038094 0.000000 0.000000
# 5 0.000000 0.000000 0.000000 0.000000 0.053523 0.000000
# 6 0.000000 0.000000 0.000000 0.000000 0.000000 0.031316
#
#
# Mechanical properties :
#
#
# Convention : Reuss Voigt Hill
#
# Bulk Modulus (GPa) = 4.33656 8.13285 6.23471
# Shear Modulus (GPa) = 20.01160 25.83232 22.92196
#
# Velocity S-wave (km/s) = 3.03766 3.45127 3.25105
# Velocity P-wave (km/s) = 3.78189 4.43078 4.11913
#
# Compressibility (1/GPa) = 0.23059739
#
# Stress axis : x y z
#
# Youngs Moduli (GPa) = 37.37316 47.54793 10.80639
#
# Poissons Ratio (x) = -0.24740 -0.15848
# Poissons Ratio (y) = -0.19446 -0.27305
# Poissons Ratio (z) = -0.54809 -1.20140
#
# Static dielectric constant tensor:
#      x y z
#    x 1.789090 0.000000 0.000000 
#    y 0.000000 1.785810 0.000000 
#    z 0.000000 0.000000 1.748020 
# 
# From -- ./inp_files/919.got.cif
#   From: 2010.05.17/outbox.cif.g08.bks.cpg/sg33_1_cif.got.tgz:919.got - 2010.06.03 17:15:25.
