data_PCOD9346492
_publ_section_title
;
Structure prediction by ZEFSAII (Michael W. Deem and Ramdas Pophale) SiO2 
 PCOD9346492
Probable space group: P N A 21
;
_chemical_formula_sum "Si O2"
_cell_formula_units_Z 20
_cell_length_a 4.799119
_cell_length_b 22.782920
_cell_length_c 8.270244
_cell_angle_alpha 90.000000
_cell_angle_beta 90.000000
_cell_angle_gamma 90.000000
_cell_volume 904.251477
_symmetry_space_group_name_H-M "P N A 21"
_symmetry_group_IT_number 33
_symmetry_cell_setting 'orthorhombic'
loop_
_space_group_symop_operation_xyz
x,y,z
-x,-y,1/2+z
1/2-x,1/2+y,1/2+z
1/2+x,1/2-y,z
loop_
_atom_site_type_symbol
_atom_site_label
_atom_site_fract_x
_atom_site_fract_y
_atom_site_fract_z
Si Si1 0.790953 0.883190 0.694000
Si Si2 0.975204 0.451520 0.892407
Si Si3 0.026711 0.788620 0.460447
Si Si4 0.804405 0.584769 0.895913
Si Si5 0.510368 0.605138 0.232811
O O1 0.641916 0.919771 0.551835
O O2 0.551123 0.874110 0.827833
O O3 0.923477 0.825321 0.614718
O O4 0.050577 0.917907 0.768726
O O5 0.938898 0.520519 0.910209
O O6 0.782204 0.428254 0.744978
O O7 0.284624 0.430111 0.854356
O O8 0.348671 0.770946 0.458708
O O9 0.971668 0.830263 0.306964
O O10 0.657664 0.604728 0.060636
#
# Coordination Sequence:
#
# PCOD9346492 Si02
#       5
#     4   4   4   4   4
#     4  11  24  39  62  93 121 160 209 245 299 369
#     4  11  21  39  61  90 130 171 193 227 300 385
#     4  11  23  45  66  82 114 166 213 257 304 361
#     4  12  22  38  61  96 131 154 191 257 304 355
#     4  11  24  39  62  93 122 161 208 244 299 370
#
# _framework density 22.117742
#
# number of rings (size 3 to 8) (size 9 to 14) (size 15 to 20)
#    0.000    0.800    0.000   10.800    0.000    0.000 
#    0.000    6.000    0.000    0.000    0.000    0.000 
#    0.000    0.000    0.000    0.000    0.000    0.000 
#
# Total GULP energy -111992.799387 kJ/mol
# GULP energy per Si atom -5599.639969 kJ/mol
# Density = 2.206740 g / cm^3
# Si number density = 22.117742 Si / 1000 Ang^3
#
#
#
# Elastic Constant Matrix: (Units=GPa)
#
#
# Indices 1 2 3 4 5 6 
#
# 1 86.5144 -5.6026 8.9630 0.0000 0.0000 0.0000
# 2 -5.6026 59.6373 23.9875 0.0000 0.0000 0.0000
# 3 8.9630 23.9875 88.9360 0.0000 0.0000 0.0000
# 4 0.0000 0.0000 0.0000 4.6724 0.0000 0.0000
# 5 0.0000 0.0000 0.0000 0.0000 39.7395 0.0000
# 6 0.0000 0.0000 0.0000 0.0000 0.0000 42.9112
#
#
#
# Elastic Compliance Matrix: (Units=1/GPa)
#
#
# Indices 1 2 3 4 5 6 
#
# 1 0.011848 0.001787 -0.001676 0.000000 0.000000 0.000000
# 2 0.001787 0.019078 -0.005326 0.000000 0.000000 0.000000
# 3 -0.001676 -0.005326 0.012849 0.000000 0.000000 0.000000
# 4 0.000000 0.000000 0.000000 0.214022 0.000000 0.000000
# 5 0.000000 0.000000 0.000000 0.000000 0.025164 0.000000
# 6 0.000000 0.000000 0.000000 0.000000 0.000000 0.023304
#
#
# Mechanical properties :
#
#
# Convention : Reuss Voigt Hill
#
# Bulk Modulus (GPa) = 29.98830 32.19816 31.09323
# Shear Modulus (GPa) = 15.25273 31.31394 23.28334
#
# Velocity S-wave (km/s) = 2.62890 3.76677 3.24805
# Velocity P-wave (km/s) = 4.77522 5.78855 5.30613
#
# Compressibility (1/GPa) = 0.03334634
#
# Stress axis : x y z
#
# Youngs Moduli (GPa) = 84.40128 52.41610 77.82453
#
# Poissons Ratio (x) = -0.09368 0.13044
# Poissons Ratio (y) = -0.15085 0.41448
# Poissons Ratio (z) = 0.14147 0.27916
#
# Static dielectric constant tensor:
#      x y z
#    x 1.788110 0.000000 0.000000 
#    y 0.000000 1.775930 0.000000 
#    z 0.000000 0.000000 1.863720 
# 
# From -- ./inp_files/2674.got.cif
#   From: 2010.05.17/outbox.cif.g08.bks.cpg/sg33_2_cif.got.tgz:2674.got - 2010.06.03 17:15:25.
