data_PCOD9346331
_publ_section_title
;
Structure prediction by ZEFSAII (Michael W. Deem and Ramdas Pophale) SiO2 
 PCOD9346331
Probable space group: P N A 21
;
_chemical_formula_sum "Si O2"
_cell_formula_units_Z 28
_cell_length_a 16.446821
_cell_length_b 9.683091
_cell_length_c 7.125072
_cell_angle_alpha 90.000000
_cell_angle_beta 90.000000
_cell_angle_gamma 90.000000
_cell_volume 1134.710925
_symmetry_space_group_name_H-M "P N A 21"
_symmetry_group_IT_number 33
_symmetry_cell_setting 'orthorhombic'
loop_
_space_group_symop_operation_xyz
x,y,z
-x,-y,1/2+z
1/2-x,1/2+y,1/2+z
1/2+x,1/2-y,z
loop_
_atom_site_type_symbol
_atom_site_label
_atom_site_fract_x
_atom_site_fract_y
_atom_site_fract_z
Si Si1 0.851771 0.093695 0.404090
Si Si2 0.348338 0.972862 0.231495
Si Si3 0.673359 0.411917 0.228450
Si Si4 0.682057 0.094331 0.294384
Si Si5 0.526322 0.492077 0.460170
Si Si6 0.900193 0.362491 0.547303
Si Si7 0.954826 0.774319 0.276884
O O1 0.779940 0.100364 0.255644
O O2 0.840688 0.229393 0.534835
O O3 0.948901 0.096202 0.385597
O O4 0.831842 0.951972 0.510781
O O5 0.260035 0.029359 0.292752
O O6 0.409223 0.082605 0.332022
O O7 0.377793 0.823323 0.302624
O O8 0.341169 0.956420 0.005792
O O9 0.657942 0.253574 0.274004
O O10 0.599384 0.496576 0.315545
O O11 0.639907 0.989591 0.155014
O O12 0.559438 0.403229 0.634489
O O13 0.494089 0.650356 0.458553
O O14 0.979417 0.318922 0.664809
#
# Coordination Sequence:
#
# PCOD9346331 Si02
#       7
#     4   4   4   4   4   4   4
#     4  10  24  46  67 110 147 188 260 304 372 460
#     4  11  26  45  74 111 150 190 251 312 376 447
#     4  11  22  46  72 103 152 189 251 312 365 460
#     4  11  25  47  73 108 148 200 242 316 385 444
#     4  11  22  45  73 101 147 201 242 307 368 454
#     4  11  25  48  72 108 149 191 253 312 373 460
#     4  11  26  47  73 113 151 201 253 317 381 461
#
# _framework density 24.675888
#
# number of rings (size 3 to 8) (size 9 to 14) (size 15 to 20)
#    0.000    1.143    5.714    0.000    4.000    3.429 
#   10.286    0.000    0.000    0.000    0.000    0.000 
#    0.000    0.000    0.000    0.000    0.000    0.000 
#
# Total GULP energy -156204.114545 kJ/mol
# GULP energy per Si atom -5578.718377 kJ/mol
# Density = 2.461972 g / cm^3
# Si number density = 24.675888 Si / 1000 Ang^3
#
#
#
# Elastic Constant Matrix: (Units=GPa)
#
#
# Indices 1 2 3 4 5 6 
#
# 1 65.7948 36.9316 6.2203 0.0000 0.0000 0.0000
# 2 36.9316 141.0139 46.0880 0.0000 0.0000 0.0000
# 3 6.2203 46.0880 71.9159 0.0000 0.0000 0.0000
# 4 0.0000 0.0000 0.0000 47.1731 0.0000 0.0000
# 5 0.0000 0.0000 0.0000 0.0000 25.3169 0.0000
# 6 0.0000 0.0000 0.0000 0.0000 0.0000 44.8177
#
#
#
# Elastic Compliance Matrix: (Units=1/GPa)
#
#
# Indices 1 2 3 4 5 6 
#
# 1 0.018011 -0.005323 0.001853 0.000000 0.000000 0.000000
# 2 -0.005323 0.010543 -0.006297 0.000000 0.000000 0.000000
# 3 0.001853 -0.006297 0.017780 0.000000 0.000000 0.000000
# 4 0.000000 0.000000 0.000000 0.021199 0.000000 0.000000
# 5 0.000000 0.000000 0.000000 0.000000 0.039499 0.000000
# 6 0.000000 0.000000 0.000000 0.000000 0.000000 0.022313
#
#
# Mechanical properties :
#
#
# Convention : Reuss Voigt Hill
#
# Bulk Modulus (GPa) = 37.30955 50.80049 44.05502
# Shear Modulus (GPa) = 31.68333 36.09385 33.88859
#
# Velocity S-wave (km/s) = 3.58715 3.82870 3.70989
# Velocity P-wave (km/s) = 5.68415 6.33853 6.02024
#
# Compressibility (1/GPa) = 0.02680279
#
# Stress axis : x y z
#
# Youngs Moduli (GPa) = 55.52041 94.84534 56.24294
#
# Poissons Ratio (x) = 0.50486 -0.10424
# Poissons Ratio (y) = 0.29553 0.35413
# Poissons Ratio (z) = -0.10290 0.59719
#
# Static dielectric constant tensor:
#      x y z
#    x 2.016750 0.000000 0.000000 
#    y 0.000000 1.965820 0.000000 
#    z 0.000000 0.000000 2.130500 
# 
# From -- ./inp_files/4726.got.cif
#   From: 2010.05.17/outbox.cif.g08.bks.cpg/sg33_3_cif.got.tgz:4726.got - 2010.06.03 17:15:25.
