data_PCOD9346885
_publ_section_title
;
Structure prediction by ZEFSAII (Michael W. Deem and Ramdas Pophale) SiO2 
 PCOD9346885
Probable space group: P N A 21
;
_chemical_formula_sum "Si O2"
_cell_formula_units_Z 16
_cell_length_a 13.427161
_cell_length_b 5.062413
_cell_length_c 9.841218
_cell_angle_alpha 90.000000
_cell_angle_beta 90.000000
_cell_angle_gamma 90.000000
_cell_volume 668.945323
_symmetry_space_group_name_H-M "P N A 21"
_symmetry_group_IT_number 33
_symmetry_cell_setting 'orthorhombic'
loop_
_space_group_symop_operation_xyz
x,y,z
-x,-y,1/2+z
1/2-x,1/2+y,1/2+z
1/2+x,1/2-y,z
loop_
_atom_site_type_symbol
_atom_site_label
_atom_site_fract_x
_atom_site_fract_y
_atom_site_fract_z
Si Si1 0.462207 0.079715 0.553420
Si Si2 0.298689 0.099550 0.342532
Si Si3 0.425906 0.760252 0.824264
Si Si4 0.405084 0.576751 0.245052
O O1 0.356556 0.153974 0.484426
O O2 0.534066 0.013031 0.425885
O O3 0.530426 0.302237 0.624077
O O4 0.438195 0.870717 0.671321
O O5 0.182617 0.152205 0.353166
O O6 0.339769 0.310809 0.231501
O O7 0.333076 0.806788 0.300010
O O8 0.507783 0.532273 0.841998
#
# Coordination Sequence:
#
# PCOD9346885 Si02
#       4
#     4   4   4   4
#     4  11  25  52  74 116 155 204 255 336 380 471
#     4  11  28  47  81 115 154 210 263 313 407 468
#     4  11  28  49  84 112 162 207 265 328 399 471
#     4  11  25  50  71 115 153 201 255 329 380 468
#
# _framework density 23.918247000000001
#
# number of rings (size 3 to 8) (size 9 to 14) (size 15 to 20)
#    0.000    1.000    5.000    0.000   14.000    0.000 
#    0.000    0.000    0.000    0.000    0.000    0.000 
#    0.000    0.000    0.000    0.000    0.000    0.000 
#
# Total GULP energy -89264.407598 kJ/mol
# GULP energy per Si atom -5579.025475 kJ/mol
# Density = 2.386381 g / cm^3
# Si number density = 23.918247 Si / 1000 Ang^3
#
#
#
# Elastic Constant Matrix: (Units=GPa)
#
#
# Indices 1 2 3 4 5 6 
#
# 1 210.6590 48.8438 54.0304 0.0000 0.0000 0.0000
# 2 48.8438 124.1936 40.3660 0.0000 0.0000 0.0000
# 3 54.0304 40.3660 101.9477 0.0000 0.0000 0.0000
# 4 0.0000 0.0000 0.0000 30.3736 0.0000 0.0000
# 5 0.0000 0.0000 0.0000 0.0000 29.3929 0.0000
# 6 0.0000 0.0000 0.0000 0.0000 0.0000 30.1019
#
#
#
# Elastic Compliance Matrix: (Units=1/GPa)
#
#
# Indices 1 2 3 4 5 6 
#
# 1 0.005712 -0.001449 -0.002454 0.000000 0.000000 0.000000
# 2 -0.001449 0.009609 -0.003037 0.000000 0.000000 0.000000
# 3 -0.002454 -0.003037 0.012312 0.000000 0.000000 0.000000
# 4 0.000000 0.000000 0.000000 0.032923 0.000000 0.000000
# 5 0.000000 0.000000 0.000000 0.000000 0.034022 0.000000
# 6 0.000000 0.000000 0.000000 0.000000 0.000000 0.033221
#
#
# Mechanical properties :
#
#
# Convention : Reuss Voigt Hill
#
# Bulk Modulus (GPa) = 72.70548 80.36452 76.53500
# Shear Modulus (GPa) = 34.18523 37.54433 35.86478
#
# Velocity S-wave (km/s) = 3.78465 3.96623 3.87650
# Velocity P-wave (km/s) = 7.04000 7.39238 7.21834
#
# Compressibility (1/GPa) = 0.01375412
#
# Stress axis : x y z
#
# Youngs Moduli (GPa) = 175.06035 104.07101 81.22365
#
# Poissons Ratio (x) = 0.15081 0.19930
# Poissons Ratio (y) = 0.25368 0.24664
# Poissons Ratio (z) = 0.42954 0.31602
#
# Static dielectric constant tensor:
#      x y z
#    x 1.907870 0.000000 0.000000 
#    y 0.000000 2.023050 0.000000 
#    z 0.000000 0.000000 2.081540 
# 
# From -- ./inp_files/4143.got.cif
#   From: 2010.05.17/outbox.cif.g08.bks.cpg/sg33_3_cif.got.tgz:4143.got - 2010.06.03 17:15:25.
