data_PCOD9346257
_publ_section_title
;
Structure prediction by ZEFSAII (Michael W. Deem and Ramdas Pophale) SiO2 
 PCOD9346257
Probable space group: P N A 21
;
_chemical_formula_sum "Si O2"
_cell_formula_units_Z 28
_cell_length_a 8.566116
_cell_length_b 25.975637
_cell_length_c 5.050755
_cell_angle_alpha 90.000000
_cell_angle_beta 90.000000
_cell_angle_gamma 90.000000
_cell_volume 1123.845110
_symmetry_space_group_name_H-M "P N A 21"
_symmetry_group_IT_number 33
_symmetry_cell_setting 'orthorhombic'
loop_
_space_group_symop_operation_xyz
x,y,z
-x,-y,1/2+z
1/2-x,1/2+y,1/2+z
1/2+x,1/2-y,z
loop_
_atom_site_type_symbol
_atom_site_label
_atom_site_fract_x
_atom_site_fract_y
_atom_site_fract_z
Si Si1 0.527039 0.647763 0.362280
Si Si2 0.474724 0.842754 0.475836
Si Si3 0.728094 0.804442 0.828001
Si Si4 0.275485 0.098377 0.679276
Si Si5 0.786392 0.116755 0.344352
Si Si6 0.889083 0.005037 0.154068
Si Si7 0.551388 0.243638 0.622485
O O1 0.369506 0.614129 0.366795
O O2 0.598971 0.648211 0.651546
O O3 0.472830 0.704155 0.280134
O O4 0.647202 0.624675 0.141085
O O5 0.556082 0.888463 0.306459
O O6 0.381393 0.863508 0.732974
O O7 0.376554 0.802773 0.295408
O O8 0.624849 0.810267 0.570961
O O9 0.754310 0.862362 0.935380
O O10 0.612153 0.779385 0.039623
O O11 0.865584 0.763501 0.854072
O O12 0.240836 0.039305 0.616657
O O13 0.810874 0.057860 0.253474
O O14 0.015443 0.990315 0.380724
#
# Coordination Sequence:
#
# PCOD9346257 Si02
#       7
#     4   4   4   4   4   4   4
#     4  11  25  44  76 103 146 188 247 297 369 440
#     4  11  27  45  70 107 152 191 246 309 384 443
#     4  10  24  42  70  97 147 183 245 297 368 442
#     4  10  24  46  69 105 143 185 247 303 377 436
#     4  12  26  47  73 110 145 190 246 318 361 448
#     4  12  24  47  78 107 137 195 254 307 369 452
#     4  10  24  43  66 105 136 200 235 299 364 451
#
# _framework density 24.914463000000001
#
# number of rings (size 3 to 8) (size 9 to 14) (size 15 to 20)
#    0.000    1.143    2.857    0.857   14.000    2.286 
#    2.571    0.000    0.000    0.000    0.000    0.000 
#    0.000    0.000    0.000    0.000    0.000    0.000 
#
# Total GULP energy -156601.455059 kJ/mol
# GULP energy per Si atom -5592.909109 kJ/mol
# Density = 2.485776 g / cm^3
# Si number density = 24.914463 Si / 1000 Ang^3
#
#
#
# Elastic Constant Matrix: (Units=GPa)
#
#
# Indices 1 2 3 4 5 6 
#
# 1 78.3208 43.4841 26.1356 0.0000 0.0000 0.0000
# 2 43.4841 138.6761 5.3624 0.0000 0.0000 0.0000
# 3 26.1356 5.3624 97.1615 0.0000 0.0000 0.0000
# 4 0.0000 0.0000 0.0000 24.4034 0.0000 0.0000
# 5 0.0000 0.0000 0.0000 0.0000 46.5325 0.0000
# 6 0.0000 0.0000 0.0000 0.0000 0.0000 32.2792
#
#
#
# Elastic Compliance Matrix: (Units=1/GPa)
#
#
# Indices 1 2 3 4 5 6 
#
# 1 0.017089 -0.005192 -0.004310 0.000000 0.000000 0.000000
# 2 -0.005192 0.008804 0.000911 0.000000 0.000000 0.000000
# 3 -0.004310 0.000911 0.011401 0.000000 0.000000 0.000000
# 4 0.000000 0.000000 0.000000 0.040978 0.000000 0.000000
# 5 0.000000 0.000000 0.000000 0.000000 0.021490 0.000000
# 6 0.000000 0.000000 0.000000 0.000000 0.000000 0.030980
#
#
# Mechanical properties :
#
#
# Convention : Reuss Voigt Hill
#
# Bulk Modulus (GPa) = 49.72347 51.56919 50.64633
# Shear Modulus (GPa) = 32.33562 36.58812 34.46187
#
# Velocity S-wave (km/s) = 3.60650 3.83632 3.72318
# Velocity P-wave (km/s) = 6.11093 6.35347 6.23338
#
# Compressibility (1/GPa) = 0.02011123
#
# Stress axis : x y z
#
# Youngs Moduli (GPa) = 58.51780 113.58724 87.70939
#
# Poissons Ratio (x) = 0.58972 0.37804
# Poissons Ratio (y) = 0.30381 -0.07987
# Poissons Ratio (z) = 0.25222 -0.10344
#
# Static dielectric constant tensor:
#      x y z
#    x 2.065120 0.000000 0.000000 
#    y 0.000000 1.986370 0.000000 
#    z 0.000000 0.000000 1.975530 
# 
# From -- ./inp_files/494.got.cif
#   From: 2010.05.17/outbox.cif.g08.bks.cpg/sg33_1_cif.got.tgz:494.got - 2010.06.03 17:15:25.
