data_PCOD9346528
_publ_section_title
;
Structure prediction by ZEFSAII (Michael W. Deem and Ramdas Pophale) SiO2 
 PCOD9346528
Probable space group: P N A 21
;
_chemical_formula_sum "Si O2"
_cell_formula_units_Z 24
_cell_length_a 11.633050
_cell_length_b 16.835106
_cell_length_c 5.019750
_cell_angle_alpha 90.000000
_cell_angle_beta 90.000000
_cell_angle_gamma 90.000000
_cell_volume 983.086061
_symmetry_space_group_name_H-M "P N A 21"
_symmetry_group_IT_number 33
_symmetry_cell_setting 'orthorhombic'
loop_
_space_group_symop_operation_xyz
x,y,z
-x,-y,1/2+z
1/2-x,1/2+y,1/2+z
1/2+x,1/2-y,z
loop_
_atom_site_type_symbol
_atom_site_label
_atom_site_fract_x
_atom_site_fract_y
_atom_site_fract_z
Si Si1 0.557277 0.035911 0.544920
Si Si2 0.885470 0.879815 0.862051
Si Si3 0.056861 0.712846 0.431240
Si Si4 0.126574 0.307722 0.319772
Si Si5 0.245593 0.575811 0.357711
Si Si6 0.885395 0.180210 0.432418
O O1 0.679549 0.002330 0.450302
O O2 0.467742 0.993253 0.342570
O O3 0.549482 0.129552 0.485360
O O4 0.841394 0.899211 0.569857
O O5 0.022291 0.889881 0.890291
O O6 0.869581 0.784474 0.907422
O O7 0.806073 0.924696 0.072686
O O8 0.924898 0.691524 0.517957
O O9 0.143725 0.641467 0.370783
O O10 0.091942 0.751832 0.712871
O O11 0.083967 0.780490 0.215535
O O12 0.254206 0.338434 0.375325
#
# Coordination Sequence:
#
# PCOD9346528 Si02
#       6
#     4   4   4   4   4   4
#     4  12  28  43  68 104 142 180 221 287 362 413
#     4  11  24  41  69  96 134 181 228 283 338 409
#     4  11  22  39  66  98 135 169 223 290 336 400
#     4  11  24  44  69 102 137 178 233 289 340 420
#     4  12  22  45  63  99 139 175 221 281 354 401
#     4  11  24  40  67 101 129 177 234 278 340 403
#
# _framework density 24.412921000000001
#
# number of rings (size 3 to 8) (size 9 to 14) (size 15 to 20)
#    0.000    0.667    5.000    3.000    4.667    2.667 
#    0.000    1.667    0.000    0.000    0.000    0.000 
#    0.000    0.000    0.000    0.000    0.000    0.000 
#
# Total GULP energy -134226.947548 kJ/mol
# GULP energy per Si atom -5592.789481 kJ/mol
# Density = 2.435736 g / cm^3
# Si number density = 24.412921 Si / 1000 Ang^3
#
#
#
# Elastic Constant Matrix: (Units=GPa)
#
#
# Indices 1 2 3 4 5 6 
#
# 1 131.6790 -13.0091 38.4630 0.0000 0.0000 0.0000
# 2 -13.0091 43.8943 -4.9168 0.0000 0.0000 0.0000
# 3 38.4630 -4.9168 86.3819 0.0000 0.0000 0.0000
# 4 0.0000 0.0000 0.0000 13.8674 0.0000 0.0000
# 5 0.0000 0.0000 0.0000 0.0000 24.6391 0.0000
# 6 0.0000 0.0000 0.0000 0.0000 0.0000 30.5475
#
#
#
# Elastic Compliance Matrix: (Units=1/GPa)
#
#
# Indices 1 2 3 4 5 6 
#
# 1 0.008939 0.002218 -0.003854 0.000000 0.000000 0.000000
# 2 0.002218 0.023478 0.000349 0.000000 0.000000 0.000000
# 3 -0.003854 0.000349 0.013312 0.000000 0.000000 0.000000
# 4 0.000000 0.000000 0.000000 0.072111 0.000000 0.000000
# 5 0.000000 0.000000 0.000000 0.000000 0.040586 0.000000
# 6 0.000000 0.000000 0.000000 0.000000 0.000000 0.032736
#
#
# Mechanical properties :
#
#
# Convention : Reuss Voigt Hill
#
# Bulk Modulus (GPa) = 23.17239 33.66994 28.42117
# Shear Modulus (GPa) = 24.02424 29.90533 26.96478
#
# Velocity S-wave (km/s) = 3.14041 3.50377 3.32705
# Velocity P-wave (km/s) = 4.76046 5.49457 5.14064
#
# Compressibility (1/GPa) = 0.04315480
#
# Stress axis : x y z
#
# Youngs Moduli (GPa) = 111.86846 42.59250 75.11766
#
# Poissons Ratio (x) = -0.09445 0.28951
# Poissons Ratio (y) = -0.24808 -0.02621
# Poissons Ratio (z) = 0.43115 -0.01486
#
# Static dielectric constant tensor:
#      x y z
#    x 2.107200 0.000000 0.000000 
#    y 0.000000 1.946700 0.000000 
#    z 0.000000 0.000000 1.903240 
# 
# From -- ./inp_files/872.got.cif
#   From: 2010.05.17/outbox.cif.g08.bks.cpg/sg33_1_cif.got.tgz:872.got - 2010.06.03 17:15:25.
