data_PCOD9346713
_publ_section_title
;
Structure prediction by ZEFSAII (Michael W. Deem and Ramdas Pophale) SiO2 
 PCOD9346713
Probable space group: P N A 21
;
_chemical_formula_sum "Si O2"
_cell_formula_units_Z 24
_cell_length_a 29.668395
_cell_length_b 5.105393
_cell_length_c 5.723468
_cell_angle_alpha 90.000000
_cell_angle_beta 90.000000
_cell_angle_gamma 90.000000
_cell_volume 866.926922
_symmetry_space_group_name_H-M "P N A 21"
_symmetry_group_IT_number 33
_symmetry_cell_setting 'orthorhombic'
loop_
_space_group_symop_operation_xyz
x,y,z
-x,-y,1/2+z
1/2-x,1/2+y,1/2+z
1/2+x,1/2-y,z
loop_
_atom_site_type_symbol
_atom_site_label
_atom_site_fract_x
_atom_site_fract_y
_atom_site_fract_z
Si Si1 0.056140 0.322059 0.597040
Si Si2 0.219960 0.511570 0.342336
Si Si3 0.860872 0.819094 0.848078
Si Si4 0.973873 0.177700 0.335691
Si Si5 0.692737 0.739932 0.838775
Si Si6 0.109260 0.685658 0.093933
O O1 0.108964 0.275688 0.564396
O O2 0.043626 0.621693 0.639775
O O3 0.026221 0.223414 0.379706
O O4 0.038092 0.122334 0.791924
O O5 0.192289 0.236115 0.356795
O O6 0.273935 0.506760 0.348700
O O7 0.204117 0.641024 0.585967
O O8 0.206981 0.620421 0.085346
O O9 0.879381 0.613253 0.653807
O O10 0.873431 0.114743 0.791042
O O11 0.943096 0.273302 0.550634
O O12 0.639358 0.719709 0.873537
#
# Coordination Sequence:
#
# PCOD9346713 Si02
#       6
#     4   4   4   4   4   4
#     4  12  24  41  65  95 132 178 228 288 349 418
#     4  11  24  43  69 103 141 185 235 290 352 418
#     4  11  24  44  67  98 134 177 228 288 349 418
#     4  12  24  41  65  95 132 178 228 288 349 418
#     4  11  24  43  69 103 141 185 235 290 352 418
#     4  11  24  44  67  98 134 177 228 288 349 418
#
# _framework density 27.683992
#
# number of rings (size 3 to 8) (size 9 to 14) (size 15 to 20)
#    0.000    0.667    0.000    8.000    0.000    6.667 
#    0.000    0.000    0.000    0.000    0.000    0.000 
#    0.000    0.000    0.000    0.000    0.000    0.000 
#
# Total GULP energy -134324.312559 kJ/mol
# GULP energy per Si atom -5596.846357 kJ/mol
# Density = 2.762098 g / cm^3
# Si number density = 27.683992 Si / 1000 Ang^3
#
#
#
# Elastic Constant Matrix: (Units=GPa)
#
#
# Indices 1 2 3 4 5 6 
#
# 1 78.5532 32.3206 23.8441 0.0000 0.0000 0.0000
# 2 32.3206 75.3642 49.6038 0.0000 0.0000 0.0000
# 3 23.8441 49.6038 139.9758 0.0000 0.0000 0.0000
# 4 0.0000 0.0000 0.0000 53.9192 0.0000 0.0000
# 5 0.0000 0.0000 0.0000 0.0000 58.9348 0.0000
# 6 0.0000 0.0000 0.0000 0.0000 0.0000 44.8979
#
#
#
# Elastic Compliance Matrix: (Units=1/GPa)
#
#
# Indices 1 2 3 4 5 6 
#
# 1 0.015473 -0.006392 -0.000371 0.000000 0.000000 0.000000
# 2 -0.006392 0.019946 -0.005979 0.000000 0.000000 0.000000
# 3 -0.000371 -0.005979 0.009326 0.000000 0.000000 0.000000
# 4 0.000000 0.000000 0.000000 0.018546 0.000000 0.000000
# 5 0.000000 0.000000 0.000000 0.000000 0.016968 0.000000
# 6 0.000000 0.000000 0.000000 0.000000 0.000000 0.022273
#
#
# Mechanical properties :
#
#
# Convention : Reuss Voigt Hill
#
# Bulk Modulus (GPa) = 51.91842 56.15892 54.03867
# Shear Modulus (GPa) = 37.19275 44.09202 40.64238
#
# Velocity S-wave (km/s) = 3.66932 3.99518 3.83571
# Velocity P-wave (km/s) = 6.06189 6.45071 6.25932
#
# Compressibility (1/GPa) = 0.01926099
#
# Stress axis : x y z
#
# Youngs Moduli (GPa) = 64.63071 50.13649 107.22499
#
# Poissons Ratio (x) = 0.32045 0.03974
# Poissons Ratio (y) = 0.41309 0.64114
# Poissons Ratio (z) = 0.02396 0.29979
#
# Static dielectric constant tensor:
#      x y z
#    x 2.134240 0.000000 0.000000 
#    y 0.000000 2.139840 0.000000 
#    z 0.000000 0.000000 2.218240 
# 
# From -- ./inp_files/2502.got.cif
#   From: 2010.05.17/outbox.cif.g08.bks.cpg/sg33_2_cif.got.tgz:2502.got - 2010.06.03 17:15:25.
