data_PCOD9346684
_publ_section_title
;
Structure prediction by ZEFSAII (Michael W. Deem and Ramdas Pophale) SiO2 
 PCOD9346684
Probable space group: P N A 21
;
_chemical_formula_sum "Si O2"
_cell_formula_units_Z 20
_cell_length_a 9.944592
_cell_length_b 5.410237
_cell_length_c 12.911685
_cell_angle_alpha 90.000000
_cell_angle_beta 90.000000
_cell_angle_gamma 90.000000
_cell_volume 694.682218
_symmetry_space_group_name_H-M "P N A 21"
_symmetry_group_IT_number 33
_symmetry_cell_setting 'orthorhombic'
loop_
_space_group_symop_operation_xyz
x,y,z
-x,-y,1/2+z
1/2-x,1/2+y,1/2+z
1/2+x,1/2-y,z
loop_
_atom_site_type_symbol
_atom_site_label
_atom_site_fract_x
_atom_site_fract_y
_atom_site_fract_z
Si Si1 0.412777 0.733642 0.142890
Si Si2 0.201177 0.731539 0.299390
Si Si3 0.791328 0.265261 0.042348
Si Si4 0.885727 0.377059 0.485191
Si Si5 0.628209 0.263266 0.339420
O O1 0.355707 0.748331 0.260901
O O2 0.357044 0.472334 0.098857
O O3 0.336691 0.982070 0.097090
O O4 0.559806 0.756038 0.091039
O O5 0.168458 0.708271 0.421748
O O6 0.151338 0.465147 0.263708
O O7 0.127179 0.985902 0.274411
O O8 0.639443 0.162618 0.019001
O O9 0.996782 0.290166 0.403996
O O10 0.752554 0.298995 0.420196
#
# Coordination Sequence:
#
# PCOD9346684 Si02
#       5
#     4   4   4   4   4
#     4  12  25  46  76 110 148 197 256 300 384 450
#     4  11  23  48  71 113 142 205 243 311 373 458
#     4  11  24  46  72 106 152 193 242 319 371 441
#     4  11  23  50  74 107 146 203 243 316 377 443
#     4  11  25  46  77 100 152 196 248 308 385 436
#
# _framework density 28.790141999999999
#
# number of rings (size 3 to 8) (size 9 to 14) (size 15 to 20)
#    0.000    0.800    6.000    1.200    0.000    9.600 
#   18.000    0.000    0.000    0.000    0.000    0.000 
#    0.000    0.000    0.000    0.000    0.000    0.000 
#
# Total GULP energy -111664.946238 kJ/mol
# GULP energy per Si atom -5583.247312 kJ/mol
# Density = 2.872461 g / cm^3
# Si number density = 28.790142 Si / 1000 Ang^3
#
#
#
# Elastic Constant Matrix: (Units=GPa)
#
#
# Indices 1 2 3 4 5 6 
#
# 1 134.1750 34.4156 11.8782 0.0000 0.0000 0.0000
# 2 34.4156 230.1780 24.1764 0.0000 0.0000 0.0000
# 3 11.8782 24.1764 118.1726 0.0000 0.0000 0.0000
# 4 0.0000 0.0000 0.0000 26.1134 0.0000 0.0000
# 5 0.0000 0.0000 0.0000 0.0000 55.3116 0.0000
# 6 0.0000 0.0000 0.0000 0.0000 0.0000 45.5176
#
#
#
# Elastic Compliance Matrix: (Units=1/GPa)
#
#
# Indices 1 2 3 4 5 6 
#
# 1 0.007786 -0.001106 -0.000556 0.000000 0.000000 0.000000
# 2 -0.001106 0.004597 -0.000829 0.000000 0.000000 0.000000
# 3 -0.000556 -0.000829 0.008688 0.000000 0.000000 0.000000
# 4 0.000000 0.000000 0.000000 0.038294 0.000000 0.000000
# 5 0.000000 0.000000 0.000000 0.000000 0.018079 0.000000
# 6 0.000000 0.000000 0.000000 0.000000 0.000000 0.021970
#
#
# Mechanical properties :
#
#
# Convention : Reuss Voigt Hill
#
# Bulk Modulus (GPa) = 62.15922 69.27402 65.71662
# Shear Modulus (GPa) = 45.55425 52.85887 49.20656
#
# Velocity S-wave (km/s) = 3.98211 4.28951 4.13867
# Velocity P-wave (km/s) = 6.54066 6.97475 6.76119
#
# Compressibility (1/GPa) = 0.01608772
#
# Stress axis : x y z
#
# Youngs Moduli (GPa) = 128.43871 217.53849 115.10403
#
# Poissons Ratio (x) = 0.24053 0.06404
# Poissons Ratio (y) = 0.14201 0.09546
# Poissons Ratio (z) = 0.07146 0.18041
#
# Static dielectric constant tensor:
#      x y z
#    x 2.326840 0.000000 0.000000 
#    y 0.000000 2.385400 0.000000 
#    z 0.000000 0.000000 2.259880 
# 
# From -- ./inp_files/7796.got.cif
#   From: 2010.05.17/outbox.cif.g08.bks.cpg/sg33_4_cif.got.tgz:7796.got - 2010.06.03 17:15:25.
