data_PCOD9346375
_publ_section_title
;
Structure prediction by ZEFSAII (Michael W. Deem and Ramdas Pophale) SiO2 
 PCOD9346375
Probable space group: P N A 21
;
_chemical_formula_sum "Si O2"
_cell_formula_units_Z 16
_cell_length_a 5.434088
_cell_length_b 20.572442
_cell_length_c 4.906879
_cell_angle_alpha 90.000000
_cell_angle_beta 90.000000
_cell_angle_gamma 90.000000
_cell_volume 548.552075
_symmetry_space_group_name_H-M "P N A 21"
_symmetry_group_IT_number 33
_symmetry_cell_setting 'orthorhombic'
loop_
_space_group_symop_operation_xyz
x,y,z
-x,-y,1/2+z
1/2-x,1/2+y,1/2+z
1/2+x,1/2-y,z
loop_
_atom_site_type_symbol
_atom_site_label
_atom_site_fract_x
_atom_site_fract_y
_atom_site_fract_z
Si Si1 0.342681 0.647534 0.602550
Si Si2 0.849839 0.612444 0.283804
Si Si3 0.671455 0.230447 0.488380
Si Si4 0.351297 0.516939 0.895505
O O1 0.599469 0.632386 0.447666
O O2 0.337641 0.719838 0.733208
O O3 0.315997 0.592465 0.837870
O O4 0.099974 0.634932 0.425546
O O5 0.845181 0.534575 0.280142
O O6 0.829733 0.652495 0.999545
O O7 0.421983 0.250646 0.634761
O O8 0.586149 0.497276 0.707174
#
# Coordination Sequence:
#
# PCOD9346375 Si02
#       4
#     4   4   4   4
#     4  11  26  47  75 109 150 200 254 313 380 453
#     4  11  26  47  75 109 150 200 254 313 380 453
#     4  12  26  44  70 104 146 192 246 306 374 444
#     4  10  24  50  80 112 152 200 256 316 380 454
#
# _framework density 29.167691999999999
#
# number of rings (size 3 to 8) (size 9 to 14) (size 15 to 20)
#    0.000    1.000    0.000    4.500    0.000   20.000 
#    0.000    2.500    0.000    0.000    0.000    0.000 
#    0.000    0.000    0.000    0.000    0.000    0.000 
#
# Total GULP energy -89618.486618 kJ/mol
# GULP energy per Si atom -5601.155414 kJ/mol
# Density = 2.910131 g / cm^3
# Si number density = 29.167692 Si / 1000 Ang^3
#
#
#
# Elastic Constant Matrix: (Units=GPa)
#
#
# Indices 1 2 3 4 5 6 
#
# 1 232.7505 76.8202 47.8074 0.0000 0.0000 0.0000
# 2 76.8202 140.2645 80.2488 0.0000 0.0000 0.0000
# 3 47.8074 80.2488 110.7833 0.0000 0.0000 0.0000
# 4 0.0000 0.0000 0.0000 72.8115 0.0000 0.0000
# 5 0.0000 0.0000 0.0000 0.0000 -4.6574 0.0000
# 6 0.0000 0.0000 0.0000 0.0000 0.0000 54.7455
#
#
#
# Elastic Compliance Matrix: (Units=1/GPa)
#
#
# Indices 1 2 3 4 5 6 
#
# 1 0.005251 -0.002697 -0.000312 0.000000 0.000000 0.000000
# 2 -0.002697 0.013561 -0.008659 0.000000 0.000000 0.000000
# 3 -0.000312 -0.008659 0.015434 0.000000 0.000000 0.000000
# 4 0.000000 0.000000 0.000000 0.013734 0.000000 0.000000
# 5 0.000000 0.000000 0.000000 0.000000 -0.214713 0.000000
# 6 0.000000 0.000000 0.000000 0.000000 0.000000 0.018266
#
#
# Mechanical properties :
#
#
# Convention : Reuss Voigt Hill
#
# Bulk Modulus (GPa) = 91.67250 99.28345 95.47798
# Shear Modulus (GPa) = -41.15428 43.17472 1.01022
#
# Velocity S-wave (km/s) = -3.76034 3.85154 0.58915
# Velocity P-wave (km/s) = 3.55586 7.34111 5.76784
#
# Compressibility (1/GPa) = 0.01090840
#
# Stress axis : x y z
#
# Youngs Moduli (GPa) = 190.44826 73.74281 64.79296
#
# Poissons Ratio (x) = 0.19890 0.02023
# Poissons Ratio (y) = 0.51367 0.56105
# Poissons Ratio (z) = 0.05945 0.63855
#
# Static dielectric constant tensor:
#      x y z
#    x 2.278510 0.000000 0.000000 
#    y 0.000000 2.262740 0.000000 
#    z 0.000000 0.000000 2.186730 
# 
# From -- ./inp_files/118.got.cif
#   From: 2010.05.17/outbox.cif.g08.bks.cpg/sg33_1_cif.got.tgz:118.got - 2010.06.03 17:15:25.
