data_PCOD9346294
_publ_section_title
;
Structure prediction by ZEFSAII (Michael W. Deem and Ramdas Pophale) SiO2 
 PCOD9346294
Probable space group: P N A 21
;
_chemical_formula_sum "Si O2"
_cell_formula_units_Z 16
_cell_length_a 9.994176
_cell_length_b 8.640726
_cell_length_c 7.476145
_cell_angle_alpha 90.000000
_cell_angle_beta 90.000000
_cell_angle_gamma 90.000000
_cell_volume 645.616978
_symmetry_space_group_name_H-M "P N A 21"
_symmetry_group_IT_number 33
_symmetry_cell_setting 'orthorhombic'
loop_
_space_group_symop_operation_xyz
x,y,z
-x,-y,1/2+z
1/2-x,1/2+y,1/2+z
1/2+x,1/2-y,z
loop_
_atom_site_type_symbol
_atom_site_label
_atom_site_fract_x
_atom_site_fract_y
_atom_site_fract_z
Si Si1 0.000622 0.880497 0.159040
Si Si2 0.081982 0.344981 0.952578
Si Si3 0.522828 0.142901 0.356689
Si Si4 0.789817 0.953803 0.431873
O O1 0.008508 0.738554 0.300409
O O2 0.881692 0.976350 0.252811
O O3 0.966085 0.794740 0.974804
O O4 0.129938 0.977849 0.102738
O O5 0.019155 0.330078 0.147453
O O6 0.210186 0.232208 0.952396
O O7 0.097112 0.525774 0.910190
O O8 0.653618 0.042412 0.405419
#
# Coordination Sequence:
#
# PCOD9346294 Si02
#       4
#     4   4   4   4
#     4  10  24  45  66 104 138 177 235 288 328 426
#     4  10  24  44  68 102 138 175 239 282 332 426
#     4  12  23  47  70 100 141 186 224 294 348 407
#     4  10  25  44  70  98 139 182 228 284 352 399
#
# _framework density 24.782495000000001
#
# number of rings (size 3 to 8) (size 9 to 14) (size 15 to 20)
#    1.500    0.000    2.500    1.500    3.500    4.000 
#    9.000    0.000    0.000    0.000    0.000    0.000 
#    0.000    0.000    0.000    0.000    0.000    0.000 
#
# Total GULP energy -89315.913991 kJ/mol
# GULP energy per Si atom -5582.244624 kJ/mol
# Density = 2.472609 g / cm^3
# Si number density = 24.782495 Si / 1000 Ang^3
#
#
#
# Elastic Constant Matrix: (Units=GPa)
#
#
# Indices 1 2 3 4 5 6 
#
# 1 49.4491 13.0137 -10.0158 0.0000 0.0000 0.0000
# 2 13.0137 38.8871 -7.0208 0.0000 0.0000 0.0000
# 3 -10.0158 -7.0208 138.6206 0.0000 0.0000 0.0000
# 4 0.0000 0.0000 0.0000 61.0493 0.0000 0.0000
# 5 0.0000 0.0000 0.0000 0.0000 23.3591 0.0000
# 6 0.0000 0.0000 0.0000 0.0000 0.0000 132.0906
#
#
#
# Elastic Compliance Matrix: (Units=1/GPa)
#
#
# Indices 1 2 3 4 5 6 
#
# 1 0.022388 -0.007267 0.001250 0.000000 0.000000 0.000000
# 2 -0.007267 0.028311 0.000909 0.000000 0.000000 0.000000
# 3 0.001250 0.000909 0.007350 0.000000 0.000000 0.000000
# 4 0.000000 0.000000 0.000000 0.016380 0.000000 0.000000
# 5 0.000000 0.000000 0.000000 0.000000 0.042810 0.000000
# 6 0.000000 0.000000 0.000000 0.000000 0.000000 0.007571
#
#
# Mechanical properties :
#
#
# Convention : Reuss Voigt Hill
#
# Bulk Modulus (GPa) = 20.90589 24.32345 22.61467
# Shear Modulus (GPa) = 33.11882 58.69846 45.90864
#
# Velocity S-wave (km/s) = 3.65962 4.87205 4.30869
# Velocity P-wave (km/s) = 5.12944 6.44090 5.82222
#
# Compressibility (1/GPa) = 0.04783340
#
# Stress axis : x y z
#
# Youngs Moduli (GPa) = 44.66619 35.32150 136.04975
#
# Poissons Ratio (x) = 0.25667 -0.17000
# Poissons Ratio (y) = 0.32458 -0.12365
# Poissons Ratio (z) = -0.05581 -0.03210
#
# Static dielectric constant tensor:
#      x y z
#    x 2.020920 0.000000 0.000000 
#    y 0.000000 2.011770 0.000000 
#    z 0.000000 0.000000 1.913860 
# 
# From -- ./inp_files/3621.got.cif
#   From: 2010.05.17/outbox.cif.g08.bks.cpg/sg33_2_cif.got.tgz:3621.got - 2010.06.03 17:15:25.
