data_PCOD9346951
_publ_section_title
;
Structure prediction by ZEFSAII (Michael W. Deem and Ramdas Pophale) SiO2 
 PCOD9346951
Probable space group: P N A 21
;
_chemical_formula_sum "Si O2"
_cell_formula_units_Z 32
_cell_length_a 13.927422
_cell_length_b 8.667297
_cell_length_c 11.981574
_cell_angle_alpha 90.000000
_cell_angle_beta 90.000000
_cell_angle_gamma 90.000000
_cell_volume 1446.332975
_symmetry_space_group_name_H-M "P N A 21"
_symmetry_group_IT_number 33
_symmetry_cell_setting 'orthorhombic'
loop_
_space_group_symop_operation_xyz
x,y,z
-x,-y,1/2+z
1/2-x,1/2+y,1/2+z
1/2+x,1/2-y,z
loop_
_atom_site_type_symbol
_atom_site_label
_atom_site_fract_x
_atom_site_fract_y
_atom_site_fract_z
Si Si1 0.088210 0.345053 0.143190
Si Si2 0.715971 0.454855 0.115173
Si Si3 0.769649 0.994709 0.219840
Si Si4 0.706182 0.691837 0.323437
Si Si5 0.821361 0.942358 0.987931
Si Si6 0.410321 0.097088 0.988410
Si Si7 0.468762 0.777037 0.886108
Si Si8 0.677046 0.683566 0.930591
O O1 0.159507 0.201971 0.131282
O O2 0.161688 0.485277 0.170130
O O3 0.030081 0.306460 0.255067
O O4 0.012331 0.365699 0.044523
O O5 0.698755 0.575085 0.217418
O O6 0.826037 0.413607 0.082055
O O7 0.672402 0.533330 0.005750
O O8 0.773381 0.830949 0.282783
O O9 0.790357 0.129737 0.307728
O O10 0.839914 0.994850 0.113812
O O11 0.734935 0.575525 0.422055
O O12 0.619867 0.784671 0.388653
O O13 0.913654 0.880209 0.920932
O O14 0.753374 0.794574 0.987839
O O15 0.416661 0.925224 0.938390
O O16 0.576133 0.766397 0.928069
#
# Coordination Sequence:
#
# PCOD9346951 Si02
#       8
#     4   4   4   4   4   4   4   4
#     4  12  27  46  74 107 154 198 251 319 379 454
#     4  12  25  50  76 109 156 202 253 321 386 459
#     4  12  24  50  74 108 151 198 250 316 377 457
#     4  12  24  45  77 108 148 196 252 309 382 453
#     4  12  25  48  74 105 151 196 247 316 374 451
#     4  12  27  50  74 112 151 202 262 314 385 466
#     4  12  26  48  72 106 152 193 255 314 384 460
#     4  12  26  47  75 107 151 205 248 317 393 450
#
# _framework density 22.124918999999998
#
# number of rings (size 3 to 8) (size 9 to 14) (size 15 to 20)
#    0.000    0.000    7.500    1.500    7.000    0.000 
#    0.000    1.250    0.000    0.000    0.000    0.000 
#    0.000    0.000    0.000    0.000    0.000    0.000 
#
# Total GULP energy -178821.599079 kJ/mol
# GULP energy per Si atom -5588.174971 kJ/mol
# Density = 2.207456 g / cm^3
# Si number density = 22.124919 Si / 1000 Ang^3
#
#
#
# Elastic Constant Matrix: (Units=GPa)
#
#
# Indices 1 2 3 4 5 6 
#
# 1 55.3287 12.0688 8.4384 0.0000 0.0000 0.0000
# 2 12.0688 91.7988 34.8805 0.0000 0.0000 0.0000
# 3 8.4384 34.8805 111.3658 0.0000 0.0000 0.0000
# 4 0.0000 0.0000 0.0000 47.3768 0.0000 0.0000
# 5 0.0000 0.0000 0.0000 0.0000 40.2634 0.0000
# 6 0.0000 0.0000 0.0000 0.0000 0.0000 21.8537
#
#
#
# Elastic Compliance Matrix: (Units=1/GPa)
#
#
# Indices 1 2 3 4 5 6 
#
# 1 0.018660 -0.002175 -0.000733 0.000000 0.000000 0.000000
# 2 -0.002175 0.012618 -0.003787 0.000000 0.000000 0.000000
# 3 -0.000733 -0.003787 0.010221 0.000000 0.000000 0.000000
# 4 0.000000 0.000000 0.000000 0.021107 0.000000 0.000000
# 5 0.000000 0.000000 0.000000 0.000000 0.024836 0.000000
# 6 0.000000 0.000000 0.000000 0.000000 0.000000 0.045759
#
#
# Mechanical properties :
#
#
# Convention : Reuss Voigt Hill
#
# Bulk Modulus (GPa) = 35.57497 41.02987 38.30242
# Shear Modulus (GPa) = 32.05912 35.43915 33.74913
#
# Velocity S-wave (km/s) = 3.81071 4.00656 3.90986
# Velocity P-wave (km/s) = 5.95618 6.32363 6.14265
#
# Compressibility (1/GPa) = 0.02810965
#
# Stress axis : x y z
#
# Youngs Moduli (GPa) = 53.59073 79.24943 97.83619
#
# Poissons Ratio (x) = 0.17235 0.07169
# Poissons Ratio (y) = 0.11655 0.37054
# Poissons Ratio (z) = 0.03927 0.30015
#
# Static dielectric constant tensor:
#      x y z
#    x 1.806350 0.000000 0.000000 
#    y 0.000000 1.806830 0.000000 
#    z 0.000000 0.000000 1.833210 
# 
# From -- ./inp_files/6756.got.cif
#   From: 2010.05.17/outbox.cif.g08.bks.cpg/sg33_4_cif.got.tgz:6756.got - 2010.06.03 17:15:25.
