data_PCOD9346160
_publ_section_title
;
Structure prediction by ZEFSAII (Michael W. Deem and Ramdas Pophale) SiO2 
 PCOD9346160
Probable space group: P N A 21
;
_chemical_formula_sum "Si O2"
_cell_formula_units_Z 28
_cell_length_a 12.025715
_cell_length_b 18.771348
_cell_length_c 5.408038
_cell_angle_alpha 90.000000
_cell_angle_beta 90.000000
_cell_angle_gamma 90.000000
_cell_volume 1220.804448
_symmetry_space_group_name_H-M "P N A 21"
_symmetry_group_IT_number 33
_symmetry_cell_setting 'orthorhombic'
loop_
_space_group_symop_operation_xyz
x,y,z
-x,-y,1/2+z
1/2-x,1/2+y,1/2+z
1/2+x,1/2-y,z
loop_
_atom_site_type_symbol
_atom_site_label
_atom_site_fract_x
_atom_site_fract_y
_atom_site_fract_z
Si Si1 0.568892 0.987081 0.672970
Si Si2 0.356370 0.154224 0.977996
Si Si3 0.660538 0.343190 0.639444
Si Si4 0.759236 0.727626 0.763392
Si Si5 0.244784 0.894915 0.109375
Si Si6 0.010778 0.958679 0.119067
Si Si7 0.081655 0.293266 0.876806
O O1 0.670870 0.038815 0.599164
O O2 0.482625 0.993728 0.441147
O O3 0.611329 0.905512 0.676581
O O4 0.319873 0.232837 0.068338
O O5 0.468201 0.167109 0.823791
O O6 0.252079 0.125906 0.824745
O O7 0.726928 0.291650 0.456899
O O8 0.583503 0.403367 0.530061
O O9 0.581721 0.286805 0.779664
O O10 0.884166 0.713058 0.663001
O O11 0.719867 0.652181 0.864986
O O12 0.126043 0.921536 0.198630
O O13 0.315002 0.837808 0.268758
O O14 0.967371 0.994740 0.372905
#
# Coordination Sequence:
#
# PCOD9346160 Si02
#       7
#     4   4   4   4   4   4   4
#     4  12  27  46  75 109 153 194 248 311 378 449
#     4  11  24  44  75 106 148 190 250 308 376 439
#     4  10  26  44  71 107 142 194 249 301 370 440
#     4  10  25  42  73 106 147 192 248 315 367 448
#     4  11  26  47  72 108 148 197 249 308 380 437
#     4  12  31  50  77 105 153 201 246 301 369 459
#     4  10  23  45  71 109 141 188 248 312 370 436
#
# _framework density 22.935693000000001
#
# number of rings (size 3 to 8) (size 9 to 14) (size 15 to 20)
#    0.000    1.143    1.429    1.714   18.000    1.143 
#    0.000    0.000    0.000    0.000    0.000    0.000 
#    0.000    0.000    0.000    0.000    0.000    0.000 
#
# Total GULP energy -156285.370859 kJ/mol
# GULP energy per Si atom -5581.620388 kJ/mol
# Density = 2.288349 g / cm^3
# Si number density = 22.935693 Si / 1000 Ang^3
#
#
#
# Elastic Constant Matrix: (Units=GPa)
#
#
# Indices 1 2 3 4 5 6 
#
# 1 71.4958 30.3207 -0.4579 0.0000 0.0000 0.0000
# 2 30.3207 74.4596 5.0639 0.0000 0.0000 0.0000
# 3 -0.4579 5.0639 42.0398 0.0000 0.0000 0.0000
# 4 0.0000 0.0000 0.0000 28.2652 0.0000 0.0000
# 5 0.0000 0.0000 0.0000 0.0000 14.8302 0.0000
# 6 0.0000 0.0000 0.0000 0.0000 0.0000 34.4003
#
#
#
# Elastic Compliance Matrix: (Units=1/GPa)
#
#
# Indices 1 2 3 4 5 6 
#
# 1 0.016950 -0.006972 0.001024 0.000000 0.000000 0.000000
# 2 -0.006972 0.016409 -0.002052 0.000000 0.000000 0.000000
# 3 0.001024 -0.002052 0.024045 0.000000 0.000000 0.000000
# 4 0.000000 0.000000 0.000000 0.035379 0.000000 0.000000
# 5 0.000000 0.000000 0.000000 0.000000 0.067430 0.000000
# 6 0.000000 0.000000 0.000000 0.000000 0.000000 0.029070
#
#
# Mechanical properties :
#
#
# Convention : Reuss Voigt Hill
#
# Bulk Modulus (GPa) = 24.15209 28.64985 26.40097
# Shear Modulus (GPa) = 22.82227 25.70371 24.26299
#
# Velocity S-wave (km/s) = 3.15787 3.35130 3.25602
# Velocity P-wave (km/s) = 4.88359 5.24342 5.06670
#
# Compressibility (1/GPa) = 0.04140428
#
# Stress axis : x y z
#
# Youngs Moduli (GPa) = 58.99659 60.94320 41.58808
#
# Poissons Ratio (x) = 0.42489 -0.04260
# Poissons Ratio (y) = 0.41132 0.08536
# Poissons Ratio (z) = -0.06044 0.12508
#
# Static dielectric constant tensor:
#      x y z
#    x 1.845220 0.000000 0.000000 
#    y 0.000000 1.856360 0.000000 
#    z 0.000000 0.000000 2.036610 
# 
# From -- ./inp_files/893.got.cif
#   From: 2010.05.17/outbox.cif.g08.bks.cpg/sg33_1_cif.got.tgz:893.got - 2010.06.03 17:15:25.
