data_PCOD9346815
_publ_section_title
;
Structure prediction by ZEFSAII (Michael W. Deem and Ramdas Pophale) SiO2 
 PCOD9346815
Probable space group: P N A 21
;
_chemical_formula_sum "Si O2"
_cell_formula_units_Z 32
_cell_length_a 12.744159
_cell_length_b 19.722573
_cell_length_c 6.064677
_cell_angle_alpha 90.000000
_cell_angle_beta 90.000000
_cell_angle_gamma 90.000000
_cell_volume 1524.342046
_symmetry_space_group_name_H-M "P N A 21"
_symmetry_group_IT_number 33
_symmetry_cell_setting 'orthorhombic'
loop_
_space_group_symop_operation_xyz
x,y,z
-x,-y,1/2+z
1/2-x,1/2+y,1/2+z
1/2+x,1/2-y,z
loop_
_atom_site_type_symbol
_atom_site_label
_atom_site_fract_x
_atom_site_fract_y
_atom_site_fract_z
Si Si1 0.293212 0.631481 0.684570
Si Si2 0.303774 0.231673 0.856664
Si Si3 0.190801 0.857624 0.685761
Si Si4 0.403065 0.058972 0.375470
Si Si5 0.909345 0.588094 0.539223
Si Si6 0.998221 0.334331 0.665317
Si Si7 0.996474 0.961574 0.653134
Si Si8 0.321724 0.764457 0.960195
O O1 0.220633 0.663860 0.494425
O O2 0.209946 0.590926 0.830836
O O3 0.389182 0.582034 0.629502
O O4 0.333173 0.699842 0.804225
O O5 0.407139 0.218064 0.715711
O O6 0.203580 0.238470 0.701762
O O7 0.319268 0.299310 0.999575
O O8 0.298096 0.899410 0.652643
O O9 0.093307 0.908644 0.683005
O O10 0.222466 0.811611 0.896181
O O11 0.445863 0.095199 0.594308
O O12 0.394549 0.979308 0.396991
O O13 0.490173 0.075979 0.192407
O O14 0.934630 0.650988 0.381876
O O15 0.072881 0.307613 0.472216
O O16 0.008729 0.999476 0.403413
#
# Coordination Sequence:
#
# PCOD9346815 Si02
#       8
#     4   4   4   4   4   4   4   4
#     4  11  27  46  71 106 147 188 252 304 378 447
#     4  11  25  42  72 106 141 190 237 317 376 444
#     4  11  27  46  71 106 147 188 252 304 378 447
#     4  12  24  42  66 102 136 182 227 296 362 435
#     4  12  24  42  66 102 136 182 227 296 362 435
#     4  12  24  41  70 103 146 176 244 298 382 450
#     4  12  32  53  80 111 152 214 260 310 374 460
#     4  11  25  42  72 106 141 190 237 317 376 444
#
# _framework density 20.992666
#
# number of rings (size 3 to 8) (size 9 to 14) (size 15 to 20)
#    0.000    0.500    6.250    0.750    7.000    3.000 
#    0.000    0.000    0.000    0.000    0.000    0.000 
#    0.000    0.000    0.000    0.000    0.000    0.000 
#
# Total GULP energy -178434.845488 kJ/mol
# GULP energy per Si atom -5576.088922 kJ/mol
# Density = 2.094489 g / cm^3
# Si number density = 20.992666 Si / 1000 Ang^3
#
#
#
# Elastic Constant Matrix: (Units=GPa)
#
#
# Indices 1 2 3 4 5 6 
#
# 1 87.2801 31.7169 9.3999 0.0000 0.0000 0.0000
# 2 31.7169 84.6545 24.6528 0.0000 0.0000 0.0000
# 3 9.3999 24.6528 55.9413 0.0000 0.0000 0.0000
# 4 0.0000 0.0000 0.0000 25.6110 0.0000 0.0000
# 5 0.0000 0.0000 0.0000 0.0000 32.4159 0.0000
# 6 0.0000 0.0000 0.0000 0.0000 0.0000 44.9549
#
#
#
# Elastic Compliance Matrix: (Units=1/GPa)
#
#
# Indices 1 2 3 4 5 6 
#
# 1 0.013263 -0.004956 -0.000044 0.000000 0.000000 0.000000
# 2 -0.004956 0.015404 -0.005956 0.000000 0.000000 0.000000
# 3 -0.000044 -0.005956 0.020508 0.000000 0.000000 0.000000
# 4 0.000000 0.000000 0.000000 0.039046 0.000000 0.000000
# 5 0.000000 0.000000 0.000000 0.000000 0.030849 0.000000
# 6 0.000000 0.000000 0.000000 0.000000 0.000000 0.022245
#
#
# Mechanical properties :
#
#
# Convention : Reuss Voigt Hill
#
# Bulk Modulus (GPa) = 36.68043 39.93503 38.30773
# Shear Modulus (GPa) = 29.01667 31.40343 30.21005
#
# Velocity S-wave (km/s) = 3.72187 3.87191 3.79763
# Velocity P-wave (km/s) = 5.99839 6.24929 6.12512
#
# Compressibility (1/GPa) = 0.02726250
#
# Stress axis : x y z
#
# Youngs Moduli (GPa) = 75.39647 64.91807 48.76157
#
# Poissons Ratio (x) = 0.32175 0.00217
# Poissons Ratio (y) = 0.37369 0.29040
# Poissons Ratio (z) = 0.00335 0.38663
#
# Static dielectric constant tensor:
#      x y z
#    x 1.765620 0.000000 0.000000 
#    y 0.000000 1.744700 0.000000 
#    z 0.000000 0.000000 1.814080 
# 
# From -- ./inp_files/1007.got.cif
#   From: 2010.05.17/outbox.cif.g08.bks.cpg/sg33_1_cif.got.tgz:1007.got - 2010.06.03 17:15:25.
