data_PCOD9346630
_publ_section_title
;
Structure prediction by ZEFSAII (Michael W. Deem and Ramdas Pophale) SiO2 
 PCOD9346630
Probable space group: P N A 21
;
_chemical_formula_sum "Si O2"
_cell_formula_units_Z 32
_cell_length_a 8.482344
_cell_length_b 12.192705
_cell_length_c 14.184054
_cell_angle_alpha 90.000000
_cell_angle_beta 90.000000
_cell_angle_gamma 90.000000
_cell_volume 1466.953418
_symmetry_space_group_name_H-M "P N A 21"
_symmetry_group_IT_number 33
_symmetry_cell_setting 'orthorhombic'
loop_
_space_group_symop_operation_xyz
x,y,z
-x,-y,1/2+z
1/2-x,1/2+y,1/2+z
1/2+x,1/2-y,z
loop_
_atom_site_type_symbol
_atom_site_label
_atom_site_fract_x
_atom_site_fract_y
_atom_site_fract_z
Si Si1 0.659692 0.289376 0.426420
Si Si2 0.329454 0.010741 0.348130
Si Si3 0.349098 0.596028 0.355699
Si Si4 0.152467 0.797030 0.635369
Si Si5 0.550086 0.495971 0.195325
Si Si6 0.820566 0.202101 0.918693
Si Si7 0.344997 0.401788 0.501884
Si Si8 0.554054 0.144440 0.249401
O O1 0.793718 0.381822 0.411609
O O2 0.505544 0.352339 0.459276
O O3 0.717173 0.194273 0.495686
O O4 0.617107 0.226618 0.329849
O O5 0.495465 0.032668 0.297446
O O6 0.188764 0.014036 0.271377
O O7 0.304251 0.896898 0.401992
O O8 0.404107 0.546653 0.255347
O O9 0.223687 0.693872 0.355407
O O10 0.509287 0.652218 0.395413
O O11 0.303765 0.501439 0.430807
O O12 0.177978 0.764996 0.527921
O O13 0.308102 0.856680 0.673526
O O14 0.099722 0.695489 0.699345
O O15 0.009819 0.882366 0.650815
O O16 0.616360 0.563454 0.107573
#
# Coordination Sequence:
#
# PCOD9346630 Si02
#       8
#     4   4   4   4   4   4   4   4
#     4  12  21  44  68  96 136 174 225 289 345 394
#     4  11  23  44  64  97 135 181 225 285 340 401
#     4  11  24  45  66  96 140 182 221 279 347 407
#     4  12  21  40  67 104 129 176 235 287 333 412
#     4  11  23  45  69  93 137 183 227 276 351 406
#     4  11  25  43  65  93 145 177 217 279 347 410
#     4  12  25  43  71 102 133 183 227 292 345 408
#     4  12  22  36  72  99 131 172 237 289 338 396
#
# _framework density 21.813917
#
# number of rings (size 3 to 8) (size 9 to 14) (size 15 to 20)
#    0.000    0.500    7.500    1.500    1.750    4.000 
#    2.250    1.250    0.000    0.000    0.000    0.000 
#    0.000    0.000    0.000    0.000    0.000    0.000 
#
# Total GULP energy -178998.505357 kJ/mol
# GULP energy per Si atom -5593.703292 kJ/mol
# Density = 2.176427 g / cm^3
# Si number density = 21.813917 Si / 1000 Ang^3
#
#
#
# Elastic Constant Matrix: (Units=GPa)
#
#
# Indices 1 2 3 4 5 6 
#
# 1 28.7367 -10.6371 -8.7267 0.0000 0.0000 0.0000
# 2 -10.6371 95.0353 22.7772 0.0000 0.0000 0.0000
# 3 -8.7267 22.7772 74.7499 0.0000 0.0000 0.0000
# 4 0.0000 0.0000 0.0000 28.8167 0.0000 0.0000
# 5 0.0000 0.0000 0.0000 0.0000 26.6254 0.0000
# 6 0.0000 0.0000 0.0000 0.0000 0.0000 3.8726
#
#
#
# Elastic Compliance Matrix: (Units=1/GPa)
#
#
# Indices 1 2 3 4 5 6 
#
# 1 0.037043 0.003355 0.003302 0.000000 0.000000 0.000000
# 2 0.003355 0.011655 -0.003160 0.000000 0.000000 0.000000
# 3 0.003302 -0.003160 0.014726 0.000000 0.000000 0.000000
# 4 0.000000 0.000000 0.000000 0.034702 0.000000 0.000000
# 5 0.000000 0.000000 0.000000 0.000000 0.037558 0.000000
# 6 0.000000 0.000000 0.000000 0.000000 0.000000 0.258223
#
#
# Mechanical properties :
#
#
# Convention : Reuss Voigt Hill
#
# Bulk Modulus (GPa) = 14.20062 22.81653 18.50858
# Shear Modulus (GPa) = 12.18364 24.87019 18.52692
#
# Velocity S-wave (km/s) = 2.36588 3.38021 2.91746
# Velocity P-wave (km/s) = 3.73995 5.07117 4.45556
#
# Compressibility (1/GPa) = 0.07041944
#
# Stress axis : x y z
#
# Youngs Moduli (GPa) = 26.99539 85.79852 67.90558
#
# Poissons Ratio (x) = -0.28783 -0.22425
# Poissons Ratio (y) = -0.09056 0.21457
# Poissons Ratio (z) = -0.08915 0.27111
#
# Static dielectric constant tensor:
#      x y z
#    x 1.830190 0.000000 0.000000 
#    y 0.000000 1.799630 0.000000 
#    z 0.000000 0.000000 1.790650 
# 
# From -- ./inp_files/7633.got.cif
#   From: 2010.05.17/outbox.cif.g08.bks.cpg/sg33_4_cif.got.tgz:7633.got - 2010.06.03 17:15:25.
