data_PCOD9346781
_publ_section_title
;
Structure prediction by ZEFSAII (Michael W. Deem and Ramdas Pophale) SiO2 
 PCOD9346781
Probable space group: P N A 21
;
_chemical_formula_sum "Si O2"
_cell_formula_units_Z 28
_cell_length_a 9.970061
_cell_length_b 10.122575
_cell_length_c 10.968717
_cell_angle_alpha 90.000000
_cell_angle_beta 90.000000
_cell_angle_gamma 90.000000
_cell_volume 1106.992428
_symmetry_space_group_name_H-M "P N A 21"
_symmetry_group_IT_number 33
_symmetry_cell_setting 'orthorhombic'
loop_
_space_group_symop_operation_xyz
x,y,z
-x,-y,1/2+z
1/2-x,1/2+y,1/2+z
1/2+x,1/2-y,z
loop_
_atom_site_type_symbol
_atom_site_label
_atom_site_fract_x
_atom_site_fract_y
_atom_site_fract_z
Si Si1 0.907979 0.759909 0.254360
Si Si2 0.067870 0.502869 0.310709
Si Si3 0.746380 0.357066 0.995010
Si Si4 0.517296 0.276676 0.372423
Si Si5 0.762929 0.063928 0.095874
Si Si6 0.452467 0.502938 0.667615
Si Si7 0.219161 0.705113 0.022092
O O1 0.845747 0.811508 0.380719
O O2 0.530182 0.639875 0.226593
O O3 0.791983 0.768365 0.151454
O O4 0.972566 0.615753 0.256714
O O5 0.127205 0.567596 0.434890
O O6 0.196763 0.463727 0.227337
O O7 0.988225 0.365731 0.314317
O O8 0.764585 0.216639 0.062174
O O9 0.675082 0.453183 0.091229
O O10 0.518844 0.391950 0.275147
O O11 0.665238 0.264641 0.425995
O O12 0.409452 0.287614 0.480602
O O13 0.916291 0.018946 0.083613
O O14 0.686105 0.952456 0.017162
#
# Coordination Sequence:
#
# PCOD9346781 Si02
#       7
#     4   4   4   4   4   4   4
#     4  11  27  47  77 112 153 207 268 336 406 493
#     4  12  25  50  75 116 159 205 275 333 419 485
#     4  12  25  48  77 108 163 208 265 345 404 497
#     4  12  27  49  77 114 156 207 264 338 398 495
#     4  11  24  47  72 113 154 205 267 333 405 494
#     4  11  26  48  76 109 152 209 270 325 418 484
#     4  11  26  47  78 110 161 201 267 328 408 482
#
# _framework density 25.293756999999999
#
# number of rings (size 3 to 8) (size 9 to 14) (size 15 to 20)
#    0.000    0.571    4.286    3.429    6.000    1.143 
#    2.571    0.000    0.000    0.000    0.000    0.000 
#    0.000    0.000    0.000    0.000    0.000    0.000 
#
# Total GULP energy -156827.889347 kJ/mol
# GULP energy per Si atom -5600.996048 kJ/mol
# Density = 2.523619 g / cm^3
# Si number density = 25.293757 Si / 1000 Ang^3
#
#
#
# Elastic Constant Matrix: (Units=GPa)
#
#
# Indices 1 2 3 4 5 6 
#
# 1 73.3235 16.8151 9.2138 0.0000 0.0000 0.0000
# 2 16.8151 164.6691 47.8599 0.0000 0.0000 0.0000
# 3 9.2138 47.8599 52.4114 0.0000 0.0000 0.0000
# 4 0.0000 0.0000 0.0000 44.1615 0.0000 0.0000
# 5 0.0000 0.0000 0.0000 0.0000 29.8761 0.0000
# 6 0.0000 0.0000 0.0000 0.0000 0.0000 41.3267
#
#
#
# Elastic Compliance Matrix: (Units=1/GPa)
#
#
# Indices 1 2 3 4 5 6 
#
# 1 0.014061 -0.000977 -0.001580 0.000000 0.000000 0.000000
# 2 -0.000977 0.008335 -0.007439 0.000000 0.000000 0.000000
# 3 -0.001580 -0.007439 0.026151 0.000000 0.000000 0.000000
# 4 0.000000 0.000000 0.000000 0.022644 0.000000 0.000000
# 5 0.000000 0.000000 0.000000 0.000000 0.033472 0.000000
# 6 0.000000 0.000000 0.000000 0.000000 0.000000 0.024197
#
#
# Mechanical properties :
#
#
# Convention : Reuss Voigt Hill
#
# Bulk Modulus (GPa) = 35.02083 48.68684 41.85383
# Shear Modulus (GPa) = 31.57184 37.50720 34.53952
#
# Velocity S-wave (km/s) = 3.53683 3.85498 3.69932
# Velocity P-wave (km/s) = 5.52762 6.25338 5.90167
#
# Compressibility (1/GPa) = 0.02855444
#
# Stress axis : x y z
#
# Youngs Moduli (GPa) = 71.12020 119.98115 38.23988
#
# Poissons Ratio (x) = 0.11717 0.06042
# Poissons Ratio (y) = 0.06945 0.28447
# Poissons Ratio (z) = 0.11238 0.89256
#
# Static dielectric constant tensor:
#      x y z
#    x 2.048020 0.000000 0.000000 
#    y 0.000000 2.066640 0.000000 
#    z 0.000000 0.000000 2.036810 
# 
# From -- ./inp_files/5873.got.cif
#   From: 2010.05.17/outbox.cif.g08.bks.cpg/sg33_3_cif.got.tgz:5873.got - 2010.06.03 17:15:25.
