data_PCOD9346888
_publ_section_title
;
Structure prediction by ZEFSAII (Michael W. Deem and Ramdas Pophale) SiO2 
 PCOD9346888
Probable space group: P N A 21
;
_chemical_formula_sum "Si O2"
_cell_formula_units_Z 16
_cell_length_a 9.075359
_cell_length_b 7.775988
_cell_length_c 7.996929
_cell_angle_alpha 90.000000
_cell_angle_beta 90.000000
_cell_angle_gamma 90.000000
_cell_volume 564.342341
_symmetry_space_group_name_H-M "P N A 21"
_symmetry_group_IT_number 33
_symmetry_cell_setting 'orthorhombic'
loop_
_space_group_symop_operation_xyz
x,y,z
-x,-y,1/2+z
1/2-x,1/2+y,1/2+z
1/2+x,1/2-y,z
loop_
_atom_site_type_symbol
_atom_site_label
_atom_site_fract_x
_atom_site_fract_y
_atom_site_fract_z
Si Si1 0.319400 0.051215 0.115830
Si Si2 0.009227 0.701261 0.314552
Si Si3 0.038200 0.094571 0.308321
Si Si4 0.202120 0.707134 0.986262
O O1 0.161347 0.131893 0.166411
O O2 0.380747 0.934320 0.272154
O O3 0.420724 0.163680 0.994755
O O4 0.277162 0.893245 0.995732
O O5 0.973981 0.903433 0.297729
O O6 0.120104 0.667882 0.158556
O O7 0.156182 0.088379 0.460665
O O8 0.920702 0.244183 0.343744
#
# Coordination Sequence:
#
# PCOD9346888 Si02
#       4
#     4   4   4   4
#     4  11  26  47  81 116 163 210 274 336 405 501
#     4  11  26  51  79 118 162 217 268 339 410 487
#     4  11  27  49  80 116 163 212 269 344 403 493
#     4  11  25  51  74 116 160 209 279 323 416 485
#
# _framework density 28.351586000000001
#
# number of rings (size 3 to 8) (size 9 to 14) (size 15 to 20)
#    0.000    1.000    2.500    1.500    7.000    6.000 
#    0.000    0.000    0.000    0.000    0.000    0.000 
#    0.000    0.000    0.000    0.000    0.000    0.000 
#
# Total GULP energy -89450.269203 kJ/mol
# GULP energy per Si atom -5590.641825 kJ/mol
# Density = 2.828706 g / cm^3
# Si number density = 28.351586 Si / 1000 Ang^3
#
#
#
# Elastic Constant Matrix: (Units=GPa)
#
#
# Indices 1 2 3 4 5 6 
#
# 1 57.0084 74.6825 4.2438 0.0000 0.0000 0.0000
# 2 74.6825 121.1783 13.4667 0.0000 0.0000 0.0000
# 3 4.2438 13.4667 133.8974 0.0000 0.0000 0.0000
# 4 0.0000 0.0000 0.0000 34.4253 0.0000 0.0000
# 5 0.0000 0.0000 0.0000 0.0000 63.5435 0.0000
# 6 0.0000 0.0000 0.0000 0.0000 0.0000 40.9801
#
#
#
# Elastic Compliance Matrix: (Units=1/GPa)
#
#
# Indices 1 2 3 4 5 6 
#
# 1 0.092105 -0.057078 0.002821 0.000000 0.000000 0.000000
# 2 -0.057078 0.043718 -0.002588 0.000000 0.000000 0.000000
# 3 0.002821 -0.002588 0.007639 0.000000 0.000000 0.000000
# 4 0.000000 0.000000 0.000000 0.029048 0.000000 0.000000
# 5 0.000000 0.000000 0.000000 0.000000 0.015737 0.000000
# 6 0.000000 0.000000 0.000000 0.000000 0.000000 0.024402
#
#
# Mechanical properties :
#
#
# Convention : Reuss Voigt Hill
#
# Bulk Modulus (GPa) = 33.58794 55.20779 44.39786
# Shear Modulus (GPa) = 14.86928 42.43584 28.65256
#
# Velocity S-wave (km/s) = 2.29259 3.87301 3.18247
# Velocity P-wave (km/s) = 4.34519 6.28610 5.40351
#
# Compressibility (1/GPa) = 0.02977259
#
# Stress axis : x y z
#
# Youngs Moduli (GPa) = 10.85712 22.87413 130.90283
#
# Poissons Ratio (x) = 1.30562 -0.36933
# Poissons Ratio (y) = 0.61971 0.33875
# Poissons Ratio (z) = -0.03063 0.05919
#
# Static dielectric constant tensor:
#      x y z
#    x 2.172880 0.000000 0.000000 
#    y 0.000000 2.258280 0.000000 
#    z 0.000000 0.000000 2.647860 
# 
# From -- ./inp_files/2898.got.cif
#   From: 2010.05.17/outbox.cif.g08.bks.cpg/sg33_2_cif.got.tgz:2898.got - 2010.06.03 17:15:25.
