data_PCOD9346459
_publ_section_title
;
Structure prediction by ZEFSAII (Michael W. Deem and Ramdas Pophale) SiO2 
 PCOD9346459
Probable space group: P N A 21
;
_chemical_formula_sum "Si O2"
_cell_formula_units_Z 32
_cell_length_a 9.628311
_cell_length_b 5.649991
_cell_length_c 23.277972
_cell_angle_alpha 90.000000
_cell_angle_beta 90.000000
_cell_angle_gamma 90.000000
_cell_volume 1266.318662
_symmetry_space_group_name_H-M "P N A 21"
_symmetry_group_IT_number 33
_symmetry_cell_setting 'orthorhombic'
loop_
_space_group_symop_operation_xyz
x,y,z
-x,-y,1/2+z
1/2-x,1/2+y,1/2+z
1/2+x,1/2-y,z
loop_
_atom_site_type_symbol
_atom_site_label
_atom_site_fract_x
_atom_site_fract_y
_atom_site_fract_z
Si Si1 0.686312 0.132624 0.157030
Si Si2 0.590263 0.878289 0.722167
Si Si3 0.058174 0.203094 0.520924
Si Si4 0.663774 0.379792 0.746596
Si Si5 0.324594 0.004919 0.854986
Si Si6 0.299525 0.557213 0.550533
Si Si7 0.729492 0.663529 0.443497
Si Si8 0.577575 0.798736 0.900683
O O1 0.756853 0.341750 0.194888
O O2 0.773031 0.910104 0.181860
O O3 0.708563 0.220071 0.092991
O O4 0.527081 0.105092 0.173677
O O5 0.594429 0.126381 0.754994
O O6 0.572996 0.620768 0.752118
O O7 0.162482 0.391759 0.549458
O O8 0.969382 0.304197 0.467406
O O9 0.151297 0.012560 0.486689
O O10 0.941813 0.087388 0.561921
O O11 0.788696 0.411846 0.791689
O O12 0.373456 0.198005 0.901429
O O13 0.442399 0.809108 0.861377
O O14 0.180525 0.906763 0.880963
O O15 0.308443 0.660733 0.486368
O O16 0.826288 0.529034 0.398674
#
# Coordination Sequence:
#
# PCOD9346459 Si02
#       8
#     4   4   4   4   4   4   4   4
#     4  10  28  49  79 110 153 200 269 321 398 463
#     4  10  26  53  76 114 152 200 262 331 389 473
#     4  12  24  47  71 109 160 195 263 318 399 479
#     4  10  28  50  79 112 155 204 267 327 401 465
#     4  12  27  43  79 106 153 204 256 326 400 474
#     4  12  27  47  74 113 145 213 251 330 393 481
#     4  12  24  42  72 110 152 199 258 314 393 476
#     4  12  24  47  66 112 152 197 252 317 389 479
#
# _framework density 25.270101
#
# number of rings (size 3 to 8) (size 9 to 14) (size 15 to 20)
#    0.750    0.000    5.000    0.750    7.000    2.000 
#    0.000    0.000    0.000    0.000    0.000    0.000 
#    0.000    0.000    0.000    0.000    0.000    0.000 
#
# Total GULP energy -178807.674263 kJ/mol
# GULP energy per Si atom -5587.739821 kJ/mol
# Density = 2.521259 g / cm^3
# Si number density = 25.270101 Si / 1000 Ang^3
#
#
#
# Elastic Constant Matrix: (Units=GPa)
#
#
# Indices 1 2 3 4 5 6 
#
# 1 110.6285 21.5342 19.6632 0.0000 0.0000 0.0000
# 2 21.5342 96.3449 11.8309 0.0000 0.0000 0.0000
# 3 19.6632 11.8309 85.1287 0.0000 0.0000 0.0000
# 4 0.0000 0.0000 0.0000 25.4617 0.0000 0.0000
# 5 0.0000 0.0000 0.0000 0.0000 30.3359 0.0000
# 6 0.0000 0.0000 0.0000 0.0000 0.0000 22.5270
#
#
#
# Elastic Compliance Matrix: (Units=1/GPa)
#
#
# Indices 1 2 3 4 5 6 
#
# 1 0.009770 -0.001940 -0.001987 0.000000 0.000000 0.000000
# 2 -0.001940 0.010945 -0.001073 0.000000 0.000000 0.000000
# 3 -0.001987 -0.001073 0.012355 0.000000 0.000000 0.000000
# 4 0.000000 0.000000 0.000000 0.039275 0.000000 0.000000
# 5 0.000000 0.000000 0.000000 0.000000 0.032964 0.000000
# 6 0.000000 0.000000 0.000000 0.000000 0.000000 0.044391
#
#
# Mechanical properties :
#
#
# Convention : Reuss Voigt Hill
#
# Bulk Modulus (GPa) = 43.34624 44.23986 43.79305
# Shear Modulus (GPa) = 29.87043 31.60316 30.73679
#
# Velocity S-wave (km/s) = 3.44182 3.54024 3.49138
# Velocity P-wave (km/s) = 5.74328 5.85285 5.79832
#
# Compressibility (1/GPa) = 0.02307005
#
# Stress axis : x y z
#
# Youngs Moduli (GPa) = 102.35389 91.36853 80.93869
#
# Poissons Ratio (x) = 0.17723 0.16084
# Poissons Ratio (y) = 0.19854 0.08685
# Poissons Ratio (z) = 0.20339 0.09804
#
# Static dielectric constant tensor:
#      x y z
#    x 1.975190 0.000000 0.000000 
#    y 0.000000 2.052090 0.000000 
#    z 0.000000 0.000000 1.976320 
# 
# From -- ./inp_files/9386.got.cif
#   From: 2010.05.17/outbox.cif.g08.bks.cpg/sg33_5_cif.got.tgz:9386.got - 2010.06.03 17:15:25.
