data_PCOD9346372
_publ_section_title
;
Structure prediction by ZEFSAII (Michael W. Deem and Ramdas Pophale) SiO2 
 PCOD9346372
Probable space group: P N A 21
;
_chemical_formula_sum "Si O2"
_cell_formula_units_Z 28
_cell_length_a 9.052758
_cell_length_b 10.355912
_cell_length_c 11.768494
_cell_angle_alpha 90.000000
_cell_angle_beta 90.000000
_cell_angle_gamma 90.000000
_cell_volume 1103.291196
_symmetry_space_group_name_H-M "P N A 21"
_symmetry_group_IT_number 33
_symmetry_cell_setting 'orthorhombic'
loop_
_space_group_symop_operation_xyz
x,y,z
-x,-y,1/2+z
1/2-x,1/2+y,1/2+z
1/2+x,1/2-y,z
loop_
_atom_site_type_symbol
_atom_site_label
_atom_site_fract_x
_atom_site_fract_y
_atom_site_fract_z
Si Si1 0.464182 0.171189 0.179720
Si Si2 0.548510 0.689698 0.012329
Si Si3 0.935234 0.485834 0.495262
Si Si4 0.757881 0.474073 0.903382
Si Si5 0.676267 0.693960 0.472654
Si Si6 0.672115 0.338247 0.305146
Si Si7 0.999316 0.910085 0.258215
O O1 0.486595 0.041835 0.108603
O O2 0.615148 0.216756 0.234161
O O3 0.344323 0.159858 0.279053
O O4 0.413786 0.281243 0.088519
O O5 0.500920 0.661782 0.140105
O O6 0.600637 0.836987 0.010160
O O7 0.674074 0.588047 0.971683
O O8 0.411304 0.670944 0.925606
O O9 0.794706 0.578035 0.474570
O O10 0.067124 0.502709 0.403271
O O11 0.743023 0.331675 0.958363
O O12 0.664494 0.459080 0.788760
O O13 0.568897 0.668987 0.364870
O O14 0.604994 0.466385 0.249685
#
# Coordination Sequence:
#
# PCOD9346372 Si02
#       7
#     4   4   4   4   4   4   4
#     4  11  24  51  76 110 149 213 262 320 401 488
#     4  11  28  49  74 121 158 207 259 344 394 477
#     4  11  25  48  81 117 156 194 276 331 394 471
#     4  10  24  49  76 107 157 208 257 319 397 481
#     4  11  24  48  81 113 149 215 261 323 393 496
#     4  11  27  48  80 107 159 210 266 327 401 485
#     4  11  26  47  78 109 162 205 267 320 408 468
#
# _framework density 25.378613000000001
#
# number of rings (size 3 to 8) (size 9 to 14) (size 15 to 20)
#    0.000    1.143    1.429    3.429   12.000    3.429 
#   10.286    0.000    0.000    0.000    0.000    0.000 
#    0.000    0.000    0.000    0.000    0.000    0.000 
#
# Total GULP energy -156955.113582 kJ/mol
# GULP energy per Si atom -5605.539771 kJ/mol
# Density = 2.532085 g / cm^3
# Si number density = 25.378613 Si / 1000 Ang^3
#
#
#
# Elastic Constant Matrix: (Units=GPa)
#
#
# Indices 1 2 3 4 5 6 
#
# 1 124.1742 55.4442 52.3811 0.0000 0.0000 0.0000
# 2 55.4442 190.8116 53.1841 0.0000 0.0000 0.0000
# 3 52.3811 53.1841 152.2612 0.0000 0.0000 0.0000
# 4 0.0000 0.0000 0.0000 36.5833 0.0000 0.0000
# 5 0.0000 0.0000 0.0000 0.0000 15.5342 0.0000
# 6 0.0000 0.0000 0.0000 0.0000 0.0000 41.6864
#
#
#
# Elastic Compliance Matrix: (Units=1/GPa)
#
#
# Indices 1 2 3 4 5 6 
#
# 1 0.010189 -0.002198 -0.002738 0.000000 0.000000 0.000000
# 2 -0.002198 0.006280 -0.001438 0.000000 0.000000 0.000000
# 3 -0.002738 -0.001438 0.008012 0.000000 0.000000 0.000000
# 4 0.000000 0.000000 0.000000 0.027335 0.000000 0.000000
# 5 0.000000 0.000000 0.000000 0.000000 0.064374 0.000000
# 6 0.000000 0.000000 0.000000 0.000000 0.000000 0.023989
#
#
# Mechanical properties :
#
#
# Convention : Reuss Voigt Hill
#
# Bulk Modulus (GPa) = 85.21404 87.69621 86.45513
# Shear Modulus (GPa) = 31.88042 39.17661 35.52851
#
# Velocity S-wave (km/s) = 3.54813 3.93324 3.74564
# Velocity P-wave (km/s) = 7.10180 7.43353 7.26956
#
# Compressibility (1/GPa) = 0.01173515
#
# Stress axis : x y z
#
# Youngs Moduli (GPa) = 98.14190 159.23508 124.81865
#
# Poissons Ratio (x) = 0.34994 0.34172
# Poissons Ratio (y) = 0.21568 0.17943
# Poissons Ratio (z) = 0.26868 0.22891
#
# Static dielectric constant tensor:
#      x y z
#    x 1.998700 0.000000 0.000000 
#    y 0.000000 1.991040 0.000000 
#    z 0.000000 0.000000 2.009470 
# 
# From -- ./inp_files/5862.got.cif
#   From: 2010.05.17/outbox.cif.g08.bks.cpg/sg33_3_cif.got.tgz:5862.got - 2010.06.03 17:15:25.
