data_PCOD9346549
_publ_section_title
;
Structure prediction by ZEFSAII (Michael W. Deem and Ramdas Pophale) SiO2 
 PCOD9346549
Probable space group: P N A 21
;
_chemical_formula_sum "Si O2"
_cell_formula_units_Z 28
_cell_length_a 27.948023
_cell_length_b 8.150751
_cell_length_c 5.074656
_cell_angle_alpha 90.000000
_cell_angle_beta 90.000000
_cell_angle_gamma 90.000000
_cell_volume 1155.993323
_symmetry_space_group_name_H-M "P N A 21"
_symmetry_group_IT_number 33
_symmetry_cell_setting 'orthorhombic'
loop_
_space_group_symop_operation_xyz
x,y,z
-x,-y,1/2+z
1/2-x,1/2+y,1/2+z
1/2+x,1/2-y,z
loop_
_atom_site_type_symbol
_atom_site_label
_atom_site_fract_x
_atom_site_fract_y
_atom_site_fract_z
Si Si1 0.613662 0.299231 0.967360
Si Si2 0.105557 0.753336 0.267726
Si Si3 0.509991 0.774843 0.943141
Si Si4 0.446884 0.472914 0.142768
Si Si5 0.210140 0.858521 0.207858
Si Si6 0.087313 0.412081 0.473845
Si Si7 0.785569 0.926778 0.237824
O O1 0.579755 0.456045 0.900825
O O2 0.597032 0.160568 0.760365
O O3 0.665788 0.353840 0.867711
O O4 0.607179 0.216710 0.253541
O O5 0.061211 0.705064 0.078542
O O6 0.092646 0.914850 0.437041
O O7 0.156960 0.791202 0.148203
O O8 0.110192 0.589506 0.443291
O O9 0.481962 0.618327 0.064455
O O10 0.523282 0.695696 0.663924
O O11 0.470576 0.915019 0.939052
O O12 0.245539 0.710729 0.264850
O O13 0.208623 0.991579 0.447707
O O14 0.229541 0.932527 0.938347
#
# Coordination Sequence:
#
# PCOD9346549 Si02
#       7
#     4   4   4   4   4   4   4
#     4  11  25  48  73 104 146 201 249 305 380 452
#     4  12  28  45  71 110 151 196 259 309 382 449
#     4  11  24  41  71 100 146 195 246 304 373 442
#     4  11  22  42  70  98 140 193 250 298 359 453
#     4  12  29  50  81 115 150 202 253 323 387 460
#     4  11  29  43  74 108 154 195 247 313 377 442
#     4  12  27  51  82 111 157 194 258 318 392 458
#
# _framework density 24.221594
#
# number of rings (size 3 to 8) (size 9 to 14) (size 15 to 20)
#    0.000    0.571    2.857    3.429   14.000    0.000 
#    0.000    0.000    0.000    0.000    0.000    0.000 
#    0.000    0.000    0.000    0.000    0.000    0.000 
#
# Total GULP energy -156639.540583 kJ/mol
# GULP energy per Si atom -5594.269307 kJ/mol
# Density = 2.416646 g / cm^3
# Si number density = 24.221594 Si / 1000 Ang^3
#
#
#
# Elastic Constant Matrix: (Units=GPa)
#
#
# Indices 1 2 3 4 5 6 
#
# 1 109.3522 28.9337 -12.5417 0.0000 0.0000 0.0000
# 2 28.9337 82.8066 11.9999 0.0000 0.0000 0.0000
# 3 -12.5417 11.9999 63.8972 0.0000 0.0000 0.0000
# 4 0.0000 0.0000 0.0000 37.2728 0.0000 0.0000
# 5 0.0000 0.0000 0.0000 0.0000 9.8604 0.0000
# 6 0.0000 0.0000 0.0000 0.0000 0.0000 -6.3690
#
#
#
# Elastic Compliance Matrix: (Units=1/GPa)
#
#
# Indices 1 2 3 4 5 6 
#
# 1 0.010556 -0.004100 0.002842 0.000000 0.000000 0.000000
# 2 -0.004100 0.014007 -0.003435 0.000000 0.000000 0.000000
# 3 0.002842 -0.003435 0.016853 0.000000 0.000000 0.000000
# 4 0.000000 0.000000 0.000000 0.026829 0.000000 0.000000
# 5 0.000000 0.000000 0.000000 0.000000 0.101416 0.000000
# 6 0.000000 0.000000 0.000000 0.000000 0.000000 -0.157010
#
#
# Mechanical properties :
#
#
# Convention : Reuss Voigt Hill
#
# Bulk Modulus (GPa) = 31.22226 34.75998 32.99112
# Shear Modulus (GPa) = 152.83976 23.33042 88.08509
#
# Velocity S-wave (km/s) = 7.95221 3.10693 6.03699
# Velocity P-wave (km/s) = 9.86078 5.22040 7.88948
#
# Compressibility (1/GPa) = 0.03202843
#
# Stress axis : x y z
#
# Youngs Moduli (GPa) = 94.73697 71.39405 59.33639
#
# Poissons Ratio (x) = 0.29272 -0.16862
# Poissons Ratio (y) = 0.38843 0.20383
# Poissons Ratio (z) = -0.26923 0.24525
#
# Static dielectric constant tensor:
#      x y z
#    x 1.990120 0.000000 0.000000 
#    y 0.000000 1.961390 0.000000 
#    z 0.000000 0.000000 1.999930 
# 
# From -- ./inp_files/2417.got.cif
#   From: 2010.05.17/outbox.cif.g08.bks.cpg/sg33_2_cif.got.tgz:2417.got - 2010.06.03 17:15:25.
