data_PCOD9346800
_publ_section_title
;
Structure prediction by ZEFSAII (Michael W. Deem and Ramdas Pophale) SiO2 
 PCOD9346800
Probable space group: P N A 21
;
_chemical_formula_sum "Si O2"
_cell_formula_units_Z 28
_cell_length_a 23.327720
_cell_length_b 5.040435
_cell_length_c 9.570453
_cell_angle_alpha 90.000000
_cell_angle_beta 90.000000
_cell_angle_gamma 90.000000
_cell_volume 1125.311630
_symmetry_space_group_name_H-M "P N A 21"
_symmetry_group_IT_number 33
_symmetry_cell_setting 'orthorhombic'
loop_
_space_group_symop_operation_xyz
x,y,z
-x,-y,1/2+z
1/2-x,1/2+y,1/2+z
1/2+x,1/2-y,z
loop_
_atom_site_type_symbol
_atom_site_label
_atom_site_fract_x
_atom_site_fract_y
_atom_site_fract_z
Si Si1 0.593051 0.436202 0.609870
Si Si2 0.544661 0.939944 0.763759
Si Si3 0.412506 0.837790 0.811828
Si Si4 0.644066 0.960806 0.942275
Si Si5 0.247164 0.186140 0.903312
Si Si6 0.203936 0.810265 0.688887
Si Si7 0.844076 0.151005 0.725370
O O1 0.566247 0.719838 0.651481
O O2 0.584485 0.316973 0.457744
O O3 0.661260 0.462824 0.631225
O O4 0.563897 0.228089 0.712983
O O5 0.477080 0.904925 0.771013
O O6 0.575958 0.929762 0.917150
O O7 0.380255 0.620319 0.715119
O O8 0.378292 0.115931 0.809560
O O9 0.665348 0.851704 0.794138
O O10 0.681981 0.228056 0.939631
O O11 0.663915 0.785952 0.073596
O O12 0.248266 0.950244 0.792437
O O13 0.286509 0.394740 0.816570
O O14 0.274259 0.153090 0.055361
#
# Coordination Sequence:
#
# PCOD9346800 Si02
#       7
#     4   4   4   4   4   4   4
#     4  11  24  49  71 111 143 199 247 306 376 447
#     4  11  26  46  78 103 152 195 250 311 378 446
#     4  12  28  48  76 110 152 198 255 314 377 459
#     4  11  28  46  72 114 148 201 253 315 380 453
#     4  12  25  46  74 111 150 204 247 320 376 466
#     4  11  26  45  75 105 155 196 253 309 385 459
#     4  12  29  48  76 114 152 199 255 315 380 456
#
# _framework density 24.881999
#
# number of rings (size 3 to 8) (size 9 to 14) (size 15 to 20)
#    0.000    0.571    4.286    1.714   12.000    0.000 
#    0.000    0.000    0.000    0.000    0.000    0.000 
#    0.000    0.000    0.000    0.000    0.000    0.000 
#
# Total GULP energy -156576.311408 kJ/mol
# GULP energy per Si atom -5592.011122 kJ/mol
# Density = 2.482537 g / cm^3
# Si number density = 24.881999 Si / 1000 Ang^3
#
#
#
# Elastic Constant Matrix: (Units=GPa)
#
#
# Indices 1 2 3 4 5 6 
#
# 1 103.5297 35.9045 27.8670 0.0000 0.0000 0.0000
# 2 35.9045 55.9775 -28.3023 0.0000 0.0000 0.0000
# 3 27.8670 -28.3023 103.7655 0.0000 0.0000 0.0000
# 4 0.0000 0.0000 0.0000 34.1659 0.0000 0.0000
# 5 0.0000 0.0000 0.0000 0.0000 23.6012 0.0000
# 6 0.0000 0.0000 0.0000 0.0000 0.0000 31.1274
#
#
#
# Elastic Compliance Matrix: (Units=1/GPa)
#
#
# Indices 1 2 3 4 5 6 
#
# 1 0.017598 -0.015865 -0.009053 0.000000 0.000000 0.000000
# 2 -0.015865 0.035024 0.013813 0.000000 0.000000 0.000000
# 3 -0.009053 0.013813 0.015836 0.000000 0.000000 0.000000
# 4 0.000000 0.000000 0.000000 0.029269 0.000000 0.000000
# 5 0.000000 0.000000 0.000000 0.000000 0.042371 0.000000
# 6 0.000000 0.000000 0.000000 0.000000 0.000000 0.032126
#
#
# Mechanical properties :
#
#
# Convention : Reuss Voigt Hill
#
# Bulk Modulus (GPa) = 21.62190 37.13455 29.37822
# Shear Modulus (GPa) = 23.82668 32.96581 28.39625
#
# Velocity S-wave (km/s) = 3.09785 3.64385 3.38188
# Velocity P-wave (km/s) = 4.63726 5.71491 5.20405
#
# Compressibility (1/GPa) = 0.04624940
#
# Stress axis : x y z
#
# Youngs Moduli (GPa) = 56.82525 28.55172 63.14701
#
# Poissons Ratio (x) = 0.45296 0.57168
# Poissons Ratio (y) = 0.90151 -0.87228
# Poissons Ratio (z) = 0.51445 -0.39440
#
# Static dielectric constant tensor:
#      x y z
#    x 2.128960 0.000000 0.000000 
#    y 0.000000 2.021420 0.000000 
#    z 0.000000 0.000000 1.978370 
# 
# From -- ./inp_files/5129.got.cif
#   From: 2010.05.17/outbox.cif.g08.bks.cpg/sg33_3_cif.got.tgz:5129.got - 2010.06.03 17:15:25.
