data_PCOD9346387
_publ_section_title
;
Structure prediction by ZEFSAII (Michael W. Deem and Ramdas Pophale) SiO2 
 PCOD9346387
Probable space group: P N A 21
;
_chemical_formula_sum "Si O2"
_cell_formula_units_Z 20
_cell_length_a 8.777474
_cell_length_b 18.001445
_cell_length_c 5.195368
_cell_angle_alpha 90.000000
_cell_angle_beta 90.000000
_cell_angle_gamma 90.000000
_cell_volume 820.905631
_symmetry_space_group_name_H-M "P N A 21"
_symmetry_group_IT_number 33
_symmetry_cell_setting 'orthorhombic'
loop_
_space_group_symop_operation_xyz
x,y,z
-x,-y,1/2+z
1/2-x,1/2+y,1/2+z
1/2+x,1/2-y,z
loop_
_atom_site_type_symbol
_atom_site_label
_atom_site_fract_x
_atom_site_fract_y
_atom_site_fract_z
Si Si1 0.663845 0.096381 0.041330
Si Si2 0.854140 0.772471 0.524867
Si Si3 0.823865 0.036341 0.546493
Si Si4 0.400390 0.640462 0.025647
Si Si5 0.669315 0.895872 0.387098
O O1 0.664658 0.185335 0.023201
O O2 0.715584 0.071036 0.323380
O O3 0.772803 0.062413 0.826191
O O4 0.493719 0.072965 0.956180
O O5 0.936339 0.808684 0.276901
O O6 0.688957 0.813558 0.501896
O O7 0.919738 0.805600 0.786171
O O8 0.990095 0.070091 0.502429
O O9 0.798088 0.948877 0.511116
O O10 0.227193 0.613302 0.092577
#
# Coordination Sequence:
#
# PCOD9346387 Si02
#       5
#     4   4   4   4   4
#     4  12  27  45  71 103 146 186 237 297 366 424
#     4  10  25  43  72  99 139 183 241 286 350 421
#     4  12  27  44  73 106 145 183 240 295 365 425
#     4  10  25  42  73  97 139 179 240 284 352 417
#     4  10  28  44  75  99 149 183 242 288 361 427
#
# _framework density 24.363337000000001
#
# number of rings (size 3 to 8) (size 9 to 14) (size 15 to 20)
#    1.200    0.000    0.000    3.600   14.000    0.000 
#    0.000    0.000    0.000    0.000    0.000    0.000 
#    0.000    0.000    0.000    0.000    0.000    0.000 
#
# Total GULP energy -111868.134110 kJ/mol
# GULP energy per Si atom -5593.406706 kJ/mol
# Density = 2.430789 g / cm^3
# Si number density = 24.363337 Si / 1000 Ang^3
#
#
#
# Elastic Constant Matrix: (Units=GPa)
#
#
# Indices 1 2 3 4 5 6 
#
# 1 74.5099 9.8367 8.8544 0.0000 0.0000 0.0000
# 2 9.8367 137.2929 36.0274 0.0000 0.0000 0.0000
# 3 8.8544 36.0274 120.5620 0.0000 0.0000 0.0000
# 4 0.0000 0.0000 0.0000 32.4655 0.0000 0.0000
# 5 0.0000 0.0000 0.0000 0.0000 31.2780 0.0000
# 6 0.0000 0.0000 0.0000 0.0000 0.0000 31.7028
#
#
#
# Elastic Compliance Matrix: (Units=1/GPa)
#
#
# Indices 1 2 3 4 5 6 
#
# 1 0.013615 -0.000774 -0.000769 0.000000 0.000000 0.000000
# 2 -0.000774 0.007947 -0.002318 0.000000 0.000000 0.000000
# 3 -0.000769 -0.002318 0.009044 0.000000 0.000000 0.000000
# 4 0.000000 0.000000 0.000000 0.030802 0.000000 0.000000
# 5 0.000000 0.000000 0.000000 0.000000 0.031971 0.000000
# 6 0.000000 0.000000 0.000000 0.000000 0.000000 0.031543
#
#
# Mechanical properties :
#
#
# Convention : Reuss Voigt Hill
#
# Bulk Modulus (GPa) = 43.69750 49.08908 46.39329
# Shear Modulus (GPa) = 35.64527 37.59902 36.62215
#
# Velocity S-wave (km/s) = 3.82916 3.93270 3.88127
# Velocity P-wave (km/s) = 6.12574 6.38858 6.25854
#
# Compressibility (1/GPa) = 0.02288460
#
# Stress axis : x y z
#
# Youngs Moduli (GPa) = 73.45098 125.82682 110.57482
#
# Poissons Ratio (x) = 0.09736 0.08500
# Poissons Ratio (y) = 0.05683 0.25632
# Poissons Ratio (z) = 0.05646 0.29168
#
# Static dielectric constant tensor:
#      x y z
#    x 1.995890 0.000000 0.000000 
#    y 0.000000 1.901280 0.000000 
#    z 0.000000 0.000000 1.933500 
# 
# From -- ./inp_files/378.got.cif
#   From: 2010.05.17/outbox.cif.g08.bks.cpg/sg33_1_cif.got.tgz:378.got - 2010.06.03 17:15:25.
