data_PCOD9346005
_publ_section_title
;
Structure prediction by ZEFSAII (Michael W. Deem and Ramdas Pophale) SiO2 
 PCOD9346005
Probable space group: P N A 21
;
_chemical_formula_sum "Si O2"
_cell_formula_units_Z 32
_cell_length_a 9.660912
_cell_length_b 13.853445
_cell_length_c 9.638553
_cell_angle_alpha 90.000000
_cell_angle_beta 90.000000
_cell_angle_gamma 90.000000
_cell_volume 1289.994180
_symmetry_space_group_name_H-M "P N A 21"
_symmetry_group_IT_number 33
_symmetry_cell_setting 'orthorhombic'
loop_
_space_group_symop_operation_xyz
x,y,z
-x,-y,1/2+z
1/2-x,1/2+y,1/2+z
1/2+x,1/2-y,z
loop_
_atom_site_type_symbol
_atom_site_label
_atom_site_fract_x
_atom_site_fract_y
_atom_site_fract_z
Si Si1 0.314331 0.146959 0.813550
Si Si2 0.637684 0.054529 0.210505
Si Si3 0.095796 0.036294 0.287408
Si Si4 0.372727 0.322274 0.168646
Si Si5 0.297219 0.179612 0.411906
Si Si6 0.497402 0.320413 0.870044
Si Si7 0.109882 0.341822 0.498635
Si Si8 0.158657 0.536070 0.600541
O O1 0.321704 0.057645 0.706728
O O2 0.414906 0.236799 0.789067
O O3 0.357708 0.091265 0.955498
O O4 0.159396 0.183897 0.837641
O O5 0.739607 0.117303 0.116602
O O6 0.663338 0.100561 0.361759
O O7 0.476228 0.069818 0.184687
O O8 0.211862 0.081676 0.388876
O O9 0.966376 0.108650 0.267733
O O10 0.050745 0.929014 0.328375
O O11 0.182114 0.043963 0.144644
O O12 0.316529 0.233491 0.261269
O O13 0.461326 0.300216 0.031960
O O14 0.198606 0.246252 0.504953
O O15 0.449210 0.174831 0.473120
O O16 0.136347 0.420662 0.613358
#
# Coordination Sequence:
#
# PCOD9346005 Si02
#       8
#     4   4   4   4   4   4   4   4
#     4  11  26  46  66  99 137 177 231 279 340 409
#     4  10  23  43  66  94 135 171 221 281 332 403
#     4  12  24  46  65  98 141 174 222 282 339 404
#     4  11  24  42  70  98 130 177 225 276 342 398
#     4  11  22  41  68 100 129 171 220 282 326 402
#     4  12  28  42  69 101 135 182 228 281 340 414
#     4  10  23  40  66  96 130 168 222 276 328 397
#     4  11  24  44  68  96 133 180 221 277 343 399
#
# _framework density 24.806314
#
# number of rings (size 3 to 8) (size 9 to 14) (size 15 to 20)
#    0.000    1.000    5.000    0.750    5.250    0.000 
#    2.250    0.000    0.000    0.000    0.000    0.000 
#    0.000    0.000    0.000    0.000    0.000    0.000 
#
# Total GULP energy -179020.315750 kJ/mol
# GULP energy per Si atom -5594.384867 kJ/mol
# Density = 2.474985 g / cm^3
# Si number density = 24.806314 Si / 1000 Ang^3
#
#
#
# Elastic Constant Matrix: (Units=GPa)
#
#
# Indices 1 2 3 4 5 6 
#
# 1 115.2606 41.1947 -17.1253 0.0000 0.0000 0.0000
# 2 41.1947 130.9563 -5.5729 0.0000 0.0000 0.0000
# 3 -17.1253 -5.5729 41.0604 0.0000 0.0000 0.0000
# 4 0.0000 0.0000 0.0000 24.0396 0.0000 0.0000
# 5 0.0000 0.0000 0.0000 0.0000 19.6213 0.0000
# 6 0.0000 0.0000 0.0000 0.0000 0.0000 47.1001
#
#
#
# Elastic Compliance Matrix: (Units=1/GPa)
#
#
# Indices 1 2 3 4 5 6 
#
# 1 0.010361 -0.003093 0.003902 0.000000 0.000000 0.000000
# 2 -0.003093 0.008604 -0.000122 0.000000 0.000000 0.000000
# 3 0.003902 -0.000122 0.025965 0.000000 0.000000 0.000000
# 4 0.000000 0.000000 0.000000 0.041598 0.000000 0.000000
# 5 0.000000 0.000000 0.000000 0.000000 0.050965 0.000000
# 6 0.000000 0.000000 0.000000 0.000000 0.000000 0.021231
#
#
# Mechanical properties :
#
#
# Convention : Reuss Voigt Hill
#
# Bulk Modulus (GPa) = 21.59728 36.03003 28.81366
# Shear Modulus (GPa) = 28.93738 36.07092 32.50415
#
# Velocity S-wave (km/s) = 3.41916 3.81741 3.62376
# Velocity P-wave (km/s) = 4.93080 5.82977 5.39903
#
# Compressibility (1/GPa) = 0.04630212
#
# Stress axis : x y z
#
# Youngs Moduli (GPa) = 96.51353 116.22525 38.51337
#
# Poissons Ratio (x) = 0.35952 -0.15026
# Poissons Ratio (y) = 0.29854 0.00471
# Poissons Ratio (z) = -0.37656 0.01422
#
# Static dielectric constant tensor:
#      x y z
#    x 1.890070 0.000000 0.000000 
#    y 0.000000 2.007980 0.000000 
#    z 0.000000 0.000000 2.100010 
# 
# From -- ./inp_files/5999.got.cif
#   From: 2010.05.17/outbox.cif.g08.bks.cpg/sg33_3_cif.got.tgz:5999.got - 2010.06.03 17:15:25.
