data_PCOD9346786
_publ_section_title
;
Structure prediction by ZEFSAII (Michael W. Deem and Ramdas Pophale) SiO2 
 PCOD9346786
Probable space group: P N A 21
;
_chemical_formula_sum "Si O2"
_cell_formula_units_Z 24
_cell_length_a 13.611141
_cell_length_b 14.877327
_cell_length_c 5.350748
_cell_angle_alpha 90.000000
_cell_angle_beta 90.000000
_cell_angle_gamma 90.000000
_cell_volume 1083.512534
_symmetry_space_group_name_H-M "P N A 21"
_symmetry_group_IT_number 33
_symmetry_cell_setting 'orthorhombic'
loop_
_space_group_symop_operation_xyz
x,y,z
-x,-y,1/2+z
1/2-x,1/2+y,1/2+z
1/2+x,1/2-y,z
loop_
_atom_site_type_symbol
_atom_site_label
_atom_site_fract_x
_atom_site_fract_y
_atom_site_fract_z
Si Si1 0.946237 0.522841 0.611470
Si Si2 0.361809 0.439566 0.649770
Si Si3 0.056933 0.101929 0.857648
Si Si4 0.632730 0.207465 0.983834
Si Si5 0.247531 0.069844 0.505423
Si Si6 0.743652 0.722588 0.974637
O O1 0.936643 0.621480 0.487341
O O2 0.837932 0.478049 0.648422
O O3 0.001993 0.471622 0.382936
O O4 0.427043 0.515125 0.522346
O O5 0.440786 0.391386 0.822183
O O6 0.331323 0.360094 0.465947
O O7 0.277385 0.498525 0.784526
O O8 0.141692 0.086491 0.642580
O O9 0.084191 0.195639 0.980222
O O10 0.686377 0.202391 0.246156
O O11 0.704910 0.208006 0.744730
O O12 0.283612 0.171830 0.446764
#
# Coordination Sequence:
#
# PCOD9346786 Si02
#       6
#     4   4   4   4   4   4
#     4  12  28  47  72 102 143 195 242 299 356 438
#     4  12  23  45  73 111 144 194 240 304 373 439
#     4  11  25  43  75 106 148 187 244 308 366 443
#     4  11  24  48  69 104 144 188 243 298 358 433
#     4  11  25  48  68 106 146 191 247 300 369 436
#     4  11  25  43  77 101 143 195 232 301 366 433
#
# _framework density 22.150182000000001
#
# number of rings (size 3 to 8) (size 9 to 14) (size 15 to 20)
#    0.000    0.667    5.000    2.000    4.667    0.000 
#    3.000    0.000    0.000    0.000    0.000    0.000 
#    0.000    0.000    0.000    0.000    0.000    0.000 
#
# Total GULP energy -133804.569451 kJ/mol
# GULP energy per Si atom -5575.190394 kJ/mol
# Density = 2.209977 g / cm^3
# Si number density = 22.150182 Si / 1000 Ang^3
#
#
#
# Elastic Constant Matrix: (Units=GPa)
#
#
# Indices 1 2 3 4 5 6 
#
# 1 112.9000 -28.6765 36.6746 0.0000 0.0000 0.0000
# 2 -28.6765 169.9056 -23.1620 0.0000 0.0000 0.0000
# 3 36.6746 -23.1620 89.7160 0.0000 0.0000 0.0000
# 4 0.0000 0.0000 0.0000 -4.7870 0.0000 0.0000
# 5 0.0000 0.0000 0.0000 0.0000 34.2474 0.0000
# 6 0.0000 0.0000 0.0000 0.0000 0.0000 26.2608
#
#
#
# Elastic Compliance Matrix: (Units=1/GPa)
#
#
# Indices 1 2 3 4 5 6 
#
# 1 0.010454 0.001225 -0.003957 0.000000 0.000000 0.000000
# 2 0.001225 0.006244 0.001111 0.000000 0.000000 0.000000
# 3 -0.003957 0.001111 0.013051 0.000000 0.000000 0.000000
# 4 0.000000 0.000000 0.000000 -0.208897 0.000000 0.000000
# 5 0.000000 0.000000 0.000000 0.000000 0.029199 0.000000
# 6 0.000000 0.000000 0.000000 0.000000 0.000000 0.038080
#
#
# Mechanical properties :
#
#
# Convention : Reuss Voigt Hill
#
# Bulk Modulus (GPa) = 37.72637 38.02154 37.87395
# Shear Modulus (GPa) = -50.10404 36.98993 -6.55706
#
# Velocity S-wave (km/s) = -4.76122 4.09095 -1.72241
# Velocity P-wave (km/s) = 3.62720 6.28626 3.63046
#
# Compressibility (1/GPa) = 0.02650666
#
# Stress axis : x y z
#
# Youngs Moduli (GPa) = 95.65718 160.15753 76.62355
#
# Poissons Ratio (x) = -0.19619 0.30321
# Poissons Ratio (y) = -0.11718 -0.08515
# Poissons Ratio (z) = 0.37853 -0.17797
#
# Static dielectric constant tensor:
#      x y z
#    x 1.904360 0.000000 0.000000 
#    y 0.000000 2.152880 0.000000 
#    z 0.000000 0.000000 1.801650 
# 
# From -- ./inp_files/792.got.cif
#   From: 2010.05.17/outbox.cif.g08.bks.cpg/sg33_1_cif.got.tgz:792.got - 2010.06.03 17:15:25.
