data_PCOD9346987
_publ_section_title
;
Structure prediction by ZEFSAII (Michael W. Deem and Ramdas Pophale) SiO2 
 PCOD9346987
Probable space group: P N A 21
;
_chemical_formula_sum "Si O2"
_cell_formula_units_Z 24
_cell_length_a 9.011413
_cell_length_b 18.103339
_cell_length_c 6.553712
_cell_angle_alpha 90.000000
_cell_angle_beta 90.000000
_cell_angle_gamma 90.000000
_cell_volume 1069.150715
_symmetry_space_group_name_H-M "P N A 21"
_symmetry_group_IT_number 33
_symmetry_cell_setting 'orthorhombic'
loop_
_space_group_symop_operation_xyz
x,y,z
-x,-y,1/2+z
1/2-x,1/2+y,1/2+z
1/2+x,1/2-y,z
loop_
_atom_site_type_symbol
_atom_site_label
_atom_site_fract_x
_atom_site_fract_y
_atom_site_fract_z
Si Si1 0.734291 0.747469 0.626590
Si Si2 0.009294 0.221670 0.846765
Si Si3 0.114550 0.934918 0.211841
Si Si4 0.707804 0.474718 0.582008
Si Si5 0.169162 0.399473 0.339540
Si Si6 0.871810 0.330655 0.508394
O O1 0.822169 0.772907 0.423336
O O2 0.565993 0.751379 0.553209
O O3 0.776653 0.664864 0.688298
O O4 0.732312 0.792939 0.836299
O O5 0.947997 0.139242 0.817742
O O6 0.955232 0.271778 0.656457
O O7 0.207798 0.989035 0.357507
O O8 0.218085 0.906538 0.029184
O O9 0.966223 0.977788 0.141658
O O10 0.812532 0.524089 0.722359
O O11 0.763688 0.391488 0.604419
O O12 0.005617 0.377970 0.410529
#
# Coordination Sequence:
#
# PCOD9346987 Si02
#       6
#     4   4   4   4   4   4
#     4  12  26  46  76 108 148 191 251 306 375 447
#     4  12  26  47  76 109 144 198 250 308 375 449
#     4  12  26  48  76 106 146 195 253 305 376 450
#     4  12  29  47  74 108 149 198 246 308 376 451
#     4  12  27  49  72 108 152 193 243 313 375 446
#     4  12  30  47  76 113 151 195 255 314 375 453
#
# _framework density 22.447724000000001
#
# number of rings (size 3 to 8) (size 9 to 14) (size 15 to 20)
#    0.000    0.000    6.667    2.000    9.333    1.333 
#    0.000    0.000    0.000    0.000    0.000    0.000 
#    0.000    0.000    0.000    0.000    0.000    0.000 
#
# Total GULP energy -134120.324597 kJ/mol
# GULP energy per Si atom -5588.346858 kJ/mol
# Density = 2.239663 g / cm^3
# Si number density = 22.447724 Si / 1000 Ang^3
#
#
#
# Elastic Constant Matrix: (Units=GPa)
#
#
# Indices 1 2 3 4 5 6 
#
# 1 49.2353 -7.4704 3.6924 0.0000 0.0000 0.0000
# 2 -7.4704 97.5312 35.9962 0.0000 0.0000 0.0000
# 3 3.6924 35.9962 79.5553 0.0000 0.0000 0.0000
# 4 0.0000 0.0000 0.0000 46.8529 0.0000 0.0000
# 5 0.0000 0.0000 0.0000 0.0000 41.8629 0.0000
# 6 0.0000 0.0000 0.0000 0.0000 0.0000 34.7075
#
#
#
# Elastic Compliance Matrix: (Units=1/GPa)
#
#
# Indices 1 2 3 4 5 6 
#
# 1 0.020818 0.002342 -0.002026 0.000000 0.000000 0.000000
# 2 0.002342 0.012572 -0.005797 0.000000 0.000000 0.000000
# 3 -0.002026 -0.005797 0.015287 0.000000 0.000000 0.000000
# 4 0.000000 0.000000 0.000000 0.021343 0.000000 0.000000
# 5 0.000000 0.000000 0.000000 0.000000 0.023888 0.000000
# 6 0.000000 0.000000 0.000000 0.000000 0.000000 0.028812
#
#
# Mechanical properties :
#
#
# Convention : Reuss Voigt Hill
#
# Bulk Modulus (GPa) = 26.51453 32.30647 29.41050
# Shear Modulus (GPa) = 34.18717 37.62491 35.90604
#
# Velocity S-wave (km/s) = 3.90676 4.09848 4.00376
# Velocity P-wave (km/s) = 5.67342 6.06793 5.87399
#
# Compressibility (1/GPa) = 0.03771517
#
# Stress axis : x y z
#
# Youngs Moduli (GPa) = 48.03547 79.54103 65.41528
#
# Poissons Ratio (x) = -0.18631 0.13253
# Poissons Ratio (y) = -0.11251 0.37922
# Poissons Ratio (z) = 0.09732 0.46111
#
# Static dielectric constant tensor:
#      x y z
#    x 1.809390 0.000000 0.000000 
#    y 0.000000 1.797010 0.000000 
#    z 0.000000 0.000000 1.873450 
# 
# From -- ./inp_files/392.got.cif
#   From: 2010.05.17/outbox.cif.g08.bks.cpg/sg33_1_cif.got.tgz:392.got - 2010.06.03 17:15:25.
