data_PCOD9346667
_publ_section_title
;
Structure prediction by ZEFSAII (Michael W. Deem and Ramdas Pophale) SiO2 
 PCOD9346667
Probable space group: P N A 21
;
_chemical_formula_sum "Si O2"
_cell_formula_units_Z 32
_cell_length_a 16.206930
_cell_length_b 13.936346
_cell_length_c 6.206479
_cell_angle_alpha 90.000000
_cell_angle_beta 90.000000
_cell_angle_gamma 90.000000
_cell_volume 1401.828763
_symmetry_space_group_name_H-M "P N A 21"
_symmetry_group_IT_number 33
_symmetry_cell_setting 'orthorhombic'
loop_
_space_group_symop_operation_xyz
x,y,z
-x,-y,1/2+z
1/2-x,1/2+y,1/2+z
1/2+x,1/2-y,z
loop_
_atom_site_type_symbol
_atom_site_label
_atom_site_fract_x
_atom_site_fract_y
_atom_site_fract_z
Si Si1 0.674566 0.655553 0.391890
Si Si2 0.021160 0.458523 0.142105
Si Si3 0.073895 0.731020 0.724689
Si Si4 0.011005 0.119766 0.483122
Si Si5 0.172020 0.072509 0.737319
Si Si6 0.206150 0.392882 0.210268
Si Si7 0.228407 0.731071 0.994047
Si Si8 0.121971 0.024302 0.147130
O O1 0.600755 0.687334 0.551067
O O2 0.763577 0.665393 0.502047
O O3 0.675873 0.723922 0.187864
O O4 0.666533 0.546328 0.311709
O O5 0.119093 0.442722 0.176174
O O6 0.992890 0.496476 0.392591
O O7 0.975106 0.356512 0.124981
O O8 0.021576 0.775256 0.923395
O O9 0.162627 0.699475 0.816079
O O10 0.076535 0.093847 0.670249
O O11 0.932295 0.051530 0.511362
O O12 0.059906 0.090109 0.272163
O O13 0.221118 0.143349 0.585197
O O14 0.218976 0.969678 0.733268
O O15 0.176163 0.089483 0.993061
O O16 0.213677 0.316656 0.403751
#
# Coordination Sequence:
#
# PCOD9346667 Si02
#       8
#     4   4   4   4   4   4   4   4
#     4  11  23  46  76 104 152 191 248 324 387 462
#     4  12  31  53  81 111 156 215 272 323 387 471
#     4  11  26  46  74 108 149 201 257 323 389 464
#     4  12  23  41  69 107 143 184 243 309 392 462
#     4  12  25  40  73 102 143 192 245 305 382 461
#     4  11  25  50  71 106 150 198 253 324 383 462
#     4  11  25  46  72 106 148 198 258 315 390 467
#     4  12  22  40  70 110 143 191 236 311 392 459
#
# _framework density 22.827324999999998
#
# number of rings (size 3 to 8) (size 9 to 14) (size 15 to 20)
#    0.000    0.500    5.000    3.000    5.250    3.000 
#    0.000    0.000    0.000    0.000    0.000    0.000 
#    0.000    0.000    0.000    0.000    0.000    0.000 
#
# Total GULP energy -178373.718187 kJ/mol
# GULP energy per Si atom -5574.178693 kJ/mol
# Density = 2.277537 g / cm^3
# Si number density = 22.827325 Si / 1000 Ang^3
#
#
#
# Elastic Constant Matrix: (Units=GPa)
#
#
# Indices 1 2 3 4 5 6 
#
# 1 82.2518 23.7571 32.8733 0.0000 0.0000 0.0000
# 2 23.7571 81.8413 25.5992 0.0000 0.0000 0.0000
# 3 32.8733 25.5992 99.5510 0.0000 0.0000 0.0000
# 4 0.0000 0.0000 0.0000 36.3645 0.0000 0.0000
# 5 0.0000 0.0000 0.0000 0.0000 29.5243 0.0000
# 6 0.0000 0.0000 0.0000 0.0000 0.0000 30.3609
#
#
#
# Elastic Compliance Matrix: (Units=1/GPa)
#
#
# Indices 1 2 3 4 5 6 
#
# 1 0.014645 -0.002978 -0.004070 0.000000 0.000000 0.000000
# 2 -0.002978 0.013893 -0.002589 0.000000 0.000000 0.000000
# 3 -0.004070 -0.002589 0.012055 0.000000 0.000000 0.000000
# 4 0.000000 0.000000 0.000000 0.027499 0.000000 0.000000
# 5 0.000000 0.000000 0.000000 0.000000 0.033870 0.000000
# 6 0.000000 0.000000 0.000000 0.000000 0.000000 0.032937
#
#
# Mechanical properties :
#
#
# Convention : Reuss Voigt Hill
#
# Bulk Modulus (GPa) = 46.90852 47.56702 47.23777
# Shear Modulus (GPa) = 31.00197 31.34424 31.17311
#
# Velocity S-wave (km/s) = 3.68925 3.70956 3.69942
# Velocity P-wave (km/s) = 6.22425 6.26345 6.24388
#
# Compressibility (1/GPa) = 0.02131809
#
# Stress axis : x y z
#
# Youngs Moduli (GPa) = 68.28444 71.97821 82.95365
#
# Poissons Ratio (x) = 0.21435 0.33763
# Poissons Ratio (y) = 0.20335 0.21478
# Poissons Ratio (z) = 0.27793 0.18636
#
# Static dielectric constant tensor:
#      x y z
#    x 1.878850 0.000000 0.000000 
#    y 0.000000 1.937310 0.000000 
#    z 0.000000 0.000000 1.992720 
# 
# From -- ./inp_files/1804.got.cif
#   From: 2010.05.17/outbox.cif.g08.bks.cpg/sg33_1_cif.got.tgz:1804.got - 2010.06.03 17:15:25.
