data_PCOD9346265
_publ_section_title
;
Structure prediction by ZEFSAII (Michael W. Deem and Ramdas Pophale) SiO2 
 PCOD9346265
Probable space group: P N A 21
;
_chemical_formula_sum "Si O2"
_cell_formula_units_Z 20
_cell_length_a 8.887035
_cell_length_b 18.459592
_cell_length_c 5.280342
_cell_angle_alpha 90.000000
_cell_angle_beta 90.000000
_cell_angle_gamma 90.000000
_cell_volume 866.245598
_symmetry_space_group_name_H-M "P N A 21"
_symmetry_group_IT_number 33
_symmetry_cell_setting 'orthorhombic'
loop_
_space_group_symop_operation_xyz
x,y,z
-x,-y,1/2+z
1/2-x,1/2+y,1/2+z
1/2+x,1/2-y,z
loop_
_atom_site_type_symbol
_atom_site_label
_atom_site_fract_x
_atom_site_fract_y
_atom_site_fract_z
Si Si1 0.041539 0.813667 0.261500
Si Si2 0.925299 0.030910 0.524871
Si Si3 0.073331 0.470864 0.587666
Si Si4 0.490388 0.186796 0.399987
Si Si5 0.237115 0.235782 0.073237
O O1 0.052763 0.884579 0.093220
O O2 0.172889 0.806186 0.468977
O O3 0.877437 0.804396 0.384984
O O4 0.073343 0.740186 0.110275
O O5 0.749314 0.013171 0.551715
O O6 0.985382 0.012054 0.245791
O O7 0.020420 0.485805 0.873821
O O8 0.042398 0.387641 0.516988
O O9 0.361620 0.181767 0.186836
O O10 0.628887 0.231053 0.285018
#
# Coordination Sequence:
#
# PCOD9346265 Si02
#       5
#     4   4   4   4   4
#     4  11  25  46  74 107 146 192 252 306 373 439
#     4  12  30  50  77 111 155 200 253 312 382 453
#     4  12  30  50  77 111 155 200 253 312 382 453
#     4  11  25  46  74 107 146 192 252 306 373 439
#     4  10  24  42  76 106 142 190 254 306 370 442
#
# _framework density 23.088142999999999
#
# number of rings (size 3 to 8) (size 9 to 14) (size 15 to 20)
#    0.000    0.800    0.000    4.800   19.600    3.200 
#    0.000    0.000    0.000    0.000    0.000    0.000 
#    0.000    0.000    0.000    0.000    0.000    0.000 
#
# Total GULP energy -112034.455785 kJ/mol
# GULP energy per Si atom -5601.722789 kJ/mol
# Density = 2.303559 g / cm^3
# Si number density = 23.088143 Si / 1000 Ang^3
#
#
#
# Elastic Constant Matrix: (Units=GPa)
#
#
# Indices 1 2 3 4 5 6 
#
# 1 130.1537 -10.2906 3.6323 0.0000 0.0000 0.0000
# 2 -10.2906 37.6808 -15.9089 0.0000 0.0000 0.0000
# 3 3.6323 -15.9089 45.5374 0.0000 0.0000 0.0000
# 4 0.0000 0.0000 0.0000 34.9476 0.0000 0.0000
# 5 0.0000 0.0000 0.0000 0.0000 47.4056 0.0000
# 6 0.0000 0.0000 0.0000 0.0000 0.0000 21.1335
#
#
#
# Elastic Compliance Matrix: (Units=1/GPa)
#
#
# Indices 1 2 3 4 5 6 
#
# 1 0.007854 0.002206 0.000144 0.000000 0.000000 0.000000
# 2 0.002206 0.031750 0.010916 0.000000 0.000000 0.000000
# 3 0.000144 0.010916 0.025762 0.000000 0.000000 0.000000
# 4 0.000000 0.000000 0.000000 0.028614 0.000000 0.000000
# 5 0.000000 0.000000 0.000000 0.000000 0.021095 0.000000
# 6 0.000000 0.000000 0.000000 0.000000 0.000000 0.047318
#
#
# Mechanical properties :
#
#
# Convention : Reuss Voigt Hill
#
# Bulk Modulus (GPa) = 10.88167 18.69305 14.78736
# Shear Modulus (GPa) = 30.03123 36.42660 33.22891
#
# Velocity S-wave (km/s) = 3.61046 3.97636 3.79782
# Velocity P-wave (km/s) = 4.70148 5.40332 5.06457
#
# Compressibility (1/GPa) = 0.09189769
#
# Stress axis : x y z
#
# Youngs Moduli (GPa) = 127.33023 31.49613 38.81658
#
# Poissons Ratio (x) = -0.06947 -0.00559
# Poissons Ratio (y) = -0.28085 -0.42373
# Poissons Ratio (z) = -0.01835 -0.34382
#
# Static dielectric constant tensor:
#      x y z
#    x 1.817430 0.000000 0.000000 
#    y 0.000000 1.833650 0.000000 
#    z 0.000000 0.000000 1.896030 
# 
# From -- ./inp_files/335.got.cif
#   From: 2010.05.17/outbox.cif.g08.bks.cpg/sg33_1_cif.got.tgz:335.got - 2010.06.03 17:15:25.
