data_PCOD9346013
_publ_section_title
;
Structure prediction by ZEFSAII (Michael W. Deem and Ramdas Pophale) SiO2 
 PCOD9346013
Probable space group: P N A 21
;
_chemical_formula_sum "Si O2"
_cell_formula_units_Z 28
_cell_length_a 8.909718
_cell_length_b 11.842804
_cell_length_c 10.616602
_cell_angle_alpha 90.000000
_cell_angle_beta 90.000000
_cell_angle_gamma 90.000000
_cell_volume 1120.221843
_symmetry_space_group_name_H-M "P N A 21"
_symmetry_group_IT_number 33
_symmetry_cell_setting 'orthorhombic'
loop_
_space_group_symop_operation_xyz
x,y,z
-x,-y,1/2+z
1/2-x,1/2+y,1/2+z
1/2+x,1/2-y,z
loop_
_atom_site_type_symbol
_atom_site_label
_atom_site_fract_x
_atom_site_fract_y
_atom_site_fract_z
Si Si1 0.519527 0.789518 0.733450
Si Si2 0.228467 0.904347 0.677540
Si Si3 0.309262 0.995802 0.149096
Si Si4 0.393143 0.532641 0.412135
Si Si5 0.376241 0.118458 0.598343
Si Si6 0.897937 0.830303 0.975530
Si Si7 0.925716 0.185456 0.741108
O O1 0.373480 0.828622 0.660242
O O2 0.590344 0.679745 0.668245
O O3 0.631184 0.897331 0.729446
O O4 0.965800 0.948431 0.928576
O O5 0.210201 0.963507 0.813613
O O6 0.262985 0.012149 0.594269
O O7 0.456969 0.933178 0.091860
O O8 0.210392 0.903127 0.223873
O O9 0.201181 0.041911 0.039260
O O10 0.465118 0.644338 0.350883
O O11 0.278690 0.191513 0.498830
O O12 0.544644 0.243666 0.369718
O O13 0.630704 0.813959 0.231885
O O14 0.978189 0.813711 0.110802
#
# Coordination Sequence:
#
# PCOD9346013 Si02
#       7
#     4   4   4   4   4   4   4
#     4  10  24  41  70 105 144 196 253 313 383 448
#     4  10  23  42  68 101 144 189 250 313 371 457
#     4  10  25  44  71 109 154 195 259 320 381 473
#     4  10  23  44  68 103 147 200 243 311 387 453
#     4  11  23  44  71 110 147 191 261 315 376 454
#     4  10  23  40  74 104 142 194 254 312 378 452
#     4  11  23  43  72 104 150 197 250 314 392 457
#
# _framework density 24.995049000000002
#
# number of rings (size 3 to 8) (size 9 to 14) (size 15 to 20)
#    0.000    1.714    1.429    0.857   12.000    0.000 
#    2.571    4.286    0.000    1.714    0.000    0.000 
#    0.000    0.000    0.000    0.000    0.000    0.000 
#
# Total GULP energy -156420.947543 kJ/mol
# GULP energy per Si atom -5586.462412 kJ/mol
# Density = 2.493816 g / cm^3
# Si number density = 24.995049 Si / 1000 Ang^3
#
#
#
# Elastic Constant Matrix: (Units=GPa)
#
#
# Indices 1 2 3 4 5 6 
#
# 1 144.0107 72.5808 38.3262 0.0000 0.0000 0.0000
# 2 72.5808 124.9194 38.3236 0.0000 0.0000 0.0000
# 3 38.3262 38.3236 40.5505 0.0000 0.0000 0.0000
# 4 0.0000 0.0000 0.0000 30.3644 0.0000 0.0000
# 5 0.0000 0.0000 0.0000 0.0000 35.7178 0.0000
# 6 0.0000 0.0000 0.0000 0.0000 0.0000 43.9272
#
#
#
# Elastic Compliance Matrix: (Units=1/GPa)
#
#
# Indices 1 2 3 4 5 6 
#
# 1 0.010766 -0.004413 -0.006005 0.000000 0.000000 0.000000
# 2 -0.004413 0.013083 -0.008193 0.000000 0.000000 0.000000
# 3 -0.006005 -0.008193 0.038079 0.000000 0.000000 0.000000
# 4 0.000000 0.000000 0.000000 0.032933 0.000000 0.000000
# 5 0.000000 0.000000 0.000000 0.000000 0.027997 0.000000
# 6 0.000000 0.000000 0.000000 0.000000 0.000000 0.022765
#
#
# Mechanical properties :
#
#
# Convention : Reuss Voigt Hill
#
# Bulk Modulus (GPa) = 40.47624 67.54908 54.01266
# Shear Modulus (GPa) = 26.16675 32.68520 29.42598
#
# Velocity S-wave (km/s) = 3.23906 3.62009 3.43486
# Velocity P-wave (km/s) = 5.49705 6.67511 6.11452
#
# Compressibility (1/GPa) = 0.02470585
#
# Stress axis : x y z
#
# Youngs Moduli (GPa) = 92.88265 76.43549 26.26092
#
# Poissons Ratio (x) = 0.33733 0.15769
# Poissons Ratio (y) = 0.40991 0.21516
# Poissons Ratio (z) = 0.55775 0.62626
#
# Static dielectric constant tensor:
#      x y z
#    x 2.006600 0.000000 0.000000 
#    y 0.000000 2.139550 0.000000 
#    z 0.000000 0.000000 2.007540 
# 
# From -- ./inp_files/7614.got.cif
#   From: 2010.05.17/outbox.cif.g08.bks.cpg/sg33_4_cif.got.tgz:7614.got - 2010.06.03 17:15:25.
