data_PCOD9346219
_publ_section_title
;
Structure prediction by ZEFSAII (Michael W. Deem and Ramdas Pophale) SiO2 
 PCOD9346219
Probable space group: P N A 21
;
_chemical_formula_sum "Si O2"
_cell_formula_units_Z 32
_cell_length_a 8.293342
_cell_length_b 4.796735
_cell_length_c 28.503478
_cell_angle_alpha 90.000000
_cell_angle_beta 90.000000
_cell_angle_gamma 90.000000
_cell_volume 1133.895828
_symmetry_space_group_name_H-M "P N A 21"
_symmetry_group_IT_number 33
_symmetry_cell_setting 'orthorhombic'
loop_
_space_group_symop_operation_xyz
x,y,z
-x,-y,1/2+z
1/2-x,1/2+y,1/2+z
1/2+x,1/2-y,z
loop_
_atom_site_type_symbol
_atom_site_label
_atom_site_fract_x
_atom_site_fract_y
_atom_site_fract_z
Si Si1 0.666329 0.000000 0.868600
Si Si2 0.772908 0.459784 0.180652
Si Si3 0.947484 0.872861 0.806013
Si Si4 0.259193 0.546018 0.245918
Si Si5 0.759192 0.046018 0.491282
Si Si6 0.552516 0.627139 0.431187
Si Si7 0.727093 0.040216 0.056548
Si Si8 0.500001 0.694900 0.118600
O O1 0.548324 0.233806 0.888506
O O2 0.793872 0.959230 0.911099
O O3 0.793872 0.040770 0.826101
O O4 0.548324 0.766195 0.848694
O O5 0.790930 0.152479 0.200562
O O6 0.637231 0.504490 0.141501
O O7 0.930546 0.601089 0.158644
O O8 0.725457 0.652355 0.225028
O O9 0.877986 0.615326 0.775224
O O10 0.079188 0.038576 0.776632
O O11 0.622014 0.884674 0.461976
O O12 0.790930 0.847521 0.536638
O O13 0.920812 0.038576 0.460568
O O14 0.725456 0.347645 0.512172
O O15 0.569455 0.898911 0.078556
O O16 0.862771 0.995511 0.095699
#
# Coordination Sequence:
#
# PCOD9346219 Si02
#       8
#     4   4   4   4   4   4   4   4
#     4  10  24  44  64 102 140 182 240 294 362 428
#     4  11  24  42  65  98 135 180 233 286 352 422
#     4  10  24  42  69 101 140 186 236 299 359 428
#     4  11  24  43  69  99 137 184 235 290 355 425
#     4  11  24  43  69  99 137 184 235 290 355 425
#     4  10  24  42  69 101 140 186 236 299 359 428
#     4  11  24  42  65  98 135 180 233 286 352 422
#     4  10  24  40  66  96 136 180 228 292 350 416
#
# _framework density 28.221285999999999
#
# number of rings (size 3 to 8) (size 9 to 14) (size 15 to 20)
#    0.000    1.500    0.000    3.000    0.000   18.000 
#    0.000    0.000    0.000    0.000    0.000    0.000 
#    0.000    0.000    0.000    0.000    0.000    0.000 
#
# Total GULP energy -179948.012984 kJ/mol
# GULP energy per Si atom -5623.375406 kJ/mol
# Density = 2.815705 g / cm^3
# Si number density = 28.221286 Si / 1000 Ang^3
#
#
#
# Elastic Constant Matrix: (Units=GPa)
#
#
# Indices 1 2 3 4 5 6 
#
# 1 147.2867 36.5167 42.8747 0.0000 0.0000 0.0000
# 2 36.5167 116.8636 36.9943 0.0000 0.0000 0.0000
# 3 42.8747 36.9943 144.0565 0.0000 0.0000 0.0000
# 4 0.0000 0.0000 0.0000 39.6256 0.0000 0.0000
# 5 0.0000 0.0000 0.0000 0.0000 63.8840 0.0000
# 6 0.0000 0.0000 0.0000 0.0000 0.0000 41.8743
#
#
#
# Elastic Compliance Matrix: (Units=1/GPa)
#
#
# Indices 1 2 3 4 5 6 
#
# 1 0.007784 -0.001849 -0.001842 0.000000 0.000000 0.000000
# 2 -0.001849 0.009754 -0.001954 0.000000 0.000000 0.000000
# 3 -0.001842 -0.001954 0.007992 0.000000 0.000000 0.000000
# 4 0.000000 0.000000 0.000000 0.025236 0.000000 0.000000
# 5 0.000000 0.000000 0.000000 0.000000 0.015653 0.000000
# 6 0.000000 0.000000 0.000000 0.000000 0.000000 0.023881
#
#
# Mechanical properties :
#
#
# Convention : Reuss Voigt Hill
#
# Bulk Modulus (GPa) = 70.23225 71.21980 70.72602
# Shear Modulus (GPa) = 47.02031 48.53154 47.77593
#
# Velocity S-wave (km/s) = 4.08625 4.15140 4.11896
# Velocity P-wave (km/s) = 6.87049 6.94765 6.90917
#
# Compressibility (1/GPa) = 0.01423847
#
# Stress axis : x y z
#
# Youngs Moduli (GPa) = 128.46668 102.52727 125.12854
#
# Poissons Ratio (x) = 0.18960 0.23047
# Poissons Ratio (y) = 0.23757 0.24455
# Poissons Ratio (z) = 0.23661 0.20037
#
# Static dielectric constant tensor:
#      x y z
#    x 2.095910 0.000000 0.000000 
#    y 0.000000 2.100150 0.000000 
#    z 0.000000 0.000000 2.245780 
# 
# From -- ./inp_files/9393.got.cif
#   From: 2010.05.17/outbox.cif.g08.bks.cpg/sg33_5_cif.got.tgz:9393.got - 2010.06.03 17:15:25.
