data_PCOD9346746
_publ_section_title
;
Structure prediction by ZEFSAII (Michael W. Deem and Ramdas Pophale) SiO2 
 PCOD9346746
Probable space group: P N A 21
;
_chemical_formula_sum "Si O2"
_cell_formula_units_Z 20
_cell_length_a 8.357598
_cell_length_b 17.796295
_cell_length_c 5.080240
_cell_angle_alpha 90.000000
_cell_angle_beta 90.000000
_cell_angle_gamma 90.000000
_cell_volume 755.605836
_symmetry_space_group_name_H-M "P N A 21"
_symmetry_group_IT_number 33
_symmetry_cell_setting 'orthorhombic'
loop_
_space_group_symop_operation_xyz
x,y,z
-x,-y,1/2+z
1/2-x,1/2+y,1/2+z
1/2+x,1/2-y,z
loop_
_atom_site_type_symbol
_atom_site_label
_atom_site_fract_x
_atom_site_fract_y
_atom_site_fract_z
Si Si1 0.358117 0.377386 0.433820
Si Si2 0.846830 0.710441 0.342175
Si Si3 0.882708 0.494346 0.792646
Si Si4 0.124121 0.716254 0.689509
Si Si5 0.181644 0.149285 0.666547
O O1 0.247475 0.348543 0.677078
O O2 0.253087 0.441558 0.299651
O O3 0.375519 0.306628 0.230854
O O4 0.530728 0.399778 0.544888
O O5 0.746533 0.785485 0.437683
O O6 0.937853 0.768748 0.153051
O O7 0.958049 0.687267 0.579024
O O8 0.007021 0.503708 0.033237
O O9 0.784248 0.417072 0.812854
O O10 0.198827 0.672739 0.926881
#
# Coordination Sequence:
#
# PCOD9346746 Si02
#       5
#     4   4   4   4   4
#     4  11  27  50  77 118 157 212 269 329 401 488
#     4  11  24  44  82 118 160 200 264 336 406 472
#     4  12  34  54  80 114 166 222 272 334 408 488
#     4  11  24  44  82 118 160 200 264 336 406 472
#     4  11  27  50  77 118 157 212 269 329 401 488
#
# _framework density 26.468830000000001
#
# number of rings (size 3 to 8) (size 9 to 14) (size 15 to 20)
#    0.000    0.800    4.000    0.000   11.200    3.200 
#    0.000    0.000    0.000    0.000    0.000    0.000 
#    0.000    0.000    0.000    0.000    0.000    0.000 
#
# Total GULP energy -111742.677415 kJ/mol
# GULP energy per Si atom -5587.133871 kJ/mol
# Density = 2.640859 g / cm^3
# Si number density = 26.468830 Si / 1000 Ang^3
#
#
#
# Elastic Constant Matrix: (Units=GPa)
#
#
# Indices 1 2 3 4 5 6 
#
# 1 146.3327 44.5687 32.1674 0.0000 0.0000 0.0000
# 2 44.5687 138.5625 26.2639 0.0000 0.0000 0.0000
# 3 32.1674 26.2639 107.8264 0.0000 0.0000 0.0000
# 4 0.0000 0.0000 0.0000 30.6165 0.0000 0.0000
# 5 0.0000 0.0000 0.0000 0.0000 32.7215 0.0000
# 6 0.0000 0.0000 0.0000 0.0000 0.0000 32.9528
#
#
#
# Elastic Compliance Matrix: (Units=1/GPa)
#
#
# Indices 1 2 3 4 5 6 
#
# 1 0.007903 -0.002197 -0.001823 0.000000 0.000000 0.000000
# 2 -0.002197 0.008177 -0.001336 0.000000 0.000000 0.000000
# 3 -0.001823 -0.001336 0.010143 0.000000 0.000000 0.000000
# 4 0.000000 0.000000 0.000000 0.032662 0.000000 0.000000
# 5 0.000000 0.000000 0.000000 0.000000 0.030561 0.000000
# 6 0.000000 0.000000 0.000000 0.000000 0.000000 0.030346
#
#
# Mechanical properties :
#
#
# Convention : Reuss Voigt Hill
#
# Bulk Modulus (GPa) = 64.46541 66.52461 65.49501
# Shear Modulus (GPa) = 36.85267 38.57296 37.71281
#
# Velocity S-wave (km/s) = 3.73541 3.82160 3.77875
# Velocity P-wave (km/s) = 6.55839 6.68286 6.62091
#
# Compressibility (1/GPa) = 0.01551220
#
# Stress axis : x y z
#
# Youngs Moduli (GPa) = 126.52681 122.29705 98.58580
#
# Poissons Ratio (x) = 0.26864 0.17970
# Poissons Ratio (y) = 0.27794 0.13175
# Poissons Ratio (z) = 0.23063 0.16343
#
# Static dielectric constant tensor:
#      x y z
#    x 2.187990 0.000000 0.000000 
#    y 0.000000 2.109430 0.000000 
#    z 0.000000 0.000000 2.221300 
# 
# From -- ./inp_files/351.got.cif
#   From: 2010.05.17/outbox.cif.g08.bks.cpg/sg33_1_cif.got.tgz:351.got - 2010.06.03 17:15:25.
