data_PCOD9346278
_publ_section_title
;
Structure prediction by ZEFSAII (Michael W. Deem and Ramdas Pophale) SiO2 
 PCOD9346278
Probable space group: P N A 21
;
_chemical_formula_sum "Si O2"
_cell_formula_units_Z 20
_cell_length_a 19.363560
_cell_length_b 7.741640
_cell_length_c 4.981111
_cell_angle_alpha 90.000000
_cell_angle_beta 90.000000
_cell_angle_gamma 90.000000
_cell_volume 746.696984
_symmetry_space_group_name_H-M "P N A 21"
_symmetry_group_IT_number 33
_symmetry_cell_setting 'orthorhombic'
loop_
_space_group_symop_operation_xyz
x,y,z
-x,-y,1/2+z
1/2-x,1/2+y,1/2+z
1/2+x,1/2-y,z
loop_
_atom_site_type_symbol
_atom_site_label
_atom_site_fract_x
_atom_site_fract_y
_atom_site_fract_z
Si Si1 0.478205 0.908951 0.120760
Si Si2 0.031311 0.917576 0.442323
Si Si3 0.779382 0.333526 0.498929
Si Si4 0.660520 0.490663 0.153250
Si Si5 0.158682 0.324011 0.852270
O O1 0.515924 0.758992 0.287076
O O2 0.395880 0.881256 0.127763
O O3 0.493298 0.066063 0.325103
O O4 0.008554 0.946988 0.746181
O O5 0.112814 0.952266 0.399560
O O6 0.823471 0.508901 0.534560
O O7 0.725800 0.267710 0.724457
O O8 0.824267 0.159615 0.473510
O O9 0.730486 0.398600 0.258015
O O10 0.622984 0.332507 0.008395
#
# Coordination Sequence:
#
# PCOD9346278 Si02
#       5
#     4   4   4   4   4
#     4  12  27  47  73 107 148 194 246 308 368 436
#     4  12  25  46  74 105 143 195 243 301 370 434
#     4  10  24  43  70 107 136 193 238 301 370 427
#     4  11  23  44  71 101 145 185 245 298 365 437
#     4  11  23  46  70 102 148 183 248 302 363 438
#
# _framework density 26.784624999999998
#
# number of rings (size 3 to 8) (size 9 to 14) (size 15 to 20)
#    0.000    0.800    2.000    4.800    2.800    0.000 
#   14.400    0.000    0.000    0.000    0.000    0.000 
#    0.000    0.000    0.000    0.000    0.000    0.000 
#
# Total GULP energy -111924.160668 kJ/mol
# GULP energy per Si atom -5596.208033 kJ/mol
# Density = 2.672366 g / cm^3
# Si number density = 26.784625 Si / 1000 Ang^3
#
#
#
# Elastic Constant Matrix: (Units=GPa)
#
#
# Indices 1 2 3 4 5 6 
#
# 1 92.5705 27.5994 20.8862 0.0000 0.0000 0.0000
# 2 27.5994 207.1558 42.6496 0.0000 0.0000 0.0000
# 3 20.8862 42.6496 102.6280 0.0000 0.0000 0.0000
# 4 0.0000 0.0000 0.0000 39.0294 0.0000 0.0000
# 5 0.0000 0.0000 0.0000 0.0000 33.6381 0.0000
# 6 0.0000 0.0000 0.0000 0.0000 0.0000 30.4723
#
#
#
# Elastic Compliance Matrix: (Units=1/GPa)
#
#
# Indices 1 2 3 4 5 6 
#
# 1 0.011570 -0.001156 -0.001874 0.000000 0.000000 0.000000
# 2 -0.001156 0.005394 -0.002007 0.000000 0.000000 0.000000
# 3 -0.001874 -0.002007 0.010959 0.000000 0.000000 0.000000
# 4 0.000000 0.000000 0.000000 0.025622 0.000000 0.000000
# 5 0.000000 0.000000 0.000000 0.000000 0.029728 0.000000
# 6 0.000000 0.000000 0.000000 0.000000 0.000000 0.032817
#
#
# Mechanical properties :
#
#
# Convention : Reuss Voigt Hill
#
# Bulk Modulus (GPa) = 56.02085 64.95830 60.48958
# Shear Modulus (GPa) = 37.84621 41.37590 39.61105
#
# Velocity S-wave (km/s) = 3.76304 3.93461 3.84978
# Velocity P-wave (km/s) = 6.31200 6.70420 6.51105
#
# Compressibility (1/GPa) = 0.01785050
#
# Stress axis : x y z
#
# Youngs Moduli (GPa) = 86.43023 185.37887 91.24685
#
# Poissons Ratio (x) = 0.21422 0.17104
# Poissons Ratio (y) = 0.09988 0.18309
# Poissons Ratio (z) = 0.16201 0.37198
#
# Static dielectric constant tensor:
#      x y z
#    x 2.153520 0.000000 0.000000 
#    y 0.000000 2.229570 0.000000 
#    z 0.000000 0.000000 2.034950 
# 
# From -- ./inp_files/1612.got.cif
#   From: 2010.05.17/outbox.cif.g08.bks.cpg/sg33_1_cif.got.tgz:1612.got - 2010.06.03 17:15:25.
