data_PCOD9346831
_publ_section_title
;
Structure prediction by ZEFSAII (Michael W. Deem and Ramdas Pophale) SiO2 
 PCOD9346831
Probable space group: P N A 21
;
_chemical_formula_sum "Si O2"
_cell_formula_units_Z 24
_cell_length_a 16.837438
_cell_length_b 5.154294
_cell_length_c 11.594136
_cell_angle_alpha 90.000000
_cell_angle_beta 90.000000
_cell_angle_gamma 90.000000
_cell_volume 1006.198318
_symmetry_space_group_name_H-M "P N A 21"
_symmetry_group_IT_number 33
_symmetry_cell_setting 'orthorhombic'
loop_
_space_group_symop_operation_xyz
x,y,z
-x,-y,1/2+z
1/2-x,1/2+y,1/2+z
1/2+x,1/2-y,z
loop_
_atom_site_type_symbol
_atom_site_label
_atom_site_fract_x
_atom_site_fract_y
_atom_site_fract_z
Si Si1 0.023791 0.678207 0.216090
Si Si2 0.193371 0.208699 0.811651
Si Si3 0.569878 0.676447 0.774407
Si Si4 0.137727 0.718558 0.429390
Si Si5 0.126451 0.616423 0.990076
Si Si6 0.309297 0.728814 0.052303
O O1 0.067321 0.724307 0.338384
O O2 0.963673 0.438445 0.222533
O O3 0.913645 0.392472 0.615751
O O4 0.975098 0.945165 0.209058
O O5 0.281723 0.218997 0.855522
O O6 0.141409 0.358071 0.909819
O O7 0.193331 0.322232 0.683885
O O8 0.161149 0.920244 0.781827
O O9 0.563756 0.717970 0.913400
O O10 0.138658 0.441740 0.488793
O O11 0.151154 0.952756 0.519147
O O12 0.216751 0.720861 0.009958
#
# Coordination Sequence:
#
# PCOD9346831 Si02
#       6
#     4   4   4   4   4   4
#     4  12  28  48  75 107 154 196 243 308 379 445
#     4  11  25  50  76 108 143 196 250 306 371 438
#     4  12  27  47  71 109 150 194 245 296 379 445
#     4  11  25  46  73 113 139 192 247 305 366 446
#     4  11  26  51  75 110 152 194 244 318 370 441
#     4  11  25  44  82 103 146 182 255 311 363 435
#
# _framework density 23.852157999999999
#
# number of rings (size 3 to 8) (size 9 to 14) (size 15 to 20)
#    0.000    0.667    5.000    1.000    4.667    4.000 
#    0.000    0.000    0.000    0.000    0.000    0.000 
#    0.000    0.000    0.000    0.000    0.000    0.000 
#
# Total GULP energy -133909.438229 kJ/mol
# GULP energy per Si atom -5579.559926 kJ/mol
# Density = 2.379787 g / cm^3
# Si number density = 23.852158 Si / 1000 Ang^3
#
#
#
# Elastic Constant Matrix: (Units=GPa)
#
#
# Indices 1 2 3 4 5 6 
#
# 1 97.1031 43.8863 28.3550 0.0000 0.0000 0.0000
# 2 43.8863 140.5610 26.9221 0.0000 0.0000 0.0000
# 3 28.3550 26.9221 111.9924 0.0000 0.0000 0.0000
# 4 0.0000 0.0000 0.0000 19.6293 0.0000 0.0000
# 5 0.0000 0.0000 0.0000 0.0000 53.8600 0.0000
# 6 0.0000 0.0000 0.0000 0.0000 0.0000 9.6859
#
#
#
# Elastic Compliance Matrix: (Units=1/GPa)
#
#
# Indices 1 2 3 4 5 6 
#
# 1 0.012551 -0.003470 -0.002344 0.000000 0.000000 0.000000
# 2 -0.003470 0.008417 -0.001145 0.000000 0.000000 0.000000
# 3 -0.002344 -0.001145 0.009798 0.000000 0.000000 0.000000
# 4 0.000000 0.000000 0.000000 0.050944 0.000000 0.000000
# 5 0.000000 0.000000 0.000000 0.000000 0.018567 0.000000
# 6 0.000000 0.000000 0.000000 0.000000 0.000000 0.103243
#
#
# Mechanical properties :
#
#
# Convention : Reuss Voigt Hill
#
# Bulk Modulus (GPa) = 59.35038 60.88702 60.11870
# Shear Modulus (GPa) = 22.41624 33.33458 27.87541
#
# Velocity S-wave (km/s) = 3.06894 3.74244 3.42230
# Velocity P-wave (km/s) = 6.12327 6.65257 6.39340
#
# Compressibility (1/GPa) = 0.01684909
#
# Stress axis : x y z
#
# Youngs Moduli (GPa) = 79.67574 118.80756 102.06408
#
# Poissons Ratio (x) = 0.41224 0.23920
# Poissons Ratio (y) = 0.27646 0.11685
# Poissons Ratio (z) = 0.18673 0.13602
#
# Static dielectric constant tensor:
#      x y z
#    x 1.921140 0.000000 0.000000 
#    y 0.000000 1.996230 0.000000 
#    z 0.000000 0.000000 2.005340 
# 
# From -- ./inp_files/6917.got.cif
#   From: 2010.05.17/outbox.cif.g08.bks.cpg/sg33_4_cif.got.tgz:6917.got - 2010.06.03 17:15:25.
