data_PCOD9346327
_publ_section_title
;
Structure prediction by ZEFSAII (Michael W. Deem and Ramdas Pophale) SiO2 
 PCOD9346327
Probable space group: P N A 21
;
_chemical_formula_sum "Si O2"
_cell_formula_units_Z 32
_cell_length_a 12.424896
_cell_length_b 6.594786
_cell_length_c 18.204463
_cell_angle_alpha 90.000000
_cell_angle_beta 90.000000
_cell_angle_gamma 90.000000
_cell_volume 1491.665146
_symmetry_space_group_name_H-M "P N A 21"
_symmetry_group_IT_number 33
_symmetry_cell_setting 'orthorhombic'
loop_
_space_group_symop_operation_xyz
x,y,z
-x,-y,1/2+z
1/2-x,1/2+y,1/2+z
1/2+x,1/2-y,z
loop_
_atom_site_type_symbol
_atom_site_label
_atom_site_fract_x
_atom_site_fract_y
_atom_site_fract_z
Si Si1 0.496333 0.324353 0.918900
Si Si2 0.313423 0.950530 0.661002
Si Si3 0.038792 0.503605 0.296539
Si Si4 0.206391 0.338775 0.618113
Si Si5 0.153963 0.874040 0.990567
Si Si6 0.990124 0.496072 0.543297
Si Si7 0.330597 0.677125 0.889756
Si Si8 0.190828 0.602076 0.749276
O O1 0.498636 0.200967 0.842266
O O2 0.603338 0.449718 0.941006
O O3 0.402640 0.491079 0.916123
O O4 0.478150 0.160951 0.982955
O O5 0.405733 0.906194 0.600864
O O6 0.243312 0.775169 0.698306
O O7 0.380553 0.048331 0.729220
O O8 0.232608 0.101776 0.619270
O O9 0.097416 0.351741 0.352726
O O10 0.935724 0.384855 0.264606
O O11 0.301359 0.440633 0.570017
O O12 0.209314 0.401514 0.702555
O O13 0.093271 0.410112 0.585852
O O14 0.257409 0.775737 0.952006
O O15 0.067983 0.695194 0.004374
O O16 0.250957 0.600706 0.826238
#
# Coordination Sequence:
#
# PCOD9346327 Si02
#       8
#     4   4   4   4   4   4   4   4
#     4  12  24  42  72  94 138 186 224 296 348 398
#     4  10  24  46  64  98 142 178 226 292 346 408
#     4  11  24  44  67 102 137 178 239 281 345 429
#     4  11  23  42  68  97 135 182 231 284 350 416
#     4  11  25  44  65 102 138 179 235 290 344 417
#     4  11  24  44  67 102 137 178 239 281 345 429
#     4  11  25  44  65 102 138 179 235 290 344 417
#     4  11  23  42  68  97 135 182 231 284 350 416
#
# _framework density 21.452537
#
# number of rings (size 3 to 8) (size 9 to 14) (size 15 to 20)
#    0.000    1.000    1.250    5.250    0.000   10.000 
#    9.000    0.000    0.000    0.000    0.000    0.000 
#    0.000    0.000    0.000    0.000    0.000    0.000 
#
# Total GULP energy -178924.595034 kJ/mol
# GULP energy per Si atom -5591.393595 kJ/mol
# Density = 2.140371 g / cm^3
# Si number density = 21.452537 Si / 1000 Ang^3
#
#
#
# Elastic Constant Matrix: (Units=GPa)
#
#
# Indices 1 2 3 4 5 6 
#
# 1 87.7758 40.5111 11.4105 0.0000 0.0000 0.0000
# 2 40.5111 40.5761 23.0911 0.0000 0.0000 0.0000
# 3 11.4105 23.0911 76.7006 0.0000 0.0000 0.0000
# 4 0.0000 0.0000 0.0000 38.7893 0.0000 0.0000
# 5 0.0000 0.0000 0.0000 0.0000 36.5558 0.0000
# 6 0.0000 0.0000 0.0000 0.0000 0.0000 30.3221
#
#
#
# Elastic Compliance Matrix: (Units=1/GPa)
#
#
# Indices 1 2 3 4 5 6 
#
# 1 0.022126 -0.024397 0.004053 0.000000 0.000000 0.000000
# 2 -0.024397 0.056641 -0.013423 0.000000 0.000000 0.000000
# 3 0.004053 -0.013423 0.016476 0.000000 0.000000 0.000000
# 4 0.000000 0.000000 0.000000 0.025780 0.000000 0.000000
# 5 0.000000 0.000000 0.000000 0.000000 0.027355 0.000000
# 6 0.000000 0.000000 0.000000 0.000000 0.000000 0.032979
#
#
# Mechanical properties :
#
#
# Convention : Reuss Voigt Hill
#
# Bulk Modulus (GPa) = 36.08793 39.45308 37.77050
# Shear Modulus (GPa) = 19.37033 29.80276 24.58654
#
# Velocity S-wave (km/s) = 3.00815 3.73130 3.38907
# Velocity P-wave (km/s) = 5.37811 6.08229 5.74101
#
# Compressibility (1/GPa) = 0.02771010
#
# Stress axis : x y z
#
# Youngs Moduli (GPa) = 45.19664 17.65496 60.69534
#
# Poissons Ratio (x) = 0.43072 -0.24601
# Poissons Ratio (y) = 1.10265 0.81470
# Poissons Ratio (z) = -0.18319 0.23698
#
# Static dielectric constant tensor:
#      x y z
#    x 1.764570 0.000000 0.000000 
#    y 0.000000 1.752630 0.000000 
#    z 0.000000 0.000000 1.770140 
# 
# From -- ./inp_files/9158.got.cif
#   From: 2010.05.17/outbox.cif.g08.bks.cpg/sg33_5_cif.got.tgz:9158.got - 2010.06.03 17:15:25.
