data_PCOD9346128
_publ_section_title
;
Structure prediction by ZEFSAII (Michael W. Deem and Ramdas Pophale) SiO2 
 PCOD9346128
Probable space group: P N A 21
;
_chemical_formula_sum "Si O2"
_cell_formula_units_Z 24
_cell_length_a 22.656659
_cell_length_b 5.196968
_cell_length_c 7.957890
_cell_angle_alpha 90.000000
_cell_angle_beta 90.000000
_cell_angle_gamma 90.000000
_cell_volume 937.009173
_symmetry_space_group_name_H-M "P N A 21"
_symmetry_group_IT_number 33
_symmetry_cell_setting 'orthorhombic'
loop_
_space_group_symop_operation_xyz
x,y,z
-x,-y,1/2+z
1/2-x,1/2+y,1/2+z
1/2+x,1/2-y,z
loop_
_atom_site_type_symbol
_atom_site_label
_atom_site_fract_x
_atom_site_fract_y
_atom_site_fract_z
Si Si1 0.009245 0.853929 0.818750
Si Si2 0.854663 0.448269 0.909090
Si Si3 0.687029 0.159877 0.898399
Si Si4 0.237859 0.856353 0.740291
Si Si5 0.073095 0.491331 0.083713
Si Si6 0.407910 0.536062 0.044027
O O1 0.039029 0.688899 0.966037
O O2 0.974101 0.678968 0.684379
O O3 0.059710 0.000388 0.719180
O O4 0.959553 0.024750 0.906987
O O5 0.884767 0.392728 0.728534
O O6 0.792339 0.575761 0.866320
O O7 0.890040 0.671707 0.005708
O O8 0.858698 0.180557 0.008267
O O9 0.729740 0.177880 0.061778
O O10 0.705070 0.897809 0.804613
O O11 0.697645 0.393327 0.770811
O O12 0.620772 0.155725 0.968741
#
# Coordination Sequence:
#
# PCOD9346128 Si02
#       6
#     4   4   4   4   4   4
#     4  11  23  43  67  97 137 181 225 280 335 398
#     4  10  23  44  67  97 132 176 224 281 336 396
#     4  11  25  45  71 102 137 177 225 279 338 402
#     4  11  24  45  70  99 137 177 222 279 340 401
#     4  10  24  44  69  99 137 178 226 277 335 399
#     4  11  23  39  66  96 132 175 226 274 334 398
#
# _framework density 25.613406000000001
#
# number of rings (size 3 to 8) (size 9 to 14) (size 15 to 20)
#    0.000    1.333    0.000    5.000    0.000   14.667 
#    0.000    1.667    0.000    0.000    0.000    0.000 
#    0.000    0.000    0.000    0.000    0.000    0.000 
#
# Total GULP energy -134661.459886 kJ/mol
# GULP energy per Si atom -5610.894162 kJ/mol
# Density = 2.555511 g / cm^3
# Si number density = 25.613406 Si / 1000 Ang^3
#
#
#
# Elastic Constant Matrix: (Units=GPa)
#
#
# Indices 1 2 3 4 5 6 
#
# 1 89.8219 27.6043 38.6197 0.0000 0.0000 0.0000
# 2 27.6043 133.4193 77.9033 0.0000 0.0000 0.0000
# 3 38.6197 77.9033 143.4494 0.0000 0.0000 0.0000
# 4 0.0000 0.0000 0.0000 53.9247 0.0000 0.0000
# 5 0.0000 0.0000 0.0000 0.0000 44.9198 0.0000
# 6 0.0000 0.0000 0.0000 0.0000 0.0000 38.4517
#
#
#
# Elastic Compliance Matrix: (Units=1/GPa)
#
#
# Indices 1 2 3 4 5 6 
#
# 1 0.012668 -0.000922 -0.002910 0.000000 0.000000 0.000000
# 2 -0.000922 0.011043 -0.005749 0.000000 0.000000 0.000000
# 3 -0.002910 -0.005749 0.010876 0.000000 0.000000 0.000000
# 4 0.000000 0.000000 0.000000 0.018544 0.000000 0.000000
# 5 0.000000 0.000000 0.000000 0.000000 0.022262 0.000000
# 6 0.000000 0.000000 0.000000 0.000000 0.000000 0.026007
#
#
# Mechanical properties :
#
#
# Convention : Reuss Voigt Hill
#
# Bulk Modulus (GPa) = 64.82628 72.77169 68.79898
# Shear Modulus (GPa) = 39.77660 42.29679 41.03669
#
# Velocity S-wave (km/s) = 3.94504 4.06809 4.00704
# Velocity P-wave (km/s) = 6.79084 7.10909 6.95179
#
# Compressibility (1/GPa) = 0.01542584
#
# Stress axis : x y z
#
# Youngs Moduli (GPa) = 78.94207 90.55858 91.94209
#
# Poissons Ratio (x) = 0.08349 0.26752
# Poissons Ratio (y) = 0.07278 0.52855
# Poissons Ratio (z) = 0.22970 0.52059
#
# Static dielectric constant tensor:
#      x y z
#    x 2.078460 0.000000 0.000000 
#    y 0.000000 1.946310 0.000000 
#    z 0.000000 0.000000 1.994810 
# 
# From -- ./inp_files/5226.got.cif
#   From: 2010.05.17/outbox.cif.g08.bks.cpg/sg33_3_cif.got.tgz:5226.got - 2010.06.03 17:15:25.
