data_PCOD9346410
_publ_section_title
;
Structure prediction by ZEFSAII (Michael W. Deem and Ramdas Pophale) SiO2 
 PCOD9346410
Probable space group: P N A 21
;
_chemical_formula_sum "Si O2"
_cell_formula_units_Z 20
_cell_length_a 5.464524
_cell_length_b 11.185018
_cell_length_c 12.887347
_cell_angle_alpha 90.000000
_cell_angle_beta 90.000000
_cell_angle_gamma 90.000000
_cell_volume 787.684950
_symmetry_space_group_name_H-M "P N A 21"
_symmetry_group_IT_number 33
_symmetry_cell_setting 'orthorhombic'
loop_
_space_group_symop_operation_xyz
x,y,z
-x,-y,1/2+z
1/2-x,1/2+y,1/2+z
1/2+x,1/2-y,z
loop_
_atom_site_type_symbol
_atom_site_label
_atom_site_fract_x
_atom_site_fract_y
_atom_site_fract_z
Si Si1 0.809588 0.629737 0.868070
Si Si2 0.278041 0.182706 0.050389
Si Si3 0.687567 0.401432 0.455394
Si Si4 0.780282 0.309788 0.803698
Si Si5 0.366345 0.970476 0.660688
O O1 0.567789 0.562415 0.905370
O O2 0.816955 0.755693 0.933630
O O3 0.791629 0.635603 0.742933
O O4 0.065233 0.568044 0.895235
O O5 0.003579 0.224897 0.073359
O O6 0.294715 0.173641 0.926712
O O7 0.374028 0.067847 0.111962
O O8 0.715186 0.471088 0.564342
O O9 0.995296 0.214249 0.777698
O O10 0.871482 0.420703 0.738728
#
# Coordination Sequence:
#
# PCOD9346410 Si02
#       5
#     4   4   4   4   4
#     4  10  25  45  69 108 149 187 251 308 360 453
#     4  10  25  46  68 104 146 187 249 301 357 456
#     4  10  25  45  69 108 149 187 251 308 360 453
#     4  10  25  46  68 104 146 187 249 301 357 456
#     4  12  26  44  84 104 148 212 230 314 398 412
#
# _framework density 25.390863
#
# number of rings (size 3 to 8) (size 9 to 14) (size 15 to 20)
#    0.000    1.600    0.000    1.200   11.200   11.200 
#    0.000    0.000    0.000    0.000    0.000    0.000 
#    0.000    0.000    0.000    0.000    0.000    0.000 
#
# Total GULP energy -111495.796254 kJ/mol
# GULP energy per Si atom -5574.789813 kJ/mol
# Density = 2.533307 g / cm^3
# Si number density = 25.390863 Si / 1000 Ang^3
#
#
#
# Elastic Constant Matrix: (Units=GPa)
#
#
# Indices 1 2 3 4 5 6 
#
# 1 152.9464 18.7826 34.3046 0.0000 0.0000 0.0000
# 2 18.7826 71.5503 29.6007 0.0000 0.0000 0.0000
# 3 34.3046 29.6007 114.7876 0.0000 0.0000 0.0000
# 4 0.0000 0.0000 0.0000 45.6100 0.0000 0.0000
# 5 0.0000 0.0000 0.0000 0.0000 8.2969 0.0000
# 6 0.0000 0.0000 0.0000 0.0000 0.0000 31.7036
#
#
#
# Elastic Compliance Matrix: (Units=1/GPa)
#
#
# Indices 1 2 3 4 5 6 
#
# 1 0.007085 -0.001101 -0.001833 0.000000 0.000000 0.000000
# 2 -0.001101 0.015816 -0.003750 0.000000 0.000000 0.000000
# 3 -0.001833 -0.003750 0.010227 0.000000 0.000000 0.000000
# 4 0.000000 0.000000 0.000000 0.021925 0.000000 0.000000
# 5 0.000000 0.000000 0.000000 0.000000 0.120527 0.000000
# 6 0.000000 0.000000 0.000000 0.000000 0.000000 0.031542
#
#
# Mechanical properties :
#
#
# Convention : Reuss Voigt Hill
#
# Bulk Modulus (GPa) = 50.60879 56.07335 53.34107
# Shear Modulus (GPa) = 22.01905 34.22854 28.12379
#
# Velocity S-wave (km/s) = 2.94803 3.67558 3.33172
# Velocity P-wave (km/s) = 5.61809 6.33603 5.98783
#
# Compressibility (1/GPa) = 0.01975941
#
# Stress axis : x y z
#
# Youngs Moduli (GPa) = 141.14970 63.22516 97.78499
#
# Poissons Ratio (x) = 0.06963 0.17927
# Poissons Ratio (y) = 0.15546 0.36665
# Poissons Ratio (z) = 0.25877 0.23706
#
# Static dielectric constant tensor:
#      x y z
#    x 1.987740 0.000000 0.000000 
#    y 0.000000 2.372330 0.000000 
#    z 0.000000 0.000000 2.040620 
# 
# From -- ./inp_files/5397.got.cif
#   From: 2010.05.17/outbox.cif.g08.bks.cpg/sg33_3_cif.got.tgz:5397.got - 2010.06.03 17:15:25.
