data_PCOD9346893
_publ_section_title
;
Structure prediction by ZEFSAII (Michael W. Deem and Ramdas Pophale) SiO2 
 PCOD9346893
Probable space group: P N A 21
;
_chemical_formula_sum "Si O2"
_cell_formula_units_Z 28
_cell_length_a 23.125220
_cell_length_b 5.507389
_cell_length_c 8.261186
_cell_angle_alpha 90.000000
_cell_angle_beta 90.000000
_cell_angle_gamma 90.000000
_cell_volume 1052.141198
_symmetry_space_group_name_H-M "P N A 21"
_symmetry_group_IT_number 33
_symmetry_cell_setting 'orthorhombic'
loop_
_space_group_symop_operation_xyz
x,y,z
-x,-y,1/2+z
1/2-x,1/2+y,1/2+z
1/2+x,1/2-y,z
loop_
_atom_site_type_symbol
_atom_site_label
_atom_site_fract_x
_atom_site_fract_y
_atom_site_fract_z
Si Si1 0.771264 0.669586 0.125000
Si Si2 0.621844 0.491205 0.685504
Si Si3 0.308811 0.983212 0.469752
Si Si4 0.428589 0.165707 0.402609
Si Si5 0.402933 0.308539 0.867254
Si Si6 0.510594 0.187250 0.702168
Si Si7 0.338746 0.820880 0.792883
O O1 0.773065 0.537638 0.301204
O O2 0.814268 0.892642 0.173386
O O3 0.800835 0.603023 0.951563
O O4 0.710778 0.774094 0.064044
O O5 0.604649 0.591571 0.858412
O O6 0.614635 0.705348 0.555645
O O7 0.570529 0.305701 0.646583
O O8 0.304260 0.799162 0.621575
O O9 0.375662 0.978383 0.418509
O O10 0.466884 0.188328 0.557093
O O11 0.472406 0.076010 0.265995
O O12 0.472327 0.318872 0.841292
O O13 0.372429 0.564587 0.816987
O O14 0.381090 0.057231 0.785676
#
# Coordination Sequence:
#
# PCOD9346893 Si02
#       7
#     4   4   4   4   4   4   4
#     4  11  29  50  81 118 164 225 283 359 411 510
#     4  11  26  46  74 112 161 211 280 342 421 501
#     4  12  28  52  82 120 167 224 288 349 431 501
#     4  12  27  47  77 115 164 212 279 342 426 505
#     4  11  26  48  80 115 162 216 270 344 419 509
#     4  12  26  44  77 114 160 213 270 347 424 511
#     4  11  28  53  81 120 168 215 288 339 424 499
#
# _framework density 26.612393999999998
#
# number of rings (size 3 to 8) (size 9 to 14) (size 15 to 20)
#    0.000    0.571    2.857    2.571   16.000    2.286 
#    0.000    0.000    0.000    0.000    0.000    0.000 
#    0.000    0.000    0.000    0.000    0.000    0.000 
#
# Total GULP energy -156437.249544 kJ/mol
# GULP energy per Si atom -5587.044627 kJ/mol
# Density = 2.655182 g / cm^3
# Si number density = 26.612394 Si / 1000 Ang^3
#
#
#
# Elastic Constant Matrix: (Units=GPa)
#
#
# Indices 1 2 3 4 5 6 
#
# 1 89.0289 16.2428 30.8232 0.0000 0.0000 0.0000
# 2 16.2428 73.9139 33.9780 0.0000 0.0000 0.0000
# 3 30.8232 33.9780 134.7970 0.0000 0.0000 0.0000
# 4 0.0000 0.0000 0.0000 39.5901 0.0000 0.0000
# 5 0.0000 0.0000 0.0000 0.0000 54.2561 0.0000
# 6 0.0000 0.0000 0.0000 0.0000 0.0000 38.8949
#
#
#
# Elastic Compliance Matrix: (Units=1/GPa)
#
#
# Indices 1 2 3 4 5 6 
#
# 1 0.012364 -0.001603 -0.002423 0.000000 0.000000 0.000000
# 2 -0.001603 0.015510 -0.003543 0.000000 0.000000 0.000000
# 3 -0.002423 -0.003543 0.008866 0.000000 0.000000 0.000000
# 4 0.000000 0.000000 0.000000 0.025259 0.000000 0.000000
# 5 0.000000 0.000000 0.000000 0.000000 0.018431 0.000000
# 6 0.000000 0.000000 0.000000 0.000000 0.000000 0.025710
#
#
# Mechanical properties :
#
#
# Convention : Reuss Voigt Hill
#
# Bulk Modulus (GPa) = 46.29357 51.09198 48.69278
# Shear Modulus (GPa) = 38.91695 40.99462 39.95579
#
# Velocity S-wave (km/s) = 3.82823 3.92909 3.87899
# Velocity P-wave (km/s) = 6.08060 6.31062 6.19668
#
# Compressibility (1/GPa) = 0.02160127
#
# Stress axis : x y z
#
# Youngs Moduli (GPa) = 80.88208 64.47336 112.79397
#
# Poissons Ratio (x) = 0.10336 0.27330
# Poissons Ratio (y) = 0.12966 0.39964
# Poissons Ratio (z) = 0.19598 0.22843
#
# Static dielectric constant tensor:
#      x y z
#    x 2.041080 0.000000 0.000000 
#    y 0.000000 2.185110 0.000000 
#    z 0.000000 0.000000 2.210300 
# 
# From -- ./inp_files/5134.got.cif
#   From: 2010.05.17/outbox.cif.g08.bks.cpg/sg33_3_cif.got.tgz:5134.got - 2010.06.03 17:15:25.
