data_PCOD9346680
_publ_section_title
;
Structure prediction by ZEFSAII (Michael W. Deem and Ramdas Pophale) SiO2 
 PCOD9346680
Probable space group: P N A 21
;
_chemical_formula_sum "Si O2"
_cell_formula_units_Z 28
_cell_length_a 8.414463
_cell_length_b 16.040332
_cell_length_c 9.310763
_cell_angle_alpha 90.000000
_cell_angle_beta 90.000000
_cell_angle_gamma 90.000000
_cell_volume 1256.680946
_symmetry_space_group_name_H-M "P N A 21"
_symmetry_group_IT_number 33
_symmetry_cell_setting 'orthorhombic'
loop_
_space_group_symop_operation_xyz
x,y,z
-x,-y,1/2+z
1/2-x,1/2+y,1/2+z
1/2+x,1/2-y,z
loop_
_atom_site_type_symbol
_atom_site_label
_atom_site_fract_x
_atom_site_fract_y
_atom_site_fract_z
Si Si1 0.837324 0.587668 0.414890
Si Si2 0.455629 0.186849 0.695625
Si Si3 0.283737 0.841656 0.714183
Si Si4 0.072082 0.168155 0.288071
Si Si5 0.416509 0.941009 0.961839
Si Si6 0.109101 0.145489 0.617285
Si Si7 0.365675 0.491501 0.661585
O O1 0.757455 0.628091 0.553114
O O2 0.713711 0.551496 0.300601
O O3 0.948284 0.654479 0.333104
O O4 0.950814 0.511932 0.463509
O O5 0.529612 0.136376 0.560628
O O6 0.271630 0.161822 0.701398
O O7 0.483020 0.284417 0.667799
O O8 0.370712 0.753393 0.718204
O O9 0.388150 0.908326 0.801635
O O10 0.118309 0.832016 0.797469
O O11 0.140867 0.159937 0.448454
O O12 0.119199 0.088321 0.195233
O O13 0.252997 0.974861 0.029606
O O14 0.032436 0.054840 0.635860
#
# Coordination Sequence:
#
# PCOD9346680 Si02
#       7
#     4   4   4   4   4   4   4
#     4  11  27  45  72 109 145 184 240 304 361 423
#     4  11  24  44  75 101 140 191 237 295 350 441
#     4  12  27  47  72 109 144 191 237 302 366 435
#     4  12  28  45  76 105 144 188 245 302 362 438
#     4  11  23  47  74 102 141 192 236 284 366 429
#     4  12  24  47  74 103 140 192 246 288 365 436
#     4  11  27  47  71 107 142 188 243 295 360 442
#
# _framework density 22.280913000000002
#
# number of rings (size 3 to 8) (size 9 to 14) (size 15 to 20)
#    0.000    0.571    2.857    5.143   10.000    2.286 
#    0.000    0.000    0.000    0.000    0.000    0.000 
#    0.000    0.000    0.000    0.000    0.000    0.000 
#
# Total GULP energy -156954.683632 kJ/mol
# GULP energy per Si atom -5605.524415 kJ/mol
# Density = 2.223020 g / cm^3
# Si number density = 22.280913 Si / 1000 Ang^3
#
#
#
# Elastic Constant Matrix: (Units=GPa)
#
#
# Indices 1 2 3 4 5 6 
#
# 1 58.0644 -4.8835 -13.0504 0.0000 0.0000 0.0000
# 2 -4.8835 89.3571 14.7616 0.0000 0.0000 0.0000
# 3 -13.0504 14.7616 71.0690 0.0000 0.0000 0.0000
# 4 0.0000 0.0000 0.0000 31.8452 0.0000 0.0000
# 5 0.0000 0.0000 0.0000 0.0000 18.1061 0.0000
# 6 0.0000 0.0000 0.0000 0.0000 0.0000 31.3282
#
#
#
# Elastic Compliance Matrix: (Units=1/GPa)
#
#
# Indices 1 2 3 4 5 6 
#
# 1 0.017981 0.000453 0.003208 0.000000 0.000000 0.000000
# 2 0.000453 0.011600 -0.002326 0.000000 0.000000 0.000000
# 3 0.003208 -0.002326 0.015143 0.000000 0.000000 0.000000
# 4 0.000000 0.000000 0.000000 0.031402 0.000000 0.000000
# 5 0.000000 0.000000 0.000000 0.000000 0.055230 0.000000
# 6 0.000000 0.000000 0.000000 0.000000 0.000000 0.031920
#
#
# Mechanical properties :
#
#
# Convention : Reuss Voigt Hill
#
# Bulk Modulus (GPa) = 21.10006 23.57175 22.33591
# Shear Modulus (GPa) = 28.34379 31.03342 29.68860
#
# Velocity S-wave (km/s) = 3.57054 3.73611 3.65426
# Velocity P-wave (km/s) = 5.14673 5.40496 5.27743
#
# Compressibility (1/GPa) = 0.04739323
#
# Stress axis : x y z
#
# Youngs Moduli (GPa) = 55.61325 86.20617 66.03677
#
# Poissons Ratio (x) = -0.03903 -0.21184
# Poissons Ratio (y) = -0.02518 0.15362
# Poissons Ratio (z) = -0.17840 0.20054
#
# Static dielectric constant tensor:
#      x y z
#    x 1.803300 0.000000 0.000000 
#    y 0.000000 1.794740 0.000000 
#    z 0.000000 0.000000 1.770160 
# 
# From -- ./inp_files/3203.got.cif
#   From: 2010.05.17/outbox.cif.g08.bks.cpg/sg33_2_cif.got.tgz:3203.got - 2010.06.03 17:15:25.
