data_PCOD9346901
_publ_section_title
;
Structure prediction by ZEFSAII (Michael W. Deem and Ramdas Pophale) SiO2 
 PCOD9346901
Probable space group: P N A 21
;
_chemical_formula_sum "Si O2"
_cell_formula_units_Z 20
_cell_length_a 5.173402
_cell_length_b 15.091333
_cell_length_c 8.969017
_cell_angle_alpha 90.000000
_cell_angle_beta 90.000000
_cell_angle_gamma 90.000000
_cell_volume 700.242839
_symmetry_space_group_name_H-M "P N A 21"
_symmetry_group_IT_number 33
_symmetry_cell_setting 'orthorhombic'
loop_
_space_group_symop_operation_xyz
x,y,z
-x,-y,1/2+z
1/2-x,1/2+y,1/2+z
1/2+x,1/2-y,z
loop_
_atom_site_type_symbol
_atom_site_label
_atom_site_fract_x
_atom_site_fract_y
_atom_site_fract_z
Si Si1 0.045341 0.803917 0.994810
Si Si2 0.431980 0.798889 0.607534
Si Si3 0.632625 0.507540 0.872442
Si Si4 0.719604 0.644860 0.305739
Si Si5 0.473805 0.996178 0.624413
O O1 0.321744 0.763740 0.952802
O O2 0.005122 0.900994 0.925126
O O3 0.054783 0.808071 0.176265
O O4 0.642753 0.727014 0.651849
O O5 0.396802 0.805487 0.426703
O O6 0.535172 0.893678 0.660517
O O7 0.466260 0.420004 0.902383
O O8 0.686662 0.501883 0.695081
O O9 0.907736 0.506064 0.959404
O O10 0.892666 0.577791 0.207583
#
# Coordination Sequence:
#
# PCOD9346901 Si02
#       5
#     4   4   4   4   4
#     4  11  28  48  78 116 156 204 259 331 394 457
#     4  12  27  46  73 113 155 196 252 328 389 447
#     4  11  27  46  83 109 160 208 271 319 391 474
#     4  11  26  47  79 106 159 213 272 303 394 487
#     4  11  26  47  77 112 152 209 264 317 388 475
#
# _framework density 28.561520000000002
#
# number of rings (size 3 to 8) (size 9 to 14) (size 15 to 20)
#    0.000    0.800    2.000    2.400   16.800    1.600 
#    0.000    0.000    0.000    0.000    0.000    0.000 
#    0.000    0.000    0.000    0.000    0.000    0.000 
#
# Total GULP energy -112045.736494 kJ/mol
# GULP energy per Si atom -5602.286825 kJ/mol
# Density = 2.849651 g / cm^3
# Si number density = 28.561520 Si / 1000 Ang^3
#
#
#
# Elastic Constant Matrix: (Units=GPa)
#
#
# Indices 1 2 3 4 5 6 
#
# 1 84.4123 33.2093 26.8082 0.0000 0.0000 0.0000
# 2 33.2093 89.5036 15.2644 0.0000 0.0000 0.0000
# 3 26.8082 15.2644 145.4397 0.0000 0.0000 0.0000
# 4 0.0000 0.0000 0.0000 66.9429 0.0000 0.0000
# 5 0.0000 0.0000 0.0000 0.0000 43.3558 0.0000
# 6 0.0000 0.0000 0.0000 0.0000 0.0000 51.1215
#
#
#
# Elastic Compliance Matrix: (Units=1/GPa)
#
#
# Indices 1 2 3 4 5 6 
#
# 1 0.014501 -0.005014 -0.002147 0.000000 0.000000 0.000000
# 2 -0.005014 0.013110 -0.000452 0.000000 0.000000 0.000000
# 3 -0.002147 -0.000452 0.007319 0.000000 0.000000 0.000000
# 4 0.000000 0.000000 0.000000 0.014938 0.000000 0.000000
# 5 0.000000 0.000000 0.000000 0.000000 0.023065 0.000000
# 6 0.000000 0.000000 0.000000 0.000000 0.000000 0.019561
#
#
# Mechanical properties :
#
#
# Convention : Reuss Voigt Hill
#
# Bulk Modulus (GPa) = 50.74915 52.21328 51.48122
# Shear Modulus (GPa) = 43.74907 48.55562 46.15234
#
# Velocity S-wave (km/s) = 3.91800 4.12762 4.02418
# Velocity P-wave (km/s) = 6.18665 6.40602 6.29729
#
# Compressibility (1/GPa) = 0.01970476
#
# Stress axis : x y z
#
# Youngs Moduli (GPa) = 68.96029 76.27598 136.63464
#
# Poissons Ratio (x) = 0.38248 0.29331
# Poissons Ratio (y) = 0.34579 0.06172
# Poissons Ratio (z) = 0.14803 0.03445
#
# Static dielectric constant tensor:
#      x y z
#    x 2.220940 0.000000 0.000000 
#    y 0.000000 2.112490 0.000000 
#    z 0.000000 0.000000 2.344260 
# 
# From -- ./inp_files/2635.got.cif
#   From: 2010.05.17/outbox.cif.g08.bks.cpg/sg33_2_cif.got.tgz:2635.got - 2010.06.03 17:15:25.
