data_PCOD9346044
_publ_section_title
;
Structure prediction by ZEFSAII (Michael W. Deem and Ramdas Pophale) SiO2 
 PCOD9346044
Probable space group: P N A 21
;
_chemical_formula_sum "Si O2"
_cell_formula_units_Z 24
_cell_length_a 9.392465
_cell_length_b 20.358398
_cell_length_c 4.980535
_cell_angle_alpha 90.000000
_cell_angle_beta 90.000000
_cell_angle_gamma 90.000000
_cell_volume 952.355693
_symmetry_space_group_name_H-M "P N A 21"
_symmetry_group_IT_number 33
_symmetry_cell_setting 'orthorhombic'
loop_
_space_group_symop_operation_xyz
x,y,z
-x,-y,1/2+z
1/2-x,1/2+y,1/2+z
1/2+x,1/2-y,z
loop_
_atom_site_type_symbol
_atom_site_label
_atom_site_fract_x
_atom_site_fract_y
_atom_site_fract_z
Si Si1 0.462042 0.463787 0.844430
Si Si2 0.007187 0.177312 0.652162
Si Si3 0.998490 0.711924 0.789289
Si Si4 0.664498 0.037876 0.131196
Si Si5 0.008843 0.411291 0.635064
Si Si6 0.755641 0.246947 0.956585
O O1 0.437737 0.511442 0.588441
O O2 0.519966 0.399005 0.699692
O O3 0.318895 0.451123 0.011764
O O4 0.997931 0.210093 0.360633
O O5 0.143315 0.213578 0.778379
O O6 0.859859 0.201041 0.786961
O O7 0.012537 0.663244 0.040902
O O8 0.844779 0.705038 0.654315
O O9 0.138576 0.703852 0.611098
O O10 0.557230 0.078086 0.938522
O O11 0.622551 0.961116 0.096241
O O12 0.630745 0.060556 0.432938
#
# Coordination Sequence:
#
# PCOD9346044 Si02
#       6
#     4   4   4   4   4   4
#     4  12  29  46  73 101 150 194 234 295 363 442
#     4  11  26  46  71 107 142 190 244 297 370 430
#     4  11  24  41  71 101 143 186 236 308 355 430
#     4  10  23  45  67 104 136 186 236 291 346 435
#     4  10  23  41  73  98 136 182 241 291 354 411
#     4  10  25  43  69 103 139 184 237 304 358 432
#
# _framework density 25.200665999999998
#
# number of rings (size 3 to 8) (size 9 to 14) (size 15 to 20)
#    0.000    1.333    0.000    3.000   16.333    1.333 
#    0.000    0.000    0.000    0.000    0.000    0.000 
#    0.000    0.000    0.000    0.000    0.000    0.000 
#
# Total GULP energy -134407.402785 kJ/mol
# GULP energy per Si atom -5600.308449 kJ/mol
# Density = 2.514331 g / cm^3
# Si number density = 25.200666 Si / 1000 Ang^3
#
#
#
# Elastic Constant Matrix: (Units=GPa)
#
#
# Indices 1 2 3 4 5 6 
#
# 1 108.3886 18.6725 17.3554 0.0000 0.0000 0.0000
# 2 18.6725 83.6362 8.6754 0.0000 0.0000 0.0000
# 3 17.3554 8.6754 69.8683 0.0000 0.0000 0.0000
# 4 0.0000 0.0000 0.0000 39.2795 0.0000 0.0000
# 5 0.0000 0.0000 0.0000 0.0000 29.8865 0.0000
# 6 0.0000 0.0000 0.0000 0.0000 0.0000 19.2655
#
#
#
# Elastic Compliance Matrix: (Units=1/GPa)
#
#
# Indices 1 2 3 4 5 6 
#
# 1 0.009923 -0.001985 -0.002218 0.000000 0.000000 0.000000
# 2 -0.001985 0.012510 -0.001060 0.000000 0.000000 0.000000
# 3 -0.002218 -0.001060 0.014995 0.000000 0.000000 0.000000
# 4 0.000000 0.000000 0.000000 0.025459 0.000000 0.000000
# 5 0.000000 0.000000 0.000000 0.000000 0.033460 0.000000
# 6 0.000000 0.000000 0.000000 0.000000 0.000000 0.051906
#
#
# Mechanical properties :
#
#
# Convention : Reuss Voigt Hill
#
# Bulk Modulus (GPa) = 37.17398 39.03329 38.10364
# Shear Modulus (GPa) = 29.80664 32.16561 30.98613
#
# Velocity S-wave (km/s) = 3.44288 3.57652 3.51033
# Velocity P-wave (km/s) = 5.53062 5.70771 5.61986
#
# Compressibility (1/GPa) = 0.02690054
#
# Stress axis : x y z
#
# Youngs Moduli (GPa) = 100.77286 79.93757 66.68732
#
# Poissons Ratio (x) = 0.15870 0.14794
# Poissons Ratio (y) = 0.20007 0.07070
# Poissons Ratio (z) = 0.22356 0.08474
#
# Static dielectric constant tensor:
#      x y z
#    x 1.959820 0.000000 0.000000 
#    y 0.000000 2.035890 0.000000 
#    z 0.000000 0.000000 1.989290 
# 
# From -- ./inp_files/401.got.cif
#   From: 2010.05.17/outbox.cif.g08.bks.cpg/sg33_1_cif.got.tgz:401.got - 2010.06.03 17:15:25.
