data_PCOD9346364
_publ_section_title
;
Structure prediction by ZEFSAII (Michael W. Deem and Ramdas Pophale) SiO2 
 PCOD9346364
Probable space group: P N A 21
;
_chemical_formula_sum "Si O2"
_cell_formula_units_Z 28
_cell_length_a 14.631652
_cell_length_b 13.937402
_cell_length_c 5.250264
_cell_angle_alpha 90.000000
_cell_angle_beta 90.000000
_cell_angle_gamma 90.000000
_cell_volume 1070.671720
_symmetry_space_group_name_H-M "P N A 21"
_symmetry_group_IT_number 33
_symmetry_cell_setting 'orthorhombic'
loop_
_space_group_symop_operation_xyz
x,y,z
-x,-y,1/2+z
1/2-x,1/2+y,1/2+z
1/2+x,1/2-y,z
loop_
_atom_site_type_symbol
_atom_site_label
_atom_site_fract_x
_atom_site_fract_y
_atom_site_fract_z
Si Si1 0.968012 0.950486 0.868250
Si Si2 0.964967 0.375957 0.147063
Si Si3 0.545485 0.729916 0.029826
Si Si4 0.836355 0.533508 0.066026
Si Si5 0.812360 0.232072 0.921497
Si Si6 0.116120 0.281876 0.836444
Si Si7 0.778345 0.015622 0.062528
O O1 0.010104 0.845396 0.822809
O O2 0.868069 0.954930 0.994787
O O3 0.970085 0.004297 0.596897
O O4 0.933289 0.480022 0.063643
O O5 0.884511 0.307022 0.032592
O O6 0.064913 0.349540 0.041159
O O7 0.960383 0.338807 0.435417
O O8 0.644830 0.712146 0.142153
O O9 0.466079 0.716848 0.239414
O O10 0.774808 0.504511 0.826455
O O11 0.848961 0.646895 0.112653
O O12 0.788839 0.498432 0.326117
O O13 0.708242 0.268537 0.927627
O O14 0.807809 0.127794 0.050004
#
# Coordination Sequence:
#
# PCOD9346364 Si02
#       7
#     4   4   4   4   4   4   4
#     4  12  25  44  74 108 152 190 251 312 377 460
#     4  11  27  45  76 105 150 193 255 310 374 452
#     4  11  26  44  72 110 142 201 241 317 381 446
#     4  11  28  46  75 105 148 198 256 306 378 450
#     4  10  24  48  68 104 145 189 245 311 379 447
#     4  10  27  44  72 102 142 196 243 310 371 450
#     4  11  25  47  73 108 143 203 243 316 382 449
#
# _framework density 26.151809
#
# number of rings (size 3 to 8) (size 9 to 14) (size 15 to 20)
#    0.000    1.143    1.429    1.714   20.000    1.143 
#    0.000    0.000    0.000    0.000    0.000    0.000 
#    0.000    0.000    0.000    0.000    0.000    0.000 
#
# Total GULP energy -156693.752010 kJ/mol
# GULP energy per Si atom -5596.205429 kJ/mol
# Density = 2.609229 g / cm^3
# Si number density = 26.151809 Si / 1000 Ang^3
#
#
#
# Elastic Constant Matrix: (Units=GPa)
#
#
# Indices 1 2 3 4 5 6 
#
# 1 177.0056 9.1215 40.5699 0.0000 0.0000 0.0000
# 2 9.1215 77.8775 11.4334 0.0000 0.0000 0.0000
# 3 40.5699 11.4334 115.9866 0.0000 0.0000 0.0000
# 4 0.0000 0.0000 0.0000 20.6718 0.0000 0.0000
# 5 0.0000 0.0000 0.0000 0.0000 48.3499 0.0000
# 6 0.0000 0.0000 0.0000 0.0000 0.0000 42.4873
#
#
#
# Elastic Compliance Matrix: (Units=1/GPa)
#
#
# Indices 1 2 3 4 5 6 
#
# 1 0.006155 -0.000411 -0.002112 0.000000 0.000000 0.000000
# 2 -0.000411 0.013057 -0.001143 0.000000 0.000000 0.000000
# 3 -0.002112 -0.001143 0.009473 0.000000 0.000000 0.000000
# 4 0.000000 0.000000 0.000000 0.048375 0.000000 0.000000
# 5 0.000000 0.000000 0.000000 0.000000 0.020683 0.000000
# 6 0.000000 0.000000 0.000000 0.000000 0.000000 0.023536
#
#
# Mechanical properties :
#
#
# Convention : Reuss Voigt Hill
#
# Bulk Modulus (GPa) = 46.83460 54.79105 50.81282
# Shear Modulus (GPa) = 36.83806 42.95146 39.89476
#
# Velocity S-wave (km/s) = 3.75724 4.05704 3.91001
# Velocity P-wave (km/s) = 6.06383 6.55307 6.31319
#
# Compressibility (1/GPa) = 0.02135174
#
# Stress axis : x y z
#
# Youngs Moduli (GPa) = 162.47316 76.58932 105.56030
#
# Poissons Ratio (x) = 0.03146 0.22298
# Poissons Ratio (y) = 0.06674 0.12070
# Poissons Ratio (z) = 0.34320 0.08757
#
# Static dielectric constant tensor:
#      x y z
#    x 2.029630 0.000000 0.000000 
#    y 0.000000 2.088680 0.000000 
#    z 0.000000 0.000000 2.148040 
# 
# From -- ./inp_files/1435.got.cif
#   From: 2010.05.17/outbox.cif.g08.bks.cpg/sg33_1_cif.got.tgz:1435.got - 2010.06.03 17:15:25.
