data_PCOD9346633
_publ_section_title
;
Structure prediction by ZEFSAII (Michael W. Deem and Ramdas Pophale) SiO2 
 PCOD9346633
Probable space group: P N A 21
;
_chemical_formula_sum "Si O2"
_cell_formula_units_Z 20
_cell_length_a 5.228433
_cell_length_b 16.269459
_cell_length_c 8.492641
_cell_angle_alpha 90.000000
_cell_angle_beta 90.000000
_cell_angle_gamma 90.000000
_cell_volume 722.416114
_symmetry_space_group_name_H-M "P N A 21"
_symmetry_group_IT_number 33
_symmetry_cell_setting 'orthorhombic'
loop_
_space_group_symop_operation_xyz
x,y,z
-x,-y,1/2+z
1/2-x,1/2+y,1/2+z
1/2+x,1/2-y,z
loop_
_atom_site_type_symbol
_atom_site_label
_atom_site_fract_x
_atom_site_fract_y
_atom_site_fract_z
Si Si1 0.184545 0.864653 0.281260
Si Si2 0.826921 0.321185 0.918663
Si Si3 0.836992 0.980720 0.256165
Si Si4 0.198412 0.202835 0.281235
Si Si5 0.018453 0.415729 0.497051
O O1 0.410159 0.872465 0.412589
O O2 0.333332 0.852550 0.113684
O O3 0.120261 0.765920 0.338104
O O4 0.136238 0.971119 0.234649
O O5 0.639555 0.382987 0.820463
O O6 0.728895 0.316162 0.095508
O O7 0.662926 0.973040 0.105488
O O8 0.718965 0.038677 0.384156
O O9 0.401527 0.277198 0.305909
O O10 0.315212 0.134330 0.392149
#
# Coordination Sequence:
#
# PCOD9346633 Si02
#       5
#     4   4   4   4   4
#     4   9  21  41  69 101 133 170 220 286 361 412
#     4   9  20  46  65  98 130 172 237 282 348 418
#     4   9  22  41  74 106 136 178 220 300 365 413
#     4  12  28  46  69  97 138 193 240 288 343 422
#     4  11  23  44  71 104 147 179 237 292 361 431
#
# _framework density 27.684878999999999
#
# number of rings (size 3 to 8) (size 9 to 14) (size 15 to 20)
#    1.200    0.800    0.000    2.400    2.800    4.800 
#    0.000   14.000    0.000    0.000    0.000    0.000 
#    0.000    0.000    0.000    0.000    0.000    0.000 
#
# Total GULP energy -111644.796216 kJ/mol
# GULP energy per Si atom -5582.239811 kJ/mol
# Density = 2.762187 g / cm^3
# Si number density = 27.684879 Si / 1000 Ang^3
#
#
#
# Elastic Constant Matrix: (Units=GPa)
#
#
# Indices 1 2 3 4 5 6 
#
# 1 103.3065 27.6937 5.0174 0.0000 0.0000 0.0000
# 2 27.6937 98.7620 78.8367 0.0000 0.0000 0.0000
# 3 5.0174 78.8367 152.7908 0.0000 0.0000 0.0000
# 4 0.0000 0.0000 0.0000 65.8681 0.0000 0.0000
# 5 0.0000 0.0000 0.0000 0.0000 42.7906 0.0000
# 6 0.0000 0.0000 0.0000 0.0000 0.0000 52.8482
#
#
#
# Elastic Compliance Matrix: (Units=1/GPa)
#
#
# Indices 1 2 3 4 5 6 
#
# 1 0.010835 -0.004683 0.002061 0.000000 0.000000 0.000000
# 2 -0.004683 0.019241 -0.009774 0.000000 0.000000 0.000000
# 3 0.002061 -0.009774 0.011520 0.000000 0.000000 0.000000
# 4 0.000000 0.000000 0.000000 0.015182 0.000000 0.000000
# 5 0.000000 0.000000 0.000000 0.000000 0.023370 0.000000
# 6 0.000000 0.000000 0.000000 0.000000 0.000000 0.018922
#
#
# Mechanical properties :
#
#
# Convention : Reuss Voigt Hill
#
# Bulk Modulus (GPa) = 59.51240 64.21721 61.86481
# Shear Modulus (GPa) = 38.62081 48.52216 43.57149
#
# Velocity S-wave (km/s) = 3.73904 4.19102 3.97147
# Velocity P-wave (km/s) = 6.33905 6.83123 6.58974
#
# Compressibility (1/GPa) = 0.01680322
#
# Stress axis : x y z
#
# Youngs Moduli (GPa) = 92.29110 51.97348 86.80288
#
# Poissons Ratio (x) = 0.24340 -0.17887
# Poissons Ratio (y) = 0.43222 0.84840
# Poissons Ratio (z) = -0.19017 0.50798
#
# Static dielectric constant tensor:
#      x y z
#    x 2.384330 0.000000 0.000000 
#    y 0.000000 2.389080 0.000000 
#    z 0.000000 0.000000 2.220800 
# 
# From -- ./inp_files/2622.got.cif
#   From: 2010.05.17/outbox.cif.g08.bks.cpg/sg33_2_cif.got.tgz:2622.got - 2010.06.03 17:15:25.
