data_PCOD9346463
_publ_section_title
;
Structure prediction by ZEFSAII (Michael W. Deem and Ramdas Pophale) SiO2 
 PCOD9346463
Probable space group: P N A 21
;
_chemical_formula_sum "Si O2"
_cell_formula_units_Z 32
_cell_length_a 16.887665
_cell_length_b 5.979066
_cell_length_c 14.075030
_cell_angle_alpha 90.000000
_cell_angle_beta 90.000000
_cell_angle_gamma 90.000000
_cell_volume 1421.190455
_symmetry_space_group_name_H-M "P N A 21"
_symmetry_group_IT_number 33
_symmetry_cell_setting 'orthorhombic'
loop_
_space_group_symop_operation_xyz
x,y,z
-x,-y,1/2+z
1/2-x,1/2+y,1/2+z
1/2+x,1/2-y,z
loop_
_atom_site_type_symbol
_atom_site_label
_atom_site_fract_x
_atom_site_fract_y
_atom_site_fract_z
Si Si1 0.630726 0.639797 0.620120
Si Si2 0.966761 0.778523 0.007611
Si Si3 0.193734 0.486744 0.482662
Si Si4 0.912294 0.618004 0.518268
Si Si5 0.005824 0.133921 0.858456
Si Si6 0.367357 0.066858 0.798785
Si Si7 0.018623 0.200672 0.200797
Si Si8 0.279707 0.139644 0.612030
O O1 0.567625 0.467868 0.576192
O O2 0.571944 0.791084 0.684584
O O3 0.702712 0.486554 0.655041
O O4 0.669910 0.793504 0.540263
O O5 0.886091 0.659125 0.978203
O O6 0.027956 0.589121 0.038990
O O7 0.005279 0.911894 0.921494
O O8 0.206324 0.518847 0.370035
O O9 0.255008 0.350386 0.547900
O O10 0.934630 0.796404 0.600258
O O11 0.825900 0.527055 0.540857
O O12 0.930195 0.711238 0.412916
O O13 0.924558 0.272690 0.859520
O O14 0.001792 0.032483 0.753202
O O15 0.335750 0.181474 0.702426
O O16 0.423275 0.859992 0.763838
#
# Coordination Sequence:
#
# PCOD9346463 Si02
#       8
#     4   4   4   4   4   4   4   4
#     4  11  23  45  69  99 136 189 224 296 362 427
#     4  11  19  41  73  96 127 182 235 291 354 405
#     4  11  21  47  69  94 143 189 232 297 366 429
#     4  11  23  45  67 110 140 183 242 297 353 429
#     4  12  22  40  74 105 133 179 238 302 347 419
#     4  11  23  44  66 107 136 187 248 293 351 442
#     4  11  23  38  74 104 134 181 245 289 346 425
#     4  10  28  42  70 101 149 190 226 295 373 430
#
# _framework density 22.516332999999999
#
# number of rings (size 3 to 8) (size 9 to 14) (size 15 to 20)
#    0.000    1.000    6.250    0.000    3.500    3.000 
#    6.750    0.000    0.000    0.000    0.000    0.000 
#    0.000    0.000    0.000    0.000    0.000    0.000 
#
# Total GULP energy -178234.569185 kJ/mol
# GULP energy per Si atom -5569.830287 kJ/mol
# Density = 2.246509 g / cm^3
# Si number density = 22.516333 Si / 1000 Ang^3
#
#
#
# Elastic Constant Matrix: (Units=GPa)
#
#
# Indices 1 2 3 4 5 6 
#
# 1 60.9950 20.4842 33.7811 0.0000 0.0000 0.0000
# 2 20.4842 68.8005 45.9224 0.0000 0.0000 0.0000
# 3 33.7811 45.9224 122.3544 0.0000 0.0000 0.0000
# 4 0.0000 0.0000 0.0000 35.2231 0.0000 0.0000
# 5 0.0000 0.0000 0.0000 0.0000 34.3473 0.0000
# 6 0.0000 0.0000 0.0000 0.0000 0.0000 21.4287
#
#
#
# Elastic Compliance Matrix: (Units=1/GPa)
#
#
# Indices 1 2 3 4 5 6 
#
# 1 0.019807 -0.002998 -0.004343 0.000000 0.000000 0.000000
# 2 -0.002998 0.019847 -0.006621 0.000000 0.000000 0.000000
# 3 -0.004343 -0.006621 0.011857 0.000000 0.000000 0.000000
# 4 0.000000 0.000000 0.000000 0.028390 0.000000 0.000000
# 5 0.000000 0.000000 0.000000 0.000000 0.029114 0.000000
# 6 0.000000 0.000000 0.000000 0.000000 0.000000 0.046666
#
#
# Mechanical properties :
#
#
# Convention : Reuss Voigt Hill
#
# Bulk Modulus (GPa) = 42.39835 50.28061 46.33948
# Shear Modulus (GPa) = 26.11376 28.33062 27.22219
#
# Velocity S-wave (km/s) = 3.40923 3.55100 3.48084
# Velocity P-wave (km/s) = 5.86243 6.26035 6.06465
#
# Compressibility (1/GPa) = 0.02358582
#
# Stress axis : x y z
#
# Youngs Moduli (GPa) = 50.48682 50.38562 84.33675
#
# Poissons Ratio (x) = 0.15107 0.36630
# Poissons Ratio (y) = 0.15137 0.55841
# Poissons Ratio (z) = 0.21928 0.33361
#
# Static dielectric constant tensor:
#      x y z
#    x 1.851410 0.000000 0.000000 
#    y 0.000000 1.924300 0.000000 
#    z 0.000000 0.000000 1.986100 
# 
# From -- ./inp_files/8245.got.cif
#   From: 2010.05.17/outbox.cif.g08.bks.cpg/sg33_5_cif.got.tgz:8245.got - 2010.06.03 17:15:25.
