data_PCOD9346681
_publ_section_title
;
Structure prediction by ZEFSAII (Michael W. Deem and Ramdas Pophale) SiO2 
 PCOD9346681
Probable space group: P N A 21
;
_chemical_formula_sum "Si O2"
_cell_formula_units_Z 28
_cell_length_a 9.197697
_cell_length_b 14.559766
_cell_length_c 9.198619
_cell_angle_alpha 90.000000
_cell_angle_beta 90.000000
_cell_angle_gamma 90.000000
_cell_volume 1231.845169
_symmetry_space_group_name_H-M "P N A 21"
_symmetry_group_IT_number 33
_symmetry_cell_setting 'orthorhombic'
loop_
_space_group_symop_operation_xyz
x,y,z
-x,-y,1/2+z
1/2-x,1/2+y,1/2+z
1/2+x,1/2-y,z
loop_
_atom_site_type_symbol
_atom_site_label
_atom_site_fract_x
_atom_site_fract_y
_atom_site_fract_z
Si Si1 0.667506 0.697285 0.878940
Si Si2 0.674788 0.343527 0.875250
Si Si3 0.721550 0.141287 0.884847
Si Si4 0.937569 0.088702 0.105856
Si Si5 0.451264 0.057815 0.760072
Si Si6 0.493243 0.875291 0.929790
Si Si7 0.043080 0.889748 0.154207
O O1 0.613971 0.662301 0.723068
O O2 0.621614 0.802335 0.903085
O O3 0.836465 0.675507 0.911956
O O4 0.570606 0.638049 0.990902
O O5 0.745708 0.247768 0.921793
O O6 0.791138 0.416369 0.816802
O O7 0.570489 0.324513 0.736738
O O8 0.569772 0.378796 0.002684
O O9 0.555482 0.120488 0.859448
O O10 0.805049 0.121283 0.735897
O O11 0.797556 0.076853 0.002679
O O12 0.985891 0.992562 0.172461
O O13 0.481392 0.081802 0.591200
O O14 0.489788 0.954583 0.807524
#
# Coordination Sequence:
#
# PCOD9346681 Si02
#       7
#     4   4   4   4   4   4   4
#     4  12  27  50  74 114 152 200 265 322 392 460
#     4  11  25  46  74 109 148 200 250 307 384 465
#     4  11  24  46  74 105 148 201 247 312 379 458
#     4  11  26  45  75 108 152 197 255 312 385 459
#     4  12  27  48  77 115 155 203 262 327 395 464
#     4  12  30  50  78 110 162 203 267 329 394 476
#     4  11  23  47  74 105 143 202 248 307 379 460
#
# _framework density 22.730129999999999
#
# number of rings (size 3 to 8) (size 9 to 14) (size 15 to 20)
#    0.000    0.571    1.429    6.857    8.000    2.286 
#    0.000    0.000    0.000    0.000    0.000    0.000 
#    0.000    0.000    0.000    0.000    0.000    0.000 
#
# Total GULP energy -156716.178362 kJ/mol
# GULP energy per Si atom -5597.006370 kJ/mol
# Density = 2.267839 g / cm^3
# Si number density = 22.730130 Si / 1000 Ang^3
#
#
#
# Elastic Constant Matrix: (Units=GPa)
#
#
# Indices 1 2 3 4 5 6 
#
# 1 92.6084 27.6106 64.6119 0.0000 0.0000 0.0000
# 2 27.6106 114.3470 31.8453 0.0000 0.0000 0.0000
# 3 64.6119 31.8453 107.7698 0.0000 0.0000 0.0000
# 4 0.0000 0.0000 0.0000 9.8643 0.0000 0.0000
# 5 0.0000 0.0000 0.0000 0.0000 20.1769 0.0000
# 6 0.0000 0.0000 0.0000 0.0000 0.0000 34.2475
#
#
#
# Elastic Compliance Matrix: (Units=1/GPa)
#
#
# Indices 1 2 3 4 5 6 
#
# 1 0.018804 -0.001526 -0.010823 0.000000 0.000000 0.000000
# 2 -0.001526 0.009653 -0.001937 0.000000 0.000000 0.000000
# 3 -0.010823 -0.001937 0.016340 0.000000 0.000000 0.000000
# 4 0.000000 0.000000 0.000000 0.101376 0.000000 0.000000
# 5 0.000000 0.000000 0.000000 0.000000 0.049562 0.000000
# 6 0.000000 0.000000 0.000000 0.000000 0.000000 0.029199
#
#
# Mechanical properties :
#
#
# Convention : Reuss Voigt Hill
#
# Bulk Modulus (GPa) = 61.63455 62.54011 62.08733
# Shear Modulus (GPa) = 19.31130 25.56824 22.43977
#
# Velocity S-wave (km/s) = 2.91794 3.35753 3.14542
# Velocity P-wave (km/s) = 6.20702 6.52722 6.36913
#
# Compressibility (1/GPa) = 0.01622467
#
# Stress axis : x y z
#
# Youngs Moduli (GPa) = 53.17976 103.59002 61.19900
#
# Poissons Ratio (x) = 0.15812 0.66234
# Poissons Ratio (y) = 0.08117 0.11857
# Poissons Ratio (z) = 0.57555 0.20069
#
# Static dielectric constant tensor:
#      x y z
#    x 1.832430 0.000000 0.000000 
#    y 0.000000 1.869100 0.000000 
#    z 0.000000 0.000000 1.819890 
# 
# From -- ./inp_files/3208.got.cif
#   From: 2010.05.17/outbox.cif.g08.bks.cpg/sg33_2_cif.got.tgz:3208.got - 2010.06.03 17:15:25.
