data_PCOD9346001
_publ_section_title
;
Structure prediction by ZEFSAII (Michael W. Deem and Ramdas Pophale) SiO2 
 PCOD9346001
Probable space group: P N A 21
;
_chemical_formula_sum "Si O2"
_cell_formula_units_Z 28
_cell_length_a 10.400940
_cell_length_b 15.065473
_cell_length_c 8.796135
_cell_angle_alpha 90.000000
_cell_angle_beta 90.000000
_cell_angle_gamma 90.000000
_cell_volume 1378.311084
_symmetry_space_group_name_H-M "P N A 21"
_symmetry_group_IT_number 33
_symmetry_cell_setting 'orthorhombic'
loop_
_space_group_symop_operation_xyz
x,y,z
-x,-y,1/2+z
1/2-x,1/2+y,1/2+z
1/2+x,1/2-y,z
loop_
_atom_site_type_symbol
_atom_site_label
_atom_site_fract_x
_atom_site_fract_y
_atom_site_fract_z
Si Si1 0.087747 0.902736 0.682560
Si Si2 0.341019 0.643844 0.878244
Si Si3 0.937761 0.398126 0.745635
Si Si4 0.142647 0.098632 0.703346
Si Si5 0.062822 0.568397 0.888476
Si Si6 0.854130 0.677569 0.706837
Si Si7 0.484409 0.730115 0.434546
O O1 0.235702 0.888513 0.726393
O O2 0.067718 0.825972 0.556178
O O3 0.975043 0.888261 0.805649
O O4 0.078977 0.007104 0.644981
O O5 0.215936 0.580881 0.863131
O O6 0.311297 0.734774 0.794739
O O7 0.355599 0.660859 0.056265
O O8 0.787320 0.419707 0.755234
O O9 0.967829 0.408684 0.565183
O O10 0.954242 0.300562 0.818129
O O11 0.018668 0.469948 0.841359
O O12 0.076444 0.150876 0.837969
O O13 0.981350 0.634811 0.781450
O O14 0.887808 0.710808 0.537431
#
# Coordination Sequence:
#
# PCOD9346001 Si02
#       7
#     4   4   4   4   4   4   4
#     4  11  23  43  66  95 132 173 217 273 331 398
#     4  10  23  40  64  94 128 171 219 269 324 394
#     4  11  24  43  69  99 134 174 229 274 331 407
#     4  11  23  44  63  97 132 168 222 274 330 393
#     4  11  23  43  69  97 135 177 221 275 333 395
#     4  11  22  43  67  94 134 172 221 268 333 394
#     4  11  24  40  68 100 131 177 219 277 336 395
#
# _framework density 20.314717000000002
#
# number of rings (size 3 to 8) (size 9 to 14) (size 15 to 20)
#    0.000    1.143    1.429    5.143    2.000    4.571 
#    5.143    0.000    0.000    0.000    0.000    0.000 
#    0.000    0.000    0.000    0.000    0.000    0.000 
#
# Total GULP energy -156197.360914 kJ/mol
# GULP energy per Si atom -5578.477176 kJ/mol
# Density = 2.026848 g / cm^3
# Si number density = 20.314717 Si / 1000 Ang^3
#
#
#
# Elastic Constant Matrix: (Units=GPa)
#
#
# Indices 1 2 3 4 5 6 
#
# 1 79.4479 14.4999 30.5101 0.0000 0.0000 0.0000
# 2 14.4999 92.9442 29.2567 0.0000 0.0000 0.0000
# 3 30.5101 29.2567 62.2687 0.0000 0.0000 0.0000
# 4 0.0000 0.0000 0.0000 13.8131 0.0000 0.0000
# 5 0.0000 0.0000 0.0000 0.0000 4.6882 0.0000
# 6 0.0000 0.0000 0.0000 0.0000 0.0000 -9.4932
#
#
#
# Elastic Compliance Matrix: (Units=1/GPa)
#
#
# Indices 1 2 3 4 5 6 
#
# 1 0.015504 -0.000032 -0.007582 0.000000 0.000000 0.000000
# 2 -0.000032 0.012627 -0.005917 0.000000 0.000000 0.000000
# 3 -0.007582 -0.005917 0.022554 0.000000 0.000000 0.000000
# 4 0.000000 0.000000 0.000000 0.072395 0.000000 0.000000
# 5 0.000000 0.000000 0.000000 0.000000 0.213301 0.000000
# 6 0.000000 0.000000 0.000000 0.000000 0.000000 -0.105338
#
#
# Mechanical properties :
#
#
# Convention : Reuss Voigt Hill
#
# Bulk Modulus (GPa) = 42.32999 42.57714 42.45357
# Shear Modulus (GPa) = 18.79848 12.49455 15.64652
#
# Velocity S-wave (km/s) = 3.04528 2.48271 2.77827
# Velocity P-wave (km/s) = 5.76605 5.40580 5.58883
#
# Compressibility (1/GPa) = 0.02362391
#
# Stress axis : x y z
#
# Youngs Moduli (GPa) = 64.49832 79.19757 44.33767
#
# Poissons Ratio (x) = 0.00255 0.33615
# Poissons Ratio (y) = 0.00208 0.26234
# Poissons Ratio (z) = 0.48900 0.46859
#
# Static dielectric constant tensor:
#      x y z
#    x 1.730090 0.000000 0.000000 
#    y 0.000000 4.015950 0.000000 
#    z 0.000000 0.000000 1.715440 
# 
# From -- ./inp_files/3211.got.cif
#   From: 2010.05.17/outbox.cif.g08.bks.cpg/sg33_2_cif.got.tgz:3211.got - 2010.06.03 17:15:25.
