data_PCOD9346307
_publ_section_title
;
Structure prediction by ZEFSAII (Michael W. Deem and Ramdas Pophale) SiO2 
 PCOD9346307
Probable space group: P N A 21
;
_chemical_formula_sum "Si O2"
_cell_formula_units_Z 32
_cell_length_a 18.883864
_cell_length_b 8.205191
_cell_length_c 7.517926
_cell_angle_alpha 90.000000
_cell_angle_beta 90.000000
_cell_angle_gamma 90.000000
_cell_volume 1164.870389
_symmetry_space_group_name_H-M "P N A 21"
_symmetry_group_IT_number 33
_symmetry_cell_setting 'orthorhombic'
loop_
_space_group_symop_operation_xyz
x,y,z
-x,-y,1/2+z
1/2-x,1/2+y,1/2+z
1/2+x,1/2-y,z
loop_
_atom_site_type_symbol
_atom_site_label
_atom_site_fract_x
_atom_site_fract_y
_atom_site_fract_z
Si Si1 0.094769 0.809600 0.135690
Si Si2 0.063846 0.714325 0.600596
Si Si3 0.359750 0.757097 0.942450
Si Si4 0.977566 0.923870 0.414379
Si Si5 0.293445 0.101474 0.067133
Si Si6 0.493489 0.093608 0.461763
Si Si7 0.779486 0.384644 0.495285
Si Si8 0.345702 0.758257 0.522668
O O1 0.177131 0.759759 0.100265
O O2 0.047618 0.892737 0.291391
O O3 0.060618 0.630730 0.117750
O O4 0.068442 0.916874 0.965170
O O5 0.143171 0.727675 0.532127
O O6 0.025349 0.582693 0.476744
O O7 0.019791 0.878264 0.598484
O O8 0.052668 0.623387 0.786996
O O9 0.441790 0.779757 0.988055
O O10 0.363309 0.726465 0.730207
O O11 0.304968 0.629860 0.028845
O O12 0.323423 0.929146 0.999665
O O13 0.913116 0.790086 0.403091
O O14 0.283957 0.125163 0.279435
O O15 0.220507 0.144261 0.974203
O O16 0.814334 0.560097 0.526623
#
# Coordination Sequence:
#
# PCOD9346307 Si02
#       8
#     4   4   4   4   4   4   4   4
#     4  12  27  45  69 102 141 188 236 302 363 428
#     4  11  22  41  71 105 141 181 236 291 360 430
#     4  10  24  44  71 104 144 187 238 295 352 428
#     4  12  27  45  69 102 141 188 236 302 363 428
#     4  10  24  44  71 104 144 187 238 295 352 428
#     4  11  22  41  71 105 141 181 236 291 360 430
#     4  11  25  47  72 104 143 190 242 295 357 434
#     4  11  25  47  72 104 143 190 242 295 357 434
#
# _framework density 27.470867999999999
#
# number of rings (size 3 to 8) (size 9 to 14) (size 15 to 20)
#    0.000    1.000    2.500    3.000    7.000    2.000 
#    4.500    0.000    0.000    0.000    0.000    0.000 
#    0.000    0.000    0.000    0.000    0.000    0.000 
#
# Total GULP energy -178578.414544 kJ/mol
# GULP energy per Si atom -5580.575455 kJ/mol
# Density = 2.740834 g / cm^3
# Si number density = 27.470868 Si / 1000 Ang^3
#
#
#
# Elastic Constant Matrix: (Units=GPa)
#
#
# Indices 1 2 3 4 5 6 
#
# 1 161.4916 23.4829 -8.2901 0.0000 0.0000 0.0000
# 2 23.4829 67.6878 -10.0249 0.0000 0.0000 0.0000
# 3 -8.2901 -10.0249 82.5493 0.0000 0.0000 0.0000
# 4 0.0000 0.0000 0.0000 16.0387 0.0000 0.0000
# 5 0.0000 0.0000 0.0000 0.0000 29.5801 0.0000
# 6 0.0000 0.0000 0.0000 0.0000 0.0000 46.1515
#
#
#
# Elastic Compliance Matrix: (Units=1/GPa)
#
#
# Indices 1 2 3 4 5 6 
#
# 1 0.006533 -0.002209 0.000388 0.000000 0.000000 0.000000
# 2 -0.002209 0.015791 0.001696 0.000000 0.000000 0.000000
# 3 0.000388 0.001696 0.012359 0.000000 0.000000 0.000000
# 4 0.000000 0.000000 0.000000 0.062349 0.000000 0.000000
# 5 0.000000 0.000000 0.000000 0.000000 0.033807 0.000000
# 6 0.000000 0.000000 0.000000 0.000000 0.000000 0.021668
#
#
# Mechanical properties :
#
#
# Convention : Reuss Voigt Hill
#
# Bulk Modulus (GPa) = 29.04225 35.78495 32.41360
# Shear Modulus (GPa) = 30.44403 38.79143 34.61773
#
# Velocity S-wave (km/s) = 3.33262 3.76186 3.55373
# Velocity P-wave (km/s) = 5.04018 5.65009 5.35383
#
# Compressibility (1/GPa) = 0.03443259
#
# Stress axis : x y z
#
# Youngs Moduli (GPa) = 153.05895 63.32598 80.91354
#
# Poissons Ratio (x) = 0.13990 -0.03138
# Poissons Ratio (y) = 0.33814 -0.13722
# Poissons Ratio (z) = -0.05936 -0.10739
#
# Static dielectric constant tensor:
#      x y z
#    x 2.119520 0.000000 0.000000 
#    y 0.000000 2.198210 0.000000 
#    z 0.000000 0.000000 2.298920 
# 
# From -- ./inp_files/5041.got.cif
#   From: 2010.05.17/outbox.cif.g08.bks.cpg/sg33_3_cif.got.tgz:5041.got - 2010.06.03 17:15:25.
