data_PCOD9346330
_publ_section_title
;
Structure prediction by ZEFSAII (Michael W. Deem and Ramdas Pophale) SiO2 
 PCOD9346330
Probable space group: P N A 21
;
_chemical_formula_sum "Si O2"
_cell_formula_units_Z 24
_cell_length_a 21.781293
_cell_length_b 5.377861
_cell_length_c 8.813261
_cell_angle_alpha 90.000000
_cell_angle_beta 90.000000
_cell_angle_gamma 90.000000
_cell_volume 1032.356893
_symmetry_space_group_name_H-M "P N A 21"
_symmetry_group_IT_number 33
_symmetry_cell_setting 'orthorhombic'
loop_
_space_group_symop_operation_xyz
x,y,z
-x,-y,1/2+z
1/2-x,1/2+y,1/2+z
1/2+x,1/2-y,z
loop_
_atom_site_type_symbol
_atom_site_label
_atom_site_fract_x
_atom_site_fract_y
_atom_site_fract_z
Si Si1 0.209364 0.188698 0.877800
Si Si2 0.023460 0.836130 0.251777
Si Si3 0.399753 0.913112 0.219443
Si Si4 0.916129 0.676239 0.868340
Si Si5 0.604921 0.703193 0.969470
Si Si6 0.308632 0.936758 0.669560
O O1 0.170261 0.370363 0.770234
O O2 0.156079 0.995502 0.923839
O O3 0.264544 0.081837 0.781841
O O4 0.229863 0.301151 0.038474
O O5 0.049605 0.564203 0.298185
O O6 0.950316 0.798085 0.260559
O O7 0.047811 0.064850 0.351371
O O8 0.051139 0.884331 0.083012
O O9 0.418077 0.151342 0.320320
O O10 0.403152 0.912055 0.039023
O O11 0.853132 0.725159 0.775518
O O12 0.644506 0.896041 0.072192
#
# Coordination Sequence:
#
# PCOD9346330 Si02
#       6
#     4   4   4   4   4   4
#     4  11  25  44  70  97 142 188 242 298 362 426
#     4  11  25  47  74 101 153 185 240 299 362 432
#     4  11  27  41  72 107 139 189 245 293 368 434
#     4  11  26  46  72 108 140 193 238 300 362 428
#     4  10  24  46  66 102 141 190 238 297 366 427
#     4  10  25  44  68  99 141 187 243 299 356 433
#
# _framework density 23.247776999999999
#
# number of rings (size 3 to 8) (size 9 to 14) (size 15 to 20)
#    0.000    1.333    1.667    1.000   11.667    2.667 
#    0.000    0.000    0.000    0.000    0.000    0.000 
#    0.000    0.000    0.000    0.000    0.000    0.000 
#
# Total GULP energy -134095.673139 kJ/mol
# GULP energy per Si atom -5587.319714 kJ/mol
# Density = 2.319486 g / cm^3
# Si number density = 23.247777 Si / 1000 Ang^3
#
#
#
# Elastic Constant Matrix: (Units=GPa)
#
#
# Indices 1 2 3 4 5 6 
#
# 1 45.5076 -0.1600 16.1884 0.0000 0.0000 0.0000
# 2 -0.1600 56.9098 13.5310 0.0000 0.0000 0.0000
# 3 16.1884 13.5310 131.0107 0.0000 0.0000 0.0000
# 4 0.0000 0.0000 0.0000 14.5892 0.0000 0.0000
# 5 0.0000 0.0000 0.0000 0.0000 26.5784 0.0000
# 6 0.0000 0.0000 0.0000 0.0000 0.0000 14.0087
#
#
#
# Elastic Compliance Matrix: (Units=1/GPa)
#
#
# Indices 1 2 3 4 5 6 
#
# 1 0.023017 0.000760 -0.002923 0.000000 0.000000 0.000000
# 2 0.000760 0.018039 -0.001957 0.000000 0.000000 0.000000
# 3 -0.002923 -0.001957 0.008196 0.000000 0.000000 0.000000
# 4 0.000000 0.000000 0.000000 0.068544 0.000000 0.000000
# 5 0.000000 0.000000 0.000000 0.000000 0.037625 0.000000
# 6 0.000000 0.000000 0.000000 0.000000 0.000000 0.071384
#
#
# Mechanical properties :
#
#
# Convention : Reuss Voigt Hill
#
# Bulk Modulus (GPa) = 24.38302 32.50521 28.44411
# Shear Modulus (GPa) = 20.10333 24.62651 22.36492
#
# Velocity S-wave (km/s) = 2.94384 3.25823 3.10502
# Velocity P-wave (km/s) = 4.69745 5.30728 5.01165
#
# Compressibility (1/GPa) = 0.04101215
#
# Stress axis : x y z
#
# Youngs Moduli (GPa) = 43.44680 55.43520 122.00764
#
# Poissons Ratio (x) = -0.04211 0.35657
# Poissons Ratio (y) = -0.03300 0.23876
# Poissons Ratio (z) = 0.12697 0.10848
#
# Static dielectric constant tensor:
#      x y z
#    x 1.869420 0.000000 0.000000 
#    y 0.000000 1.965550 0.000000 
#    z 0.000000 0.000000 1.879100 
# 
# From -- ./inp_files/5104.got.cif
#   From: 2010.05.17/outbox.cif.g08.bks.cpg/sg33_3_cif.got.tgz:5104.got - 2010.06.03 17:15:25.
