data_PCOD9346487
_publ_section_title
;
Structure prediction by ZEFSAII (Michael W. Deem and Ramdas Pophale) SiO2 
 PCOD9346487
Probable space group: P N A 21
;
_chemical_formula_sum "Si O2"
_cell_formula_units_Z 32
_cell_length_a 16.159375
_cell_length_b 7.959182
_cell_length_c 11.485608
_cell_angle_alpha 90.000000
_cell_angle_beta 90.000000
_cell_angle_gamma 90.000000
_cell_volume 1477.226143
_symmetry_space_group_name_H-M "P N A 21"
_symmetry_group_IT_number 33
_symmetry_cell_setting 'orthorhombic'
loop_
_space_group_symop_operation_xyz
x,y,z
-x,-y,1/2+z
1/2-x,1/2+y,1/2+z
1/2+x,1/2-y,z
loop_
_atom_site_type_symbol
_atom_site_label
_atom_site_fract_x
_atom_site_fract_y
_atom_site_fract_z
Si Si1 0.548141 0.159482 0.220620
Si Si2 0.167869 0.572179 0.376018
Si Si3 0.821055 0.907463 0.742833
Si Si4 0.270756 0.273746 0.445271
Si Si5 0.033730 0.327602 0.653648
Si Si6 0.274072 0.763672 0.182881
Si Si7 0.555005 0.645138 0.369760
Si Si8 0.537261 0.654751 0.928514
O O1 0.617557 0.286899 0.169257
O O2 0.487382 0.267111 0.303118
O O3 0.605128 0.044868 0.304287
O O4 0.496757 0.021470 0.149023
O O5 0.218271 0.445110 0.454273
O O6 0.233259 0.660223 0.288525
O O7 0.110066 0.714490 0.433049
O O8 0.755979 0.807173 0.822686
O O9 0.776428 0.061458 0.681671
O O10 0.882053 0.997961 0.834590
O O11 0.244769 0.171420 0.560404
O O12 0.367436 0.306604 0.448923
O O13 0.128856 0.302331 0.690611
O O14 0.979665 0.230505 0.751822
O O15 0.015766 0.243916 0.529404
O O16 0.482448 0.543877 0.432022
#
# Coordination Sequence:
#
# PCOD9346487 Si02
#       8
#     4   4   4   4   4   4   4   4
#     4   9  19  37  57  82 112 146 186 234 281 334
#     4   9  19  37  57  81 113 145 185 234 280 334
#     4   9  19  37  57  81 113 145 185 234 280 334
#     4  11  21  37  58  84 113 149 188 232 283 338
#     4  11  21  37  60  85 115 152 190 234 285 338
#     4  11  21  37  58  84 113 149 188 232 283 338
#     4   9  19  37  57  82 112 146 186 234 281 334
#     4  11  21  37  60  85 115 152 190 234 285 338
#
# _framework density 21.662220000000001
#
# number of rings (size 3 to 8) (size 9 to 14) (size 15 to 20)
#    0.000    2.000    0.000    6.000    0.000    0.000 
#    0.000   23.750    0.000    0.000    0.000    0.000 
#    0.000    0.000    0.000    0.000    0.000    0.000 
#
# Total GULP energy -178506.961068 kJ/mol
# GULP energy per Si atom -5578.342533 kJ/mol
# Density = 2.161292 g / cm^3
# Si number density = 21.662220 Si / 1000 Ang^3
#
#
#
# Elastic Constant Matrix: (Units=GPa)
#
#
# Indices 1 2 3 4 5 6 
#
# 1 89.8524 -1.9617 -9.8568 0.0000 0.0000 0.0000
# 2 -1.9617 50.3325 -6.6996 0.0000 0.0000 0.0000
# 3 -9.8568 -6.6996 46.6207 0.0000 0.0000 0.0000
# 4 0.0000 0.0000 0.0000 14.7024 0.0000 0.0000
# 5 0.0000 0.0000 0.0000 0.0000 31.6045 0.0000
# 6 0.0000 0.0000 0.0000 0.0000 0.0000 32.1744
#
#
#
# Elastic Compliance Matrix: (Units=1/GPa)
#
#
# Indices 1 2 3 4 5 6 
#
# 1 0.011424 0.000782 0.002528 0.000000 0.000000 0.000000
# 2 0.000782 0.020309 0.003084 0.000000 0.000000 0.000000
# 3 0.002528 0.003084 0.022427 0.000000 0.000000 0.000000
# 4 0.000000 0.000000 0.000000 0.068016 0.000000 0.000000
# 5 0.000000 0.000000 0.000000 0.000000 0.031641 0.000000
# 6 0.000000 0.000000 0.000000 0.000000 0.000000 0.031081
#
#
# Mechanical properties :
#
#
# Convention : Reuss Voigt Hill
#
# Bulk Modulus (GPa) = 14.93747 16.64105 15.78926
# Shear Modulus (GPa) = 25.71661 29.38450 27.55056
#
# Velocity S-wave (km/s) = 3.44926 3.68705 3.57013
# Velocity P-wave (km/s) = 4.77219 5.08178 4.92942
#
# Compressibility (1/GPa) = 0.06694573
#
# Stress axis : x y z
#
# Youngs Moduli (GPa) = 87.53727 49.23974 44.58859
#
# Poissons Ratio (x) = -0.03849 -0.11270
# Poissons Ratio (y) = -0.06843 -0.13750
# Poissons Ratio (z) = -0.22126 -0.15184
#
# Static dielectric constant tensor:
#      x y z
#    x 1.783550 0.000000 0.000000 
#    y 0.000000 1.827100 0.000000 
#    z 0.000000 0.000000 1.819990 
# 
# From -- ./inp_files/6854.got.cif
#   From: 2010.05.17/outbox.cif.g08.bks.cpg/sg33_4_cif.got.tgz:6854.got - 2010.06.03 17:15:25.
