data_PCOD9346333
_publ_section_title
;
Structure prediction by ZEFSAII (Michael W. Deem and Ramdas Pophale) SiO2 
 PCOD9346333
Probable space group: P N A 21
;
_chemical_formula_sum "Si O2"
_cell_formula_units_Z 16
_cell_length_a 9.262556
_cell_length_b 7.269769
_cell_length_c 8.787871
_cell_angle_alpha 90.000000
_cell_angle_beta 90.000000
_cell_angle_gamma 90.000000
_cell_volume 591.745728
_symmetry_space_group_name_H-M "P N A 21"
_symmetry_group_IT_number 33
_symmetry_cell_setting 'orthorhombic'
loop_
_space_group_symop_operation_xyz
x,y,z
-x,-y,1/2+z
1/2-x,1/2+y,1/2+z
1/2+x,1/2-y,z
loop_
_atom_site_type_symbol
_atom_site_label
_atom_site_fract_x
_atom_site_fract_y
_atom_site_fract_z
Si Si1 0.154034 0.164944 0.606160
Si Si2 0.304451 0.851335 0.409237
Si Si3 0.558310 0.061314 0.374660
Si Si4 0.839137 0.196435 0.196800
O O1 0.234735 0.271308 0.743983
O O2 0.058897 0.315961 0.525366
O O3 0.244644 0.048290 0.477209
O O4 0.066989 0.989159 0.669470
O O5 0.244285 0.728837 0.547463
O O6 0.478194 0.868819 0.406024
O O7 0.712813 0.104787 0.300310
O O8 0.442467 0.152404 0.261410
#
# Coordination Sequence:
#
# PCOD9346333 Si02
#       4
#     4   4   4   4
#     4  10  25  46  71 108 150 205 263 328 395 476
#     4  10  24  46  69 106 147 203 256 327 394 479
#     4  12  22  50  70 109 152 203 263 331 407 481
#     4  10  25  44  72 109 147 209 258 336 398 484
#
# _framework density 27.038640000000001
#
# number of rings (size 3 to 8) (size 9 to 14) (size 15 to 20)
#    1.500    0.000    2.500    1.500    0.000    8.000 
#    0.000    0.000    0.000    0.000    0.000    0.000 
#    0.000    0.000    0.000    0.000    0.000    0.000 
#
# Total GULP energy -89155.498738 kJ/mol
# GULP energy per Si atom -5572.218671 kJ/mol
# Density = 2.697710 g / cm^3
# Si number density = 27.038640 Si / 1000 Ang^3
#
#
#
# Elastic Constant Matrix: (Units=GPa)
#
#
# Indices 1 2 3 4 5 6 
#
# 1 74.9489 19.6500 10.3222 0.0000 0.0000 0.0000
# 2 19.6500 64.7161 44.8497 0.0000 0.0000 0.0000
# 3 10.3222 44.8497 127.3375 0.0000 0.0000 0.0000
# 4 0.0000 0.0000 0.0000 48.3114 0.0000 0.0000
# 5 0.0000 0.0000 0.0000 0.0000 41.7996 0.0000
# 6 0.0000 0.0000 0.0000 0.0000 0.0000 36.4324
#
#
#
# Elastic Compliance Matrix: (Units=1/GPa)
#
#
# Indices 1 2 3 4 5 6 
#
# 1 0.014520 -0.004753 0.000497 0.000000 0.000000 0.000000
# 2 -0.004753 0.021998 -0.007363 0.000000 0.000000 0.000000
# 3 0.000497 -0.007363 0.010406 0.000000 0.000000 0.000000
# 4 0.000000 0.000000 0.000000 0.020699 0.000000 0.000000
# 5 0.000000 0.000000 0.000000 0.000000 0.023924 0.000000
# 6 0.000000 0.000000 0.000000 0.000000 0.000000 0.027448
#
#
# Mechanical properties :
#
#
# Convention : Reuss Voigt Hill
#
# Bulk Modulus (GPa) = 42.21819 46.29405 44.25612
# Shear Modulus (GPa) = 33.30496 38.12072 35.71284
#
# Velocity S-wave (km/s) = 3.51344 3.75889 3.63823
# Velocity P-wave (km/s) = 5.66630 5.99980 5.83543
#
# Compressibility (1/GPa) = 0.02368647
#
# Stress axis : x y z
#
# Youngs Moduli (GPa) = 68.86965 45.45911 96.09828
#
# Poissons Ratio (x) = 0.21608 -0.04778
# Poissons Ratio (y) = 0.32736 0.70753
# Poissons Ratio (z) = -0.03424 0.33469
#
# Static dielectric constant tensor:
#      x y z
#    x 2.148630 0.000000 0.000000 
#    y 0.000000 2.266770 0.000000 
#    z 0.000000 0.000000 2.415800 
# 
# From -- ./inp_files/2902.got.cif
#   From: 2010.05.17/outbox.cif.g08.bks.cpg/sg33_2_cif.got.tgz:2902.got - 2010.06.03 17:15:25.
