data_PCOD9346610
_publ_section_title
;
Structure prediction by ZEFSAII (Michael W. Deem and Ramdas Pophale) SiO2 
 PCOD9346610
Probable space group: P N A 21
;
_chemical_formula_sum "Si O2"
_cell_formula_units_Z 28
_cell_length_a 24.715592
_cell_length_b 6.499432
_cell_length_c 7.470250
_cell_angle_alpha 90.000000
_cell_angle_beta 90.000000
_cell_angle_gamma 90.000000
_cell_volume 1200.000862
_symmetry_space_group_name_H-M "P N A 21"
_symmetry_group_IT_number 33
_symmetry_cell_setting 'orthorhombic'
loop_
_space_group_symop_operation_xyz
x,y,z
-x,-y,1/2+z
1/2-x,1/2+y,1/2+z
1/2+x,1/2-y,z
loop_
_atom_site_type_symbol
_atom_site_label
_atom_site_fract_x
_atom_site_fract_y
_atom_site_fract_z
Si Si1 0.134164 0.712501 0.164650
Si Si2 0.930594 0.618465 0.873164
Si Si3 0.315695 0.412087 0.023858
Si Si4 0.865867 0.712836 0.210762
Si Si5 0.215010 0.609944 0.842861
Si Si6 0.025026 0.313069 0.885786
Si Si7 0.959990 0.999062 0.674188
O O1 0.100331 0.508069 0.217867
O O2 0.157729 0.791719 0.356061
O O3 0.091117 0.881046 0.094879
O O4 0.178214 0.682874 0.010467
O O5 0.936795 0.858745 0.833614
O O6 0.989737 0.517141 0.893617
O O7 0.893840 0.591701 0.047102
O O8 0.273420 0.564438 0.925353
O O9 0.354788 0.557527 0.142001
O O10 0.287611 0.262971 0.171880
O O11 0.811252 0.603452 0.273450
O O12 0.911133 0.683748 0.361961
O O13 0.012317 0.173413 0.055534
O O14 0.001921 0.173413 0.726338
#
# Coordination Sequence:
#
# PCOD9346610 Si02
#       7
#     4   4   4   4   4   4   4
#     4  11  25  46  72 102 144 189 238 300 374 436
#     4  11  23  42  70 103 144 192 241 301 362 454
#     4  12  28  49  75 107 145 191 248 312 373 444
#     4  12  25  46  74 104 151 193 246 313 377 443
#     4  12  29  47  76 108 142 191 254 307 379 444
#     4  11  25  38  68 104 142 195 242 296 372 448
#     4  11  23  42  65 100 146 187 241 297 367 439
#
# _framework density 23.333317999999998
#
# number of rings (size 3 to 8) (size 9 to 14) (size 15 to 20)
#    0.000    0.571    2.857    4.286    4.000   10.286 
#    0.000    0.000    0.000    0.000    0.000    0.000 
#    0.000    0.000    0.000    0.000    0.000    0.000 
#
# Total GULP energy -156576.707488 kJ/mol
# GULP energy per Si atom -5592.025267 kJ/mol
# Density = 2.328021 g / cm^3
# Si number density = 23.333318 Si / 1000 Ang^3
#
#
#
# Elastic Constant Matrix: (Units=GPa)
#
#
# Indices 1 2 3 4 5 6 
#
# 1 56.1716 8.4967 6.6308 0.0000 0.0000 0.0000
# 2 8.4967 68.2902 26.8869 0.0000 0.0000 0.0000
# 3 6.6308 26.8869 104.5534 0.0000 0.0000 0.0000
# 4 0.0000 0.0000 0.0000 42.9770 0.0000 0.0000
# 5 0.0000 0.0000 0.0000 0.0000 34.2432 0.0000
# 6 0.0000 0.0000 0.0000 0.0000 0.0000 35.6678
#
#
#
# Elastic Compliance Matrix: (Units=1/GPa)
#
#
# Indices 1 2 3 4 5 6 
#
# 1 0.018182 -0.002012 -0.000636 0.000000 0.000000 0.000000
# 2 -0.002012 0.016516 -0.004120 0.000000 0.000000 0.000000
# 3 -0.000636 -0.004120 0.010664 0.000000 0.000000 0.000000
# 4 0.000000 0.000000 0.000000 0.023268 0.000000 0.000000
# 5 0.000000 0.000000 0.000000 0.000000 0.029203 0.000000
# 6 0.000000 0.000000 0.000000 0.000000 0.000000 0.028037
#
#
# Mechanical properties :
#
#
# Convention : Reuss Voigt Hill
#
# Bulk Modulus (GPa) = 31.41946 34.78267 33.10107
# Shear Modulus (GPa) = 33.33044 35.04430 34.18737
#
# Velocity S-wave (km/s) = 3.78358 3.87964 3.83191
# Velocity P-wave (km/s) = 5.70807 5.91676 5.81335
#
# Compressibility (1/GPa) = 0.03182740
#
# Stress axis : x y z
#
# Youngs Moduli (GPa) = 54.99961 60.54860 93.77168
#
# Poissons Ratio (x) = 0.12182 0.05961
# Poissons Ratio (y) = 0.11065 0.38630
# Poissons Ratio (z) = 0.03496 0.24943
#
# Static dielectric constant tensor:
#      x y z
#    x 1.884990 0.000000 0.000000 
#    y 0.000000 1.855370 0.000000 
#    z 0.000000 0.000000 1.953990 
# 
# From -- ./inp_files/5144.got.cif
#   From: 2010.05.17/outbox.cif.g08.bks.cpg/sg33_3_cif.got.tgz:5144.got - 2010.06.03 17:15:25.
