data_PCOD9346317
_publ_section_title
;
Structure prediction by ZEFSAII (Michael W. Deem and Ramdas Pophale) SiO2 
 PCOD9346317
Probable space group: P N A 21
;
_chemical_formula_sum "Si O2"
_cell_formula_units_Z 28
_cell_length_a 4.782536
_cell_length_b 23.069150
_cell_length_c 8.798984
_cell_angle_alpha 90.000000
_cell_angle_beta 90.000000
_cell_angle_gamma 90.000000
_cell_volume 970.783461
_symmetry_space_group_name_H-M "P N A 21"
_symmetry_group_IT_number 33
_symmetry_cell_setting 'orthorhombic'
loop_
_space_group_symop_operation_xyz
x,y,z
-x,-y,1/2+z
1/2-x,1/2+y,1/2+z
1/2+x,1/2-y,z
loop_
_atom_site_type_symbol
_atom_site_label
_atom_site_fract_x
_atom_site_fract_y
_atom_site_fract_z
Si Si1 0.214965 0.539066 0.431830
Si Si2 0.479268 0.712366 0.305291
Si Si3 0.565641 0.211305 0.292560
Si Si4 0.616424 0.031876 0.644514
Si Si5 0.434103 0.560993 0.861771
Si Si6 0.082352 0.642029 0.083621
Si Si7 0.604600 0.352125 0.111149
O O1 0.963650 0.521597 0.542175
O O2 0.343609 0.474050 0.467550
O O3 0.361791 0.593614 0.496870
O O4 0.146964 0.542664 0.260803
O O5 0.801289 0.728185 0.278049
O O6 0.309769 0.668594 0.197400
O O7 0.472892 0.695323 0.483199
O O8 0.887792 0.228705 0.270890
O O9 0.516384 0.190488 0.463390
O O10 0.407382 0.168124 0.178304
O O11 0.673757 0.103020 0.644397
O O12 0.808830 0.989889 0.755937
O O13 0.543302 0.613086 0.753296
O O14 0.217770 0.593226 0.970343
#
# Coordination Sequence:
#
# PCOD9346317 Si02
#       7
#     4   4   4   4   4   4   4
#     4  11  24  44  69 106 148 189 235 293 362 445
#     4  12  27  48  71 107 142 185 251 316 364 421
#     4  11  25  50  72 102 141 192 253 305 360 438
#     4  11  23  43  66 104 148 180 236 293 354 449
#     4  10  25  45  68 105 147 190 237 285 364 461
#     4  11  24  45  69 107 136 194 240 298 379 425
#     4  10  24  45  69 105 138 194 240 302 373 431
#
# _framework density 28.842684999999999
#
# number of rings (size 3 to 8) (size 9 to 14) (size 15 to 20)
#    0.000    1.143    2.857    1.714    4.000    4.571 
#    7.714    0.000    0.000    0.000    0.000    0.000 
#    0.000    0.000    0.000    0.000    0.000    0.000 
#
# Total GULP energy -156304.789572 kJ/mol
# GULP energy per Si atom -5582.313913 kJ/mol
# Density = 2.877704 g / cm^3
# Si number density = 28.842685 Si / 1000 Ang^3
#
#
#
# Elastic Constant Matrix: (Units=GPa)
#
#
# Indices 1 2 3 4 5 6 
#
# 1 84.1030 18.4124 10.5098 0.0000 0.0000 0.0000
# 2 18.4124 122.3989 20.1691 0.0000 0.0000 0.0000
# 3 10.5098 20.1691 154.9409 0.0000 0.0000 0.0000
# 4 0.0000 0.0000 0.0000 54.5953 0.0000 0.0000
# 5 0.0000 0.0000 0.0000 0.0000 36.7372 0.0000
# 6 0.0000 0.0000 0.0000 0.0000 0.0000 41.0807
#
#
#
# Elastic Compliance Matrix: (Units=1/GPa)
#
#
# Indices 1 2 3 4 5 6 
#
# 1 0.012351 -0.001758 -0.000609 0.000000 0.000000 0.000000
# 2 -0.001758 0.008599 -0.001000 0.000000 0.000000 0.000000
# 3 -0.000609 -0.001000 0.006626 0.000000 0.000000 0.000000
# 4 0.000000 0.000000 0.000000 0.018317 0.000000 0.000000
# 5 0.000000 0.000000 0.000000 0.000000 0.027220 0.000000
# 6 0.000000 0.000000 0.000000 0.000000 0.000000 0.024342
#
#
# Mechanical properties :
#
#
# Convention : Reuss Voigt Hill
#
# Bulk Modulus (GPa) = 47.97931 51.06950 49.52441
# Shear Modulus (GPa) = 44.98988 47.30609 46.14798
#
# Velocity S-wave (km/s) = 3.95376 4.05426 4.00433
# Velocity P-wave (km/s) = 6.12486 6.29767 6.21187
#
# Compressibility (1/GPa) = 0.02084232
#
# Stress axis : x y z
#
# Youngs Moduli (GPa) = 80.96464 116.28970 150.93029
#
# Poissons Ratio (x) = 0.20439 0.09192
# Poissons Ratio (y) = 0.14230 0.15096
# Poissons Ratio (z) = 0.04931 0.11631
#
# Static dielectric constant tensor:
#      x y z
#    x 2.311500 0.000000 0.000000 
#    y 0.000000 2.590330 0.000000 
#    z 0.000000 0.000000 2.428930 
# 
# From -- ./inp_files/2746.got.cif
#   From: 2010.05.17/outbox.cif.g08.bks.cpg/sg33_2_cif.got.tgz:2746.got - 2010.06.03 17:15:25.
