data_PCOD9346236
_publ_section_title
;
Structure prediction by ZEFSAII (Michael W. Deem and Ramdas Pophale) SiO2 
 PCOD9346236
Probable space group: P N A 21
;
_chemical_formula_sum "Si O2"
_cell_formula_units_Z 20
_cell_length_a 9.266145
_cell_length_b 5.089922
_cell_length_c 18.027654
_cell_angle_alpha 90.000000
_cell_angle_beta 90.000000
_cell_angle_gamma 90.000000
_cell_volume 850.255467
_symmetry_space_group_name_H-M "P N A 21"
_symmetry_group_IT_number 33
_symmetry_cell_setting 'orthorhombic'
loop_
_space_group_symop_operation_xyz
x,y,z
-x,-y,1/2+z
1/2-x,1/2+y,1/2+z
1/2+x,1/2-y,z
loop_
_atom_site_type_symbol
_atom_site_label
_atom_site_fract_x
_atom_site_fract_y
_atom_site_fract_z
Si Si1 0.440101 0.182674 0.414760
Si Si2 0.990504 0.466967 0.249211
Si Si3 0.297846 0.656859 0.478496
Si Si4 0.567050 0.495460 0.539341
Si Si5 0.182035 0.039212 0.696259
O O1 0.329425 0.430551 0.418296
O O2 0.558017 0.284992 0.473502
O O3 0.501434 0.124067 0.334349
O O4 0.361570 0.924766 0.444308
O O5 0.149515 0.512661 0.215544
O O6 0.896546 0.732152 0.242717
O O7 0.901537 0.234886 0.209375
O O8 0.398669 0.569209 0.548176
O O9 0.144978 0.747110 0.507899
O O10 0.650991 0.395982 0.610222
#
# Coordination Sequence:
#
# PCOD9346236 Si02
#       5
#     4   4   4   4   4
#     4  10  26  43  74 101 151 191 254 300 375 449
#     4  12  28  51  73 114 151 210 240 327 377 476
#     4  10  24  41  74 104 142 185 253 305 366 433
#     4  10  26  44  75 108 145 191 251 312 366 454
#     4  12  28  47  80 107 163 193 262 306 404 442
#
# _framework density 23.522344
#
# number of rings (size 3 to 8) (size 9 to 14) (size 15 to 20)
#    1.200    0.000    0.000    3.600   11.200    1.600 
#    0.000    0.000    0.000    0.000    0.000    0.000 
#    0.000    0.000    0.000    0.000    0.000    0.000 
#
# Total GULP energy -111794.188516 kJ/mol
# GULP energy per Si atom -5589.709426 kJ/mol
# Density = 2.346881 g / cm^3
# Si number density = 23.522344 Si / 1000 Ang^3
#
#
#
# Elastic Constant Matrix: (Units=GPa)
#
#
# Indices 1 2 3 4 5 6 
#
# 1 116.4668 45.9752 0.8939 0.0000 0.0000 0.0000
# 2 45.9752 137.9198 3.0368 0.0000 0.0000 0.0000
# 3 0.8939 3.0368 66.8132 0.0000 0.0000 0.0000
# 4 0.0000 0.0000 0.0000 -35.9082 0.0000 0.0000
# 5 0.0000 0.0000 0.0000 0.0000 18.0156 0.0000
# 6 0.0000 0.0000 0.0000 0.0000 0.0000 33.3769
#
#
#
# Elastic Compliance Matrix: (Units=1/GPa)
#
#
# Indices 1 2 3 4 5 6 
#
# 1 0.009887 -0.003296 0.000018 0.000000 0.000000 0.000000
# 2 -0.003296 0.008357 -0.000336 0.000000 0.000000 0.000000
# 3 0.000018 -0.000336 0.014982 0.000000 0.000000 0.000000
# 4 0.000000 0.000000 0.000000 -0.027849 0.000000 0.000000
# 5 0.000000 0.000000 0.000000 0.000000 0.055507 0.000000
# 6 0.000000 0.000000 0.000000 0.000000 0.000000 0.029961
#
#
# Mechanical properties :
#
#
# Convention : Reuss Voigt Hill
#
# Bulk Modulus (GPa) = 38.46564 46.77903 42.62234
# Shear Modulus (GPa) = 46.84271 21.18313 34.01292
#
# Velocity S-wave (km/s) = 4.46737 3.00418 3.80673
# Velocity P-wave (km/s) = 6.55730 5.65364 6.12217
#
# Compressibility (1/GPa) = 0.02599723
#
# Stress axis : x y z
#
# Youngs Moduli (GPa) = 101.14087 119.66334 66.74619
#
# Poissons Ratio (x) = 0.39444 -0.00117
# Poissons Ratio (y) = 0.33339 0.02241
# Poissons Ratio (z) = -0.00177 0.04017
#
# Static dielectric constant tensor:
#      x y z
#    x 1.949760 0.000000 0.000000 
#    y 0.000000 1.919320 0.000000 
#    z 0.000000 0.000000 1.915380 
# 
# From -- ./inp_files/8407.got.cif
#   From: 2010.05.17/outbox.cif.g08.bks.cpg/sg33_5_cif.got.tgz:8407.got - 2010.06.03 17:15:25.
