data_PCOD9346009
_publ_section_title
;
Structure prediction by ZEFSAII (Michael W. Deem and Ramdas Pophale) SiO2 
 PCOD9346009
Probable space group: P N A 21
;
_chemical_formula_sum "Si O2"
_cell_formula_units_Z 24
_cell_length_a 5.369358
_cell_length_b 22.645591
_cell_length_c 7.991986
_cell_angle_alpha 90.000000
_cell_angle_beta 90.000000
_cell_angle_gamma 90.000000
_cell_volume 971.763841
_symmetry_space_group_name_H-M "P N A 21"
_symmetry_group_IT_number 33
_symmetry_cell_setting 'orthorhombic'
loop_
_space_group_symop_operation_xyz
x,y,z
-x,-y,1/2+z
1/2-x,1/2+y,1/2+z
1/2+x,1/2-y,z
loop_
_atom_site_type_symbol
_atom_site_label
_atom_site_fract_x
_atom_site_fract_y
_atom_site_fract_z
Si Si1 0.437599 0.623562 0.529640
Si Si2 0.973227 0.558199 0.111327
Si Si3 0.096996 0.881753 0.886543
Si Si4 0.338999 0.490490 0.910095
Si Si5 0.407641 0.216996 0.972880
Si Si6 0.329640 0.660842 0.196757
O O1 0.584024 0.639073 0.697221
O O2 0.471470 0.554688 0.495229
O O3 0.161891 0.651931 0.544575
O O4 0.521436 0.654355 0.353566
O O5 0.764622 0.538286 0.241244
O O6 0.179592 0.598979 0.197619
O O7 0.858577 0.599329 0.965940
O O8 0.107572 0.501672 0.033519
O O9 0.951458 0.944758 0.884357
O O10 0.962416 0.837960 0.018748
O O11 0.666861 0.244256 0.024324
O O12 0.365989 0.208277 0.770598
#
# Coordination Sequence:
#
# PCOD9346009 Si02
#       6
#     4   4   4   4   4   4
#     4  10  23  40  68  88 134 172 219 280 339 396
#     4  11  22  37  62  95 138 175 228 264 339 412
#     4  11  22  42  59 102 133 173 220 268 335 419
#     4  11  23  35  61  97 135 180 215 268 332 412
#     4  10  24  47  73  97 128 177 230 289 349 403
#     4   9  24  41  65  91 126 173 222 277 334 406
#
# _framework density 24.697358999999999
#
# number of rings (size 3 to 8) (size 9 to 14) (size 15 to 20)
#    1.000    0.667    1.667    2.000   11.667    0.000 
#    6.000    1.667    0.000    0.000    0.000    0.000 
#    0.000    0.000    0.000    0.000    0.000    0.000 
#
# Total GULP energy -133956.335587 kJ/mol
# GULP energy per Si atom -5581.513983 kJ/mol
# Density = 2.464115 g / cm^3
# Si number density = 24.697359 Si / 1000 Ang^3
#
#
#
# Elastic Constant Matrix: (Units=GPa)
#
#
# Indices 1 2 3 4 5 6 
#
# 1 87.5097 27.8012 39.6740 0.0000 0.0000 0.0000
# 2 27.8012 49.5219 30.7824 0.0000 0.0000 0.0000
# 3 39.6740 30.7824 141.5120 0.0000 0.0000 0.0000
# 4 0.0000 0.0000 0.0000 32.7309 0.0000 0.0000
# 5 0.0000 0.0000 0.0000 0.0000 32.4629 0.0000
# 6 0.0000 0.0000 0.0000 0.0000 0.0000 34.0729
#
#
#
# Elastic Compliance Matrix: (Units=1/GPa)
#
#
# Indices 1 2 3 4 5 6 
#
# 1 0.014748 -0.006602 -0.002699 0.000000 0.000000 0.000000
# 2 -0.006602 0.026306 -0.003871 0.000000 0.000000 0.000000
# 3 -0.002699 -0.003871 0.008665 0.000000 0.000000 0.000000
# 4 0.000000 0.000000 0.000000 0.030552 0.000000 0.000000
# 5 0.000000 0.000000 0.000000 0.000000 0.030804 0.000000
# 6 0.000000 0.000000 0.000000 0.000000 0.000000 0.029349
#
#
# Mechanical properties :
#
#
# Convention : Reuss Voigt Hill
#
# Bulk Modulus (GPa) = 42.78021 52.78431 47.78226
# Shear Modulus (GPa) = 28.64341 31.87242 30.25791
#
# Velocity S-wave (km/s) = 3.40924 3.59628 3.50401
# Velocity P-wave (km/s) = 5.73207 6.21797 5.97996
#
# Compressibility (1/GPa) = 0.02337529
#
# Stress axis : x y z
#
# Youngs Moduli (GPa) = 67.80480 38.01447 115.40395
#
# Poissons Ratio (x) = 0.25097 0.31144
# Poissons Ratio (y) = 0.44765 0.44675
# Poissons Ratio (z) = 0.18298 0.14716
#
# Static dielectric constant tensor:
#      x y z
#    x 1.972200 0.000000 0.000000 
#    y 0.000000 2.018110 0.000000 
#    z 0.000000 0.000000 2.005120 
# 
# From -- ./inp_files/2706.got.cif
#   From: 2010.05.17/outbox.cif.g08.bks.cpg/sg33_2_cif.got.tgz:2706.got - 2010.06.03 17:15:25.
