data_PCOD9346166
_publ_section_title
;
Structure prediction by ZEFSAII (Michael W. Deem and Ramdas Pophale) SiO2 
 PCOD9346166
Probable space group: P N A 21
;
_chemical_formula_sum "Si O2"
_cell_formula_units_Z 20
_cell_length_a 5.072966
_cell_length_b 12.424169
_cell_length_c 13.411864
_cell_angle_alpha 90.000000
_cell_angle_beta 90.000000
_cell_angle_gamma 90.000000
_cell_volume 845.314742
_symmetry_space_group_name_H-M "P N A 21"
_symmetry_group_IT_number 33
_symmetry_cell_setting 'orthorhombic'
loop_
_space_group_symop_operation_xyz
x,y,z
-x,-y,1/2+z
1/2-x,1/2+y,1/2+z
1/2+x,1/2-y,z
loop_
_atom_site_type_symbol
_atom_site_label
_atom_site_fract_x
_atom_site_fract_y
_atom_site_fract_z
Si Si1 0.274933 0.512257 0.887470
Si Si2 0.476617 0.816925 0.276163
Si Si3 0.564872 0.927385 0.083498
Si Si4 0.048428 0.059180 0.077697
Si Si5 0.434887 0.312499 0.258444
O O1 0.093896 0.431212 0.825529
O O2 0.454817 0.585667 0.818312
O O3 0.454464 0.441788 0.963593
O O4 0.114745 0.587910 0.965969
O O5 0.756759 0.769478 0.304485
O O6 0.469898 0.834778 0.156246
O O7 0.347514 0.021935 0.088939
O O8 0.849054 0.968134 0.122294
O O9 0.981880 0.162700 0.141804
O O10 0.635028 0.215131 0.281173
#
# Coordination Sequence:
#
# PCOD9346166 Si02
#       5
#     4   4   4   4   4
#     4  10  28  46  76  98 154 186 238 292 362 416
#     4  12  27  44  74 110 141 187 244 292 353 427
#     4  10  23  45  73  96 143 190 229 289 359 409
#     4  10  23  45  73  96 143 190 229 289 359 409
#     4  12  27  44  74 110 141 187 244 292 353 427
#
# _framework density 23.659825999999999
#
# number of rings (size 3 to 8) (size 9 to 14) (size 15 to 20)
#    1.200    0.000    2.000    2.400    5.600    3.200 
#    0.000    0.000    0.000    0.000    0.000    0.000 
#    0.000    0.000    0.000    0.000    0.000    0.000 
#
# Total GULP energy -111730.680391 kJ/mol
# GULP energy per Si atom -5586.534020 kJ/mol
# Density = 2.360598 g / cm^3
# Si number density = 23.659826 Si / 1000 Ang^3
#
#
#
# Elastic Constant Matrix: (Units=GPa)
#
#
# Indices 1 2 3 4 5 6 
#
# 1 60.4070 1.3578 16.8545 0.0000 0.0000 0.0000
# 2 1.3578 44.7326 28.8548 0.0000 0.0000 0.0000
# 3 16.8545 28.8548 97.7887 0.0000 0.0000 0.0000
# 4 0.0000 0.0000 0.0000 23.6811 0.0000 0.0000
# 5 0.0000 0.0000 0.0000 0.0000 30.5450 0.0000
# 6 0.0000 0.0000 0.0000 0.0000 0.0000 36.1676
#
#
#
# Elastic Compliance Matrix: (Units=1/GPa)
#
#
# Indices 1 2 3 4 5 6 
#
# 1 0.017501 0.001747 -0.003532 0.000000 0.000000 0.000000
# 2 0.001747 0.027785 -0.008500 0.000000 0.000000 0.000000
# 3 -0.003532 -0.008500 0.013343 0.000000 0.000000 0.000000
# 4 0.000000 0.000000 0.000000 0.042228 0.000000 0.000000
# 5 0.000000 0.000000 0.000000 0.000000 0.032739 0.000000
# 6 0.000000 0.000000 0.000000 0.000000 0.000000 0.027649
#
#
# Mechanical properties :
#
#
# Convention : Reuss Voigt Hill
#
# Bulk Modulus (GPa) = 26.27484 33.00695 29.64089
# Shear Modulus (GPa) = 25.70710 28.46950 27.08830
#
# Velocity S-wave (km/s) = 3.29983 3.47260 3.38732
# Velocity P-wave (km/s) = 5.06437 5.48266 5.27766
#
# Compressibility (1/GPa) = 0.03805923
#
# Stress axis : x y z
#
# Youngs Moduli (GPa) = 57.14115 35.99095 74.94634
#
# Poissons Ratio (x) = -0.06288 0.26470
# Poissons Ratio (y) = -0.09982 0.63702
# Poissons Ratio (z) = 0.20181 0.30591
#
# Static dielectric constant tensor:
#      x y z
#    x 1.857690 0.000000 0.000000 
#    y 0.000000 1.886380 0.000000 
#    z 0.000000 0.000000 1.900740 
# 
# From -- ./inp_files/5400.got.cif
#   From: 2010.05.17/outbox.cif.g08.bks.cpg/sg33_3_cif.got.tgz:5400.got - 2010.06.03 17:15:25.
