data_PCOD9346256
_publ_section_title
;
Structure prediction by ZEFSAII (Michael W. Deem and Ramdas Pophale) SiO2 
 PCOD9346256
Probable space group: P N A 21
;
_chemical_formula_sum "Si O2"
_cell_formula_units_Z 28
_cell_length_a 12.395729
_cell_length_b 9.256799
_cell_length_c 11.015722
_cell_angle_alpha 90.000000
_cell_angle_beta 90.000000
_cell_angle_gamma 90.000000
_cell_volume 1263.996507
_symmetry_space_group_name_H-M "P N A 21"
_symmetry_group_IT_number 33
_symmetry_cell_setting 'orthorhombic'
loop_
_space_group_symop_operation_xyz
x,y,z
-x,-y,1/2+z
1/2-x,1/2+y,1/2+z
1/2+x,1/2-y,z
loop_
_atom_site_type_symbol
_atom_site_label
_atom_site_fract_x
_atom_site_fract_y
_atom_site_fract_z
Si Si1 0.557293 0.406589 0.829880
Si Si2 0.277710 0.364093 0.255733
Si Si3 0.411001 0.267679 0.651455
Si Si4 0.032174 0.448762 0.211793
Si Si5 0.845843 0.383837 0.402586
Si Si6 0.582561 0.729060 0.531116
Si Si7 0.744610 0.190671 0.856708
O O1 0.640246 0.538091 0.833441
O O2 0.491668 0.392430 0.702709
O O3 0.633480 0.269527 0.840985
O O4 0.479677 0.386326 0.945971
O O5 0.158545 0.421113 0.233693
O O6 0.267485 0.209816 0.318421
O O7 0.345954 0.344125 0.134034
O O8 0.374151 0.214482 0.518702
O O9 0.303862 0.310417 0.726918
O O10 0.471293 0.119820 0.691766
O O11 0.955227 0.408753 0.324688
O O12 0.989988 0.350945 0.097658
O O13 0.785081 0.536733 0.416961
O O14 0.673470 0.786200 0.438193
#
# Coordination Sequence:
#
# PCOD9346256 Si02
#       7
#     4   4   4   4   4   4   4
#     4  11  23  41  68 102 136 187 241 291 363 438
#     4  11  25  44  69 103 144 184 242 307 368 436
#     4  11  24  42  72 104 144 187 244 301 365 441
#     4  11  23  46  70 102 141 192 242 302 372 436
#     4  11  26  46  71 104 145 190 243 310 362 452
#     4  10  24  42  70  96 144 188 236 300 364 438
#     4  11  23  45  70 101 138 190 240 297 370 435
#
# _framework density 22.151961
#
# number of rings (size 3 to 8) (size 9 to 14) (size 15 to 20)
#    0.000    1.143    2.857    2.571    4.000    5.714 
#    5.143    0.000    0.000    0.000    0.000    0.000 
#    0.000    0.000    0.000    0.000    0.000    0.000 
#
# Total GULP energy -156093.130353 kJ/mol
# GULP energy per Si atom -5574.754655 kJ/mol
# Density = 2.210154 g / cm^3
# Si number density = 22.151961 Si / 1000 Ang^3
#
#
#
# Elastic Constant Matrix: (Units=GPa)
#
#
# Indices 1 2 3 4 5 6 
#
# 1 78.7678 11.5912 46.1442 0.0000 0.0000 0.0000
# 2 11.5912 52.6785 22.0572 0.0000 0.0000 0.0000
# 3 46.1442 22.0572 102.2188 0.0000 0.0000 0.0000
# 4 0.0000 0.0000 0.0000 27.6841 0.0000 0.0000
# 5 0.0000 0.0000 0.0000 0.0000 20.6258 0.0000
# 6 0.0000 0.0000 0.0000 0.0000 0.0000 32.2718
#
#
#
# Elastic Compliance Matrix: (Units=1/GPa)
#
#
# Indices 1 2 3 4 5 6 
#
# 1 0.017277 -0.000589 -0.007672 0.000000 0.000000 0.000000
# 2 -0.000589 0.020889 -0.004242 0.000000 0.000000 0.000000
# 3 -0.007672 -0.004242 0.014162 0.000000 0.000000 0.000000
# 4 0.000000 0.000000 0.000000 0.036122 0.000000 0.000000
# 5 0.000000 0.000000 0.000000 0.000000 0.048483 0.000000
# 6 0.000000 0.000000 0.000000 0.000000 0.000000 0.030987
#
#
# Mechanical properties :
#
#
# Convention : Reuss Voigt Hill
#
# Bulk Modulus (GPa) = 36.60108 43.69450 40.14779
# Shear Modulus (GPa) = 24.74866 26.37449 25.56157
#
# Velocity S-wave (km/s) = 3.34611 3.45427 3.40062
# Velocity P-wave (km/s) = 5.61135 5.97303 5.79501
#
# Compressibility (1/GPa) = 0.02732160
#
# Stress axis : x y z
#
# Youngs Moduli (GPa) = 57.88141 47.87280 70.61375
#
# Poissons Ratio (x) = 0.02820 0.54175
# Poissons Ratio (y) = 0.03410 0.29951
# Poissons Ratio (z) = 0.44407 0.20305
#
# Static dielectric constant tensor:
#      x y z
#    x 1.794530 0.000000 0.000000 
#    y 0.000000 2.692730 0.000000 
#    z 0.000000 0.000000 1.882920 
# 
# From -- ./inp_files/6364.got.cif
#   From: 2010.05.17/outbox.cif.g08.bks.cpg/sg33_4_cif.got.tgz:6364.got - 2010.06.03 17:15:25.
