data_PCOD9346414
_publ_section_title
;
Structure prediction by ZEFSAII (Michael W. Deem and Ramdas Pophale) SiO2 
 PCOD9346414
Probable space group: P N A 21
;
_chemical_formula_sum "Si O2"
_cell_formula_units_Z 20
_cell_length_a 9.474360
_cell_length_b 4.931378
_cell_length_c 17.651390
_cell_angle_alpha 90.000000
_cell_angle_beta 90.000000
_cell_angle_gamma 90.000000
_cell_volume 824.702074
_symmetry_space_group_name_H-M "P N A 21"
_symmetry_group_IT_number 33
_symmetry_cell_setting 'orthorhombic'
loop_
_space_group_symop_operation_xyz
x,y,z
-x,-y,1/2+z
1/2-x,1/2+y,1/2+z
1/2+x,1/2-y,z
loop_
_atom_site_type_symbol
_atom_site_label
_atom_site_fract_x
_atom_site_fract_y
_atom_site_fract_z
Si Si1 0.750648 0.430360 0.582720
Si Si2 0.237945 0.727235 0.256301
Si Si3 0.932426 0.927264 0.529773
Si Si4 0.869641 0.808202 0.840380
Si Si5 0.892272 0.558219 0.387360
O O1 0.742102 0.329150 0.669214
O O2 0.852227 0.693524 0.578337
O O3 0.591268 0.503586 0.556590
O O4 0.833076 0.191190 0.537833
O O5 0.374339 0.841199 0.300795
O O6 0.199451 0.455031 0.301564
O O7 0.124809 0.965706 0.274733
O O8 0.933757 0.782980 0.447239
O O9 0.234367 0.048821 0.400086
O O10 0.002116 0.689721 0.883299
#
# Coordination Sequence:
#
# PCOD9346414 Si02
#       5
#     4   4   4   4   4
#     4  12  29  54  82 122 165 226 264 353 417 509
#     4  10  26  47  82 115 162 207 280 334 406 488
#     4  12  30  53  83 117 175 215 280 333 436 488
#     4  10  25  45  82 111 159 202 279 332 404 469
#     4  10  28  49  81 119 159 218 269 346 395 502
#
# _framework density 24.251180000000002
#
# number of rings (size 3 to 8) (size 9 to 14) (size 15 to 20)
#    1.200    0.000    0.000    2.400   11.200    3.200 
#    0.000    2.000    0.000    0.000    0.000    0.000 
#    0.000    0.000    0.000    0.000    0.000    0.000 
#
# Total GULP energy -111825.075694 kJ/mol
# GULP energy per Si atom -5591.253785 kJ/mol
# Density = 2.419598 g / cm^3
# Si number density = 24.251180 Si / 1000 Ang^3
#
#
#
# Elastic Constant Matrix: (Units=GPa)
#
#
# Indices 1 2 3 4 5 6 
#
# 1 190.5669 86.8879 82.8359 0.0000 0.0000 0.0000
# 2 86.8879 181.5847 63.4477 0.0000 0.0000 0.0000
# 3 82.8359 63.4477 151.5097 0.0000 0.0000 0.0000
# 4 0.0000 0.0000 0.0000 33.6653 0.0000 0.0000
# 5 0.0000 0.0000 0.0000 0.0000 19.2575 0.0000
# 6 0.0000 0.0000 0.0000 0.0000 0.0000 38.3799
#
#
#
# Elastic Compliance Matrix: (Units=1/GPa)
#
#
# Indices 1 2 3 4 5 6 
#
# 1 0.007831 -0.002637 -0.003177 0.000000 0.000000 0.000000
# 2 -0.002637 0.007339 -0.001632 0.000000 0.000000 0.000000
# 3 -0.003177 -0.001632 0.009021 0.000000 0.000000 0.000000
# 4 0.000000 0.000000 0.000000 0.029704 0.000000 0.000000
# 5 0.000000 0.000000 0.000000 0.000000 0.051928 0.000000
# 6 0.000000 0.000000 0.000000 0.000000 0.000000 0.026055
#
#
# Mechanical properties :
#
#
# Convention : Reuss Voigt Hill
#
# Bulk Modulus (GPa) = 107.53869 110.00047 108.76958
# Shear Modulus (GPa) = 33.36252 37.62652 35.49452
#
# Velocity S-wave (km/s) = 3.71308 3.94322 3.82988
# Velocity P-wave (km/s) = 7.92607 8.13568 8.03156
#
# Compressibility (1/GPa) = 0.00929898
#
# Stress axis : x y z
#
# Youngs Moduli (GPa) = 127.70034 136.25952 110.85762
#
# Poissons Ratio (x) = 0.35930 0.35221
# Poissons Ratio (y) = 0.33673 0.18088
# Poissons Ratio (z) = 0.40572 0.22233
#
# Static dielectric constant tensor:
#      x y z
#    x 1.967460 0.000000 0.000000 
#    y 0.000000 1.933130 0.000000 
#    z 0.000000 0.000000 1.974450 
# 
# From -- ./inp_files/7818.got.cif
#   From: 2010.05.17/outbox.cif.g08.bks.cpg/sg33_4_cif.got.tgz:7818.got - 2010.06.03 17:15:25.
