data_PCOD9346724
_publ_section_title
;
Structure prediction by ZEFSAII (Michael W. Deem and Ramdas Pophale) SiO2 
 PCOD9346724
Probable space group: P N A 21
;
_chemical_formula_sum "Si O2"
_cell_formula_units_Z 28
_cell_length_a 8.225758
_cell_length_b 11.840896
_cell_length_c 12.580288
_cell_angle_alpha 90.000000
_cell_angle_beta 90.000000
_cell_angle_gamma 90.000000
_cell_volume 1225.324391
_symmetry_space_group_name_H-M "P N A 21"
_symmetry_group_IT_number 33
_symmetry_cell_setting 'orthorhombic'
loop_
_space_group_symop_operation_xyz
x,y,z
-x,-y,1/2+z
1/2-x,1/2+y,1/2+z
1/2+x,1/2-y,z
loop_
_atom_site_type_symbol
_atom_site_label
_atom_site_fract_x
_atom_site_fract_y
_atom_site_fract_z
Si Si1 0.983931 0.315563 0.001990
Si Si2 0.741946 0.023073 0.457163
Si Si3 0.958998 0.681386 0.812832
Si Si4 0.814867 0.903754 0.865708
Si Si5 0.996127 0.875278 0.323933
Si Si6 0.211446 0.856350 0.623068
Si Si7 0.452652 0.590437 0.092090
O O1 0.913028 0.244651 0.101492
O O2 0.169569 0.348206 0.021542
O O3 0.880229 0.428568 0.999384
O O4 0.976092 0.232557 0.900047
O O5 0.635793 0.124327 0.411314
O O6 0.870740 0.072991 0.540164
O O7 0.847767 0.949353 0.372821
O O8 0.950433 0.816722 0.821330
O O9 0.838328 0.647595 0.718188
O O10 0.141328 0.634256 0.819862
O O11 0.859429 0.031550 0.833358
O O12 0.832196 0.884097 0.993208
O O13 0.962986 0.840857 0.201756
O O14 0.107423 0.967860 0.628189
#
# Coordination Sequence:
#
# PCOD9346724 Si02
#       7
#     4   4   4   4   4   4   4
#     4  12  24  43  68 107 138 179 225 300 348 425
#     4  11  24  44  67  97 143 174 236 282 346 423
#     4  12  26  44  71 102 132 188 235 294 345 416
#     4  11  25  45  68  98 141 176 237 290 347 419
#     4  11  24  45  68 102 143 181 223 299 354 413
#     4  12  23  40  72 102 132 178 237 288 343 418
#     4  11  24  47  70 100 141 192 229 289 359 422
#
# _framework density 22.851089999999999
#
# number of rings (size 3 to 8) (size 9 to 14) (size 15 to 20)
#    0.000    0.571    5.714    3.429    6.000    0.000 
#    5.143    0.000    0.000    0.000    0.000    0.000 
#    0.000    0.000    0.000    0.000    0.000    0.000 
#
# Total GULP energy -156540.737380 kJ/mol
# GULP energy per Si atom -5590.740621 kJ/mol
# Density = 2.279908 g / cm^3
# Si number density = 22.851090 Si / 1000 Ang^3
#
#
#
# Elastic Constant Matrix: (Units=GPa)
#
#
# Indices 1 2 3 4 5 6 
#
# 1 81.0696 -0.4106 -6.6687 0.0000 0.0000 0.0000
# 2 -0.4106 60.6673 2.1509 0.0000 0.0000 0.0000
# 3 -6.6687 2.1509 98.7970 0.0000 0.0000 0.0000
# 4 0.0000 0.0000 0.0000 27.7741 0.0000 0.0000
# 5 0.0000 0.0000 0.0000 0.0000 33.4110 0.0000
# 6 0.0000 0.0000 0.0000 0.0000 0.0000 31.8510
#
#
#
# Elastic Compliance Matrix: (Units=1/GPa)
#
#
# Indices 1 2 3 4 5 6 
#
# 1 0.012404 0.000054 0.000836 0.000000 0.000000 0.000000
# 2 0.000054 0.016496 -0.000355 0.000000 0.000000 0.000000
# 3 0.000836 -0.000355 0.010186 0.000000 0.000000 0.000000
# 4 0.000000 0.000000 0.000000 0.036005 0.000000 0.000000
# 5 0.000000 0.000000 0.000000 0.000000 0.029930 0.000000
# 6 0.000000 0.000000 0.000000 0.000000 0.000000 0.031396
#
#
# Mechanical properties :
#
#
# Convention : Reuss Voigt Hill
#
# Bulk Modulus (GPa) = 24.90273 25.63077 25.26675
# Shear Modulus (GPa) = 33.61724 34.97137 34.29430
#
# Velocity S-wave (km/s) = 3.83971 3.91628 3.87818
# Velocity P-wave (km/s) = 5.52986 5.62943 5.57986
#
# Compressibility (1/GPa) = 0.04015624
#
# Stress axis : x y z
#
# Youngs Moduli (GPa) = 80.61827 60.61964 98.17452
#
# Poissons Ratio (x) = -0.00329 -0.08208
# Poissons Ratio (y) = -0.00438 0.03490
# Poissons Ratio (z) = -0.06740 0.02155
#
# Static dielectric constant tensor:
#      x y z
#    x 1.824060 0.000000 0.000000 
#    y 0.000000 1.815250 0.000000 
#    z 0.000000 0.000000 1.951020 
# 
# From -- ./inp_files/5838.got.cif
#   From: 2010.05.17/outbox.cif.g08.bks.cpg/sg33_3_cif.got.tgz:5838.got - 2010.06.03 17:15:25.
