data_PCOD9346323
_publ_section_title
;
Structure prediction by ZEFSAII (Michael W. Deem and Ramdas Pophale) SiO2 
 PCOD9346323
Probable space group: P N A 21
;
_chemical_formula_sum "Si O2"
_cell_formula_units_Z 24
_cell_length_a 12.877289
_cell_length_b 5.703538
_cell_length_c 13.644887
_cell_angle_alpha 90.000000
_cell_angle_beta 90.000000
_cell_angle_gamma 90.000000
_cell_volume 1002.163833
_symmetry_space_group_name_H-M "P N A 21"
_symmetry_group_IT_number 33
_symmetry_cell_setting 'orthorhombic'
loop_
_space_group_symop_operation_xyz
x,y,z
-x,-y,1/2+z
1/2-x,1/2+y,1/2+z
1/2+x,1/2-y,z
loop_
_atom_site_type_symbol
_atom_site_label
_atom_site_fract_x
_atom_site_fract_y
_atom_site_fract_z
Si Si1 0.131264 0.549166 0.962090
Si Si2 0.853386 0.171139 0.961738
Si Si3 0.079146 0.262942 0.766594
Si Si4 0.411277 0.594569 0.783554
Si Si5 0.524402 0.904818 0.625639
Si Si6 0.743121 0.580653 0.846247
O O1 0.238951 0.419551 0.985683
O O2 0.082660 0.412816 0.867694
O O3 0.167930 0.804700 0.927574
O O4 0.056462 0.530658 0.053775
O O5 0.827910 0.406742 0.896491
O O6 0.914545 0.973271 0.899087
O O7 0.917600 0.223409 0.057295
O O8 0.104542 0.415696 0.672511
O O9 0.167322 0.069757 0.779569
O O10 0.966601 0.144089 0.746382
O O11 0.471525 0.786761 0.720247
O O12 0.295615 0.704811 0.786580
#
# Coordination Sequence:
#
# PCOD9346323 Si02
#       6
#     4   4   4   4   4   4
#     4  10  24  47  72 107 150 192 248 307 367 440
#     4  10  24  46  71 108 149 194 247 306 373 434
#     4  11  24  44  73 109 146 196 246 308 362 444
#     4  11  24  45  72 107 146 191 246 308 361 438
#     4  12  26  43  79 113 142 199 252 299 378 441
#     4  10  24  45  73 100 161 194 237 312 369 435
#
# _framework density 23.948181000000002
#
# number of rings (size 3 to 8) (size 9 to 14) (size 15 to 20)
#    0.000    1.333    1.667    2.000    2.333   12.000 
#    0.000    0.000    0.000    0.000    0.000    0.000 
#    0.000    0.000    0.000    0.000    0.000    0.000 
#
# Total GULP energy -133935.457581 kJ/mol
# GULP energy per Si atom -5580.644066 kJ/mol
# Density = 2.389367 g / cm^3
# Si number density = 23.948181 Si / 1000 Ang^3
#
#
#
# Elastic Constant Matrix: (Units=GPa)
#
#
# Indices 1 2 3 4 5 6 
#
# 1 86.3620 42.2196 79.4647 0.0000 0.0000 0.0000
# 2 42.2196 67.6105 56.7276 0.0000 0.0000 0.0000
# 3 79.4647 56.7276 114.3049 0.0000 0.0000 0.0000
# 4 0.0000 0.0000 0.0000 35.4782 0.0000 0.0000
# 5 0.0000 0.0000 0.0000 0.0000 14.3542 0.0000
# 6 0.0000 0.0000 0.0000 0.0000 0.0000 41.3109
#
#
#
# Elastic Compliance Matrix: (Units=1/GPa)
#
#
# Indices 1 2 3 4 5 6 
#
# 1 0.032339 -0.002281 -0.021351 0.000000 0.000000 0.000000
# 2 -0.002281 0.025505 -0.011072 0.000000 0.000000 0.000000
# 3 -0.021351 -0.011072 0.029086 0.000000 0.000000 0.000000
# 4 0.000000 0.000000 0.000000 0.028186 0.000000 0.000000
# 5 0.000000 0.000000 0.000000 0.000000 0.069666 0.000000
# 6 0.000000 0.000000 0.000000 0.000000 0.000000 0.024207
#
#
# Mechanical properties :
#
#
# Convention : Reuss Voigt Hill
#
# Bulk Modulus (GPa) = 57.06473 69.45568 63.26021
# Shear Modulus (GPa) = 17.59095 24.21970 20.90532
#
# Velocity S-wave (km/s) = 2.71318 3.18360 2.95776
# Velocity P-wave (km/s) = 5.80477 6.52528 6.17554
#
# Compressibility (1/GPa) = 0.01752396
#
# Stress axis : x y z
#
# Youngs Moduli (GPa) = 30.92197 39.20874 34.38047
#
# Poissons Ratio (x) = 0.08942 0.73404
# Poissons Ratio (y) = 0.07052 0.38066
# Poissons Ratio (z) = 0.66020 0.43412
#
# Static dielectric constant tensor:
#      x y z
#    x 1.921190 0.000000 0.000000 
#    y 0.000000 1.948110 0.000000 
#    z 0.000000 0.000000 1.854560 
# 
# From -- ./inp_files/6650.got.cif
#   From: 2010.05.17/outbox.cif.g08.bks.cpg/sg33_4_cif.got.tgz:6650.got - 2010.06.03 17:15:25.
