data_PCOD9346939
_publ_section_title
;
Structure prediction by ZEFSAII (Michael W. Deem and Ramdas Pophale) SiO2 
 PCOD9346939
Probable space group: P N A 21
;
_chemical_formula_sum "Si O2"
_cell_formula_units_Z 32
_cell_length_a 20.543503
_cell_length_b 4.927532
_cell_length_c 10.568688
_cell_angle_alpha 90.000000
_cell_angle_beta 90.000000
_cell_angle_gamma 90.000000
_cell_volume 1069.855270
_symmetry_space_group_name_H-M "P N A 21"
_symmetry_group_IT_number 33
_symmetry_cell_setting 'orthorhombic'
loop_
_space_group_symop_operation_xyz
x,y,z
-x,-y,1/2+z
1/2-x,1/2+y,1/2+z
1/2+x,1/2-y,z
loop_
_atom_site_type_symbol
_atom_site_label
_atom_site_fract_x
_atom_site_fract_y
_atom_site_fract_z
Si Si1 0.852087 0.098555 0.285400
Si Si2 0.506227 0.886385 0.417158
Si Si3 0.322436 0.471617 0.686109
Si Si4 0.934918 0.808005 0.107007
Si Si5 0.182423 0.458148 0.573606
Si Si6 0.369305 0.035171 0.524991
Si Si7 0.251290 0.274904 0.893752
Si Si8 0.960085 0.885162 0.741932
O O1 0.845718 0.349632 0.186733
O O2 0.866400 0.219799 0.421483
O O3 0.909508 0.890730 0.248011
O O4 0.787214 0.919777 0.296863
O O5 0.545558 0.036209 0.531918
O O6 0.434569 0.890452 0.478312
O O7 0.510307 0.108484 0.301228
O O8 0.535793 0.608134 0.358082
O O9 0.259494 0.427945 0.595538
O O10 0.361117 0.193351 0.656100
O O11 0.281788 0.517328 0.813993
O O12 0.385741 0.661233 0.696462
O O13 0.859777 0.812084 0.056418
O O14 0.999531 0.988756 0.122669
O O15 0.185611 0.629372 0.447284
O O16 0.303754 0.869716 0.491810
#
# Coordination Sequence:
#
# PCOD9346939 Si02
#       8
#     4   4   4   4   4   4   4   4
#     4  12  23  46  78 105 148 198 259 315 403 470
#     4  12  29  50  82 112 160 210 267 327 408 472
#     4  12  26  48  72 118 149 203 263 331 393 478
#     4  12  27  50  77 112 156 209 268 324 404 485
#     4  12  27  46  79 110 155 207 257 330 406 477
#     4  12  25  49  75 110 154 204 256 330 403 472
#     4  12  26  45  75 110 152 197 261 323 396 475
#     4  12  29  52  78 117 156 208 269 332 395 485
#
# _framework density 29.910589000000002
#
# number of rings (size 3 to 8) (size 9 to 14) (size 15 to 20)
#    0.000    0.000    6.250    3.000    3.500    3.000 
#    0.000    0.000    0.000    0.000    0.000    0.000 
#    0.000    0.000    0.000    0.000    0.000    0.000 
#
# Total GULP energy -178751.173162 kJ/mol
# GULP energy per Si atom -5585.974161 kJ/mol
# Density = 2.984251 g / cm^3
# Si number density = 29.910589 Si / 1000 Ang^3
#
#
#
# Elastic Constant Matrix: (Units=GPa)
#
#
# Indices 1 2 3 4 5 6 
#
# 1 182.3325 25.3339 28.0772 0.0000 0.0000 0.0000
# 2 25.3339 121.9548 -1.9264 0.0000 0.0000 0.0000
# 3 28.0772 -1.9264 55.0502 0.0000 0.0000 0.0000
# 4 0.0000 0.0000 0.0000 57.0295 0.0000 0.0000
# 5 0.0000 0.0000 0.0000 0.0000 45.3484 0.0000
# 6 0.0000 0.0000 0.0000 0.0000 0.0000 46.5189
#
#
#
# Elastic Compliance Matrix: (Units=1/GPa)
#
#
# Indices 1 2 3 4 5 6 
#
# 1 0.006160 -0.001330 -0.003188 0.000000 0.000000 0.000000
# 2 -0.001330 0.008491 0.000976 0.000000 0.000000 0.000000
# 3 -0.003188 0.000976 0.019826 0.000000 0.000000 0.000000
# 4 0.000000 0.000000 0.000000 0.017535 0.000000 0.000000
# 5 0.000000 0.000000 0.000000 0.000000 0.022052 0.000000
# 6 0.000000 0.000000 0.000000 0.000000 0.000000 0.021497
#
#
# Mechanical properties :
#
#
# Convention : Reuss Voigt Hill
#
# Bulk Modulus (GPa) = 36.50794 51.36745 43.93769
# Shear Modulus (GPa) = 44.73204 50.30287 47.51746
#
# Velocity S-wave (km/s) = 3.87140 4.10539 3.99011
# Velocity P-wave (km/s) = 5.67590 6.29947 5.99579
#
# Compressibility (1/GPa) = 0.02739130
#
# Stress axis : x y z
#
# Youngs Moduli (GPa) = 162.33032 117.76530 50.43987
#
# Poissons Ratio (x) = 0.15663 0.16083
# Poissons Ratio (y) = 0.21591 -0.04920
# Poissons Ratio (z) = 0.51758 -0.11488
#
# Static dielectric constant tensor:
#      x y z
#    x 2.307300 0.000000 0.000000 
#    y 0.000000 2.426180 0.000000 
#    z 0.000000 0.000000 2.484290 
# 
# From -- ./inp_files/7207.got.cif
#   From: 2010.05.17/outbox.cif.g08.bks.cpg/sg33_4_cif.got.tgz:7207.got - 2010.06.03 17:15:25.
