data_PCOD9346187
_publ_section_title
;
Structure prediction by ZEFSAII (Michael W. Deem and Ramdas Pophale) SiO2 
 PCOD9346187
Probable space group: P N A 21
;
_chemical_formula_sum "Si O2"
_cell_formula_units_Z 24
_cell_length_a 11.393413
_cell_length_b 14.463212
_cell_length_c 6.252454
_cell_angle_alpha 90.000000
_cell_angle_beta 90.000000
_cell_angle_gamma 90.000000
_cell_volume 1030.312806
_symmetry_space_group_name_H-M "P N A 21"
_symmetry_group_IT_number 33
_symmetry_cell_setting 'orthorhombic'
loop_
_space_group_symop_operation_xyz
x,y,z
-x,-y,1/2+z
1/2-x,1/2+y,1/2+z
1/2+x,1/2-y,z
loop_
_atom_site_type_symbol
_atom_site_label
_atom_site_fract_x
_atom_site_fract_y
_atom_site_fract_z
Si Si1 0.098414 0.882646 0.424760
Si Si2 0.638429 0.956706 0.308363
Si Si3 0.300668 0.842469 0.759565
Si Si4 0.210043 0.667507 0.910913
Si Si5 0.141533 0.043346 0.120948
Si Si6 0.019690 0.692364 0.532978
O O1 0.194806 0.880098 0.613449
O O2 0.066343 0.775635 0.385619
O O3 0.982756 0.931590 0.519756
O O4 0.138790 0.940735 0.220668
O O5 0.756493 0.943488 0.447801
O O6 0.529282 0.905310 0.415935
O O7 0.625250 0.066633 0.314913
O O8 0.661112 0.899163 0.093388
O O9 0.258688 0.772124 0.943238
O O10 0.388865 0.786076 0.606503
O O11 0.318770 0.609751 0.813431
O O12 0.108347 0.684830 0.734073
#
# Coordination Sequence:
#
# PCOD9346187 Si02
#       6
#     4   4   4   4   4   4
#     4  11  23  44  71  97 138 182 226 294 347 405
#     4  11  25  43  70 102 136 186 230 286 355 419
#     4  11  23  45  70  98 139 185 227 287 349 418
#     4  10  23  47  65  97 139 178 234 286 343 420
#     4  11  23  45  68 102 136 175 238 288 344 415
#     4  10  25  44  66 100 140 176 229 289 346 425
#
# _framework density 23.293897000000001
#
# number of rings (size 3 to 8) (size 9 to 14) (size 15 to 20)
#    0.000    1.333    3.333    1.000    4.667    0.000 
#    3.000    0.000    0.000    0.000    0.000    0.000 
#    0.000    0.000    0.000    0.000    0.000    0.000 
#
# Total GULP energy -134100.507076 kJ/mol
# GULP energy per Si atom -5587.521128 kJ/mol
# Density = 2.324088 g / cm^3
# Si number density = 23.293897 Si / 1000 Ang^3
#
#
#
# Elastic Constant Matrix: (Units=GPa)
#
#
# Indices 1 2 3 4 5 6 
#
# 1 61.6831 -7.5155 -3.7029 0.0000 0.0000 0.0000
# 2 -7.5155 133.0866 20.0116 0.0000 0.0000 0.0000
# 3 -3.7029 20.0116 38.4243 0.0000 0.0000 0.0000
# 4 0.0000 0.0000 0.0000 41.8146 0.0000 0.0000
# 5 0.0000 0.0000 0.0000 0.0000 20.8878 0.0000
# 6 0.0000 0.0000 0.0000 0.0000 0.0000 28.9254
#
#
#
# Elastic Compliance Matrix: (Units=1/GPa)
#
#
# Indices 1 2 3 4 5 6 
#
# 1 0.016374 0.000746 0.001190 0.000000 0.000000 0.000000
# 2 0.000746 0.008186 -0.004192 0.000000 0.000000 0.000000
# 3 0.001190 -0.004192 0.028323 0.000000 0.000000 0.000000
# 4 0.000000 0.000000 0.000000 0.023915 0.000000 0.000000
# 5 0.000000 0.000000 0.000000 0.000000 0.047875 0.000000
# 6 0.000000 0.000000 0.000000 0.000000 0.000000 0.034572
#
#
# Mechanical properties :
#
#
# Convention : Reuss Voigt Hill
#
# Bulk Modulus (GPa) = 20.67361 27.86448 24.26905
# Shear Modulus (GPa) = 27.79615 33.28560 30.54087
#
# Velocity S-wave (km/s) = 3.45814 3.78423 3.62485
# Velocity P-wave (km/s) = 4.98391 5.57512 5.28778
#
# Compressibility (1/GPa) = 0.04837084
#
# Stress axis : x y z
#
# Youngs Moduli (GPa) = 61.07175 122.15540 35.30717
#
# Poissons Ratio (x) = -0.09110 -0.04200
# Poissons Ratio (y) = -0.04555 0.14799
# Poissons Ratio (z) = -0.07265 0.51203
#
# Static dielectric constant tensor:
#      x y z
#    x 1.816770 0.000000 0.000000 
#    y 0.000000 1.949870 0.000000 
#    z 0.000000 0.000000 1.884650 
# 
# From -- ./inp_files/787.got.cif
#   From: 2010.05.17/outbox.cif.g08.bks.cpg/sg33_1_cif.got.tgz:787.got - 2010.06.03 17:15:25.
