data_PCOD9346296
_publ_section_title
;
Structure prediction by ZEFSAII (Michael W. Deem and Ramdas Pophale) SiO2 
 PCOD9346296
Probable space group: P N A 21
;
_chemical_formula_sum "Si O2"
_cell_formula_units_Z 32
_cell_length_a 16.653799
_cell_length_b 10.968011
_cell_length_c 8.198762
_cell_angle_alpha 90.000000
_cell_angle_beta 90.000000
_cell_angle_gamma 90.000000
_cell_volume 1497.578083
_symmetry_space_group_name_H-M "P N A 21"
_symmetry_group_IT_number 33
_symmetry_cell_setting 'orthorhombic'
loop_
_space_group_symop_operation_xyz
x,y,z
-x,-y,1/2+z
1/2-x,1/2+y,1/2+z
1/2+x,1/2-y,z
loop_
_atom_site_type_symbol
_atom_site_label
_atom_site_fract_x
_atom_site_fract_y
_atom_site_fract_z
Si Si1 0.983943 0.561674 0.394680
Si Si2 0.083224 0.361000 0.249877
Si Si3 0.948128 0.917162 0.770513
Si Si4 0.095360 0.721950 0.182271
Si Si5 0.674856 0.597942 0.425621
Si Si6 0.172194 0.569864 0.902667
Si Si7 0.096804 0.949495 0.958157
Si Si8 0.773187 0.169703 0.270880
O O1 0.052506 0.458136 0.382926
O O2 0.021059 0.668940 0.284522
O O3 0.956799 0.606683 0.573731
O O4 0.906042 0.491671 0.323194
O O5 0.055761 0.225952 0.296747
O O6 0.179698 0.355097 0.243623
O O7 0.891760 0.995291 0.890309
O O8 0.915993 0.945016 0.589111
O O9 0.037510 0.964277 0.806411
O O10 0.155879 0.791846 0.303035
O O11 0.070535 0.826368 0.054196
O O12 0.140318 0.616698 0.079927
O O13 0.759482 0.531352 0.401712
O O14 0.677361 0.648535 0.606471
O O15 0.208536 0.692095 0.824576
O O16 0.187075 0.922228 0.901955
#
# Coordination Sequence:
#
# PCOD9346296 Si02
#       8
#     4   4   4   4   4   4   4   4
#     4  12  25  46  72 100 147 189 245 290 360 429
#     4  12  26  46  68 104 141 188 241 292 359 425
#     4  11  24  45  70 103 138 183 238 288 362 425
#     4  10  24  44  68 105 140 189 243 292 356 429
#     4  11  23  45  71 105 142 185 238 300 356 428
#     4  11  23  49  66 105 147 186 241 295 361 430
#     4  10  24  44  71  99 141 181 233 299 354 426
#     4  11  23  47  70 101 148 183 239 300 358 424
#
# _framework density 21.367833000000001
#
# number of rings (size 3 to 8) (size 9 to 14) (size 15 to 20)
#    0.000    1.000    3.750    2.250    7.000    0.000 
#   13.500    0.000    0.000    0.000    0.000    0.000 
#    0.000    0.000    0.000    0.000    0.000    0.000 
#
# Total GULP energy -178783.491081 kJ/mol
# GULP energy per Si atom -5586.984096 kJ/mol
# Density = 2.131920 g / cm^3
# Si number density = 21.367833 Si / 1000 Ang^3
#
#
#
# Elastic Constant Matrix: (Units=GPa)
#
#
# Indices 1 2 3 4 5 6 
#
# 1 117.9357 26.3083 53.1068 0.0000 0.0000 0.0000
# 2 26.3083 64.2400 30.2373 0.0000 0.0000 0.0000
# 3 53.1068 30.2373 102.4550 0.0000 0.0000 0.0000
# 4 0.0000 0.0000 0.0000 17.3343 0.0000 0.0000
# 5 0.0000 0.0000 0.0000 0.0000 35.3262 0.0000
# 6 0.0000 0.0000 0.0000 0.0000 0.0000 29.7755
#
#
#
# Elastic Compliance Matrix: (Units=1/GPa)
#
#
# Indices 1 2 3 4 5 6 
#
# 1 0.011317 -0.002176 -0.005224 0.000000 0.000000 0.000000
# 2 -0.002176 0.018496 -0.004331 0.000000 0.000000 0.000000
# 3 -0.005224 -0.004331 0.013746 0.000000 0.000000 0.000000
# 4 0.000000 0.000000 0.000000 0.057689 0.000000 0.000000
# 5 0.000000 0.000000 0.000000 0.000000 0.028308 0.000000
# 6 0.000000 0.000000 0.000000 0.000000 0.000000 0.033585
#
#
# Mechanical properties :
#
#
# Convention : Reuss Voigt Hill
#
# Bulk Modulus (GPa) = 49.75570 55.99283 52.87427
# Shear Modulus (GPa) = 25.86634 28.15242 27.00938
#
# Velocity S-wave (km/s) = 3.48304 3.63370 3.55916
# Velocity P-wave (km/s) = 6.28580 6.62315 6.45668
#
# Compressibility (1/GPa) = 0.02009820
#
# Stress axis : x y z
#
# Youngs Moduli (GPa) = 88.36355 54.06513 72.74667
#
# Poissons Ratio (x) = 0.11763 0.38002
# Poissons Ratio (y) = 0.19226 0.31506
# Poissons Ratio (z) = 0.46160 0.23415
#
# Static dielectric constant tensor:
#      x y z
#    x 1.773570 0.000000 0.000000 
#    y 0.000000 1.781800 0.000000 
#    z 0.000000 0.000000 1.806260 
# 
# From -- ./inp_files/4408.got.cif
#   From: 2010.05.17/outbox.cif.g08.bks.cpg/sg33_3_cif.got.tgz:4408.got - 2010.06.03 17:15:25.
