data_PCOD9346383
_publ_section_title
;
Structure prediction by ZEFSAII (Michael W. Deem and Ramdas Pophale) SiO2 
 PCOD9346383
Probable space group: P N A 21
;
_chemical_formula_sum "Si O2"
_cell_formula_units_Z 32
_cell_length_a 15.188228
_cell_length_b 10.334575
_cell_length_c 8.570192
_cell_angle_alpha 90.000000
_cell_angle_beta 90.000000
_cell_angle_gamma 90.000000
_cell_volume 1345.210601
_symmetry_space_group_name_H-M "P N A 21"
_symmetry_group_IT_number 33
_symmetry_cell_setting 'orthorhombic'
loop_
_space_group_symop_operation_xyz
x,y,z
-x,-y,1/2+z
1/2-x,1/2+y,1/2+z
1/2+x,1/2-y,z
loop_
_atom_site_type_symbol
_atom_site_label
_atom_site_fract_x
_atom_site_fract_y
_atom_site_fract_z
Si Si1 0.945788 0.664974 0.308380
Si Si2 0.055731 0.521866 0.535284
Si Si3 0.016486 0.863518 0.086037
Si Si4 0.868784 0.731965 0.894685
Si Si5 0.688874 0.805961 0.060391
Si Si6 0.141072 0.084796 0.128541
Si Si7 0.786994 0.320365 0.933016
Si Si8 0.236315 0.439783 0.877450
O O1 0.976184 0.555657 0.184793
O O2 0.841751 0.646047 0.303743
O O3 0.983508 0.618354 0.470250
O O4 0.984158 0.799389 0.248592
O O5 0.085717 0.405206 0.421021
O O6 0.143062 0.608108 0.543590
O O7 0.100998 0.778006 0.030569
O O8 0.051064 0.008558 0.101707
O O9 0.933710 0.837660 0.974781
O O10 0.862504 0.779040 0.718234
O O11 0.775064 0.737045 0.984214
O O12 0.692300 0.827157 0.248052
O O13 0.692896 0.944470 0.974224
O O14 0.199575 0.996211 0.245765
O O15 0.195022 0.110463 0.971862
O O16 0.787341 0.168400 0.975303
#
# Coordination Sequence:
#
# PCOD9346383 Si02
#       8
#     4   4   4   4   4   4   4   4
#     4  11  22  39  67  91 135 167 230 280 333 406
#     4  11  22  40  62  98 124 178 221 277 337 400
#     4  11  22  43  66  97 130 183 220 284 349 398
#     4  10  25  42  67  94 138 176 223 282 343 408
#     4  11  23  44  68  98 138 180 223 285 347 407
#     4  11  24  43  67  96 137 173 231 278 340 415
#     4  12  23  41  68  95 132 180 224 275 341 409
#     4  11  23  42  63 101 130 177 222 283 342 405
#
# _framework density 23.788095999999999
#
# number of rings (size 3 to 8) (size 9 to 14) (size 15 to 20)
#    0.000    1.000    3.750    3.750    1.750    2.000 
#    0.000    2.500    0.000    0.000    0.000    0.000 
#    0.000    0.000    0.000    0.000    0.000    0.000 
#
# Total GULP energy -178958.223878 kJ/mol
# GULP energy per Si atom -5592.444496 kJ/mol
# Density = 2.373395 g / cm^3
# Si number density = 23.788096 Si / 1000 Ang^3
#
#
#
# Elastic Constant Matrix: (Units=GPa)
#
#
# Indices 1 2 3 4 5 6 
#
# 1 78.1242 -6.0258 9.4624 0.0000 0.0000 0.0000
# 2 -6.0258 62.5360 8.5722 0.0000 0.0000 0.0000
# 3 9.4624 8.5722 31.1458 0.0000 0.0000 0.0000
# 4 0.0000 0.0000 0.0000 39.1022 0.0000 0.0000
# 5 0.0000 0.0000 0.0000 0.0000 21.0393 0.0000
# 6 0.0000 0.0000 0.0000 0.0000 0.0000 37.9110
#
#
#
# Elastic Compliance Matrix: (Units=1/GPa)
#
#
# Indices 1 2 3 4 5 6 
#
# 1 0.013511 0.001938 -0.004638 0.000000 0.000000 0.000000
# 2 0.001938 0.016896 -0.005239 0.000000 0.000000 0.000000
# 3 -0.004638 -0.005239 0.034958 0.000000 0.000000 0.000000
# 4 0.000000 0.000000 0.000000 0.025574 0.000000 0.000000
# 5 0.000000 0.000000 0.000000 0.000000 0.047530 0.000000
# 6 0.000000 0.000000 0.000000 0.000000 0.000000 0.026378
#
#
# Mechanical properties :
#
#
# Convention : Reuss Voigt Hill
#
# Bulk Modulus (GPa) = 20.20759 21.75818 20.98289
# Shear Modulus (GPa) = 25.35230 30.26366 27.80798
#
# Velocity S-wave (km/s) = 3.26813 3.57069 3.42275
# Velocity P-wave (km/s) = 4.77014 5.11530 4.94573
#
# Compressibility (1/GPa) = 0.04948636
#
# Stress axis : x y z
#
# Youngs Moduli (GPa) = 74.01179 59.18689 28.60573
#
# Poissons Ratio (x) = -0.11469 0.13268
# Poissons Ratio (y) = -0.14341 0.14986
# Poissons Ratio (z) = 0.34328 0.31007
#
# Static dielectric constant tensor:
#      x y z
#    x 1.938770 0.000000 0.000000 
#    y 0.000000 1.913140 0.000000 
#    z 0.000000 0.000000 1.916170 
# 
# From -- ./inp_files/4436.got.cif
#   From: 2010.05.17/outbox.cif.g08.bks.cpg/sg33_3_cif.got.tgz:4436.got - 2010.06.03 17:15:25.
