data_PCOD9346122
_publ_section_title
;
Structure prediction by ZEFSAII (Michael W. Deem and Ramdas Pophale) SiO2 
 PCOD9346122
Probable space group: P N A 21
;
_chemical_formula_sum "Si O2"
_cell_formula_units_Z 28
_cell_length_a 12.019127
_cell_length_b 11.671269
_cell_length_c 8.619336
_cell_angle_alpha 90.000000
_cell_angle_beta 90.000000
_cell_angle_gamma 90.000000
_cell_volume 1209.107218
_symmetry_space_group_name_H-M "P N A 21"
_symmetry_group_IT_number 33
_symmetry_cell_setting 'orthorhombic'
loop_
_space_group_symop_operation_xyz
x,y,z
-x,-y,1/2+z
1/2-x,1/2+y,1/2+z
1/2+x,1/2-y,z
loop_
_atom_site_type_symbol
_atom_site_label
_atom_site_fract_x
_atom_site_fract_y
_atom_site_fract_z
Si Si1 0.340109 0.797390 0.845320
Si Si2 0.092236 0.103061 0.863631
Si Si3 0.475190 0.608185 0.033603
Si Si4 0.920876 0.649225 0.333760
Si Si5 0.481937 0.961699 0.635294
Si Si6 0.232073 0.621692 0.619011
Si Si7 0.288805 0.374859 0.648416
O O1 0.418102 0.700744 0.923661
O O2 0.412490 0.894606 0.763944
O O3 0.266701 0.732854 0.715331
O O4 0.267593 0.853223 0.981146
O O5 0.102708 0.079146 0.680545
O O6 0.036790 0.228071 0.891293
O O7 0.208924 0.113433 0.952845
O O8 0.019398 0.002539 0.941414
O O9 0.584929 0.658499 0.119718
O O10 0.920656 0.557016 0.472051
O O11 0.797866 0.677754 0.269017
O O12 0.989335 0.588664 0.195398
O O13 0.601566 0.900524 0.614881
O O14 0.285346 0.508309 0.697832
#
# Coordination Sequence:
#
# PCOD9346122 Si02
#       7
#     4   4   4   4   4   4   4
#     4  12  22  46  70 104 138 188 228 294 344 420
#     4  11  23  45  68 103 139 180 235 283 344 424
#     4  11  24  43  72  99 145 178 231 289 352 404
#     4  11  23  45  68 103 139 180 235 283 344 424
#     4  11  24  43  72  99 145 178 231 289 352 404
#     4  10  23  44  65 101 139 179 234 283 341 419
#     4  10  23  44  65 101 139 179 234 283 341 419
#
# _framework density 23.157582000000001
#
# number of rings (size 3 to 8) (size 9 to 14) (size 15 to 20)
#    0.000    1.143    2.857    4.286    0.000    1.143 
#    0.000    7.143    0.000    0.000    0.000    0.000 
#    0.000    0.000    0.000    0.000    0.000    0.000 
#
# Total GULP energy -156494.566887 kJ/mol
# GULP energy per Si atom -5589.091675 kJ/mol
# Density = 2.310487 g / cm^3
# Si number density = 23.157582 Si / 1000 Ang^3
#
#
#
# Elastic Constant Matrix: (Units=GPa)
#
#
# Indices 1 2 3 4 5 6 
#
# 1 85.4359 13.3301 26.5324 0.0000 0.0000 0.0000
# 2 13.3301 108.7568 3.9801 0.0000 0.0000 0.0000
# 3 26.5324 3.9801 67.9152 0.0000 0.0000 0.0000
# 4 0.0000 0.0000 0.0000 48.3204 0.0000 0.0000
# 5 0.0000 0.0000 0.0000 0.0000 29.7532 0.0000
# 6 0.0000 0.0000 0.0000 0.0000 0.0000 20.4291
#
#
#
# Elastic Compliance Matrix: (Units=1/GPa)
#
#
# Indices 1 2 3 4 5 6 
#
# 1 0.013551 -0.001470 -0.005208 0.000000 0.000000 0.000000
# 2 -0.001470 0.009374 0.000025 0.000000 0.000000 0.000000
# 3 -0.005208 0.000025 0.016757 0.000000 0.000000 0.000000
# 4 0.000000 0.000000 0.000000 0.020695 0.000000 0.000000
# 5 0.000000 0.000000 0.000000 0.000000 0.033610 0.000000
# 6 0.000000 0.000000 0.000000 0.000000 0.000000 0.048950
#
#
# Mechanical properties :
#
#
# Convention : Reuss Voigt Hill
#
# Bulk Modulus (GPa) = 37.91270 38.86591 38.38930
# Shear Modulus (GPa) = 30.29633 34.25156 32.27395
#
# Velocity S-wave (km/s) = 3.62092 3.85003 3.73723
# Velocity P-wave (km/s) = 5.82139 6.04842 5.93599
#
# Compressibility (1/GPa) = 0.02637639
#
# Stress axis : x y z
#
# Youngs Moduli (GPa) = 73.79283 106.67656 59.67520
#
# Poissons Ratio (x) = 0.15685 0.31079
# Poissons Ratio (y) = 0.10850 -0.00150
# Poissons Ratio (z) = 0.38431 -0.00267
#
# Static dielectric constant tensor:
#      x y z
#    x 1.867170 0.000000 0.000000 
#    y 0.000000 1.869060 0.000000 
#    z 0.000000 0.000000 1.898480 
# 
# From -- ./inp_files/3858.got.cif
#   From: 2010.05.17/outbox.cif.g08.bks.cpg/sg33_2_cif.got.tgz:3858.got - 2010.06.03 17:15:25.
