data_PCOD9346409
_publ_section_title
;
Structure prediction by ZEFSAII (Michael W. Deem and Ramdas Pophale) SiO2 
 PCOD9346409
Probable space group: P N A 21
;
_chemical_formula_sum "Si O2"
_cell_formula_units_Z 32
_cell_length_a 8.829847
_cell_length_b 15.331530
_cell_length_c 10.496114
_cell_angle_alpha 90.000000
_cell_angle_beta 90.000000
_cell_angle_gamma 90.000000
_cell_volume 1420.912106
_symmetry_space_group_name_H-M "P N A 21"
_symmetry_group_IT_number 33
_symmetry_cell_setting 'orthorhombic'
loop_
_space_group_symop_operation_xyz
x,y,z
-x,-y,1/2+z
1/2-x,1/2+y,1/2+z
1/2+x,1/2-y,z
loop_
_atom_site_type_symbol
_atom_site_label
_atom_site_fract_x
_atom_site_fract_y
_atom_site_fract_z
Si Si1 0.816036 0.126051 0.273400
Si Si2 0.041171 0.991029 0.988580
Si Si3 0.186203 0.678063 0.044621
Si Si4 0.712108 0.012970 0.034314
Si Si5 0.986103 0.346393 0.003985
Si Si6 0.999247 0.832135 0.151009
Si Si7 0.654161 0.326018 0.927050
Si Si8 0.988291 0.297032 0.283645
O O1 0.862739 0.057539 0.380671
O O2 0.775697 0.074653 0.145751
O O3 0.949597 0.196021 0.258142
O O4 0.662952 0.178814 0.307893
O O5 0.099615 0.088801 0.003221
O O6 0.054078 0.928403 0.111776
O O7 0.862679 0.995096 0.952045
O O8 0.159066 0.579166 0.091828
O O9 0.366378 0.689011 0.049573
O O10 0.119551 0.756190 0.128982
O O11 0.111329 0.679325 0.906045
O O12 0.576752 0.065979 0.969809
O O13 0.943489 0.347544 0.153857
O O14 0.835232 0.329917 0.924476
O O15 0.098864 0.264591 0.987047
O O16 0.923647 0.832034 0.288790
#
# Coordination Sequence:
#
# PCOD9346409 Si02
#       8
#     4   4   4   4   4   4   4   4
#     4  11  23  42  71 103 140 187 238 301 364 427
#     4  11  23  42  67  98 144 182 238 291 363 430
#     4  11  23  44  68 104 142 181 236 298 368 428
#     4  10  25  45  68 104 145 183 242 300 358 447
#     4  11  25  47  71 102 137 191 242 300 364 434
#     4  11  25  43  68 102 139 189 228 301 358 437
#     4  12  25  45  72  99 142 192 243 299 367 442
#     4  11  23  42  73 100 137 181 241 302 356 435
#
# _framework density 22.520745999999999
#
# number of rings (size 3 to 8) (size 9 to 14) (size 15 to 20)
#    0.000    1.000    1.250    6.000    3.500    0.000 
#    6.750    0.000    2.750    0.000    0.000    0.000 
#    0.000    0.000    0.000    0.000    0.000    0.000 
#
# Total GULP energy -178995.546537 kJ/mol
# GULP energy per Si atom -5593.610829 kJ/mol
# Density = 2.246949 g / cm^3
# Si number density = 22.520746 Si / 1000 Ang^3
#
#
#
# Elastic Constant Matrix: (Units=GPa)
#
#
# Indices 1 2 3 4 5 6 
#
# 1 38.7321 21.9951 2.1601 0.0000 0.0000 0.0000
# 2 21.9951 126.6057 -7.4141 0.0000 0.0000 0.0000
# 3 2.1601 -7.4141 65.4590 0.0000 0.0000 0.0000
# 4 0.0000 0.0000 0.0000 27.8913 0.0000 0.0000
# 5 0.0000 0.0000 0.0000 0.0000 29.8971 0.0000
# 6 0.0000 0.0000 0.0000 0.0000 0.0000 52.4654
#
#
#
# Elastic Compliance Matrix: (Units=1/GPa)
#
#
# Indices 1 2 3 4 5 6 
#
# 1 0.028795 -0.005092 -0.001527 0.000000 0.000000 0.000000
# 2 -0.005092 0.008852 0.001171 0.000000 0.000000 0.000000
# 3 -0.001527 0.001171 0.015460 0.000000 0.000000 0.000000
# 4 0.000000 0.000000 0.000000 0.035854 0.000000 0.000000
# 5 0.000000 0.000000 0.000000 0.000000 0.033448 0.000000
# 6 0.000000 0.000000 0.000000 0.000000 0.000000 0.019060
#
#
# Mechanical properties :
#
#
# Convention : Reuss Voigt Hill
#
# Bulk Modulus (GPa) = 23.69108 29.36432 26.52770
# Shear Modulus (GPa) = 30.04177 36.32114 33.18146
#
# Velocity S-wave (km/s) = 3.65630 4.02031 3.84262
# Velocity P-wave (km/s) = 5.32609 5.88367 5.61181
#
# Compressibility (1/GPa) = 0.04220998
#
# Stress axis : x y z
#
# Youngs Moduli (GPa) = 34.72805 112.97255 64.68426
#
# Poissons Ratio (x) = 0.57525 0.09877
# Poissons Ratio (y) = 0.17683 -0.07572
# Poissons Ratio (z) = 0.05303 -0.13225
#
# Static dielectric constant tensor:
#      x y z
#    x 1.832900 0.000000 0.000000 
#    y 0.000000 1.842370 0.000000 
#    z 0.000000 0.000000 1.856340 
# 
# From -- ./inp_files/6018.got.cif
#   From: 2010.05.17/outbox.cif.g08.bks.cpg/sg33_4_cif.got.tgz:6018.got - 2010.06.03 17:15:25.
