data_PCOD9346365
_publ_section_title
;
Structure prediction by ZEFSAII (Michael W. Deem and Ramdas Pophale) SiO2 
 PCOD9346365
Probable space group: P N A 21
;
_chemical_formula_sum "Si O2"
_cell_formula_units_Z 32
_cell_length_a 10.132472
_cell_length_b 9.002496
_cell_length_c 15.235239
_cell_angle_alpha 90.000000
_cell_angle_beta 90.000000
_cell_angle_gamma 90.000000
_cell_volume 1389.721002
_symmetry_space_group_name_H-M "P N A 21"
_symmetry_group_IT_number 33
_symmetry_cell_setting 'orthorhombic'
loop_
_space_group_symop_operation_xyz
x,y,z
-x,-y,1/2+z
1/2-x,1/2+y,1/2+z
1/2+x,1/2-y,z
loop_
_atom_site_type_symbol
_atom_site_label
_atom_site_fract_x
_atom_site_fract_y
_atom_site_fract_z
Si Si1 0.618676 0.749420 0.320550
Si Si2 0.362965 0.336381 0.473816
Si Si3 0.877010 0.774787 0.083552
Si Si4 0.843982 0.256167 0.284066
Si Si5 0.985670 0.517480 0.205331
Si Si6 0.003110 0.004512 0.201114
Si Si7 0.864215 0.811310 0.432851
Si Si8 0.647470 0.235040 0.121512
O O1 0.588706 0.615117 0.253667
O O2 0.765323 0.762393 0.356244
O O3 0.511258 0.729824 0.399334
O O4 0.589379 0.899127 0.266729
O O5 0.264773 0.269806 0.546877
O O6 0.511057 0.296767 0.507583
O O7 0.309116 0.260754 0.384730
O O8 0.353953 0.512410 0.452663
O O9 0.890219 0.919089 0.146312
O O10 0.917270 0.640110 0.146617
O O11 0.746889 0.225533 0.202926
O O12 0.893037 0.422158 0.268336
O O13 0.953649 0.128439 0.269081
O O14 0.044318 0.394409 0.140436
O O15 0.084028 0.101802 0.132163
O O16 0.813808 0.727990 0.520481
#
# Coordination Sequence:
#
# PCOD9346365 Si02
#       8
#     4   4   4   4   4   4   4   4
#     4  11  27  48  76 105 147 191 246 303 361 438
#     4  12  27  47  74 112 147 188 250 306 364 434
#     4  11  27  48  76 105 147 191 246 303 361 438
#     4  11  25  45  72 103 148 191 240 301 369 437
#     4  10  26  46  72 108 144 196 242 298 372 438
#     4  10  24  48  72 104 142 198 240 290 376 438
#     4  12  27  47  74 112 147 188 250 306 364 434
#     4  11  25  45  72 103 148 191 240 301 369 437
#
# _framework density 23.026204
#
# number of rings (size 3 to 8) (size 9 to 14) (size 15 to 20)
#    0.000    1.000    2.500    1.500   14.000    2.000 
#    0.000    0.000    0.000    0.000    0.000    0.000 
#    0.000    0.000    0.000    0.000    0.000    0.000 
#
# Total GULP energy -178960.591296 kJ/mol
# GULP energy per Si atom -5592.518478 kJ/mol
# Density = 2.297380 g / cm^3
# Si number density = 23.026204 Si / 1000 Ang^3
#
#
#
# Elastic Constant Matrix: (Units=GPa)
#
#
# Indices 1 2 3 4 5 6 
#
# 1 51.6653 8.3757 -5.8851 0.0000 0.0000 0.0000
# 2 8.3757 92.0725 26.7525 0.0000 0.0000 0.0000
# 3 -5.8851 26.7525 96.1757 0.0000 0.0000 0.0000
# 4 0.0000 0.0000 0.0000 6.9867 0.0000 0.0000
# 5 0.0000 0.0000 0.0000 0.0000 43.8847 0.0000
# 6 0.0000 0.0000 0.0000 0.0000 0.0000 -1.7331
#
#
#
# Elastic Compliance Matrix: (Units=1/GPa)
#
#
# Indices 1 2 3 4 5 6 
#
# 1 0.019952 -0.002361 0.001877 0.000000 0.000000 0.000000
# 2 -0.002361 0.012095 -0.003509 0.000000 0.000000 0.000000
# 3 0.001877 -0.003509 0.011489 0.000000 0.000000 0.000000
# 4 0.000000 0.000000 0.000000 0.143128 0.000000 0.000000
# 5 0.000000 0.000000 0.000000 0.000000 0.022787 0.000000
# 6 0.000000 0.000000 0.000000 0.000000 0.000000 -0.576996
#
#
# Mechanical properties :
#
#
# Convention : Reuss Voigt Hill
#
# Bulk Modulus (GPa) = 28.12790 33.15552 30.64171
# Shear Modulus (GPa) = -14.37975 23.87236 4.74631
#
# Velocity S-wave (km/s) = -2.50170 3.22335 1.43727
# Velocity P-wave (km/s) = 1.97419 5.31823 4.01130
#
# Compressibility (1/GPa) = 0.03555189
#
# Stress axis : x y z
#
# Youngs Moduli (GPa) = 50.12058 82.67687 87.04307
#
# Poissons Ratio (x) = 0.19516 -0.16342
# Poissons Ratio (y) = 0.11831 0.30543
# Poissons Ratio (z) = -0.09410 0.29011
#
# Static dielectric constant tensor:
#      x y z
#    x 1.924830 0.000000 0.000000 
#    y 0.000000 1.821510 0.000000 
#    z 0.000000 0.000000 1.860850 
# 
# From -- ./inp_files/7950.got.cif
#   From: 2010.05.17/outbox.cif.g08.bks.cpg/sg33_4_cif.got.tgz:7950.got - 2010.06.03 17:15:25.
