data_PCOD9346455
_publ_section_title
;
Structure prediction by ZEFSAII (Michael W. Deem and Ramdas Pophale) SiO2 
 PCOD9346455
Probable space group: P N A 21
;
_chemical_formula_sum "Si O2"
_cell_formula_units_Z 16
_cell_length_a 13.314046
_cell_length_b 4.930161
_cell_length_c 8.840294
_cell_angle_alpha 90.000000
_cell_angle_beta 90.000000
_cell_angle_gamma 90.000000
_cell_volume 580.280349
_symmetry_space_group_name_H-M "P N A 21"
_symmetry_group_IT_number 33
_symmetry_cell_setting 'orthorhombic'
loop_
_space_group_symop_operation_xyz
x,y,z
-x,-y,1/2+z
1/2-x,1/2+y,1/2+z
1/2+x,1/2-y,z
loop_
_atom_site_type_symbol
_atom_site_label
_atom_site_fract_x
_atom_site_fract_y
_atom_site_fract_z
Si Si1 0.366946 0.561428 0.786630
Si Si2 0.319587 0.733986 0.222148
Si Si3 0.159695 0.783110 0.978922
Si Si4 0.492638 0.078534 0.845373
O O1 0.383586 0.483345 0.610608
O O2 0.174289 0.976493 0.832719
O O3 0.435672 0.355473 0.883372
O O4 0.405772 0.862604 0.810955
O O5 0.430940 0.849948 0.207267
O O6 0.248484 0.962913 0.299134
O O7 0.261459 0.685292 0.066190
O O8 0.074597 0.558640 0.953386
#
# Coordination Sequence:
#
# PCOD9346455 Si02
#       4
#     4   4   4   4
#     4  10  28  45  77 113 158 207 271 335 410 497
#     4  10  26  49  77 114 162 206 279 338 414 506
#     4  10  26  49  76 116 158 218 269 335 433 476
#     4  12  24  51  74 115 154 207 265 340 409 495
#
# _framework density 27.572880000000001
#
# number of rings (size 3 to 8) (size 9 to 14) (size 15 to 20)
#    1.500    0.000    2.500    0.000    7.000    6.000 
#    0.000    0.000    0.000    0.000    0.000    0.000 
#    0.000    0.000    0.000    0.000    0.000    0.000 
#
# Total GULP energy -89524.648153 kJ/mol
# GULP energy per Si atom -5595.290510 kJ/mol
# Density = 2.751012 g / cm^3
# Si number density = 27.572880 Si / 1000 Ang^3
#
#
#
# Elastic Constant Matrix: (Units=GPa)
#
#
# Indices 1 2 3 4 5 6 
#
# 1 204.1880 44.5026 20.2170 0.0000 0.0000 0.0000
# 2 44.5026 151.7380 33.5627 0.0000 0.0000 0.0000
# 3 20.2170 33.5627 88.6182 0.0000 0.0000 0.0000
# 4 0.0000 0.0000 0.0000 39.4243 0.0000 0.0000
# 5 0.0000 0.0000 0.0000 0.0000 42.4867 0.0000
# 6 0.0000 0.0000 0.0000 0.0000 0.0000 42.4779
#
#
#
# Elastic Compliance Matrix: (Units=1/GPa)
#
#
# Indices 1 2 3 4 5 6 
#
# 1 0.005268 -0.001396 -0.000673 0.000000 0.000000 0.000000
# 2 -0.001396 0.007563 -0.002546 0.000000 0.000000 0.000000
# 3 -0.000673 -0.002546 0.012402 0.000000 0.000000 0.000000
# 4 0.000000 0.000000 0.000000 0.025365 0.000000 0.000000
# 5 0.000000 0.000000 0.000000 0.000000 0.023537 0.000000
# 6 0.000000 0.000000 0.000000 0.000000 0.000000 0.023542
#
#
# Mechanical properties :
#
#
# Convention : Reuss Voigt Hill
#
# Bulk Modulus (GPa) = 62.48787 71.23431 66.86109
# Shear Modulus (GPa) = 44.54678 47.96192 46.25435
#
# Velocity S-wave (km/s) = 4.02381 4.17521 4.10021
# Velocity P-wave (km/s) = 6.65583 7.00958 6.83499
#
# Compressibility (1/GPa) = 0.01600310
#
# Stress axis : x y z
#
# Youngs Moduli (GPa) = 189.81072 132.22423 80.63149
#
# Poissons Ratio (x) = 0.18462 0.05427
# Poissons Ratio (y) = 0.26503 0.20527
# Poissons Ratio (z) = 0.12776 0.33662
#
# Static dielectric constant tensor:
#      x y z
#    x 2.162530 0.000000 0.000000 
#    y 0.000000 2.126490 0.000000 
#    z 0.000000 0.000000 2.355270 
# 
# From -- ./inp_files/664.got.cif
#   From: 2010.05.17/outbox.cif.g08.bks.cpg/sg33_1_cif.got.tgz:664.got - 2010.06.03 17:15:25.
