data_PCOD9346997
_publ_section_title
;
Structure prediction by ZEFSAII (Michael W. Deem and Ramdas Pophale) SiO2 
 PCOD9346997
Probable space group: P N A 21
;
_chemical_formula_sum "Si O2"
_cell_formula_units_Z 28
_cell_length_a 9.994892
_cell_length_b 18.502867
_cell_length_c 6.715046
_cell_angle_alpha 90.000000
_cell_angle_beta 90.000000
_cell_angle_gamma 90.000000
_cell_volume 1241.841374
_symmetry_space_group_name_H-M "P N A 21"
_symmetry_group_IT_number 33
_symmetry_cell_setting 'orthorhombic'
loop_
_space_group_symop_operation_xyz
x,y,z
-x,-y,1/2+z
1/2-x,1/2+y,1/2+z
1/2+x,1/2-y,z
loop_
_atom_site_type_symbol
_atom_site_label
_atom_site_fract_x
_atom_site_fract_y
_atom_site_fract_z
Si Si1 0.149906 0.551189 0.547210
Si Si2 0.457540 0.396003 0.539885
Si Si3 0.265681 0.301002 0.817274
Si Si4 0.647257 0.050314 0.905844
Si Si5 0.612444 0.787677 0.684120
Si Si6 0.866104 0.767597 0.943416
Si Si7 0.845359 0.997574 0.240539
O O1 0.180256 0.484865 0.693643
O O2 0.128930 0.626749 0.656563
O O3 0.270910 0.555848 0.392582
O O4 0.008743 0.535482 0.441446
O O5 0.371987 0.344036 0.680616
O O6 0.581634 0.349275 0.460823
O O7 0.518612 0.462857 0.661950
O O8 0.375883 0.428302 0.355865
O O9 0.179306 0.364769 0.918068
O O10 0.163343 0.260782 0.666906
O O11 0.347657 0.251981 0.975410
O O12 0.741867 0.012314 0.065179
O O13 0.725552 0.761940 0.835642
O O14 0.474169 0.770550 0.798231
#
# Coordination Sequence:
#
# PCOD9346997 Si02
#       7
#     4   4   4   4   4   4   4
#     4  12  27  45  76 110 150 198 252 308 378 452
#     4  12  27  48  77 107 150 193 254 307 378 451
#     4  12  28  50  75 112 149 201 252 319 376 462
#     4  12  26  48  77 109 153 192 251 312 381 446
#     4  12  29  46  79 109 152 205 250 314 388 449
#     4  12  28  50  75 111 152 197 256 313 378 464
#     4  12  27  49  73 112 148 196 247 321 371 452
#
# _framework density 22.547163999999999
#
# number of rings (size 3 to 8) (size 9 to 14) (size 15 to 20)
#    0.000    0.000    4.286    4.286   12.000    1.143 
#    0.000    0.000    0.000    0.000    0.000    0.000 
#    0.000    0.000    0.000    0.000    0.000    0.000 
#
# Total GULP energy -156744.647477 kJ/mol
# GULP energy per Si atom -5598.023124 kJ/mol
# Density = 2.249585 g / cm^3
# Si number density = 22.547164 Si / 1000 Ang^3
#
#
#
# Elastic Constant Matrix: (Units=GPa)
#
#
# Indices 1 2 3 4 5 6 
#
# 1 76.9191 -4.6696 15.8834 0.0000 0.0000 0.0000
# 2 -4.6696 55.5380 3.0038 0.0000 0.0000 0.0000
# 3 15.8834 3.0038 65.7320 0.0000 0.0000 0.0000
# 4 0.0000 0.0000 0.0000 43.7785 0.0000 0.0000
# 5 0.0000 0.0000 0.0000 0.0000 45.4359 0.0000
# 6 0.0000 0.0000 0.0000 0.0000 0.0000 39.7736
#
#
#
# Elastic Compliance Matrix: (Units=1/GPa)
#
#
# Indices 1 2 3 4 5 6 
#
# 1 0.013783 0.001342 -0.003392 0.000000 0.000000 0.000000
# 2 0.001342 0.018181 -0.001155 0.000000 0.000000 0.000000
# 3 -0.003392 -0.001155 0.016086 0.000000 0.000000 0.000000
# 4 0.000000 0.000000 0.000000 0.022842 0.000000 0.000000
# 5 0.000000 0.000000 0.000000 0.000000 0.022009 0.000000
# 6 0.000000 0.000000 0.000000 0.000000 0.000000 0.025142
#
#
# Mechanical properties :
#
#
# Convention : Reuss Voigt Hill
#
# Bulk Modulus (GPa) = 24.01541 25.18048 24.59794
# Shear Modulus (GPa) = 36.14493 38.06238 37.10366
#
# Velocity S-wave (km/s) = 4.00819 4.11313 4.06100
# Velocity P-wave (km/s) = 5.66526 5.80942 5.73779
#
# Compressibility (1/GPa) = 0.04163993
#
# Stress axis : x y z
#
# Youngs Moduli (GPa) = 72.55563 55.00243 62.16724
#
# Poissons Ratio (x) = -0.07383 0.21085
# Poissons Ratio (y) = -0.09739 0.07181
# Poissons Ratio (z) = 0.24609 0.06354
#
# Static dielectric constant tensor:
#      x y z
#    x 1.826030 0.000000 0.000000 
#    y 0.000000 1.803230 0.000000 
#    z 0.000000 0.000000 1.851520 
# 
# From -- ./inp_files/941.got.cif
#   From: 2010.05.17/outbox.cif.g08.bks.cpg/sg33_1_cif.got.tgz:941.got - 2010.06.03 17:15:25.
