data_PCOD9346077
_publ_section_title
;
Structure prediction by ZEFSAII (Michael W. Deem and Ramdas Pophale) SiO2 
 PCOD9346077
Probable space group: P N A 21
;
_chemical_formula_sum "Si O2"
_cell_formula_units_Z 28
_cell_length_a 9.334291
_cell_length_b 15.563742
_cell_length_c 7.816203
_cell_angle_alpha 90.000000
_cell_angle_beta 90.000000
_cell_angle_gamma 90.000000
_cell_volume 1135.510591
_symmetry_space_group_name_H-M "P N A 21"
_symmetry_group_IT_number 33
_symmetry_cell_setting 'orthorhombic'
loop_
_space_group_symop_operation_xyz
x,y,z
-x,-y,1/2+z
1/2-x,1/2+y,1/2+z
1/2+x,1/2-y,z
loop_
_atom_site_type_symbol
_atom_site_label
_atom_site_fract_x
_atom_site_fract_y
_atom_site_fract_z
Si Si1 0.645979 0.416944 0.459970
Si Si2 0.923271 0.640229 0.218744
Si Si3 0.343032 0.650217 0.491923
Si Si4 0.214322 0.729487 0.146065
Si Si5 0.587297 0.570128 0.670709
Si Si6 0.621123 0.166287 0.123822
Si Si7 0.620552 0.951936 0.702944
O O1 0.709553 0.323994 0.498163
O O2 0.612969 0.470458 0.630189
O O3 0.510396 0.416029 0.335789
O O4 0.773997 0.466056 0.362180
O O5 0.770240 0.673183 0.147041
O O6 0.917282 0.643999 0.425324
O O7 0.953101 0.542638 0.163680
O O8 0.047817 0.705381 0.157333
O O9 0.285266 0.690675 0.318833
O O10 0.498086 0.607084 0.507607
O O11 0.356716 0.731761 0.620435
O O12 0.227604 0.581343 0.556131
O O13 0.734076 0.620753 0.679749
O O14 0.492510 0.124339 0.230449
#
# Coordination Sequence:
#
# PCOD9346077 Si02
#       7
#     4   4   4   4   4   4   4
#     4  11  25  46  70 103 146 190 243 309 357 449
#     4  11  25  43  78 102 148 189 248 307 366 454
#     4  10  23  42  77  98 139 185 244 296 367 445
#     4  11  25  47  69 105 139 194 244 301 374 433
#     4  11  23  43  71 103 142 183 245 294 369 428
#     4  11  22  44  72 104 138 193 236 303 365 442
#     4  11  23  45  71 109 142 190 244 300 372 431
#
# _framework density 24.658511000000001
#
# number of rings (size 3 to 8) (size 9 to 14) (size 15 to 20)
#    0.000    1.143    2.857    2.571    6.000    2.286 
#   10.286    0.000    0.000    0.000    0.000    0.000 
#    0.000    0.000    0.000    0.000    0.000    0.000 
#
# Total GULP energy -156784.989550 kJ/mol
# GULP energy per Si atom -5599.463913 kJ/mol
# Density = 2.460239 g / cm^3
# Si number density = 24.658511 Si / 1000 Ang^3
#
#
#
# Elastic Constant Matrix: (Units=GPa)
#
#
# Indices 1 2 3 4 5 6 
#
# 1 130.2880 7.8483 19.8802 0.0000 0.0000 0.0000
# 2 7.8483 77.3986 13.5092 0.0000 0.0000 0.0000
# 3 19.8802 13.5092 49.5021 0.0000 0.0000 0.0000
# 4 0.0000 0.0000 0.0000 33.1131 0.0000 0.0000
# 5 0.0000 0.0000 0.0000 0.0000 24.4669 0.0000
# 6 0.0000 0.0000 0.0000 0.0000 0.0000 34.4588
#
#
#
# Elastic Compliance Matrix: (Units=1/GPa)
#
#
# Indices 1 2 3 4 5 6 
#
# 1 0.008182 -0.000269 -0.003212 0.000000 0.000000 0.000000
# 2 -0.000269 0.013575 -0.003597 0.000000 0.000000 0.000000
# 3 -0.003212 -0.003597 0.022473 0.000000 0.000000 0.000000
# 4 0.000000 0.000000 0.000000 0.030200 0.000000 0.000000
# 5 0.000000 0.000000 0.000000 0.000000 0.040871 0.000000
# 6 0.000000 0.000000 0.000000 0.000000 0.000000 0.029020
#
#
# Mechanical properties :
#
#
# Convention : Reuss Voigt Hill
#
# Bulk Modulus (GPa) = 33.25172 37.74047 35.49609
# Shear Modulus (GPa) = 29.67333 32.80449 31.23891
#
# Velocity S-wave (km/s) = 3.47273 3.65136 3.56316
# Velocity P-wave (km/s) = 5.44003 5.75456 5.59951
#
# Compressibility (1/GPa) = 0.03007363
#
# Stress axis : x y z
#
# Youngs Moduli (GPa) = 122.22442 73.66396 44.49819
#
# Poissons Ratio (x) = 0.01981 0.14295
# Poissons Ratio (y) = 0.03287 0.16005
# Poissons Ratio (z) = 0.39263 0.26495
#
# Static dielectric constant tensor:
#      x y z
#    x 1.924280 0.000000 0.000000 
#    y 0.000000 2.048540 0.000000 
#    z 0.000000 0.000000 1.989860 
# 
# From -- ./inp_files/3306.got.cif
#   From: 2010.05.17/outbox.cif.g08.bks.cpg/sg33_2_cif.got.tgz:3306.got - 2010.06.03 17:15:25.
