data_PCOD9346373
_publ_section_title
;
Structure prediction by ZEFSAII (Michael W. Deem and Ramdas Pophale) SiO2 
 PCOD9346373
Probable space group: P N A 21
;
_chemical_formula_sum "Si O2"
_cell_formula_units_Z 32
_cell_length_a 28.096095
_cell_length_b 5.659204
_cell_length_c 7.684559
_cell_angle_alpha 90.000000
_cell_angle_beta 90.000000
_cell_angle_gamma 90.000000
_cell_volume 1221.856663
_symmetry_space_group_name_H-M "P N A 21"
_symmetry_group_IT_number 33
_symmetry_cell_setting 'orthorhombic'
loop_
_space_group_symop_operation_xyz
x,y,z
-x,-y,1/2+z
1/2-x,1/2+y,1/2+z
1/2+x,1/2-y,z
loop_
_atom_site_type_symbol
_atom_site_label
_atom_site_fract_x
_atom_site_fract_y
_atom_site_fract_z
Si Si1 0.639009 0.830614 0.437820
Si Si2 0.900814 0.858313 0.556946
Si Si3 0.664808 0.757091 0.053587
Si Si4 0.034311 0.766264 0.471589
Si Si5 0.850747 0.625752 0.256808
Si Si6 0.713638 0.470243 0.572779
Si Si7 0.796020 0.812212 0.682840
Si Si8 0.989501 0.741272 0.806487
O O1 0.587972 0.717425 0.406116
O O2 0.632485 0.053128 0.564216
O O3 0.671622 0.659886 0.550831
O O4 0.663876 0.850052 0.252049
O O5 0.893299 0.745562 0.366656
O O6 0.853011 0.780495 0.660763
O O7 0.945555 0.774764 0.668113
O O8 0.887672 0.133014 0.533928
O O9 0.667188 0.921619 0.886765
O O10 0.705946 0.556457 0.069200
O O11 0.739000 0.114218 0.113160
O O12 0.014771 0.514124 0.398432
O O13 0.034405 0.744763 0.679306
O O14 0.010378 0.017769 0.419679
O O15 0.805632 0.793373 0.219043
O O16 0.715970 0.353893 0.382859
#
# Coordination Sequence:
#
# PCOD9346373 Si02
#       8
#     4   4   4   4   4   4   4   4
#     4  11  26  48  79 112 159 214 261 328 410 488
#     4  10  24  49  79 104 160 204 264 319 412 472
#     4   9  22  50  76 107 150 207 252 336 389 490
#     4  12  28  50  82 121 170 210 278 329 419 486
#     4  12  26  43  81 113 146 197 277 322 403 477
#     4  11  25  51  73 114 149 206 267 335 399 490
#     4   9  24  51  75 101 157 203 256 325 402 477
#     4  12  27  52  83 124 163 219 265 342 410 488
#
# _framework density 26.189653
#
# number of rings (size 3 to 8) (size 9 to 14) (size 15 to 20)
#    0.750    0.500    1.250    2.250    8.750    2.000 
#    4.500    2.500    0.000    0.000    0.000    0.000 
#    0.000    0.000    0.000    0.000    0.000    0.000 
#
# Total GULP energy -178983.192770 kJ/mol
# GULP energy per Si atom -5593.224774 kJ/mol
# Density = 2.613004 g / cm^3
# Si number density = 26.189653 Si / 1000 Ang^3
#
#
#
# Elastic Constant Matrix: (Units=GPa)
#
#
# Indices 1 2 3 4 5 6 
#
# 1 20.1128 44.9762 5.8881 0.0000 0.0000 0.0000
# 2 44.9762 -1.2046 33.8142 0.0000 0.0000 0.0000
# 3 5.8881 33.8142 142.1197 0.0000 0.0000 0.0000
# 4 0.0000 0.0000 0.0000 72.7408 0.0000 0.0000
# 5 0.0000 0.0000 0.0000 0.0000 22.7570 0.0000
# 6 0.0000 0.0000 0.0000 0.0000 0.0000 14.5368
#
#
#
# Elastic Compliance Matrix: (Units=1/GPa)
#
#
# Indices 1 2 3 4 5 6 
#
# 1 0.004442 0.020924 -0.005162 0.000000 0.000000 0.000000
# 2 0.020924 -0.009540 0.001403 0.000000 0.000000 0.000000
# 3 -0.005162 0.001403 0.006916 0.000000 0.000000 0.000000
# 4 0.000000 0.000000 0.000000 0.013747 0.000000 0.000000
# 5 0.000000 0.000000 0.000000 0.000000 0.043942 0.000000
# 6 0.000000 0.000000 0.000000 0.000000 0.000000 0.068791
#
#
# Mechanical properties :
#
#
# Convention : Reuss Voigt Hill
#
# Bulk Modulus (GPa) = 27.66546 36.70944 32.18745
# Shear Modulus (GPa) = 47.16157 27.09689 37.12923
#
# Velocity S-wave (km/s) = 4.24815 3.22007 3.76933
# Velocity P-wave (km/s) = 5.88633 5.27943 5.59112
#
# Compressibility (1/GPa) = 0.03614615
#
# Stress axis : x y z
#
# Youngs Moduli (GPa) = 225.14552 -104.81674 144.58453
#
# Poissons Ratio (x) = 2.19314 0.74639
# Poissons Ratio (y) = -4.71085 -0.20286
# Poissons Ratio (z) = 1.16227 0.14707
#
# Static dielectric constant tensor:
#      x y z
#    x 2.059730 0.000000 0.000000 
#    y 0.000000 2.348500 0.000000 
#    z 0.000000 0.000000 1.987900 
# 
# From -- ./inp_files/5298.got.cif
#   From: 2010.05.17/outbox.cif.g08.bks.cpg/sg33_3_cif.got.tgz:5298.got - 2010.06.03 17:15:25.
