data_PCOD9346363
_publ_section_title
;
Structure prediction by ZEFSAII (Michael W. Deem and Ramdas Pophale) SiO2 
 PCOD9346363
Probable space group: P N A 21
;
_chemical_formula_sum "Si O2"
_cell_formula_units_Z 20
_cell_length_a 5.324242
_cell_length_b 29.521695
_cell_length_c 4.966362
_cell_angle_alpha 90.000000
_cell_angle_beta 90.000000
_cell_angle_gamma 90.000000
_cell_volume 780.615999
_symmetry_space_group_name_H-M "P N A 21"
_symmetry_group_IT_number 33
_symmetry_cell_setting 'orthorhombic'
loop_
_space_group_symop_operation_xyz
x,y,z
-x,-y,1/2+z
1/2-x,1/2+y,1/2+z
1/2+x,1/2-y,z
loop_
_atom_site_type_symbol
_atom_site_label
_atom_site_fract_x
_atom_site_fract_y
_atom_site_fract_z
Si Si1 0.250196 0.326112 0.454110
Si Si2 0.753272 0.044417 0.352350
Si Si3 0.737739 0.442128 0.689457
Si Si4 0.594926 0.114265 0.954389
Si Si5 0.419634 0.738591 0.204246
O O1 0.171271 0.360895 0.683948
O O2 0.525851 0.308093 0.549251
O O3 0.101933 0.278993 0.486932
O O4 0.177685 0.350154 0.180852
O O5 0.488703 0.053224 0.503521
O O6 0.789115 0.990666 0.332538
O O7 0.005539 0.935620 0.005703
O O8 0.726362 0.068013 0.060681
O O9 0.808978 0.402426 0.899598
O O10 0.666260 0.753684 0.366335
#
# Coordination Sequence:
#
# PCOD9346363 Si02
#       5
#     4   4   4   4   4
#     4  10  24  47  76 108 152 198 252 321 382 464
#     4  12  27  50  76 113 156 209 255 319 390 464
#     4  12  27  50  76 113 156 209 255 319 390 464
#     4  12  26  49  76 120 148 202 260 321 376 464
#     4   8  20  48  68 106 140 198 244 308 386 450
#
# _framework density 25.620795000000001
#
# number of rings (size 3 to 8) (size 9 to 14) (size 15 to 20)
#    1.200    0.000    4.000    1.200    0.000    3.200 
#    7.200    0.000    0.000    0.000    0.000    0.000 
#    0.000    0.000    0.000    0.000    0.000    0.000 
#
# Total GULP energy -111702.286886 kJ/mol
# GULP energy per Si atom -5585.114344 kJ/mol
# Density = 2.556248 g / cm^3
# Si number density = 25.620795 Si / 1000 Ang^3
#
#
#
# Elastic Constant Matrix: (Units=GPa)
#
#
# Indices 1 2 3 4 5 6 
#
# 1 137.2350 -19.7545 43.9220 0.0000 0.0000 0.0000
# 2 -19.7545 91.9368 17.8299 0.0000 0.0000 0.0000
# 3 43.9220 17.8299 86.1228 0.0000 0.0000 0.0000
# 4 0.0000 0.0000 0.0000 5.8647 0.0000 0.0000
# 5 0.0000 0.0000 0.0000 0.0000 38.9271 0.0000
# 6 0.0000 0.0000 0.0000 0.0000 0.0000 25.0138
#
#
#
# Elastic Compliance Matrix: (Units=1/GPa)
#
#
# Indices 1 2 3 4 5 6 
#
# 1 0.009487 0.003101 -0.005481 0.000000 0.000000 0.000000
# 2 0.003101 0.012346 -0.004138 0.000000 0.000000 0.000000
# 3 -0.005481 -0.004138 0.015263 0.000000 0.000000 0.000000
# 4 0.000000 0.000000 0.000000 0.170513 0.000000 0.000000
# 5 0.000000 0.000000 0.000000 0.000000 0.025689 0.000000
# 6 0.000000 0.000000 0.000000 0.000000 0.000000 0.039978
#
#
# Mechanical properties :
#
#
# Convention : Reuss Voigt Hill
#
# Bulk Modulus (GPa) = 41.55832 44.36550 42.96191
# Shear Modulus (GPa) = 16.98773 32.18092 24.58433
#
# Velocity S-wave (km/s) = 2.57776 3.54792 3.10101
# Velocity P-wave (km/s) = 5.01154 5.84273 5.44302
#
# Compressibility (1/GPa) = 0.02406257
#
# Stress axis : x y z
#
# Youngs Moduli (GPa) = 105.40471 80.99868 65.51811
#
# Poissons Ratio (x) = -0.25121 0.35907
# Poissons Ratio (y) = -0.32690 0.27109
# Poissons Ratio (z) = 0.57767 0.33514
#
# Static dielectric constant tensor:
#      x y z
#    x 2.198590 0.000000 0.000000 
#    y 0.000000 2.007810 0.000000 
#    z 0.000000 0.000000 2.000510 
# 
# From -- ./inp_files/216.got.cif
#   From: 2010.05.17/outbox.cif.g08.bks.cpg/sg33_1_cif.got.tgz:216.got - 2010.06.03 17:15:25.
