data_PCOD9346687
_publ_section_title
;
Structure prediction by ZEFSAII (Michael W. Deem and Ramdas Pophale) SiO2 
 PCOD9346687
Probable space group: P N A 21
;
_chemical_formula_sum "Si O2"
_cell_formula_units_Z 20
_cell_length_a 11.118186
_cell_length_b 5.113502
_cell_length_c 13.141331
_cell_angle_alpha 90.000000
_cell_angle_beta 90.000000
_cell_angle_gamma 90.000000
_cell_volume 747.122335
_symmetry_space_group_name_H-M "P N A 21"
_symmetry_group_IT_number 33
_symmetry_cell_setting 'orthorhombic'
loop_
_space_group_symop_operation_xyz
x,y,z
-x,-y,1/2+z
1/2-x,1/2+y,1/2+z
1/2+x,1/2-y,z
loop_
_atom_site_type_symbol
_atom_site_label
_atom_site_fract_x
_atom_site_fract_y
_atom_site_fract_z
Si Si1 0.906064 0.157195 0.243500
Si Si2 0.418267 0.281982 0.808787
Si Si3 0.124414 0.685848 0.974465
Si Si4 0.876112 0.722555 0.946841
Si Si5 0.151663 0.387826 0.150273
O O1 0.883678 0.288333 0.353440
O O2 0.946015 0.863071 0.276687
O O3 0.029138 0.256010 0.191108
O O4 0.785630 0.199399 0.179853
O O5 0.403249 0.045015 0.887693
O O6 0.355284 0.172323 0.707479
O O7 0.366532 0.536647 0.866935
O O8 0.137455 0.408844 0.029436
O O9 0.251121 0.813399 0.002941
O O10 0.994677 0.788431 0.011553
#
# Coordination Sequence:
#
# PCOD9346687 Si02
#       5
#     4   4   4   4   4
#     4  11  25  53  79 121 170 216 281 356 407 512
#     4  11  23  48  77 110 155 209 253 341 401 475
#     4  11  25  51  76 119 153 220 265 342 408 496
#     4  11  26  48  78 109 162 205 271 332 412 475
#     4  12  27  50  84 119 166 220 280 341 428 496
#
# _framework density 26.769373999999999
#
# number of rings (size 3 to 8) (size 9 to 14) (size 15 to 20)
#    0.000    0.800    6.000    0.000    5.600    3.200 
#    7.200    0.000    0.000    0.000    0.000    0.000 
#    0.000    0.000    0.000    0.000    0.000    0.000 
#
# Total GULP energy -111674.694282 kJ/mol
# GULP energy per Si atom -5583.734714 kJ/mol
# Density = 2.670845 g / cm^3
# Si number density = 26.769374 Si / 1000 Ang^3
#
#
#
# Elastic Constant Matrix: (Units=GPa)
#
#
# Indices 1 2 3 4 5 6 
#
# 1 278.0172 40.6156 35.1385 0.0000 0.0000 0.0000
# 2 40.6156 125.6288 24.4235 0.0000 0.0000 0.0000
# 3 35.1385 24.4235 77.8071 0.0000 0.0000 0.0000
# 4 0.0000 0.0000 0.0000 39.6824 0.0000 0.0000
# 5 0.0000 0.0000 0.0000 0.0000 8.8862 0.0000
# 6 0.0000 0.0000 0.0000 0.0000 0.0000 29.1031
#
#
#
# Elastic Compliance Matrix: (Units=1/GPa)
#
#
# Indices 1 2 3 4 5 6 
#
# 1 0.003926 -0.000985 -0.001464 0.000000 0.000000 0.000000
# 2 -0.000985 0.008724 -0.002294 0.000000 0.000000 0.000000
# 3 -0.001464 -0.002294 0.014233 0.000000 0.000000 0.000000
# 4 0.000000 0.000000 0.000000 0.025200 0.000000 0.000000
# 5 0.000000 0.000000 0.000000 0.000000 0.112534 0.000000
# 6 0.000000 0.000000 0.000000 0.000000 0.000000 0.034361
#
#
# Mechanical properties :
#
#
# Convention : Reuss Voigt Hill
#
# Bulk Modulus (GPa) = 57.47528 75.75649 66.61589
# Shear Modulus (GPa) = 23.33593 40.95271 32.14432
#
# Velocity S-wave (km/s) = 2.95573 3.91555 3.46900
# Velocity P-wave (km/s) = 5.75896 6.98593 6.40191
#
# Compressibility (1/GPa) = 0.01739878
#
# Stress axis : x y z
#
# Youngs Moduli (GPa) = 254.72796 114.62327 70.25709
#
# Poissons Ratio (x) = 0.11286 0.10285
# Poissons Ratio (y) = 0.25081 0.16116
# Poissons Ratio (z) = 0.37288 0.26293
#
# Static dielectric constant tensor:
#      x y z
#    x 2.152700 0.000000 0.000000 
#    y 0.000000 2.152250 0.000000 
#    z 0.000000 0.000000 2.155550 
# 
# From -- ./inp_files/7530.got.cif
#   From: 2010.05.17/outbox.cif.g08.bks.cpg/sg33_4_cif.got.tgz:7530.got - 2010.06.03 17:15:25.
