data_PCOD9346894
_publ_section_title
;
Structure prediction by ZEFSAII (Michael W. Deem and Ramdas Pophale) SiO2 
 PCOD9346894
Probable space group: P N A 21
;
_chemical_formula_sum "Si O2"
_cell_formula_units_Z 24
_cell_length_a 18.826717
_cell_length_b 9.629947
_cell_length_c 5.230713
_cell_angle_alpha 90.000000
_cell_angle_beta 90.000000
_cell_angle_gamma 90.000000
_cell_volume 948.329768
_symmetry_space_group_name_H-M "P N A 21"
_symmetry_group_IT_number 33
_symmetry_cell_setting 'orthorhombic'
loop_
_space_group_symop_operation_xyz
x,y,z
-x,-y,1/2+z
1/2-x,1/2+y,1/2+z
1/2+x,1/2-y,z
loop_
_atom_site_type_symbol
_atom_site_label
_atom_site_fract_x
_atom_site_fract_y
_atom_site_fract_z
Si Si1 0.547503 0.523092 0.781130
Si Si2 0.757260 0.077083 0.821296
Si Si3 0.491093 0.081479 0.775524
Si Si4 0.625166 0.261147 0.626639
Si Si5 0.262054 0.723698 0.752920
Si Si6 0.371167 0.265454 0.588647
O O1 0.502269 0.524600 0.519571
O O2 0.610357 0.411640 0.742757
O O3 0.579936 0.669636 0.868923
O O4 0.689058 0.170483 0.742190
O O5 0.839306 0.115226 0.764821
O O6 0.749139 0.934042 0.660124
O O7 0.754138 0.130432 0.117056
O O8 0.552254 0.181865 0.668609
O O9 0.415445 0.154526 0.744762
O O10 0.492990 0.958093 0.566792
O O11 0.656185 0.276340 0.342219
O O12 0.202862 0.710550 0.977584
#
# Coordination Sequence:
#
# PCOD9346894 Si02
#       6
#     4   4   4   4   4   4
#     4  12  28  48  80 114 156 204 262 328 394 474
#     4  11  26  46  77 109 155 202 263 325 400 473
#     4  12  30  48  76 110 154 202 256 316 390 466
#     4  11  27  46  74 110 150 201 256 321 391 469
#     4  11  26  46  77 109 155 202 263 325 400 473
#     4  11  27  46  74 110 150 201 256 321 391 469
#
# _framework density 25.307652000000001
#
# number of rings (size 3 to 8) (size 9 to 14) (size 15 to 20)
#    0.000    0.667    1.667    3.000   18.667    2.667 
#    0.000    0.000    0.000    0.000    0.000    0.000 
#    0.000    0.000    0.000    0.000    0.000    0.000 
#
# Total GULP energy -133799.502713 kJ/mol
# GULP energy per Si atom -5574.979280 kJ/mol
# Density = 2.525005 g / cm^3
# Si number density = 25.307652 Si / 1000 Ang^3
#
#
#
# Elastic Constant Matrix: (Units=GPa)
#
#
# Indices 1 2 3 4 5 6 
#
# 1 70.5447 -12.1091 6.2950 0.0000 0.0000 0.0000
# 2 -12.1091 47.2741 5.6575 0.0000 0.0000 0.0000
# 3 6.2950 5.6575 68.0037 0.0000 0.0000 0.0000
# 4 0.0000 0.0000 0.0000 14.9863 0.0000 0.0000
# 5 0.0000 0.0000 0.0000 0.0000 1076.9524 0.0000
# 6 0.0000 0.0000 0.0000 0.0000 0.0000 35.8621
#
#
#
# Elastic Compliance Matrix: (Units=1/GPa)
#
#
# Indices 1 2 3 4 5 6 
#
# 1 0.015026 0.004056 -0.001728 0.000000 0.000000 0.000000
# 2 0.004056 0.022461 -0.002244 0.000000 0.000000 0.000000
# 3 -0.001728 -0.002244 0.015052 0.000000 0.000000 0.000000
# 4 0.000000 0.000000 0.000000 0.066727 0.000000 0.000000
# 5 0.000000 0.000000 0.000000 0.000000 0.000929 0.000000
# 6 0.000000 0.000000 0.000000 0.000000 0.000000 0.027885
#
#
# Mechanical properties :
#
#
# Convention : Reuss Voigt Hill
#
# Bulk Modulus (GPa) = 18.97358 20.61213 19.79286
# Shear Modulus (GPa) = 30.21505 237.95878 134.08692
#
# Velocity S-wave (km/s) = 3.45905 9.70724 7.28682
# Velocity P-wave (km/s) = 4.84425 11.56733 8.86763
#
# Compressibility (1/GPa) = 0.05270485
#
# Stress axis : x y z
#
# Youngs Moduli (GPa) = 66.55220 44.52232 66.43743
#
# Poissons Ratio (x) = -0.18057 0.11483
# Poissons Ratio (y) = -0.26991 0.14909
# Poissons Ratio (z) = 0.11502 0.09991
#
# Static dielectric constant tensor:
#      x y z
#    x -18.116790 0.000000 0.000000 
#    y 0.000000 2.280640 0.000000 
#    z 0.000000 0.000000 2.257320 
# 
# From -- ./inp_files/1663.got.cif
#   From: 2010.05.17/outbox.cif.g08.bks.cpg/sg33_1_cif.got.tgz:1663.got - 2010.06.03 17:15:25.
