data_PCOD9346788
_publ_section_title
;
Structure prediction by ZEFSAII (Michael W. Deem and Ramdas Pophale) SiO2 
 PCOD9346788
Probable space group: P N A 21
;
_chemical_formula_sum "Si O2"
_cell_formula_units_Z 20
_cell_length_a 10.816206
_cell_length_b 5.200053
_cell_length_c 14.849006
_cell_angle_alpha 90.000000
_cell_angle_beta 90.000000
_cell_angle_gamma 90.000000
_cell_volume 835.180033
_symmetry_space_group_name_H-M "P N A 21"
_symmetry_group_IT_number 33
_symmetry_cell_setting 'orthorhombic'
loop_
_space_group_symop_operation_xyz
x,y,z
-x,-y,1/2+z
1/2-x,1/2+y,1/2+z
1/2+x,1/2-y,z
loop_
_atom_site_type_symbol
_atom_site_label
_atom_site_fract_x
_atom_site_fract_y
_atom_site_fract_z
Si Si1 0.475832 0.371505 0.370210
Si Si2 0.744656 0.345611 0.954055
Si Si3 0.339562 0.039762 0.604501
Si Si4 0.092983 0.265726 0.543552
Si Si5 0.075777 0.637433 0.294913
O O1 0.348998 0.431245 0.421515
O O2 0.578883 0.385201 0.449771
O O3 0.501870 0.591198 0.295699
O O4 0.486179 0.079269 0.337344
O O5 0.809288 0.288113 0.858979
O O6 0.855991 0.454751 0.015612
O O7 0.668217 0.160751 0.021248
O O8 0.202757 0.157347 0.603245
O O9 0.457816 0.220164 0.584686
O O10 0.370413 0.987120 0.708351
#
# Coordination Sequence:
#
# PCOD9346788 Si02
#       5
#     4   4   4   4   4
#     4  11  24  48  71 111 147 206 247 320 387 463
#     4  11  24  48  77 104 160 203 258 323 401 462
#     4  12  27  47  76 118 151 212 262 327 391 481
#     4  11  25  47  76 104 153 200 261 317 395 463
#     4  11  28  44  76 113 157 197 266 319 388 471
#
# _framework density 23.946933000000001
#
# number of rings (size 3 to 8) (size 9 to 14) (size 15 to 20)
#    0.000    0.800    4.000    2.400    5.600    1.600 
#    0.000    0.000    0.000    0.000    0.000    0.000 
#    0.000    0.000    0.000    0.000    0.000    0.000 
#
# Total GULP energy -111418.919835 kJ/mol
# GULP energy per Si atom -5570.945992 kJ/mol
# Density = 2.389243 g / cm^3
# Si number density = 23.946933 Si / 1000 Ang^3
#
#
#
# Elastic Constant Matrix: (Units=GPa)
#
#
# Indices 1 2 3 4 5 6 
#
# 1 100.2334 20.0577 2.6972 0.0000 0.0000 0.0000
# 2 20.0577 85.0068 18.6865 0.0000 0.0000 0.0000
# 3 2.6972 18.6865 78.7599 0.0000 0.0000 0.0000
# 4 0.0000 0.0000 0.0000 -3.3243 0.0000 0.0000
# 5 0.0000 0.0000 0.0000 0.0000 26.3763 0.0000
# 6 0.0000 0.0000 0.0000 0.0000 0.0000 31.8056
#
#
#
# Elastic Compliance Matrix: (Units=1/GPa)
#
#
# Indices 1 2 3 4 5 6 
#
# 1 0.010475 -0.002525 0.000240 0.000000 0.000000 0.000000
# 2 -0.002525 0.013019 -0.003003 0.000000 0.000000 0.000000
# 3 0.000240 -0.003003 0.013401 0.000000 0.000000 0.000000
# 4 0.000000 0.000000 0.000000 -0.300816 0.000000 0.000000
# 5 0.000000 0.000000 0.000000 0.000000 0.037913 0.000000
# 6 0.000000 0.000000 0.000000 0.000000 0.000000 0.031441
#
#
# Mechanical properties :
#
#
# Convention : Reuss Voigt Hill
#
# Bulk Modulus (GPa) = 37.99076 38.54256 38.26666
# Shear Modulus (GPa) = -28.53584 25.80877 -1.36353
#
# Velocity S-wave (km/s) = -3.45574 3.28647 -0.75540
# Velocity P-wave (km/s) = 0.15449 5.52550 3.90559
#
# Compressibility (1/GPa) = 0.02632219
#
# Stress axis : x y z
#
# Youngs Moduli (GPa) = 95.46147 76.80804 74.62150
#
# Poissons Ratio (x) = 0.19390 -0.01793
# Poissons Ratio (y) = 0.24100 0.22405
# Poissons Ratio (z) = -0.02293 0.23062
#
# Static dielectric constant tensor:
#      x y z
#    x 1.889350 0.000000 0.000000 
#    y 0.000000 2.042500 0.000000 
#    z 0.000000 0.000000 1.981340 
# 
# From -- ./inp_files/7781.got.cif
#   From: 2010.05.17/outbox.cif.g08.bks.cpg/sg33_4_cif.got.tgz:7781.got - 2010.06.03 17:15:25.
