data_PCOD9346731
_publ_section_title
;
Structure prediction by ZEFSAII (Michael W. Deem and Ramdas Pophale) SiO2 
 PCOD9346731
Probable space group: P N A 21
;
_chemical_formula_sum "Si O2"
_cell_formula_units_Z 28
_cell_length_a 7.552625
_cell_length_b 11.295734
_cell_length_c 13.383515
_cell_angle_alpha 90.000000
_cell_angle_beta 90.000000
_cell_angle_gamma 90.000000
_cell_volume 1141.780361
_symmetry_space_group_name_H-M "P N A 21"
_symmetry_group_IT_number 33
_symmetry_cell_setting 'orthorhombic'
loop_
_space_group_symop_operation_xyz
x,y,z
-x,-y,1/2+z
1/2-x,1/2+y,1/2+z
1/2+x,1/2-y,z
loop_
_atom_site_type_symbol
_atom_site_label
_atom_site_fract_x
_atom_site_fract_y
_atom_site_fract_z
Si Si1 0.287866 0.687852 0.721110
Si Si2 0.629965 0.873543 0.435375
Si Si3 0.104637 0.853169 0.575291
Si Si4 0.526072 0.537127 0.391129
Si Si5 0.873301 0.206540 0.413361
Si Si6 0.416105 0.893436 0.042433
Si Si7 0.138783 0.437969 0.761379
O O1 0.442204 0.631411 0.652014
O O2 0.262786 0.752952 0.827862
O O3 0.149427 0.579089 0.736484
O O4 0.249720 0.800089 0.648160
O O5 0.597918 0.748987 0.489092
O O6 0.834699 0.898581 0.403504
O O7 0.505655 0.900734 0.342123
O O8 0.568645 0.969233 0.517108
O O9 0.117574 0.964017 0.501443
O O10 0.486445 0.400313 0.364325
O O11 0.667127 0.586029 0.310712
O O12 0.776780 0.140193 0.503010
O O13 0.959411 0.317333 0.469745
O O14 0.415541 0.873151 0.159701
#
# Coordination Sequence:
#
# PCOD9346731 Si02
#       7
#     4   4   4   4   4   4   4
#     4  12  23  42  78 109 134 199 253 305 370 441
#     4  11  25  47  74 106 148 188 247 310 368 444
#     4  12  23  46  73 106 147 186 252 310 364 444
#     4  11  26  47  73 108 149 189 244 312 370 439
#     4  11  24  44  70 107 148 183 250 311 366 446
#     4  11  24  47  68 105 145 188 243 305 369 443
#     4  12  25  47  74 105 151 195 245 303 379 447
#
# _framework density 24.523105000000001
#
# number of rings (size 3 to 8) (size 9 to 14) (size 15 to 20)
#    0.000    0.571    4.286    4.286    2.000    1.143 
#    2.571    0.000    0.000    0.000    0.000    0.000 
#    0.000    0.000    0.000    0.000    0.000    0.000 
#
# Total GULP energy -156199.846573 kJ/mol
# GULP energy per Si atom -5578.565949 kJ/mol
# Density = 2.446729 g / cm^3
# Si number density = 24.523105 Si / 1000 Ang^3
#
#
#
# Elastic Constant Matrix: (Units=GPa)
#
#
# Indices 1 2 3 4 5 6 
#
# 1 84.6696 15.8093 50.9205 0.0000 0.0000 0.0000
# 2 15.8093 61.5930 22.2134 0.0000 0.0000 0.0000
# 3 50.9205 22.2134 208.4718 0.0000 0.0000 0.0000
# 4 0.0000 0.0000 0.0000 33.4307 0.0000 0.0000
# 5 0.0000 0.0000 0.0000 0.0000 23.7895 0.0000
# 6 0.0000 0.0000 0.0000 0.0000 0.0000 30.4197
#
#
#
# Elastic Compliance Matrix: (Units=1/GPa)
#
#
# Indices 1 2 3 4 5 6 
#
# 1 0.014202 -0.002490 -0.003204 0.000000 0.000000 0.000000
# 2 -0.002490 0.017321 -0.001237 0.000000 0.000000 0.000000
# 3 -0.003204 -0.001237 0.005711 0.000000 0.000000 0.000000
# 4 0.000000 0.000000 0.000000 0.029913 0.000000 0.000000
# 5 0.000000 0.000000 0.000000 0.000000 0.042035 0.000000
# 6 0.000000 0.000000 0.000000 0.000000 0.000000 0.032873
#
#
# Mechanical properties :
#
#
# Convention : Reuss Voigt Hill
#
# Bulk Modulus (GPa) = 42.78568 59.18011 50.98290
# Shear Modulus (GPa) = 30.54206 35.24739 32.89473
#
# Velocity S-wave (km/s) = 3.53291 3.79530 3.66645
# Velocity P-wave (km/s) = 5.84182 6.58715 6.22565
#
# Compressibility (1/GPa) = 0.02337231
#
# Stress axis : x y z
#
# Youngs Moduli (GPa) = 70.41147 57.73346 175.09520
#
# Poissons Ratio (x) = 0.14375 0.56095
# Poissons Ratio (y) = 0.17532 0.21667
# Poissons Ratio (z) = 0.22557 0.07144
#
# Static dielectric constant tensor:
#      x y z
#    x 2.092040 0.000000 0.000000 
#    y 0.000000 2.030650 0.000000 
#    z 0.000000 0.000000 2.078800 
# 
# From -- ./inp_files/5861.got.cif
#   From: 2010.05.17/outbox.cif.g08.bks.cpg/sg33_3_cif.got.tgz:5861.got - 2010.06.03 17:15:25.
