data_PCOD9346237
_publ_section_title
;
Structure prediction by ZEFSAII (Michael W. Deem and Ramdas Pophale) SiO2 
 PCOD9346237
Probable space group: P N A 21
;
_chemical_formula_sum "Si O2"
_cell_formula_units_Z 28
_cell_length_a 22.253689
_cell_length_b 7.840009
_cell_length_c 6.577488
_cell_angle_alpha 90.000000
_cell_angle_beta 90.000000
_cell_angle_gamma 90.000000
_cell_volume 1147.568557
_symmetry_space_group_name_H-M "P N A 21"
_symmetry_group_IT_number 33
_symmetry_cell_setting 'orthorhombic'
loop_
_space_group_symop_operation_xyz
x,y,z
-x,-y,1/2+z
1/2-x,1/2+y,1/2+z
1/2+x,1/2-y,z
loop_
_atom_site_type_symbol
_atom_site_label
_atom_site_fract_x
_atom_site_fract_y
_atom_site_fract_z
Si Si1 0.105949 0.945292 0.246300
Si Si2 0.899068 0.242095 0.114164
Si Si3 0.426245 0.972907 0.777718
Si Si4 0.485990 0.229759 0.497380
Si Si5 0.728175 0.823312 0.784781
Si Si6 0.739863 0.698429 0.205305
Si Si7 0.666385 0.225951 0.060579
O O1 0.089904 0.931094 0.485316
O O2 0.169002 0.833711 0.254148
O O3 0.128369 0.108158 0.121979
O O4 0.046603 0.875707 0.131293
O O5 0.945278 0.267603 0.295696
O O6 0.834148 0.245225 0.218132
O O7 0.904838 0.396140 0.951043
O O8 0.448791 0.804696 0.898116
O O9 0.379277 0.927643 0.598576
O O10 0.477765 0.069348 0.650432
O O11 0.782791 0.701390 0.729503
O O12 0.738601 0.002040 0.670712
O O13 0.736169 0.834156 0.025098
O O14 0.792352 0.750430 0.362829
#
# Coordination Sequence:
#
# PCOD9346237 Si02
#       7
#     4   4   4   4   4   4   4
#     4  10  24  42  64 100 139 184 223 291 361 425
#     4  11  21  42  70  95 135 179 234 288 351 425
#     4  11  24  43  72 101 132 187 248 298 346 432
#     4  11  22  44  69  96 131 181 244 291 348 415
#     4  11  23  40  68 102 136 184 227 292 354 434
#     4  11  23  40  68  98 140 179 231 284 362 427
#     4  11  25  43  63 102 141 176 231 288 362 428
#
# _framework density 24.39941
#
# number of rings (size 3 to 8) (size 9 to 14) (size 15 to 20)
#    0.000    1.143    4.286    1.714    2.000    4.571 
#    2.571    0.000    0.000    0.000    0.000    0.000 
#    0.000    0.000    0.000    0.000    0.000    0.000 
#
# Total GULP energy -155983.855444 kJ/mol
# GULP energy per Si atom -5570.851980 kJ/mol
# Density = 2.434388 g / cm^3
# Si number density = 24.399410 Si / 1000 Ang^3
#
#
#
# Elastic Constant Matrix: (Units=GPa)
#
#
# Indices 1 2 3 4 5 6 
#
# 1 24.8050 -5.7767 -6.8015 0.0000 0.0000 0.0000
# 2 -5.7767 45.3749 18.9666 0.0000 0.0000 0.0000
# 3 -6.8015 18.9666 77.6422 0.0000 0.0000 0.0000
# 4 0.0000 0.0000 0.0000 7.9632 0.0000 0.0000
# 5 0.0000 0.0000 0.0000 0.0000 35.6110 0.0000
# 6 0.0000 0.0000 0.0000 0.0000 0.0000 6.5846
#
#
#
# Elastic Compliance Matrix: (Units=1/GPa)
#
#
# Indices 1 2 3 4 5 6 
#
# 1 0.042028 0.004245 0.002645 0.000000 0.000000 0.000000
# 2 0.004245 0.024974 -0.005729 0.000000 0.000000 0.000000
# 3 0.002645 -0.005729 0.014511 0.000000 0.000000 0.000000
# 4 0.000000 0.000000 0.000000 0.125577 0.000000 0.000000
# 5 0.000000 0.000000 0.000000 0.000000 0.028081 0.000000
# 6 0.000000 0.000000 0.000000 0.000000 0.000000 0.151869
#
#
# Mechanical properties :
#
#
# Convention : Reuss Voigt Hill
#
# Bulk Modulus (GPa) = 11.92822 17.84432 14.88627
# Shear Modulus (GPa) = 12.11644 19.46070 15.78857
#
# Velocity S-wave (km/s) = 2.23084 2.82723 2.54655
# Velocity P-wave (km/s) = 3.39630 4.24110 3.84199
#
# Compressibility (1/GPa) = 0.08383479
#
# Stress axis : x y z
#
# Youngs Moduli (GPa) = 23.79355 40.04222 68.91472
#
# Poissons Ratio (x) = -0.16999 -0.18226
# Poissons Ratio (y) = -0.10101 0.39479
# Poissons Ratio (z) = -0.06293 0.22939
#
# Static dielectric constant tensor:
#      x y z
#    x 2.000770 0.000000 0.000000 
#    y 0.000000 2.128600 0.000000 
#    z 0.000000 0.000000 2.032210 
# 
# From -- ./inp_files/2224.got.cif
#   From: 2010.05.17/outbox.cif.g08.bks.cpg/sg33_2_cif.got.tgz:2224.got - 2010.06.03 17:15:25.
