data_PCOD9346662
_publ_section_title
;
Structure prediction by ZEFSAII (Michael W. Deem and Ramdas Pophale) SiO2 
 PCOD9346662
Probable space group: P N A 21
;
_chemical_formula_sum "Si O2"
_cell_formula_units_Z 24
_cell_length_a 9.994669
_cell_length_b 15.323931
_cell_length_c 6.699426
_cell_angle_alpha 90.000000
_cell_angle_beta 90.000000
_cell_angle_gamma 90.000000
_cell_volume 1026.068129
_symmetry_space_group_name_H-M "P N A 21"
_symmetry_group_IT_number 33
_symmetry_cell_setting 'orthorhombic'
loop_
_space_group_symop_operation_xyz
x,y,z
-x,-y,1/2+z
1/2-x,1/2+y,1/2+z
1/2+x,1/2-y,z
loop_
_atom_site_type_symbol
_atom_site_label
_atom_site_fract_x
_atom_site_fract_y
_atom_site_fract_z
Si Si1 0.807130 0.032172 0.303520
Si Si2 0.728875 0.315821 0.364200
Si Si3 0.910260 0.409881 0.686017
Si Si4 0.960130 0.893455 0.560308
Si Si5 0.304045 0.843465 0.124408
Si Si6 0.139579 0.750160 0.465971
O O1 0.661209 0.001321 0.230412
O O2 0.882658 0.949494 0.398956
O O3 0.793828 0.103323 0.477937
O O4 0.899257 0.065043 0.124448
O O5 0.837309 0.367292 0.494687
O O6 0.627241 0.382016 0.259354
O O7 0.656226 0.244664 0.504104
O O8 0.799453 0.264027 0.183745
O O9 0.876929 0.343791 0.866140
O O10 0.068903 0.404846 0.662698
O O11 0.996674 0.797592 0.481619
O O12 0.229590 0.809732 0.320981
#
# Coordination Sequence:
#
# PCOD9346662 Si02
#       6
#     4   4   4   4   4   4
#     4  12  26  44  66 108 136 182 222 292 350 398
#     4  11  23  46  72 100 131 185 229 281 338 411
#     4  11  26  44  69 102 140 177 232 279 346 417
#     4  12  24  44  72  98 138 174 236 278 340 410
#     4  11  26  44  69 102 140 177 232 279 346 417
#     4  11  23  46  72 100 131 185 229 281 338 411
#
# _framework density 23.390260000000001
#
# number of rings (size 3 to 8) (size 9 to 14) (size 15 to 20)
#    0.000    0.667    3.333    4.000    4.667    2.667 
#    3.000    0.000    0.000    0.000    0.000    0.000 
#    0.000    0.000    0.000    0.000    0.000    0.000 
#
# Total GULP energy -134449.927387 kJ/mol
# GULP energy per Si atom -5602.080308 kJ/mol
# Density = 2.333702 g / cm^3
# Si number density = 23.390260 Si / 1000 Ang^3
#
#
#
# Elastic Constant Matrix: (Units=GPa)
#
#
# Indices 1 2 3 4 5 6 
#
# 1 39.8682 -16.1240 -4.2679 0.0000 0.0000 0.0000
# 2 -16.1240 30.6315 3.3721 0.0000 0.0000 0.0000
# 3 -4.2679 3.3721 87.8088 0.0000 0.0000 0.0000
# 4 0.0000 0.0000 0.0000 42.6378 0.0000 0.0000
# 5 0.0000 0.0000 0.0000 0.0000 32.8768 0.0000
# 6 0.0000 0.0000 0.0000 0.0000 0.0000 38.5290
#
#
#
# Elastic Compliance Matrix: (Units=1/GPa)
#
#
# Indices 1 2 3 4 5 6 
#
# 1 0.031939 0.016712 0.000911 0.000000 0.000000 0.000000
# 2 0.016712 0.041529 -0.000783 0.000000 0.000000 0.000000
# 3 0.000911 -0.000783 0.011463 0.000000 0.000000 0.000000
# 4 0.000000 0.000000 0.000000 0.023453 0.000000 0.000000
# 5 0.000000 0.000000 0.000000 0.000000 0.030417 0.000000
# 6 0.000000 0.000000 0.000000 0.000000 0.000000 0.025954
#
#
# Mechanical properties :
#
#
# Convention : Reuss Voigt Hill
#
# Bulk Modulus (GPa) = 8.43092 13.80766 11.11929
# Shear Modulus (GPa) = 29.30622 34.49729 31.90176
#
# Velocity S-wave (km/s) = 3.54351 3.84455 3.69710
# Velocity P-wave (km/s) = 4.51156 5.06196 4.79467
#
# Compressibility (1/GPa) = 0.11861106
#
# Stress axis : x y z
#
# Youngs Moduli (GPa) = 31.30965 24.07943 87.23958
#
# Poissons Ratio (x) = -0.40242 -0.07944
# Poissons Ratio (y) = -0.52325 0.06827
# Poissons Ratio (z) = -0.02851 0.01884
#
# Static dielectric constant tensor:
#      x y z
#    x 1.873230 0.000000 0.000000 
#    y 0.000000 1.884870 0.000000 
#    z 0.000000 0.000000 1.829250 
# 
# From -- ./inp_files/851.got.cif
#   From: 2010.05.17/outbox.cif.g08.bks.cpg/sg33_1_cif.got.tgz:851.got - 2010.06.03 17:15:25.
