data_PCOD9346124
_publ_section_title
;
Structure prediction by ZEFSAII (Michael W. Deem and Ramdas Pophale) SiO2 
 PCOD9346124
Probable space group: P N A 21
;
_chemical_formula_sum "Si O2"
_cell_formula_units_Z 24
_cell_length_a 9.412189
_cell_length_b 22.284345
_cell_length_c 5.526006
_cell_angle_alpha 90.000000
_cell_angle_beta 90.000000
_cell_angle_gamma 90.000000
_cell_volume 1159.049182
_symmetry_space_group_name_H-M "P N A 21"
_symmetry_group_IT_number 33
_symmetry_cell_setting 'orthorhombic'
loop_
_space_group_symop_operation_xyz
x,y,z
-x,-y,1/2+z
1/2-x,1/2+y,1/2+z
1/2+x,1/2-y,z
loop_
_atom_site_type_symbol
_atom_site_label
_atom_site_fract_x
_atom_site_fract_y
_atom_site_fract_z
Si Si1 0.055324 0.430728 0.771440
Si Si2 0.223584 0.524733 0.096687
Si Si3 0.203163 0.317559 0.010798
Si Si4 0.564470 0.374008 0.494238
Si Si5 0.774212 0.083098 0.389673
Si Si6 0.032473 0.195456 0.979388
O O1 0.116132 0.366480 0.855123
O O2 0.129596 0.437573 0.512843
O O3 0.887245 0.437953 0.761303
O O4 0.124737 0.482975 0.930623
O O5 0.317353 0.473964 0.227996
O O6 0.321903 0.573114 0.969948
O O7 0.362670 0.299635 0.929753
O O8 0.107353 0.258901 0.027769
O O9 0.234214 0.355917 0.252113
O O10 0.409382 0.402284 0.552199
O O11 0.596149 0.333724 0.732337
O O12 0.553239 0.341670 0.231491
#
# Coordination Sequence:
#
# PCOD9346124 Si02
#       6
#     4   4   4   4   4   4
#     4  11  22  43  64 100 138 175 226 279 342 400
#     4  11  25  39  71 101 135 183 225 282 348 415
#     4  10  25  44  68  95 133 183 221 288 332 402
#     4  11  27  44  69 104 134 179 229 283 340 410
#     4  10  23  44  65  94 141 172 225 283 342 399
#     4  11  26  46  69 100 135 178 234 275 344 402
#
# _framework density 20.706629
#
# number of rings (size 3 to 8) (size 9 to 14) (size 15 to 20)
#    0.000    1.333    3.333    0.000    9.333    1.333 
#    0.000    0.000    0.000    0.000    0.000    0.000 
#    0.000    0.000    0.000    0.000    0.000    0.000 
#
# Total GULP energy -133765.206004 kJ/mol
# GULP energy per Si atom -5573.550250 kJ/mol
# Density = 2.065950 g / cm^3
# Si number density = 20.706629 Si / 1000 Ang^3
#
#
#
# Elastic Constant Matrix: (Units=GPa)
#
#
# Indices 1 2 3 4 5 6 
#
# 1 84.6909 75.3725 13.4602 0.0000 0.0000 0.0000
# 2 75.3725 141.8988 33.4964 0.0000 0.0000 0.0000
# 3 13.4602 33.4964 58.7377 0.0000 0.0000 0.0000
# 4 0.0000 0.0000 0.0000 -21.3097 0.0000 0.0000
# 5 0.0000 0.0000 0.0000 0.0000 31.2100 0.0000
# 6 0.0000 0.0000 0.0000 0.0000 0.0000 -46.9345
#
#
#
# Elastic Compliance Matrix: (Units=1/GPa)
#
#
# Indices 1 2 3 4 5 6 
#
# 1 0.022581 -0.012448 0.001924 0.000000 0.000000 0.000000
# 2 -0.012448 0.015006 -0.005705 0.000000 0.000000 0.000000
# 3 0.001924 -0.005705 0.019837 0.000000 0.000000 0.000000
# 4 0.000000 0.000000 0.000000 -0.046927 0.000000 0.000000
# 5 0.000000 0.000000 0.000000 0.000000 0.032041 0.000000
# 6 0.000000 0.000000 0.000000 0.000000 0.000000 -0.021306
#
#
# Mechanical properties :
#
#
# Convention : Reuss Voigt Hill
#
# Bulk Modulus (GPa) = 40.05422 58.88728 49.47075
# Shear Modulus (GPa) = 80.63010 3.45971 42.04491
#
# Velocity S-wave (km/s) = 6.24690 1.29401 4.51100
# Velocity P-wave (km/s) = 8.45088 5.54375 7.14670
#
# Compressibility (1/GPa) = 0.02496616
#
# Stress axis : x y z
#
# Youngs Moduli (GPa) = 44.28596 66.63906 50.41029
#
# Poissons Ratio (x) = 0.82955 -0.09701
# Poissons Ratio (y) = 0.55129 0.28759
# Poissons Ratio (z) = -0.08523 0.38017
#
# Static dielectric constant tensor:
#      x y z
#    x 1.682640 0.000000 0.000000 
#    y 0.000000 1.711440 0.000000 
#    z 0.000000 0.000000 1.914470 
# 
# From -- ./inp_files/441.got.cif
#   From: 2010.05.17/outbox.cif.g08.bks.cpg/sg33_1_cif.got.tgz:441.got - 2010.06.03 17:15:25.
