data_PCOD9346116
_publ_section_title
;
Structure prediction by ZEFSAII (Michael W. Deem and Ramdas Pophale) SiO2 
 PCOD9346116
Probable space group: P N A 21
;
_chemical_formula_sum "Si O2"
_cell_formula_units_Z 32
_cell_length_a 5.229405
_cell_length_b 30.855875
_cell_length_c 8.420068
_cell_angle_alpha 90.000000
_cell_angle_beta 90.000000
_cell_angle_gamma 90.000000
_cell_volume 1358.644213
_symmetry_space_group_name_H-M "P N A 21"
_symmetry_group_IT_number 33
_symmetry_cell_setting 'orthorhombic'
loop_
_space_group_symop_operation_xyz
x,y,z
-x,-y,1/2+z
1/2-x,1/2+y,1/2+z
1/2+x,1/2-y,z
loop_
_atom_site_type_symbol
_atom_site_label
_atom_site_fract_x
_atom_site_fract_y
_atom_site_fract_z
Si Si1 0.774450 0.368652 0.946080
Si Si2 0.718393 0.587660 0.584024
Si Si3 0.887750 0.271798 0.012744
Si Si4 0.604940 0.406853 0.372691
Si Si5 0.432223 0.137491 0.593626
Si Si6 0.993906 0.476608 0.257113
Si Si7 0.254003 0.951105 0.075273
Si Si8 0.009368 0.730058 0.132399
O O1 0.779550 0.320725 0.024684
O O2 0.776049 0.362063 0.757475
O O3 0.533582 0.398831 0.987833
O O4 0.041386 0.389849 0.001174
O O5 0.638584 0.603175 0.763067
O O6 0.801607 0.538137 0.622278
O O7 0.669979 0.239314 0.077184
O O8 0.944892 0.265202 0.822815
O O9 0.750036 0.366095 0.441800
O O10 0.796661 0.436594 0.272078
O O11 0.527526 0.436336 0.524930
O O12 0.600061 0.094274 0.592490
O O13 0.586755 0.181810 0.597335
O O14 0.144990 0.477597 0.421885
O O15 0.828816 0.518740 0.220348
O O16 0.293959 0.737852 0.069563
#
# Coordination Sequence:
#
# PCOD9346116 Si02
#       8
#     4   4   4   4   4   4   4   4
#     4  11  23  38  69  99 129 171 224 279 322 400
#     4  11  23  43  63  95 129 179 220 264 339 389
#     4   9  17  33  56  91 132 164 205 268 337 389
#     4  10  23  44  65  92 136 180 215 277 335 391
#     4  10  24  40  64 106 130 171 228 279 330 396
#     4  10  23  44  62  96 128 180 218 273 325 388
#     4  10  24  41  67  93 136 174 222 274 326 393
#     4   9  19  35  62  92 132 169 208 272 336 392
#
# _framework density 23.552893999999998
#
# number of rings (size 3 to 8) (size 9 to 14) (size 15 to 20)
#    0.000    2.000    1.250    0.750    5.250    6.000 
#    0.000    0.000    0.000    4.500    0.000    0.000 
#    0.000    0.000    0.000    0.000    0.000    0.000 
#
# Total GULP energy -178579.407342 kJ/mol
# GULP energy per Si atom -5580.606479 kJ/mol
# Density = 2.349929 g / cm^3
# Si number density = 23.552894 Si / 1000 Ang^3
#
#
#
# Elastic Constant Matrix: (Units=GPa)
#
#
# Indices 1 2 3 4 5 6 
#
# 1 105.5542 7.6445 3.4137 0.0000 0.0000 0.0000
# 2 7.6445 38.1088 14.3367 0.0000 0.0000 0.0000
# 3 3.4137 14.3367 24.6755 0.0000 0.0000 0.0000
# 4 0.0000 0.0000 0.0000 -0.1095 0.0000 0.0000
# 5 0.0000 0.0000 0.0000 0.0000 13.8964 0.0000
# 6 0.0000 0.0000 0.0000 0.0000 0.0000 23.3028
#
#
#
# Elastic Compliance Matrix: (Units=1/GPa)
#
#
# Indices 1 2 3 4 5 6 
#
# 1 0.009615 -0.001828 -0.000268 0.000000 0.000000 0.000000
# 2 -0.001828 0.033928 -0.019460 0.000000 0.000000 0.000000
# 3 -0.000268 -0.019460 0.051869 0.000000 0.000000 0.000000
# 4 0.000000 0.000000 0.000000 -9.131144 0.000000 0.000000
# 5 0.000000 0.000000 0.000000 0.000000 0.071961 0.000000
# 6 0.000000 0.000000 0.000000 0.000000 0.000000 0.042913
#
#
# Mechanical properties :
#
#
# Convention : Reuss Voigt Hill
#
# Bulk Modulus (GPa) = 19.12012 24.34761 21.73386
# Shear Modulus (GPa) = -0.56431 16.94752 8.19160
#
# Velocity S-wave (km/s) = -0.49001 2.68536 1.86695
# Velocity P-wave (km/s) = 2.79561 4.46931 3.72761
#
# Compressibility (1/GPa) = 0.05230092
#
# Stress axis : x y z
#
# Youngs Moduli (GPa) = 104.00570 29.47407 19.27921
#
# Poissons Ratio (x) = 0.05387 0.00517
# Poissons Ratio (y) = 0.19010 0.37517
# Poissons Ratio (z) = 0.02789 0.57356
#
# Static dielectric constant tensor:
#      x y z
#    x 1.915140 0.000000 0.000000 
#    y 0.000000 1.874640 0.000000 
#    z 0.000000 0.000000 1.947220 
# 
# From -- ./inp_files/2845.got.cif
#   From: 2010.05.17/outbox.cif.g08.bks.cpg/sg33_2_cif.got.tgz:2845.got - 2010.06.03 17:15:25.
