data_PCOD9346381
_publ_section_title
;
Structure prediction by ZEFSAII (Michael W. Deem and Ramdas Pophale) SiO2 
 PCOD9346381
Probable space group: P N A 21
;
_chemical_formula_sum "Si O2"
_cell_formula_units_Z 20
_cell_length_a 18.757576
_cell_length_b 4.881644
_cell_length_c 8.663362
_cell_angle_alpha 90.000000
_cell_angle_beta 90.000000
_cell_angle_gamma 90.000000
_cell_volume 793.285071
_symmetry_space_group_name_H-M "P N A 21"
_symmetry_group_IT_number 33
_symmetry_cell_setting 'orthorhombic'
loop_
_space_group_symop_operation_xyz
x,y,z
-x,-y,1/2+z
1/2-x,1/2+y,1/2+z
1/2+x,1/2-y,z
loop_
_atom_site_type_symbol
_atom_site_label
_atom_site_fract_x
_atom_site_fract_y
_atom_site_fract_z
Si Si1 0.728761 0.899226 0.060190
Si Si2 0.910267 0.585386 0.389598
Si Si3 0.200589 0.610452 0.409809
Si Si4 0.946606 0.708061 0.914951
Si Si5 0.055329 0.896697 0.700743
O O1 0.724359 0.814409 0.237454
O O2 0.748664 0.631987 0.965793
O O3 0.654460 0.023772 0.001279
O O4 0.787188 0.131207 0.020788
O O5 0.014556 0.518287 0.959066
O O6 0.915034 0.892589 0.330061
O O7 0.026784 0.156717 0.254164
O O8 0.122512 0.477363 0.399739
O O9 0.405739 0.109674 0.236374
O O10 0.939416 0.946125 0.040971
#
# Coordination Sequence:
#
# PCOD9346381 Si02
#       5
#     4   4   4   4   4
#     4  12  29  51  74 114 151 214 247 328 373 478
#     4  10  26  45  76 100 151 184 256 306 380 439
#     4  12  30  49  80 107 162 198 270 303 403 452
#     4  10  28  44  80 107 150 191 260 309 389 447
#     4  10  25  41  76 106 142 189 247 316 373 450
#
# _framework density 25.211615999999999
#
# number of rings (size 3 to 8) (size 9 to 14) (size 15 to 20)
#    1.200    0.000    0.000    2.400   19.600    0.000 
#    0.000    0.000    0.000    0.000    0.000    0.000 
#    0.000    0.000    0.000    0.000    0.000    0.000 
#
# Total GULP energy -112129.402094 kJ/mol
# GULP energy per Si atom -5606.470105 kJ/mol
# Density = 2.515423 g / cm^3
# Si number density = 25.211616 Si / 1000 Ang^3
#
#
#
# Elastic Constant Matrix: (Units=GPa)
#
#
# Indices 1 2 3 4 5 6 
#
# 1 121.3423 9.0010 25.0766 0.0000 0.0000 0.0000
# 2 9.0010 73.6957 -19.9302 0.0000 0.0000 0.0000
# 3 25.0766 -19.9302 58.7606 0.0000 0.0000 0.0000
# 4 0.0000 0.0000 0.0000 35.7066 0.0000 0.0000
# 5 0.0000 0.0000 0.0000 0.0000 28.9395 0.0000
# 6 0.0000 0.0000 0.0000 0.0000 0.0000 41.3926
#
#
#
# Elastic Compliance Matrix: (Units=1/GPa)
#
#
# Indices 1 2 3 4 5 6 
#
# 1 0.009428 -0.002466 -0.004860 0.000000 0.000000 0.000000
# 2 -0.002466 0.015585 0.006338 0.000000 0.000000 0.000000
# 3 -0.004860 0.006338 0.021242 0.000000 0.000000 0.000000
# 4 0.000000 0.000000 0.000000 0.028006 0.000000 0.000000
# 5 0.000000 0.000000 0.000000 0.000000 0.034555 0.000000
# 6 0.000000 0.000000 0.000000 0.000000 0.000000 0.024159
#
#
# Mechanical properties :
#
#
# Convention : Reuss Voigt Hill
#
# Bulk Modulus (GPa) = 22.58366 31.34369 26.96368
# Shear Modulus (GPa) = 33.39786 37.18448 35.29117
#
# Velocity S-wave (km/s) = 3.64359 3.84460 3.74545
# Velocity P-wave (km/s) = 5.16509 5.67161 5.42427
#
# Compressibility (1/GPa) = 0.04427979
#
# Stress axis : x y z
#
# Youngs Moduli (GPa) = 106.06201 64.16579 47.07642
#
# Poissons Ratio (x) = 0.15823 0.22879
# Poissons Ratio (y) = 0.26154 -0.29838
# Poissons Ratio (z) = 0.51547 -0.40670
#
# Static dielectric constant tensor:
#      x y z
#    x 2.026680 0.000000 0.000000 
#    y 0.000000 1.935200 0.000000 
#    z 0.000000 0.000000 2.003860 
# 
# From -- ./inp_files/6642.got.cif
#   From: 2010.05.17/outbox.cif.g08.bks.cpg/sg33_4_cif.got.tgz:6642.got - 2010.06.03 17:15:25.
