data_PCOD9346949
_publ_section_title
;
Structure prediction by ZEFSAII (Michael W. Deem and Ramdas Pophale) SiO2 
 PCOD9346949
Probable space group: P N A 21
;
_chemical_formula_sum "Si O2"
_cell_formula_units_Z 16
_cell_length_a 5.164938
_cell_length_b 22.454827
_cell_length_c 5.204241
_cell_angle_alpha 90.000000
_cell_angle_beta 90.000000
_cell_angle_gamma 90.000000
_cell_volume 603.576366
_symmetry_space_group_name_H-M "P N A 21"
_symmetry_group_IT_number 33
_symmetry_cell_setting 'orthorhombic'
loop_
_space_group_symop_operation_xyz
x,y,z
-x,-y,1/2+z
1/2-x,1/2+y,1/2+z
1/2+x,1/2-y,z
loop_
_atom_site_type_symbol
_atom_site_label
_atom_site_fract_x
_atom_site_fract_y
_atom_site_fract_z
Si Si1 0.179345 0.123928 0.395190
Si Si2 0.356668 0.362030 0.883586
Si Si3 0.441294 0.790483 0.742891
Si Si4 0.843226 0.505599 0.462298
O O1 0.473483 0.149048 0.392303
O O2 0.016854 0.150070 0.629185
O O3 0.170893 0.052620 0.417381
O O4 0.054523 0.140979 0.123879
O O5 0.261016 0.429926 0.888027
O O6 0.128304 0.316205 0.958520
O O7 0.691727 0.749873 0.792907
O O8 0.924373 0.504607 0.759465
#
# Coordination Sequence:
#
# PCOD9346949 Si02
#       4
#     4   4   4   4
#     4  12  27  50  79 116 162 215 272 343 418 495
#     4  12  27  50  79 116 162 215 272 343 418 495
#     4  12  28  54  82 118 164 222 278 336 406 496
#     4  12  24  44  80 118 162 208 268 344 422 500
#
# _framework density 26.508659999999999
#
# number of rings (size 3 to 8) (size 9 to 14) (size 15 to 20)
#    0.000    0.000    5.000    4.500    0.000    2.000 
#    0.000    0.000    0.000    0.000    0.000    0.000 
#    0.000    0.000    0.000    0.000    0.000    0.000 
#
# Total GULP energy -89641.497465 kJ/mol
# GULP energy per Si atom -5602.593592 kJ/mol
# Density = 2.644833 g / cm^3
# Si number density = 26.508660 Si / 1000 Ang^3
#
#
#
# Elastic Constant Matrix: (Units=GPa)
#
#
# Indices 1 2 3 4 5 6 
#
# 1 150.6797 45.1163 47.9547 0.0000 0.0000 0.0000
# 2 45.1163 140.5650 22.5502 0.0000 0.0000 0.0000
# 3 47.9547 22.5502 111.7852 0.0000 0.0000 0.0000
# 4 0.0000 0.0000 0.0000 41.1300 0.0000 0.0000
# 5 0.0000 0.0000 0.0000 0.0000 58.5263 0.0000
# 6 0.0000 0.0000 0.0000 0.0000 0.0000 59.7714
#
#
#
# Elastic Compliance Matrix: (Units=1/GPa)
#
#
# Indices 1 2 3 4 5 6 
#
# 1 0.008273 -0.002156 -0.003114 0.000000 0.000000 0.000000
# 2 -0.002156 0.007914 -0.000672 0.000000 0.000000 0.000000
# 3 -0.003114 -0.000672 0.010417 0.000000 0.000000 0.000000
# 4 0.000000 0.000000 0.000000 0.024313 0.000000 0.000000
# 5 0.000000 0.000000 0.000000 0.000000 0.017086 0.000000
# 6 0.000000 0.000000 0.000000 0.000000 0.000000 0.016730
#
#
# Mechanical properties :
#
#
# Convention : Reuss Voigt Hill
#
# Bulk Modulus (GPa) = 67.93061 70.47469 69.20265
# Shear Modulus (GPa) = 49.24927 51.04615 50.14771
#
# Velocity S-wave (km/s) = 4.31496 4.39297 4.35414
# Velocity P-wave (km/s) = 7.10680 7.23700 7.17220
#
# Compressibility (1/GPa) = 0.01472090
#
# Stress axis : x y z
#
# Youngs Moduli (GPa) = 120.87217 126.36118 95.99523
#
# Poissons Ratio (x) = 0.27241 0.29895
# Poissons Ratio (y) = 0.26058 0.06447
# Poissons Ratio (z) = 0.37642 0.08487
#
# Static dielectric constant tensor:
#      x y z
#    x 2.181940 0.000000 0.000000 
#    y 0.000000 2.104500 0.000000 
#    z 0.000000 0.000000 2.025840 
# 
# From -- ./inp_files/135.got.cif
#   From: 2010.05.17/outbox.cif.g08.bks.cpg/sg33_1_cif.got.tgz:135.got - 2010.06.03 17:15:25.
