data_PCOD9346032
_publ_section_title
;
Structure prediction by ZEFSAII (Michael W. Deem and Ramdas Pophale) SiO2 
 PCOD9346032
Probable space group: P N A 21
;
_chemical_formula_sum "Si O2"
_cell_formula_units_Z 28
_cell_length_a 14.742836
_cell_length_b 15.936243
_cell_length_c 5.450201
_cell_angle_alpha 90.000000
_cell_angle_beta 90.000000
_cell_angle_gamma 90.000000
_cell_volume 1280.499747
_symmetry_space_group_name_H-M "P N A 21"
_symmetry_group_IT_number 33
_symmetry_cell_setting 'orthorhombic'
loop_
_space_group_symop_operation_xyz
x,y,z
-x,-y,1/2+z
1/2-x,1/2+y,1/2+z
1/2+x,1/2-y,z
loop_
_atom_site_type_symbol
_atom_site_label
_atom_site_fract_x
_atom_site_fract_y
_atom_site_fract_z
Si Si1 0.140061 0.501816 0.783920
Si Si2 0.147766 0.806619 0.758058
Si Si3 0.332469 0.884066 0.885104
Si Si4 0.254071 0.557615 0.176191
Si Si5 0.493795 0.895655 0.543985
Si Si6 0.883546 0.291033 0.751207
Si Si7 0.943181 0.009970 0.267757
O O1 0.154409 0.410038 0.666611
O O2 0.058090 0.481076 0.971496
O O3 0.092043 0.575365 0.636576
O O4 0.233567 0.535218 0.891998
O O5 0.253817 0.819945 0.821658
O O6 0.135993 0.767491 0.487918
O O7 0.100970 0.897589 0.759259
O O8 0.109527 0.754152 0.988362
O O9 0.424994 0.860519 0.746984
O O10 0.294352 0.976170 0.799056
O O11 0.198033 0.641377 0.227417
O O12 0.358650 0.554633 0.245420
O O13 0.521890 0.836045 0.321891
O O14 0.994570 0.999705 0.526167
#
# Coordination Sequence:
#
# PCOD9346032 Si02
#       7
#     4   4   4   4   4   4   4
#     4  11  19  37  70 106 130 170 226 277 350 416
#     4  11  28  47  67  98 146 190 225 300 357 406
#     4  10  23  41  68  94 139 180 231 267 349 427
#     4  10  24  41  73  97 135 183 229 290 349 428
#     4  11  21  36  67 105 134 174 213 289 340 436
#     4  12  25  46  66 104 147 180 230 290 376 411
#     4  11  26  50  77 100 131 193 260 295 325 414
#
# _framework density 21.866465000000002
#
# number of rings (size 3 to 8) (size 9 to 14) (size 15 to 20)
#    0.000    1.143    2.857    2.571   12.000    0.000 
#    7.714    0.000    0.000    0.000    0.000    0.000 
#    0.000    0.000    0.000    0.000    0.000    0.000 
#
# Total GULP energy -156172.994222 kJ/mol
# GULP energy per Si atom -5577.606937 kJ/mol
# Density = 2.181670 g / cm^3
# Si number density = 21.866465 Si / 1000 Ang^3
#
#
#
# Elastic Constant Matrix: (Units=GPa)
#
#
# Indices 1 2 3 4 5 6 
#
# 1 88.9328 15.5764 27.0254 0.0000 0.0000 0.0000
# 2 15.5764 58.4444 23.7538 0.0000 0.0000 0.0000
# 3 27.0254 23.7538 91.0904 0.0000 0.0000 0.0000
# 4 0.0000 0.0000 0.0000 46.7578 0.0000 0.0000
# 5 0.0000 0.0000 0.0000 0.0000 32.0829 0.0000
# 6 0.0000 0.0000 0.0000 0.0000 0.0000 26.6975
#
#
#
# Elastic Compliance Matrix: (Units=1/GPa)
#
#
# Indices 1 2 3 4 5 6 
#
# 1 0.012575 -0.002053 -0.003196 0.000000 0.000000 0.000000
# 2 -0.002053 0.019474 -0.004469 0.000000 0.000000 0.000000
# 3 -0.003196 -0.004469 0.013092 0.000000 0.000000 0.000000
# 4 0.000000 0.000000 0.000000 0.021387 0.000000 0.000000
# 5 0.000000 0.000000 0.000000 0.000000 0.031169 0.000000
# 6 0.000000 0.000000 0.000000 0.000000 0.000000 0.037457
#
#
# Mechanical properties :
#
#
# Convention : Reuss Voigt Hill
#
# Bulk Modulus (GPa) = 38.90210 41.24208 40.07209
# Shear Modulus (GPa) = 30.64540 32.58178 31.61359
#
# Velocity S-wave (km/s) = 3.74769 3.86428 3.80644
# Velocity P-wave (km/s) = 6.04618 6.22993 6.13875
#
# Compressibility (1/GPa) = 0.02570556
#
# Stress axis : x y z
#
# Youngs Moduli (GPa) = 79.52250 51.35108 76.38461
#
# Poissons Ratio (x) = 0.10541 0.24409
# Poissons Ratio (y) = 0.16323 0.34138
# Poissons Ratio (z) = 0.25412 0.22950
#
# Static dielectric constant tensor:
#      x y z
#    x 1.784130 0.000000 0.000000 
#    y 0.000000 1.814120 0.000000 
#    z 0.000000 0.000000 2.187910 
# 
# From -- ./inp_files/1400.got.cif
#   From: 2010.05.17/outbox.cif.g08.bks.cpg/sg33_1_cif.got.tgz:1400.got - 2010.06.03 17:15:25.
