data_PCOD9346734
_publ_section_title
;
Structure prediction by ZEFSAII (Michael W. Deem and Ramdas Pophale) SiO2 
 PCOD9346734
Probable space group: P N A 21
;
_chemical_formula_sum "Si O2"
_cell_formula_units_Z 24
_cell_length_a 18.266309
_cell_length_b 9.260579
_cell_length_c 6.273463
_cell_angle_alpha 90.000000
_cell_angle_beta 90.000000
_cell_angle_gamma 90.000000
_cell_volume 1061.197656
_symmetry_space_group_name_H-M "P N A 21"
_symmetry_group_IT_number 33
_symmetry_cell_setting 'orthorhombic'
loop_
_space_group_symop_operation_xyz
x,y,z
-x,-y,1/2+z
1/2-x,1/2+y,1/2+z
1/2+x,1/2-y,z
loop_
_atom_site_type_symbol
_atom_site_label
_atom_site_fract_x
_atom_site_fract_y
_atom_site_fract_z
Si Si1 0.716228 0.116553 0.801480
Si Si2 0.465670 0.211114 0.023250
Si Si3 0.940251 0.607704 0.170363
Si Si4 0.350864 0.428438 0.086163
Si Si5 0.908849 0.824510 0.803869
Si Si6 0.293818 0.581534 0.466598
O O1 0.629544 0.094552 0.826916
O O2 0.739241 0.025253 0.591617
O O3 0.769465 0.062597 0.988712
O O4 0.730256 0.290208 0.805129
O O5 0.384412 0.271186 0.050776
O O6 0.518916 0.311318 0.162273
O O7 0.469349 0.048779 0.110999
O O8 0.497233 0.201257 0.785055
O O9 0.909978 0.689986 0.963989
O O10 0.346783 0.479580 0.328090
O O11 0.402128 0.534426 0.949912
O O12 0.839378 0.834434 0.648156
#
# Coordination Sequence:
#
# PCOD9346734 Si02
#       6
#     4   4   4   4   4   4
#     4  11  25  45  74 107 147 190 244 300 376 434
#     4  12  26  45  73 108 142 196 248 306 364 441
#     4  12  25  48  72 107 149 190 244 301 371 435
#     4  11  27  46  75 107 145 194 247 300 368 442
#     4  11  24  44  71 101 145 189 237 303 364 432
#     4  11  25  46  71 110 142 195 240 308 365 442
#
# _framework density 22.615957000000002
#
# number of rings (size 3 to 8) (size 9 to 14) (size 15 to 20)
#    0.000    0.667    5.000    1.000    7.000    2.667 
#    3.000    0.000    0.000    0.000    0.000    0.000 
#    0.000    0.000    0.000    0.000    0.000    0.000 
#
# Total GULP energy -134109.042363 kJ/mol
# GULP energy per Si atom -5587.876765 kJ/mol
# Density = 2.256448 g / cm^3
# Si number density = 22.615957 Si / 1000 Ang^3
#
#
#
# Elastic Constant Matrix: (Units=GPa)
#
#
# Indices 1 2 3 4 5 6 
#
# 1 45.6964 16.1424 13.8636 0.0000 0.0000 0.0000
# 2 16.1424 81.0457 36.5140 0.0000 0.0000 0.0000
# 3 13.8636 36.5140 63.4311 0.0000 0.0000 0.0000
# 4 0.0000 0.0000 0.0000 42.5863 0.0000 0.0000
# 5 0.0000 0.0000 0.0000 0.0000 27.7167 0.0000
# 6 0.0000 0.0000 0.0000 0.0000 0.0000 42.6055
#
#
#
# Elastic Compliance Matrix: (Units=1/GPa)
#
#
# Indices 1 2 3 4 5 6 
#
# 1 0.024064 -0.003272 -0.003376 0.000000 0.000000 0.000000
# 2 -0.003272 0.017104 -0.009131 0.000000 0.000000 0.000000
# 3 -0.003376 -0.009131 0.021759 0.000000 0.000000 0.000000
# 4 0.000000 0.000000 0.000000 0.023482 0.000000 0.000000
# 5 0.000000 0.000000 0.000000 0.000000 0.036079 0.000000
# 6 0.000000 0.000000 0.000000 0.000000 0.000000 0.023471
#
#
# Mechanical properties :
#
#
# Convention : Reuss Voigt Hill
#
# Bulk Modulus (GPa) = 31.87807 35.91256 33.89532
# Shear Modulus (GPa) = 26.59955 30.82523 28.71239
#
# Velocity S-wave (km/s) = 3.43321 3.69587 3.56696
# Velocity P-wave (km/s) = 5.46278 5.84178 5.65545
#
# Compressibility (1/GPa) = 0.03136953
#
# Stress axis : x y z
#
# Youngs Moduli (GPa) = 41.55655 58.46524 45.95772
#
# Poissons Ratio (x) = 0.19129 0.15515
# Poissons Ratio (y) = 0.13597 0.41963
# Poissons Ratio (z) = 0.14029 0.53384
#
# Static dielectric constant tensor:
#      x y z
#    x 1.833800 0.000000 0.000000 
#    y 0.000000 1.843290 0.000000 
#    z 0.000000 0.000000 1.847420 
# 
# From -- ./inp_files/1667.got.cif
#   From: 2010.05.17/outbox.cif.g08.bks.cpg/sg33_1_cif.got.tgz:1667.got - 2010.06.03 17:15:25.
