data_PCOD9346947
_publ_section_title
;
Structure prediction by ZEFSAII (Michael W. Deem and Ramdas Pophale) SiO2 
 PCOD9346947
Probable space group: P N A 21
;
_chemical_formula_sum "Si O2"
_cell_formula_units_Z 20
_cell_length_a 18.877606
_cell_length_b 7.047549
_cell_length_c 6.711000
_cell_angle_alpha 90.000000
_cell_angle_beta 90.000000
_cell_angle_gamma 90.000000
_cell_volume 892.837166
_symmetry_space_group_name_H-M "P N A 21"
_symmetry_group_IT_number 33
_symmetry_cell_setting 'orthorhombic'
loop_
_space_group_symop_operation_xyz
x,y,z
-x,-y,1/2+z
1/2-x,1/2+y,1/2+z
1/2+x,1/2-y,z
loop_
_atom_site_type_symbol
_atom_site_label
_atom_site_fract_x
_atom_site_fract_y
_atom_site_fract_z
Si Si1 0.987173 0.280640 0.596730
Si Si2 0.822646 0.123259 0.098793
Si Si3 0.083373 0.080544 0.916784
Si Si4 0.818046 0.797727 0.772173
Si Si5 0.401059 0.044191 0.903629
O O1 0.915688 0.368963 0.686110
O O2 0.038000 0.221574 0.780308
O O3 0.028995 0.433312 0.469253
O O4 0.968310 0.091464 0.477660
O O5 0.752654 0.237669 0.157987
O O6 0.853391 0.002382 0.281420
O O7 0.881200 0.279302 0.040488
O O8 0.810133 0.979940 0.914477
O O9 0.118665 0.165079 0.114989
O O10 0.840604 0.614327 0.900411
#
# Coordination Sequence:
#
# PCOD9346947 Si02
#       5
#     4   4   4   4   4
#     4  12  24  44  74 104 144 188 236 300 362 432
#     4  12  28  48  73 106 146 191 243 298 353 427
#     4  12  25  48  72 106 149 184 244 300 360 430
#     4  12  28  48  73 106 146 191 243 298 353 427
#     4  12  25  46  72 108 139 192 240 290 368 422
#
# _framework density 22.400501999999999
#
# number of rings (size 3 to 8) (size 9 to 14) (size 15 to 20)
#    0.000    0.000    4.000    6.000    5.600    3.200 
#    0.000    0.000    0.000    0.000    0.000    0.000 
#    0.000    0.000    0.000    0.000    0.000    0.000 
#
# Total GULP energy -112043.651938 kJ/mol
# GULP energy per Si atom -5602.182597 kJ/mol
# Density = 2.234952 g / cm^3
# Si number density = 22.400502 Si / 1000 Ang^3
#
#
#
# Elastic Constant Matrix: (Units=GPa)
#
#
# Indices 1 2 3 4 5 6 
#
# 1 51.1715 14.0339 4.2315 0.0000 0.0000 0.0000
# 2 14.0339 106.9214 33.8742 0.0000 0.0000 0.0000
# 3 4.2315 33.8742 73.2787 0.0000 0.0000 0.0000
# 4 0.0000 0.0000 0.0000 26.5692 0.0000 0.0000
# 5 0.0000 0.0000 0.0000 0.0000 43.5288 0.0000
# 6 0.0000 0.0000 0.0000 0.0000 0.0000 32.6832
#
#
#
# Elastic Compliance Matrix: (Units=1/GPa)
#
#
# Indices 1 2 3 4 5 6 
#
# 1 0.020272 -0.002683 0.000070 0.000000 0.000000 0.000000
# 2 -0.002683 0.011312 -0.005074 0.000000 0.000000 0.000000
# 3 0.000070 -0.005074 0.015988 0.000000 0.000000 0.000000
# 4 0.000000 0.000000 0.000000 0.037638 0.000000 0.000000
# 5 0.000000 0.000000 0.000000 0.000000 0.022973 0.000000
# 6 0.000000 0.000000 0.000000 0.000000 0.000000 0.030597
#
#
# Mechanical properties :
#
#
# Convention : Reuss Voigt Hill
#
# Bulk Modulus (GPa) = 31.05837 37.29454 34.17646
# Shear Modulus (GPa) = 30.32354 32.50504 31.41429
#
# Velocity S-wave (km/s) = 3.68326 3.81344 3.74892
# Velocity P-wave (km/s) = 5.65541 6.00624 5.83346
#
# Compressibility (1/GPa) = 0.03219744
#
# Stress axis : x y z
#
# Youngs Moduli (GPa) = 49.32873 88.39815 62.54592
#
# Poissons Ratio (x) = 0.23716 -0.00435
# Poissons Ratio (y) = 0.13234 0.31739
# Poissons Ratio (z) = -0.00343 0.44857
#
# Static dielectric constant tensor:
#      x y z
#    x 1.829860 0.000000 0.000000 
#    y 0.000000 1.767800 0.000000 
#    z 0.000000 0.000000 1.805440 
# 
# From -- ./inp_files/1935.got.cif
#   From: 2010.05.17/outbox.cif.g08.bks.cpg/sg33_1_cif.got.tgz:1935.got - 2010.06.03 17:15:25.
