data_PCOD9346337
_publ_section_title
;
Structure prediction by ZEFSAII (Michael W. Deem and Ramdas Pophale) SiO2 
 PCOD9346337
Probable space group: P N A 21
;
_chemical_formula_sum "Si O2"
_cell_formula_units_Z 12
_cell_length_a 14.171163
_cell_length_b 5.400138
_cell_length_c 5.534319
_cell_angle_alpha 90.000000
_cell_angle_beta 90.000000
_cell_angle_gamma 90.000000
_cell_volume 423.520601
_symmetry_space_group_name_H-M "P N A 21"
_symmetry_group_IT_number 33
_symmetry_cell_setting 'orthorhombic'
loop_
_space_group_symop_operation_xyz
x,y,z
-x,-y,1/2+z
1/2-x,1/2+y,1/2+z
1/2+x,1/2-y,z
loop_
_atom_site_type_symbol
_atom_site_label
_atom_site_fract_x
_atom_site_fract_y
_atom_site_fract_z
Si Si1 0.699988 0.067994 0.886770
Si Si2 0.626601 0.565922 0.643643
Si Si3 0.035273 0.379004 0.191349
O O1 0.658190 0.303019 0.746322
O O2 0.667086 0.804929 0.785400
O O3 0.812572 0.083561 0.899065
O O4 0.645999 0.097795 0.143081
O O5 0.515005 0.612710 0.654776
O O6 0.009914 0.477473 0.457798
#
# Coordination Sequence:
#
# PCOD9346337 Si02
#       3
#     4   4   4
#     4  11  24  42  68 100 137 179 226 280 338 403
#     4  11  24  42  68 100 137 179 226 280 338 403
#     4  10  24  46  70 102 138 180 228 282 340 404
#
# _framework density 28.333921
#
# number of rings (size 3 to 8) (size 9 to 14) (size 15 to 20)
#    0.000    1.333    0.000    4.000    0.000   18.667 
#    0.000    0.000    0.000    0.000    0.000    0.000 
#    0.000    0.000    0.000    0.000    0.000    0.000 
#
# Total GULP energy -67163.707374 kJ/mol
# GULP energy per Si atom -5596.975614 kJ/mol
# Density = 2.826943 g / cm^3
# Si number density = 28.333921 Si / 1000 Ang^3
#
#
#
# Elastic Constant Matrix: (Units=GPa)
#
#
# Indices 1 2 3 4 5 6 
#
# 1 105.6856 26.2300 22.2943 0.0000 0.0000 0.0000
# 2 26.2300 177.3197 69.4369 0.0000 0.0000 0.0000
# 3 22.2943 69.4369 119.7716 0.0000 0.0000 0.0000
# 4 0.0000 0.0000 0.0000 74.6138 0.0000 0.0000
# 5 0.0000 0.0000 0.0000 0.0000 56.3731 0.0000
# 6 0.0000 0.0000 0.0000 0.0000 0.0000 40.6189
#
#
#
# Elastic Compliance Matrix: (Units=1/GPa)
#
#
# Indices 1 2 3 4 5 6 
#
# 1 0.009976 -0.000968 -0.001295 0.000000 0.000000 0.000000
# 2 -0.000968 0.007390 -0.004104 0.000000 0.000000 0.000000
# 3 -0.001295 -0.004104 0.010970 0.000000 0.000000 0.000000
# 4 0.000000 0.000000 0.000000 0.013402 0.000000 0.000000
# 5 0.000000 0.000000 0.000000 0.000000 0.017739 0.000000
# 6 0.000000 0.000000 0.000000 0.000000 0.000000 0.024619
#
#
# Mechanical properties :
#
#
# Convention : Reuss Voigt Hill
#
# Bulk Modulus (GPa) = 64.10456 70.96660 67.53558
# Shear Modulus (GPa) = 49.00475 53.30888 51.15682
#
# Velocity S-wave (km/s) = 4.16329 4.34228 4.25372
# Velocity P-wave (km/s) = 6.76642 7.08811 6.92913
#
# Compressibility (1/GPa) = 0.01559951
#
# Stress axis : x y z
#
# Youngs Moduli (GPa) = 100.24423 135.32066 91.16084
#
# Poissons Ratio (x) = 0.13104 0.11810
# Poissons Ratio (y) = 0.09707 0.37412
# Poissons Ratio (z) = 0.12986 0.55535
#
# Static dielectric constant tensor:
#      x y z
#    x 2.297730 0.000000 0.000000 
#    y 0.000000 2.199870 0.000000 
#    z 0.000000 0.000000 2.292860 
# 
# From -- ./inp_files/1574.got.cif
#   From: 2010.05.17/outbox.cif.g08.bks.cpg/sg33_1_cif.got.tgz:1574.got - 2010.06.03 17:15:25.
