data_PCOD9346339
_publ_section_title
;
Structure prediction by ZEFSAII (Michael W. Deem and Ramdas Pophale) SiO2 
 PCOD9346339
Probable space group: P N A 21
;
_chemical_formula_sum "Si O2"
_cell_formula_units_Z 20
_cell_length_a 11.630573
_cell_length_b 9.042697
_cell_length_c 7.397641
_cell_angle_alpha 90.000000
_cell_angle_beta 90.000000
_cell_angle_gamma 90.000000
_cell_volume 778.022832
_symmetry_space_group_name_H-M "P N A 21"
_symmetry_group_IT_number 33
_symmetry_cell_setting 'orthorhombic'
loop_
_space_group_symop_operation_xyz
x,y,z
-x,-y,1/2+z
1/2-x,1/2+y,1/2+z
1/2+x,1/2-y,z
loop_
_atom_site_type_symbol
_atom_site_label
_atom_site_fract_x
_atom_site_fract_y
_atom_site_fract_z
Si Si1 0.798290 0.975083 0.058260
Si Si2 0.093906 0.310000 0.388609
Si Si3 0.331724 0.467576 0.440973
Si Si4 0.415751 0.207531 0.667316
Si Si5 0.607087 0.193937 0.974617
O O1 0.863572 0.055811 0.225582
O O2 0.719331 0.088761 0.944786
O O3 0.871770 0.859709 0.940800
O O4 0.706415 0.871638 0.165735
O O5 0.202918 0.405593 0.448697
O O6 0.071131 0.335085 0.179924
O O7 0.985510 0.362247 0.500721
O O8 0.397297 0.373181 0.593027
O O9 0.349048 0.638114 0.477209
O O10 0.499718 0.808167 0.336576
#
# Coordination Sequence:
#
# PCOD9346339 Si02
#       5
#     4   4   4   4   4
#     4  10  24  48  71 107 146 190 243 307 364 431
#     4  10  24  46  70 105 142 186 244 302 358 439
#     4  10  24  48  66 105 146 184 239 299 364 425
#     4  11  25  47  71 103 150 184 247 298 363 438
#     4  11  25  43  74 102 136 198 235 296 367 429
#
# _framework density 25.706185999999999
#
# number of rings (size 3 to 8) (size 9 to 14) (size 15 to 20)
#    0.000    1.600    2.000    0.000   11.200    0.000 
#   10.800    0.000    0.000    0.000    0.000    0.000 
#    0.000    0.000    0.000    0.000    0.000    0.000 
#
# Total GULP energy -111944.853825 kJ/mol
# GULP energy per Si atom -5597.242691 kJ/mol
# Density = 2.564768 g / cm^3
# Si number density = 25.706186 Si / 1000 Ang^3
#
#
#
# Elastic Constant Matrix: (Units=GPa)
#
#
# Indices 1 2 3 4 5 6 
#
# 1 65.0210 25.4887 48.6824 0.0000 0.0000 0.0000
# 2 25.4887 124.0153 20.8937 0.0000 0.0000 0.0000
# 3 48.6824 20.8937 148.7717 0.0000 0.0000 0.0000
# 4 0.0000 0.0000 0.0000 38.5674 0.0000 0.0000
# 5 0.0000 0.0000 0.0000 0.0000 55.2626 0.0000
# 6 0.0000 0.0000 0.0000 0.0000 0.0000 24.3847
#
#
#
# Elastic Compliance Matrix: (Units=1/GPa)
#
#
# Indices 1 2 3 4 5 6 
#
# 1 0.021637 -0.003333 -0.006612 0.000000 0.000000 0.000000
# 2 -0.003333 0.008772 -0.000141 0.000000 0.000000 0.000000
# 3 -0.006612 -0.000141 0.008905 0.000000 0.000000 0.000000
# 4 0.000000 0.000000 0.000000 0.025929 0.000000 0.000000
# 5 0.000000 0.000000 0.000000 0.000000 0.018095 0.000000
# 6 0.000000 0.000000 0.000000 0.000000 0.000000 0.041009
#
#
# Mechanical properties :
#
#
# Convention : Reuss Voigt Hill
#
# Bulk Modulus (GPa) = 52.24251 58.65973 55.45112
# Shear Modulus (GPa) = 33.13428 39.82583 36.48005
#
# Velocity S-wave (km/s) = 3.59411 3.94035 3.77120
# Velocity P-wave (km/s) = 6.13111 6.60080 6.37029
#
# Compressibility (1/GPa) = 0.01914150
#
# Stress axis : x y z
#
# Youngs Moduli (GPa) = 46.21760 113.99438 112.29359
#
# Poissons Ratio (x) = 0.37994 0.74250
# Poissons Ratio (y) = 0.15404 0.01587
# Poissons Ratio (z) = 0.30559 0.01611
#
# Static dielectric constant tensor:
#      x y z
#    x 2.006510 0.000000 0.000000 
#    y 0.000000 2.115410 0.000000 
#    z 0.000000 0.000000 2.055940 
# 
# From -- ./inp_files/4158.got.cif
#   From: 2010.05.17/outbox.cif.g08.bks.cpg/sg33_3_cif.got.tgz:4158.got - 2010.06.03 17:15:25.
