data_PCOD9346614
_publ_section_title
;
Structure prediction by ZEFSAII (Michael W. Deem and Ramdas Pophale) SiO2 
 PCOD9346614
Probable space group: P N A 21
;
_chemical_formula_sum "Si O2"
_cell_formula_units_Z 32
_cell_length_a 21.503937
_cell_length_b 11.790047
_cell_length_c 5.500887
_cell_angle_alpha 90.000000
_cell_angle_beta 90.000000
_cell_angle_gamma 90.000000
_cell_volume 1394.653237
_symmetry_space_group_name_H-M "P N A 21"
_symmetry_group_IT_number 33
_symmetry_cell_setting 'orthorhombic'
loop_
_space_group_symop_operation_xyz
x,y,z
-x,-y,1/2+z
1/2-x,1/2+y,1/2+z
1/2+x,1/2-y,z
loop_
_atom_site_type_symbol
_atom_site_label
_atom_site_fract_x
_atom_site_fract_y
_atom_site_fract_z
Si Si1 0.987433 0.930190 0.665130
Si Si2 0.088400 0.480016 0.405653
Si Si3 0.222930 0.187792 0.977805
Si Si4 0.602018 0.228245 0.737695
Si Si5 0.141326 0.091991 0.339577
Si Si6 0.215780 0.876659 0.344151
Si Si7 0.269910 0.962702 0.833641
Si Si8 0.495655 0.182420 0.085815
O O1 0.913173 0.908932 0.639730
O O2 0.019662 0.805261 0.707339
O O3 0.006443 0.995756 0.416072
O O4 0.102021 0.397632 0.630367
O O5 0.157963 0.494918 0.306665
O O6 0.057294 0.597729 0.488460
O O7 0.041720 0.401918 0.240474
O O8 0.162201 0.257218 0.902998
O O9 0.287052 0.242430 0.882229
O O10 0.223839 0.069338 0.835905
O O11 0.206394 0.149712 0.251855
O O12 0.611950 0.326637 0.540444
O O13 0.535497 0.230151 0.861774
O O14 0.158032 0.960255 0.371663
O O15 0.253465 0.895417 0.594044
O O16 0.251309 0.902366 0.090122
#
# Coordination Sequence:
#
# PCOD9346614 Si02
#       8
#     4   4   4   4   4   4   4   4
#     4  12  28  47  72 104 146 200 248 295 357 440
#     4  12  25  43  71 110 143 184 242 317 367 433
#     4  11  23  42  71 101 135 186 234 294 362 433
#     4  12  19  43  72  99 136 184 238 291 364 443
#     4  11  24  43  73  98 139 191 241 289 358 448
#     4  11  24  42  68 103 132 180 235 282 355 425
#     4  11  25  41  67 105 139 173 233 298 355 417
#     4  12  26  43  74 106 142 196 249 302 376 433
#
# _framework density 22.944769000000001
#
# number of rings (size 3 to 8) (size 9 to 14) (size 15 to 20)
#    0.000    0.500    6.250    2.250    0.000    1.000 
#    0.000    1.250    0.000    0.000    0.000    0.000 
#    0.000    0.000    0.000    0.000    0.000    0.000 
#
# Total GULP energy -178169.867340 kJ/mol
# GULP energy per Si atom -5567.808354 kJ/mol
# Density = 2.289255 g / cm^3
# Si number density = 22.944769 Si / 1000 Ang^3
#
#
#
# Elastic Constant Matrix: (Units=GPa)
#
#
# Indices 1 2 3 4 5 6 
#
# 1 31.3438 12.8300 8.1562 0.0000 0.0000 0.0000
# 2 12.8300 97.7015 30.1199 0.0000 0.0000 0.0000
# 3 8.1562 30.1199 85.8154 0.0000 0.0000 0.0000
# 4 0.0000 0.0000 0.0000 34.7238 0.0000 0.0000
# 5 0.0000 0.0000 0.0000 0.0000 26.4396 0.0000
# 6 0.0000 0.0000 0.0000 0.0000 0.0000 54.8770
#
#
#
# Elastic Compliance Matrix: (Units=1/GPa)
#
#
# Indices 1 2 3 4 5 6 
#
# 1 0.033981 -0.003887 -0.001865 0.000000 0.000000 0.000000
# 2 -0.003887 0.011922 -0.003815 0.000000 0.000000 0.000000
# 3 -0.001865 -0.003815 0.013169 0.000000 0.000000 0.000000
# 4 0.000000 0.000000 0.000000 0.028799 0.000000 0.000000
# 5 0.000000 0.000000 0.000000 0.000000 0.037822 0.000000
# 6 0.000000 0.000000 0.000000 0.000000 0.000000 0.018223
#
#
# Mechanical properties :
#
#
# Convention : Reuss Voigt Hill
#
# Bulk Modulus (GPa) = 25.03955 35.23036 30.13496
# Shear Modulus (GPa) = 28.35072 34.12505 31.23788
#
# Velocity S-wave (km/s) = 3.51893 3.86070 3.69377
# Velocity P-wave (km/s) = 5.23901 5.93810 5.59948
#
# Compressibility (1/GPa) = 0.03993681
#
# Stress axis : x y z
#
# Youngs Moduli (GPa) = 29.42839 83.87992 75.93488
#
# Poissons Ratio (x) = 0.32606 0.14164
# Poissons Ratio (y) = 0.11440 0.28968
# Poissons Ratio (z) = 0.05489 0.31999
#
# Static dielectric constant tensor:
#      x y z
#    x 1.925790 0.000000 0.000000 
#    y 0.000000 2.059100 0.000000 
#    z 0.000000 0.000000 1.975240 
# 
# From -- ./inp_files/2063.got.cif
#   From: 2010.05.17/outbox.cif.g08.bks.cpg/sg33_2_cif.got.tgz:2063.got - 2010.06.03 17:15:25.
