data_PCOD9346643
_publ_section_title
;
Structure prediction by ZEFSAII (Michael W. Deem and Ramdas Pophale) SiO2 
 PCOD9346643
Probable space group: P N A 21
;
_chemical_formula_sum "Si O2"
_cell_formula_units_Z 24
_cell_length_a 27.139818
_cell_length_b 5.371289
_cell_length_c 7.058502
_cell_angle_alpha 90.000000
_cell_angle_beta 90.000000
_cell_angle_gamma 90.000000
_cell_volume 1028.958817
_symmetry_space_group_name_H-M "P N A 21"
_symmetry_group_IT_number 33
_symmetry_cell_setting 'orthorhombic'
loop_
_space_group_symop_operation_xyz
x,y,z
-x,-y,1/2+z
1/2-x,1/2+y,1/2+z
1/2+x,1/2-y,z
loop_
_atom_site_type_symbol
_atom_site_label
_atom_site_fract_x
_atom_site_fract_y
_atom_site_fract_z
Si Si1 0.531567 0.672396 0.065580
Si Si2 0.601453 0.287173 0.025802
Si Si3 0.389716 0.083921 0.839487
Si Si4 0.803514 0.940449 0.325167
Si Si5 0.206422 0.568349 0.575558
Si Si6 0.552861 0.990775 0.720441
O O1 0.485246 0.790741 0.168541
O O2 0.580333 0.754636 0.185384
O O3 0.545318 0.386231 0.043647
O O4 0.529165 0.781845 0.853377
O O5 0.645117 0.450872 0.940587
O O6 0.595910 0.086727 0.857722
O O7 0.613794 0.178612 0.230138
O O8 0.423693 0.095007 0.025045
O O9 0.335123 0.127030 0.916287
O O10 0.797256 0.200726 0.218144
O O11 0.801481 0.699243 0.182400
O O12 0.759138 0.921290 0.474185
#
# Coordination Sequence:
#
# PCOD9346643 Si02
#       6
#     4   4   4   4   4   4
#     4  11  25  41  69  95 143 189 242 303 360 437
#     4  11  27  42  70 102 142 184 245 298 363 435
#     4  11  25  45  69 102 141 187 239 298 364 428
#     4  12  27  49  76 110 146 190 240 300 366 436
#     4  12  27  48  78 107 150 188 240 303 363 437
#     4  11  23  45  62 102 138 188 242 298 366 427
#
# _framework density 23.324545000000001
#
# number of rings (size 3 to 8) (size 9 to 14) (size 15 to 20)
#    0.000    0.667    3.333    3.000    9.333    1.333 
#    0.000    0.000    0.000    0.000    0.000    0.000 
#    0.000    0.000    0.000    0.000    0.000    0.000 
#
# Total GULP energy -134023.812241 kJ/mol
# GULP energy per Si atom -5584.325510 kJ/mol
# Density = 2.327146 g / cm^3
# Si number density = 23.324545 Si / 1000 Ang^3
#
#
#
# Elastic Constant Matrix: (Units=GPa)
#
#
# Indices 1 2 3 4 5 6 
#
# 1 67.5076 -7.4893 31.7457 0.0000 0.0000 0.0000
# 2 -7.4893 54.2544 30.5224 0.0000 0.0000 0.0000
# 3 31.7457 30.5224 152.2930 0.0000 0.0000 0.0000
# 4 0.0000 0.0000 0.0000 44.2500 0.0000 0.0000
# 5 0.0000 0.0000 0.0000 0.0000 60.3439 0.0000
# 6 0.0000 0.0000 0.0000 0.0000 0.0000 29.2763
#
#
#
# Elastic Compliance Matrix: (Units=1/GPa)
#
#
# Indices 1 2 3 4 5 6 
#
# 1 0.017573 0.005057 -0.004677 0.000000 0.000000 0.000000
# 2 0.005057 0.022229 -0.005509 0.000000 0.000000 0.000000
# 3 -0.004677 -0.005509 0.008645 0.000000 0.000000 0.000000
# 4 0.000000 0.000000 0.000000 0.022599 0.000000 0.000000
# 5 0.000000 0.000000 0.000000 0.000000 0.016572 0.000000
# 6 0.000000 0.000000 0.000000 0.000000 0.000000 0.034157
#
#
# Mechanical properties :
#
#
# Convention : Reuss Voigt Hill
#
# Bulk Modulus (GPa) = 26.18511 42.62362 34.40437
# Shear Modulus (GPa) = 34.53903 41.39245 37.96574
#
# Velocity S-wave (km/s) = 3.85229 4.21721 4.03887
# Velocity P-wave (km/s) = 5.57115 6.48282 6.04420
#
# Compressibility (1/GPa) = 0.03818965
#
# Stress axis : x y z
#
# Youngs Moduli (GPa) = 56.90427 44.98600 115.66967
#
# Poissons Ratio (x) = -0.22749 0.54095
# Poissons Ratio (y) = -0.28776 0.63725
# Poissons Ratio (z) = 0.26612 0.24784
#
# Static dielectric constant tensor:
#      x y z
#    x 1.852900 0.000000 0.000000 
#    y 0.000000 2.035450 0.000000 
#    z 0.000000 0.000000 1.821790 
# 
# From -- ./inp_files/2372.got.cif
#   From: 2010.05.17/outbox.cif.g08.bks.cpg/sg33_2_cif.got.tgz:2372.got - 2010.06.03 17:15:25.
