data_PCOD9346864
_publ_section_title
;
Structure prediction by ZEFSAII (Michael W. Deem and Ramdas Pophale) SiO2 
 PCOD9346864
Probable space group: P N A 21
;
_chemical_formula_sum "Si O2"
_cell_formula_units_Z 20
_cell_length_a 13.978943
_cell_length_b 4.886832
_cell_length_c 10.699968
_cell_angle_alpha 90.000000
_cell_angle_beta 90.000000
_cell_angle_gamma 90.000000
_cell_volume 730.944196
_symmetry_space_group_name_H-M "P N A 21"
_symmetry_group_IT_number 33
_symmetry_cell_setting 'orthorhombic'
loop_
_space_group_symop_operation_xyz
x,y,z
-x,-y,1/2+z
1/2-x,1/2+y,1/2+z
1/2+x,1/2-y,z
loop_
_atom_site_type_symbol
_atom_site_label
_atom_site_fract_x
_atom_site_fract_y
_atom_site_fract_z
Si Si1 0.335436 0.812220 0.739400
Si Si2 0.120528 0.781445 0.823515
Si Si3 0.451049 0.455583 0.935788
Si Si4 0.902265 0.571075 0.093987
Si Si5 0.175436 0.808850 0.093437
O O1 0.222346 0.849031 0.763651
O O2 0.377332 0.635329 0.852415
O O3 0.353997 0.620630 0.619353
O O4 0.364670 0.116574 0.703068
O O5 0.048356 0.026159 0.856443
O O6 0.147537 0.678512 0.961602
O O7 0.918250 0.335321 0.988426
O O8 0.573969 0.925002 0.725061
O O9 0.459922 0.659061 0.055824
O O10 0.791077 0.662646 0.098217
#
# Coordination Sequence:
#
# PCOD9346864 Si02
#       5
#     4   4   4   4   4
#     4  11  26  47  72 107 143 199 247 309 362 449
#     4  11  28  45  79 103 152 195 245 304 380 432
#     4  12  27  47  74 109 152 191 253 310 367 447
#     4  11  26  50  72 110 149 190 254 308 367 454
#     4  11  25  47  77 101 148 193 249 299 382 428
#
# _framework density 27.361867
#
# number of rings (size 3 to 8) (size 9 to 14) (size 15 to 20)
#    0.000    0.800    2.000    3.600    5.600    8.000 
#    0.000    0.000    0.000    0.000    0.000    0.000 
#    0.000    0.000    0.000    0.000    0.000    0.000 
#
# Total GULP energy -112013.740989 kJ/mol
# GULP energy per Si atom -5600.687049 kJ/mol
# Density = 2.729959 g / cm^3
# Si number density = 27.361867 Si / 1000 Ang^3
#
#
#
# Elastic Constant Matrix: (Units=GPa)
#
#
# Indices 1 2 3 4 5 6 
#
# 1 128.2864 42.2486 22.6308 0.0000 0.0000 0.0000
# 2 42.2486 173.2758 60.2173 0.0000 0.0000 0.0000
# 3 22.6308 60.2173 145.4596 0.0000 0.0000 0.0000
# 4 0.0000 0.0000 0.0000 54.4903 0.0000 0.0000
# 5 0.0000 0.0000 0.0000 0.0000 40.6541 0.0000
# 6 0.0000 0.0000 0.0000 0.0000 0.0000 30.4916
#
#
#
# Elastic Compliance Matrix: (Units=1/GPa)
#
#
# Indices 1 2 3 4 5 6 
#
# 1 0.008512 -0.001887 -0.000543 0.000000 0.000000 0.000000
# 2 -0.001887 0.007159 -0.002670 0.000000 0.000000 0.000000
# 3 -0.000543 -0.002670 0.008065 0.000000 0.000000 0.000000
# 4 0.000000 0.000000 0.000000 0.018352 0.000000 0.000000
# 5 0.000000 0.000000 0.000000 0.000000 0.024598 0.000000
# 6 0.000000 0.000000 0.000000 0.000000 0.000000 0.032796
#
#
# Mechanical properties :
#
#
# Convention : Reuss Voigt Hill
#
# Bulk Modulus (GPa) = 73.87865 77.46836 75.67350
# Shear Modulus (GPa) = 43.78516 46.58884 45.18700
#
# Velocity S-wave (km/s) = 4.00462 4.13085 4.06822
# Velocity P-wave (km/s) = 6.96002 7.15023 7.05577
#
# Compressibility (1/GPa) = 0.01353571
#
# Stress axis : x y z
#
# Youngs Moduli (GPa) = 117.47791 139.68212 123.99720
#
# Poissons Ratio (x) = 0.26353 0.06737
# Poissons Ratio (y) = 0.22164 0.33110
# Poissons Ratio (z) = 0.06383 0.37298
#
# Static dielectric constant tensor:
#      x y z
#    x 2.234230 0.000000 0.000000 
#    y 0.000000 2.023100 0.000000 
#    z 0.000000 0.000000 2.213150 
# 
# From -- ./inp_files/6571.got.cif
#   From: 2010.05.17/outbox.cif.g08.bks.cpg/sg33_4_cif.got.tgz:6571.got - 2010.06.03 17:15:25.
