data_PCOD9346476
_publ_section_title
;
Structure prediction by ZEFSAII (Michael W. Deem and Ramdas Pophale) SiO2 
 PCOD9346476
Probable space group: P N A 21
;
_chemical_formula_sum "Si O2"
_cell_formula_units_Z 32
_cell_length_a 8.521306
_cell_length_b 11.840140
_cell_length_c 13.973441
_cell_angle_alpha 90.000000
_cell_angle_beta 90.000000
_cell_angle_gamma 90.000000
_cell_volume 1409.828755
_symmetry_space_group_name_H-M "P N A 21"
_symmetry_group_IT_number 33
_symmetry_cell_setting 'orthorhombic'
loop_
_space_group_symop_operation_xyz
x,y,z
-x,-y,1/2+z
1/2-x,1/2+y,1/2+z
1/2+x,1/2-y,z
loop_
_atom_site_type_symbol
_atom_site_label
_atom_site_fract_x
_atom_site_fract_y
_atom_site_fract_z
Si Si1 0.023856 0.705597 0.535440
Si Si2 0.041765 0.305426 0.261013
Si Si3 0.650469 0.421973 0.975019
Si Si4 0.723799 0.136412 0.884755
Si Si5 0.422189 0.441739 0.644691
Si Si6 0.778573 0.913827 0.803443
Si Si7 0.279882 0.507496 0.258358
Si Si8 0.565122 0.787277 0.257772
O O1 0.185702 0.639996 0.508561
O O2 0.002326 0.703333 0.649234
O O3 0.989059 0.835995 0.505205
O O4 0.876414 0.648359 0.480910
O O5 0.094425 0.184706 0.300896
O O6 0.185964 0.392159 0.269751
O O7 0.890991 0.357743 0.311841
O O8 0.660039 0.449207 0.862453
O O9 0.621320 0.534759 0.036056
O O10 0.593483 0.161625 0.801337
O O11 0.851161 0.226527 0.848214
O O12 0.794076 0.011838 0.880736
O O13 0.294466 0.512804 0.705940
O O14 0.581922 0.498755 0.682267
O O15 0.439858 0.312478 0.679738
O O16 0.164617 0.606697 0.223771
#
# Coordination Sequence:
#
# PCOD9346476 Si02
#       8
#     4   4   4   4   4   4   4   4
#     4  12  21  40  68 106 134 174 246 295 342 411
#     4  12  23  40  65 100 142 185 225 290 353 415
#     4  12  25  43  70 108 138 187 235 301 346 431
#     4  11  21  40  68 102 133 176 233 291 343 410
#     4  11  24  42  67 101 141 178 230 294 356 420
#     4  11  23  41  65  97 141 182 223 278 358 413
#     4  12  25  44  70 100 142 186 236 291 361 413
#     4  11  20  40  69  98 133 178 224 286 351 409
#
# _framework density 22.697790999999999
#
# number of rings (size 3 to 8) (size 9 to 14) (size 15 to 20)
#    0.000    0.500    7.500    0.750    1.750    0.000 
#    0.000    1.250    2.750    0.000    0.000    0.000 
#    0.000    0.000    0.000    0.000    0.000    0.000 
#
# Total GULP energy -178898.550054 kJ/mol
# GULP energy per Si atom -5590.579689 kJ/mol
# Density = 2.264613 g / cm^3
# Si number density = 22.697791 Si / 1000 Ang^3
#
#
#
# Elastic Constant Matrix: (Units=GPa)
#
#
# Indices 1 2 3 4 5 6 
#
# 1 96.4138 31.1040 8.3523 0.0000 0.0000 0.0000
# 2 31.1040 124.7243 6.2347 0.0000 0.0000 0.0000
# 3 8.3523 6.2347 39.1574 0.0000 0.0000 0.0000
# 4 0.0000 0.0000 0.0000 40.3523 0.0000 0.0000
# 5 0.0000 0.0000 0.0000 0.0000 21.5814 0.0000
# 6 0.0000 0.0000 0.0000 0.0000 0.0000 49.1657
#
#
#
# Elastic Compliance Matrix: (Units=1/GPa)
#
#
# Indices 1 2 3 4 5 6 
#
# 1 0.011433 -0.002751 -0.002001 0.000000 0.000000 0.000000
# 2 -0.002751 0.008744 -0.000805 0.000000 0.000000 0.000000
# 3 -0.002001 -0.000805 0.026093 0.000000 0.000000 0.000000
# 4 0.000000 0.000000 0.000000 0.024782 0.000000 0.000000
# 5 0.000000 0.000000 0.000000 0.000000 0.046336 0.000000
# 6 0.000000 0.000000 0.000000 0.000000 0.000000 0.020339
#
#
# Mechanical properties :
#
#
# Convention : Reuss Voigt Hill
#
# Bulk Modulus (GPa) = 28.44506 39.07527 33.76017
# Shear Modulus (GPa) = 31.14103 36.52685 33.83394
#
# Velocity S-wave (km/s) = 3.70805 4.01592 3.86505
# Velocity P-wave (km/s) = 5.55807 6.22546 5.90121
#
# Compressibility (1/GPa) = 0.03515549
#
# Stress axis : x y z
#
# Youngs Moduli (GPa) = 87.46752 114.36375 38.32457
#
# Poissons Ratio (x) = 0.31463 0.07667
# Poissons Ratio (y) = 0.24063 0.03087
# Poissons Ratio (z) = 0.17499 0.09211
#
# Static dielectric constant tensor:
#      x y z
#    x 1.957160 0.000000 0.000000 
#    y 0.000000 1.844860 0.000000 
#    z 0.000000 0.000000 1.863150 
# 
# From -- ./inp_files/7679.got.cif
#   From: 2010.05.17/outbox.cif.g08.bks.cpg/sg33_4_cif.got.tgz:7679.got - 2010.06.03 17:15:25.
