data_PCOD9346390
_publ_section_title
;
Structure prediction by ZEFSAII (Michael W. Deem and Ramdas Pophale) SiO2 
 PCOD9346390
Probable space group: P N A 21
;
_chemical_formula_sum "Si O2"
_cell_formula_units_Z 28
_cell_length_a 25.832260
_cell_length_b 8.543949
_cell_length_c 5.150927
_cell_angle_alpha 90.000000
_cell_angle_beta 90.000000
_cell_angle_gamma 90.000000
_cell_volume 1136.858584
_symmetry_space_group_name_H-M "P N A 21"
_symmetry_group_IT_number 33
_symmetry_cell_setting 'orthorhombic'
loop_
_space_group_symop_operation_xyz
x,y,z
-x,-y,1/2+z
1/2-x,1/2+y,1/2+z
1/2+x,1/2-y,z
loop_
_atom_site_type_symbol
_atom_site_label
_atom_site_fract_x
_atom_site_fract_y
_atom_site_fract_z
Si Si1 0.057190 0.865981 0.154680
Si Si2 0.387291 0.272773 0.152045
Si Si3 0.786570 0.742658 0.090312
Si Si4 0.874434 0.572488 0.320679
Si Si5 0.980924 0.598178 0.107294
Si Si6 0.377014 0.652313 0.704348
Si Si7 0.701124 0.540298 0.831075
O O1 0.089327 0.761418 0.365539
O O2 0.003444 0.771772 0.157546
O O3 0.072589 0.041831 0.248393
O O4 0.074075 0.858707 0.852572
O O5 0.334583 0.369613 0.126709
O O6 0.376113 0.114040 0.309653
O O7 0.836514 0.802527 0.928555
O O8 0.740515 0.662248 0.945566
O O9 0.814999 0.619653 0.275440
O O10 0.765951 0.896073 0.228306
O O11 0.890599 0.687443 0.554186
O O12 0.919043 0.608926 0.108184
O O13 0.996545 0.482625 0.347361
O O14 0.340155 0.541539 0.523379
#
# Coordination Sequence:
#
# PCOD9346390 Si02
#       7
#     4   4   4   4   4   4   4
#     4  11  22  47  71  99 141 189 231 299 352 431
#     4  11  23  43  74  99 140 182 235 292 358 419
#     4  11  25  44  67  97 143 180 245 290 370 432
#     4  11  26  43  68 105 139 187 241 306 357 437
#     4  12  24  45  73 107 139 186 248 293 361 441
#     4  10  25  45  63  99 143 179 239 293 368 430
#     4  10  25  43  66 100 133 191 233 297 356 444
#
# _framework density 24.629273000000001
#
# number of rings (size 3 to 8) (size 9 to 14) (size 15 to 20)
#    0.000    1.143    4.286    0.000    8.000    2.286 
#    2.571    0.000    0.000    0.000    0.000    0.000 
#    0.000    0.000    0.000    0.000    0.000    0.000 
#
# Total GULP energy -156295.618147 kJ/mol
# GULP energy per Si atom -5581.986362 kJ/mol
# Density = 2.457322 g / cm^3
# Si number density = 24.629273 Si / 1000 Ang^3
#
#
#
# Elastic Constant Matrix: (Units=GPa)
#
#
# Indices 1 2 3 4 5 6 
#
# 1 65.7209 17.1030 6.7592 0.0000 0.0000 0.0000
# 2 17.1030 78.4427 16.1829 0.0000 0.0000 0.0000
# 3 6.7592 16.1829 76.2040 0.0000 0.0000 0.0000
# 4 0.0000 0.0000 0.0000 31.7092 0.0000 0.0000
# 5 0.0000 0.0000 0.0000 0.0000 20.7768 0.0000
# 6 0.0000 0.0000 0.0000 0.0000 0.0000 23.3888
#
#
#
# Elastic Compliance Matrix: (Units=1/GPa)
#
#
# Indices 1 2 3 4 5 6 
#
# 1 0.016168 -0.003377 -0.000717 0.000000 0.000000 0.000000
# 2 -0.003377 0.014038 -0.002682 0.000000 0.000000 0.000000
# 3 -0.000717 -0.002682 0.013756 0.000000 0.000000 0.000000
# 4 0.000000 0.000000 0.000000 0.031537 0.000000 0.000000
# 5 0.000000 0.000000 0.000000 0.000000 0.048131 0.000000
# 6 0.000000 0.000000 0.000000 0.000000 0.000000 0.042755
#
#
# Mechanical properties :
#
#
# Convention : Reuss Voigt Hill
#
# Bulk Modulus (GPa) = 32.88348 33.38418 33.13383
# Shear Modulus (GPa) = 26.30569 27.19646 26.75107
#
# Velocity S-wave (km/s) = 3.27167 3.32661 3.29925
# Velocity P-wave (km/s) = 5.25853 5.32345 5.29109
#
# Compressibility (1/GPa) = 0.03041041
#
# Stress axis : x y z
#
# Youngs Moduli (GPa) = 61.84870 71.23656 72.69703
#
# Poissons Ratio (x) = 0.24059 0.05212
# Poissons Ratio (y) = 0.20888 0.19494
# Poissons Ratio (z) = 0.04434 0.19102
#
# Static dielectric constant tensor:
#      x y z
#    x 1.944960 0.000000 0.000000 
#    y 0.000000 2.095280 0.000000 
#    z 0.000000 0.000000 1.994150 
# 
# From -- ./inp_files/2231.got.cif
#   From: 2010.05.17/outbox.cif.g08.bks.cpg/sg33_2_cif.got.tgz:2231.got - 2010.06.03 17:15:25.
