data_PCOD9346837
_publ_section_title
;
Structure prediction by ZEFSAII (Michael W. Deem and Ramdas Pophale) SiO2 
 PCOD9346837
Probable space group: P N A 21
;
_chemical_formula_sum "Si O2"
_cell_formula_units_Z 24
_cell_length_a 8.776652
_cell_length_b 7.709379
_cell_length_c 13.411540
_cell_angle_alpha 90.000000
_cell_angle_beta 90.000000
_cell_angle_gamma 90.000000
_cell_volume 907.458816
_symmetry_space_group_name_H-M "P N A 21"
_symmetry_group_IT_number 33
_symmetry_cell_setting 'orthorhombic'
loop_
_space_group_symop_operation_xyz
x,y,z
-x,-y,1/2+z
1/2-x,1/2+y,1/2+z
1/2+x,1/2-y,z
loop_
_atom_site_type_symbol
_atom_site_label
_atom_site_fract_x
_atom_site_fract_y
_atom_site_fract_z
Si Si1 0.632818 0.210986 0.174580
Si Si2 0.090894 0.426093 0.485961
Si Si3 0.402443 0.336973 0.033685
Si Si4 0.585455 0.113441 0.710630
Si Si5 0.644372 0.717387 0.854466
Si Si6 0.586220 0.574124 0.310303
O O1 0.551570 0.354240 0.103594
O O2 0.755271 0.124910 0.099829
O O3 0.734519 0.266433 0.268742
O O4 0.511880 0.065865 0.209610
O O5 0.089868 0.631957 0.505463
O O6 0.084476 0.335059 0.594075
O O7 0.249462 0.381144 0.433382
O O8 0.953289 0.358164 0.416088
O O9 0.389152 0.433698 0.929701
O O10 0.504979 0.253530 0.779733
O O11 0.756299 0.097424 0.751218
O O12 0.531250 0.584882 0.798973
#
# Coordination Sequence:
#
# PCOD9346837 Si02
#       6
#     4   4   4   4   4   4
#     4  11  25  45  73 108 148 198 253 313 378 449
#     4  11  26  47  71 108 151 200 253 315 379 449
#     4  11  25  48  75 106 147 197 254 314 376 449
#     4  11  25  47  75 110 151 196 251 314 380 453
#     4  12  27  45  71 108 151 197 252 312 381 452
#     4  12  26  48  77 110 150 200 251 314 380 454
#
# _framework density 26.447482000000001
#
# number of rings (size 3 to 8) (size 9 to 14) (size 15 to 20)
#    0.000    0.667    0.000    7.000    0.000   18.667 
#    0.000    0.000    0.000    0.000    0.000    0.000 
#    0.000    0.000    0.000    0.000    0.000    0.000 
#
# Total GULP energy -134591.087747 kJ/mol
# GULP energy per Si atom -5607.961989 kJ/mol
# Density = 2.638729 g / cm^3
# Si number density = 26.447482 Si / 1000 Ang^3
#
#
#
# Elastic Constant Matrix: (Units=GPa)
#
#
# Indices 1 2 3 4 5 6 
#
# 1 209.5293 34.8458 66.4830 0.0000 0.0000 0.0000
# 2 34.8458 74.1837 -6.0696 0.0000 0.0000 0.0000
# 3 66.4830 -6.0696 197.7213 0.0000 0.0000 0.0000
# 4 0.0000 0.0000 0.0000 38.0878 0.0000 0.0000
# 5 0.0000 0.0000 0.0000 0.0000 67.0413 0.0000
# 6 0.0000 0.0000 0.0000 0.0000 0.0000 35.7833
#
#
#
# Elastic Compliance Matrix: (Units=1/GPa)
#
#
# Indices 1 2 3 4 5 6 
#
# 1 0.005925 -0.002953 -0.002083 0.000000 0.000000 0.000000
# 2 -0.002953 0.014986 0.001453 0.000000 0.000000 0.000000
# 3 -0.002083 0.001453 0.005803 0.000000 0.000000 0.000000
# 4 0.000000 0.000000 0.000000 0.026255 0.000000 0.000000
# 5 0.000000 0.000000 0.000000 0.000000 0.014916 0.000000
# 6 0.000000 0.000000 0.000000 0.000000 0.000000 0.027946
#
#
# Mechanical properties :
#
#
# Convention : Reuss Voigt Hill
#
# Bulk Modulus (GPa) = 51.15801 74.66141 62.90971
# Shear Modulus (GPa) = 45.65689 53.92749 49.79219
#
# Velocity S-wave (km/s) = 4.15941 4.52047 4.34370
# Velocity P-wave (km/s) = 6.51558 7.45235 6.99966
#
# Compressibility (1/GPa) = 0.01954728
#
# Stress axis : x y z
#
# Youngs Moduli (GPa) = 168.78717 66.72812 172.33775
#
# Poissons Ratio (x) = 0.19707 0.35894
# Poissons Ratio (y) = 0.49849 -0.25042
# Poissons Ratio (z) = 0.35155 -0.09696
#
# Static dielectric constant tensor:
#      x y z
#    x 2.027920 0.000000 0.000000 
#    y 0.000000 2.174690 0.000000 
#    z 0.000000 0.000000 2.139160 
# 
# From -- ./inp_files/5744.got.cif
#   From: 2010.05.17/outbox.cif.g08.bks.cpg/sg33_3_cif.got.tgz:5744.got - 2010.06.03 17:15:25.
