data_PCOD9346224
_publ_section_title
;
Structure prediction by ZEFSAII (Michael W. Deem and Ramdas Pophale) SiO2 
 PCOD9346224
Probable space group: P N A 21
;
_chemical_formula_sum "Si O2"
_cell_formula_units_Z 28
_cell_length_a 10.322185
_cell_length_b 16.606578
_cell_length_c 7.895828
_cell_angle_alpha 90.000000
_cell_angle_beta 90.000000
_cell_angle_gamma 90.000000
_cell_volume 1353.472597
_symmetry_space_group_name_H-M "P N A 21"
_symmetry_group_IT_number 33
_symmetry_cell_setting 'orthorhombic'
loop_
_space_group_symop_operation_xyz
x,y,z
-x,-y,1/2+z
1/2-x,1/2+y,1/2+z
1/2+x,1/2-y,z
loop_
_atom_site_type_symbol
_atom_site_label
_atom_site_fract_x
_atom_site_fract_y
_atom_site_fract_z
Si Si1 0.152808 0.508431 0.683550
Si Si2 0.767752 0.818589 0.754493
Si Si3 0.602394 0.537638 0.975392
Si Si4 0.047364 0.151623 0.953074
Si Si5 0.141299 0.486541 0.079410
Si Si6 0.853283 0.879164 0.119346
Si Si7 0.820711 0.147883 0.174742
O O1 0.186848 0.603882 0.689927
O O2 0.259282 0.462560 0.570243
O O3 0.007605 0.495953 0.618636
O O4 0.163122 0.483133 0.878605
O O5 0.880656 0.810993 0.614770
O O6 0.693179 0.734977 0.755166
O O7 0.817898 0.836763 0.942791
O O8 0.573085 0.444079 0.948965
O O9 0.602957 0.589062 0.803286
O O10 0.486355 0.572951 0.086154
O O11 0.112691 0.178502 0.777329
O O12 0.896330 0.159017 0.997378
O O13 0.236157 0.557047 0.150499
O O14 0.187546 0.400815 0.151091
#
# Coordination Sequence:
#
# PCOD9346224 Si02
#       7
#     4   4   4   4   4   4   4
#     4  10  24  41  63  96 134 176 223 278 342 402
#     4  10  26  43  61  97 141 174 214 286 343 405
#     4  11  20  41  71 100 126 174 234 280 320 406
#     4  11  21  42  69  96 128 177 231 273 324 409
#     4  11  22  39  67  96 128 174 227 278 331 405
#     4  11  22  43  70  98 130 173 232 274 330 403
#     4  12  23  41  71  97 135 176 221 283 350 390
#
# _framework density 20.687525999999998
#
# number of rings (size 3 to 8) (size 9 to 14) (size 15 to 20)
#    0.000    1.143    4.286    1.714    6.000    0.000 
#    5.143    0.000    0.000    0.000    0.000    0.000 
#    0.000    0.000    0.000    0.000    0.000    0.000 
#
# Total GULP energy -156350.187036 kJ/mol
# GULP energy per Si atom -5583.935251 kJ/mol
# Density = 2.064044 g / cm^3
# Si number density = 20.687526 Si / 1000 Ang^3
#
#
#
# Elastic Constant Matrix: (Units=GPa)
#
#
# Indices 1 2 3 4 5 6 
#
# 1 125.3739 14.4991 25.9687 0.0000 0.0000 0.0000
# 2 14.4991 57.8622 24.4424 0.0000 0.0000 0.0000
# 3 25.9687 24.4424 90.9876 0.0000 0.0000 0.0000
# 4 0.0000 0.0000 0.0000 15.2219 0.0000 0.0000
# 5 0.0000 0.0000 0.0000 0.0000 37.8319 0.0000
# 6 0.0000 0.0000 0.0000 0.0000 0.0000 7.7071
#
#
#
# Elastic Compliance Matrix: (Units=1/GPa)
#
#
# Indices 1 2 3 4 5 6 
#
# 1 0.008557 -0.001255 -0.002105 0.000000 0.000000 0.000000
# 2 -0.001255 0.019679 -0.004928 0.000000 0.000000 0.000000
# 3 -0.002105 -0.004928 0.012915 0.000000 0.000000 0.000000
# 4 0.000000 0.000000 0.000000 0.065695 0.000000 0.000000
# 5 0.000000 0.000000 0.000000 0.000000 0.026433 0.000000
# 6 0.000000 0.000000 0.000000 0.000000 0.000000 0.129751
#
#
# Mechanical properties :
#
#
# Convention : Reuss Voigt Hill
#
# Bulk Modulus (GPa) = 40.69261 44.89378 42.79319
# Shear Modulus (GPa) = 17.37329 26.10640 21.73985
#
# Velocity S-wave (km/s) = 2.90107 3.55623 3.24523
# Velocity P-wave (km/s) = 5.56187 6.21373 5.89681
#
# Compressibility (1/GPa) = 0.02457449
#
# Stress axis : x y z
#
# Youngs Moduli (GPa) = 116.85883 50.81635 77.42797
#
# Poissons Ratio (x) = 0.06377 0.16300
# Poissons Ratio (y) = 0.14666 0.38158
# Poissons Ratio (z) = 0.24601 0.25043
#
# Static dielectric constant tensor:
#      x y z
#    x 1.774310 0.000000 0.000000 
#    y 0.000000 1.715470 0.000000 
#    z 0.000000 0.000000 1.809680 
# 
# From -- ./inp_files/3336.got.cif
#   From: 2010.05.17/outbox.cif.g08.bks.cpg/sg33_2_cif.got.tgz:3336.got - 2010.06.03 17:15:25.
