data_PCOD9346019
_publ_section_title
;
Structure prediction by ZEFSAII (Michael W. Deem and Ramdas Pophale) SiO2 
 PCOD9346019
Probable space group: P N A 21
;
_chemical_formula_sum "Si O2"
_cell_formula_units_Z 32
_cell_length_a 23.298248
_cell_length_b 12.245333
_cell_length_c 5.179460
_cell_angle_alpha 90.000000
_cell_angle_beta 90.000000
_cell_angle_gamma 90.000000
_cell_volume 1477.673031
_symmetry_space_group_name_H-M "P N A 21"
_symmetry_group_IT_number 33
_symmetry_cell_setting 'orthorhombic'
loop_
_space_group_symop_operation_xyz
x,y,z
-x,-y,1/2+z
1/2-x,1/2+y,1/2+z
1/2+x,1/2-y,z
loop_
_atom_site_type_symbol
_atom_site_label
_atom_site_fract_x
_atom_site_fract_y
_atom_site_fract_z
Si Si1 0.802984 0.352036 0.967000
Si Si2 0.835090 0.110201 0.029355
Si Si3 0.934194 0.859678 0.688742
Si Si4 0.545649 0.586505 0.373744
Si Si5 0.820194 0.959485 0.527028
Si Si6 0.876106 0.413804 0.459783
Si Si7 0.026535 0.443837 0.874521
Si Si8 0.014140 0.738569 0.027166
O O1 0.838503 0.384815 0.710257
O O2 0.799777 0.221502 0.004836
O O3 0.739619 0.401283 0.971028
O O4 0.837662 0.399155 0.209842
O O5 0.901421 0.148724 0.002449
O O6 0.830381 0.044055 0.293982
O O7 0.819241 0.031009 0.790103
O O8 0.872162 0.871265 0.558084
O O9 0.984537 0.897309 0.498823
O O10 0.960409 0.755273 0.835349
O O11 0.934692 0.961929 0.886774
O O12 0.539234 0.642469 0.095187
O O13 0.908228 0.531057 0.456014
O O14 0.931102 0.332645 0.448571
O O15 0.011689 0.513046 0.613033
O O16 0.010442 0.322769 0.781610
#
# Coordination Sequence:
#
# PCOD9346019 Si02
#       8
#     4   4   4   4   4   4   4   4
#     4  12  24  46  75  97 133 189 241 279 338 416
#     4  11  24  44  73  99 132 178 233 286 337 408
#     4  11  23  38  64 101 142 177 216 286 353 418
#     4  11  21  37  65  99 130 174 224 272 342 411
#     4  11  27  46  66 101 142 175 226 290 342 405
#     4  11  23  43  72 102 131 185 240 284 329 419
#     4  10  23  41  63  99 143 173 220 290 348 400
#     4  11  23  39  66 104 137 181 220 285 355 413
#
# _framework density 21.655667000000001
#
# number of rings (size 3 to 8) (size 9 to 14) (size 15 to 20)
#    0.000    1.000    2.500    4.500    8.750    0.000 
#    2.250    1.250    0.000    0.000    0.000    0.000 
#    0.000    0.000    0.000    0.000    0.000    0.000 
#
# Total GULP energy -178695.478226 kJ/mol
# GULP energy per Si atom -5584.233695 kJ/mol
# Density = 2.160638 g / cm^3
# Si number density = 21.655667 Si / 1000 Ang^3
#
#
#
# Elastic Constant Matrix: (Units=GPa)
#
#
# Indices 1 2 3 4 5 6 
#
# 1 156.4849 60.7108 43.5008 0.0000 0.0000 0.0000
# 2 60.7108 57.2680 22.9235 0.0000 0.0000 0.0000
# 3 43.5008 22.9235 121.9121 0.0000 0.0000 0.0000
# 4 0.0000 0.0000 0.0000 27.3201 0.0000 0.0000
# 5 0.0000 0.0000 0.0000 0.0000 25.2605 0.0000
# 6 0.0000 0.0000 0.0000 0.0000 0.0000 30.1521
#
#
#
# Elastic Compliance Matrix: (Units=1/GPa)
#
#
# Indices 1 2 3 4 5 6 
#
# 1 0.011254 -0.011164 -0.001917 0.000000 0.000000 0.000000
# 2 -0.011164 0.029957 -0.001649 0.000000 0.000000 0.000000
# 3 -0.001917 -0.001649 0.009197 0.000000 0.000000 0.000000
# 4 0.000000 0.000000 0.000000 0.036603 0.000000 0.000000
# 5 0.000000 0.000000 0.000000 0.000000 0.039587 0.000000
# 6 0.000000 0.000000 0.000000 0.000000 0.000000 0.033165
#
#
# Mechanical properties :
#
#
# Convention : Reuss Voigt Hill
#
# Bulk Modulus (GPa) = 47.73658 65.54834 56.64246
# Shear Modulus (GPa) = 25.48346 30.44856 27.96601
#
# Velocity S-wave (km/s) = 3.43411 3.75378 3.59750
# Velocity P-wave (km/s) = 6.14943 7.00871 6.59308
#
# Compressibility (1/GPa) = 0.02094829
#
# Stress axis : x y z
#
# Youngs Moduli (GPa) = 88.85476 33.38141 108.73501
#
# Poissons Ratio (x) = 0.37266 0.20841
# Poissons Ratio (y) = 0.99195 0.17935
# Poissons Ratio (z) = 0.17030 0.05506
#
# Static dielectric constant tensor:
#      x y z
#    x 1.777570 0.000000 0.000000 
#    y 0.000000 1.929350 0.000000 
#    z 0.000000 0.000000 1.844220 
# 
# From -- ./inp_files/2297.got.cif
#   From: 2010.05.17/outbox.cif.g08.bks.cpg/sg33_2_cif.got.tgz:2297.got - 2010.06.03 17:15:25.
