data_PCOD9346619
_publ_section_title
;
Structure prediction by ZEFSAII (Michael W. Deem and Ramdas Pophale) SiO2 
 PCOD9346619
Probable space group: P N A 21
;
_chemical_formula_sum "Si O2"
_cell_formula_units_Z 28
_cell_length_a 8.904009
_cell_length_b 22.939836
_cell_length_c 5.166169
_cell_angle_alpha 90.000000
_cell_angle_beta 90.000000
_cell_angle_gamma 90.000000
_cell_volume 1055.223630
_symmetry_space_group_name_H-M "P N A 21"
_symmetry_group_IT_number 33
_symmetry_cell_setting 'orthorhombic'
loop_
_space_group_symop_operation_xyz
x,y,z
-x,-y,1/2+z
1/2-x,1/2+y,1/2+z
1/2+x,1/2-y,z
loop_
_atom_site_type_symbol
_atom_site_label
_atom_site_fract_x
_atom_site_fract_y
_atom_site_fract_z
Si Si1 0.306536 0.531275 0.731680
Si Si2 0.071638 0.474481 0.965709
Si Si3 0.253616 0.312793 0.412177
Si Si4 0.519840 0.850767 0.225683
Si Si5 0.078005 0.770210 0.435590
Si Si6 0.154612 0.128800 0.843524
Si Si7 0.911005 0.070717 0.461290
O O1 0.229940 0.508574 0.992684
O O2 0.275026 0.589882 0.574764
O O3 0.287816 0.472861 0.566278
O O4 0.483719 0.537732 0.764762
O O5 0.051753 0.408770 0.857892
O O6 0.007453 0.516659 0.738529
O O7 0.084104 0.329041 0.489041
O O8 0.307455 0.274147 0.174400
O O9 0.330649 0.374216 0.342013
O O10 0.332264 0.287927 0.673127
O O11 0.519481 0.795241 0.413885
O O12 0.697792 0.858883 0.169574
O O13 0.936500 0.814973 0.447097
O O14 0.027337 0.094990 0.678516
#
# Coordination Sequence:
#
# PCOD9346619 Si02
#       7
#     4   4   4   4   4   4   4
#     4  12  22  42  75 106 153 206 262 323 398 493
#     4  12  28  47  72 116 161 203 256 323 414 482
#     4  11  26  50  74 110 149 202 266 325 395 484
#     4  12  26  50  77 114 156 204 265 346 403 477
#     4  11  27  50  76 105 151 208 269 324 401 488
#     4  11  24  47  72 110 153 207 266 330 405 482
#     4  11  23  42  74 107 149 204 256 321 394 486
#
# _framework density 26.534659999999999
#
# number of rings (size 3 to 8) (size 9 to 14) (size 15 to 20)
#    0.000    0.571    5.714    1.714    0.000    4.571 
#    5.143    0.000    0.000    0.000    0.000    0.000 
#    0.000    0.000    0.000    0.000    0.000    0.000 
#
# Total GULP energy -156683.756870 kJ/mol
# GULP energy per Si atom -5595.848460 kJ/mol
# Density = 2.647427 g / cm^3
# Si number density = 26.534660 Si / 1000 Ang^3
#
#
#
# Elastic Constant Matrix: (Units=GPa)
#
#
# Indices 1 2 3 4 5 6 
#
# 1 138.0601 34.8857 53.2153 0.0000 0.0000 0.0000
# 2 34.8857 154.2897 33.1098 0.0000 0.0000 0.0000
# 3 53.2153 33.1098 101.1307 0.0000 0.0000 0.0000
# 4 0.0000 0.0000 0.0000 25.9468 0.0000 0.0000
# 5 0.0000 0.0000 0.0000 0.0000 44.0872 0.0000
# 6 0.0000 0.0000 0.0000 0.0000 0.0000 33.5120
#
#
#
# Elastic Compliance Matrix: (Units=1/GPa)
#
#
# Indices 1 2 3 4 5 6 
#
# 1 0.009265 -0.001128 -0.004506 0.000000 0.000000 0.000000
# 2 -0.001128 0.007108 -0.001734 0.000000 0.000000 0.000000
# 3 -0.004506 -0.001734 0.012827 0.000000 0.000000 0.000000
# 4 0.000000 0.000000 0.000000 0.038540 0.000000 0.000000
# 5 0.000000 0.000000 0.000000 0.000000 0.022682 0.000000
# 6 0.000000 0.000000 0.000000 0.000000 0.000000 0.029840
#
#
# Mechanical properties :
#
#
# Convention : Reuss Voigt Hill
#
# Bulk Modulus (GPa) = 69.13247 70.65579 69.89413
# Shear Modulus (GPa) = 35.76019 38.86051 37.31035
#
# Velocity S-wave (km/s) = 3.67506 3.83105 3.75387
# Velocity P-wave (km/s) = 6.64216 6.80109 6.72209
#
# Compressibility (1/GPa) = 0.01446498
#
# Stress axis : x y z
#
# Youngs Moduli (GPa) = 107.93218 140.67874 77.96109
#
# Poissons Ratio (x) = 0.15867 0.35130
# Poissons Ratio (y) = 0.12174 0.13517
# Poissons Ratio (z) = 0.48635 0.24390
#
# Static dielectric constant tensor:
#      x y z
#    x 2.176490 0.000000 0.000000 
#    y 0.000000 2.051530 0.000000 
#    z 0.000000 0.000000 2.160430 
# 
# From -- ./inp_files/493.got.cif
#   From: 2010.05.17/outbox.cif.g08.bks.cpg/sg33_1_cif.got.tgz:493.got - 2010.06.03 17:15:25.
