data_PCOD9346818
_publ_section_title
;
Structure prediction by ZEFSAII (Michael W. Deem and Ramdas Pophale) SiO2 
 PCOD9346818
Probable space group: P N A 21
;
_chemical_formula_sum "Si O2"
_cell_formula_units_Z 24
_cell_length_a 13.899030
_cell_length_b 7.086686
_cell_length_c 9.857345
_cell_angle_alpha 90.000000
_cell_angle_beta 90.000000
_cell_angle_gamma 90.000000
_cell_volume 970.929372
_symmetry_space_group_name_H-M "P N A 21"
_symmetry_group_IT_number 33
_symmetry_cell_setting 'orthorhombic'
loop_
_space_group_symop_operation_xyz
x,y,z
-x,-y,1/2+z
1/2-x,1/2+y,1/2+z
1/2+x,1/2-y,z
loop_
_atom_site_type_symbol
_atom_site_label
_atom_site_fract_x
_atom_site_fract_y
_atom_site_fract_z
Si Si1 0.474602 0.130901 0.969740
Si Si2 0.893535 0.307092 0.551935
Si Si3 0.200502 0.546260 0.307799
Si Si4 0.740145 0.363147 0.313358
Si Si5 0.570705 0.452133 0.508718
Si Si6 0.359711 0.786936 0.261271
O O1 0.380076 0.021653 0.920921
O O2 0.541330 0.173281 0.838660
O O3 0.443851 0.326831 0.035590
O O4 0.539645 0.993559 0.057363
O O5 0.843475 0.310734 0.697079
O O6 0.810015 0.327461 0.441945
O O7 0.965182 0.142308 0.505243
O O8 0.224944 0.341643 0.247031
O O9 0.293670 0.657291 0.359382
O O10 0.637715 0.431002 0.375187
O O11 0.800989 0.520623 0.233572
O O12 0.621935 0.341317 0.630852
#
# Coordination Sequence:
#
# PCOD9346818 Si02
#       6
#     4   4   4   4   4   4
#     4  11  25  43  69 102 141 179 235 295 356 422
#     4  11  25  45  67 105 137 184 237 288 355 429
#     4  12  23  44  72 100 138 186 235 284 354 431
#     4  11  25  45  69 100 144 184 231 296 354 421
#     4  12  23  44  72  98 143 180 231 299 353 423
#     4  11  25  45  67 103 139 183 239 286 358 426
#
# _framework density 24.718584
#
# number of rings (size 3 to 8) (size 9 to 14) (size 15 to 20)
#    0.000    0.667    6.667    1.000    0.000    4.000 
#    6.000    0.000    0.000    0.000    0.000    0.000 
#    0.000    0.000    0.000    0.000    0.000    0.000 
#
# Total GULP energy -134369.658735 kJ/mol
# GULP energy per Si atom -5598.735781 kJ/mol
# Density = 2.466232 g / cm^3
# Si number density = 24.718584 Si / 1000 Ang^3
#
#
#
# Elastic Constant Matrix: (Units=GPa)
#
#
# Indices 1 2 3 4 5 6 
#
# 1 112.0951 43.8345 19.3566 0.0000 0.0000 0.0000
# 2 43.8345 138.0645 13.2738 0.0000 0.0000 0.0000
# 3 19.3566 13.2738 52.7618 0.0000 0.0000 0.0000
# 4 0.0000 0.0000 0.0000 27.9867 0.0000 0.0000
# 5 0.0000 0.0000 0.0000 0.0000 25.5583 0.0000
# 6 0.0000 0.0000 0.0000 0.0000 0.0000 51.0818
#
#
#
# Elastic Compliance Matrix: (Units=1/GPa)
#
#
# Indices 1 2 3 4 5 6 
#
# 1 0.010670 -0.003086 -0.003138 0.000000 0.000000 0.000000
# 2 -0.003086 0.008315 -0.000960 0.000000 0.000000 0.000000
# 3 -0.003138 -0.000960 0.020346 0.000000 0.000000 0.000000
# 4 0.000000 0.000000 0.000000 0.035731 0.000000 0.000000
# 5 0.000000 0.000000 0.000000 0.000000 0.039126 0.000000
# 6 0.000000 0.000000 0.000000 0.000000 0.000000 0.019576
#
#
# Mechanical properties :
#
#
# Convention : Reuss Voigt Hill
#
# Bulk Modulus (GPa) = 40.05902 50.65011 45.35457
# Shear Modulus (GPa) = 31.95858 36.02248 33.99053
#
# Velocity S-wave (km/s) = 3.59959 3.82161 3.71226
# Velocity P-wave (km/s) = 5.78941 6.32519 6.06322
#
# Compressibility (1/GPa) = 0.02496317
#
# Stress axis : x y z
#
# Youngs Moduli (GPa) = 93.72456 120.26471 49.15017
#
# Poissons Ratio (x) = 0.37111 0.15423
# Poissons Ratio (y) = 0.28922 0.04717
# Poissons Ratio (z) = 0.29411 0.11543
#
# Static dielectric constant tensor:
#      x y z
#    x 1.969100 0.000000 0.000000 
#    y 0.000000 1.954890 0.000000 
#    z 0.000000 0.000000 1.920350 
# 
# From -- ./inp_files/6616.got.cif
#   From: 2010.05.17/outbox.cif.g08.bks.cpg/sg33_4_cif.got.tgz:6616.got - 2010.06.03 17:15:25.
