data_PCOD9346750
_publ_section_title
;
Structure prediction by ZEFSAII (Michael W. Deem and Ramdas Pophale) SiO2 
 PCOD9346750
Probable space group: P N A 21
;
_chemical_formula_sum "Si O2"
_cell_formula_units_Z 32
_cell_length_a 13.616860
_cell_length_b 8.685713
_cell_length_c 11.989518
_cell_angle_alpha 90.000000
_cell_angle_beta 90.000000
_cell_angle_gamma 90.000000
_cell_volume 1418.025927
_symmetry_space_group_name_H-M "P N A 21"
_symmetry_group_IT_number 33
_symmetry_cell_setting 'orthorhombic'
loop_
_space_group_symop_operation_xyz
x,y,z
-x,-y,1/2+z
1/2-x,1/2+y,1/2+z
1/2+x,1/2-y,z
loop_
_atom_site_type_symbol
_atom_site_label
_atom_site_fract_x
_atom_site_fract_y
_atom_site_fract_z
Si Si1 0.397514 0.015556 0.972540
Si Si2 0.088205 0.045576 0.854434
Si Si3 0.620364 0.482863 0.262438
Si Si4 0.688755 0.647597 0.465842
Si Si5 0.352854 0.840862 0.753725
Si Si6 0.582096 0.176773 0.016984
Si Si7 0.795401 0.131243 0.545108
Si Si8 0.708212 0.425666 0.643562
O O1 0.352707 0.185023 0.993328
O O2 0.511001 0.032119 0.000904
O O3 0.394051 0.953310 0.846665
O O4 0.320692 0.909929 0.038123
O O5 0.053095 0.178060 0.940416
O O6 0.145392 0.127073 0.750756
O O7 0.993504 0.969266 0.797086
O O8 0.154643 0.925595 0.928080
O O9 0.663030 0.617386 0.338818
O O10 0.674052 0.325885 0.300124
O O11 0.647911 0.530515 0.137499
O O12 0.805875 0.648398 0.481407
O O13 0.648945 0.507794 0.543011
O O14 0.421598 0.795202 0.649492
O O15 0.264013 0.930142 0.698572
O O16 0.785855 0.305774 0.590394
#
# Coordination Sequence:
#
# PCOD9346750 Si02
#       8
#     4   4   4   4   4   4   4   4
#     4  12  24  47  73 101 151 194 253 314 372 455
#     4  12  25  46  77 111 153 200 257 313 388 457
#     4  12  26  43  78 106 151 199 253 309 394 450
#     4  11  24  46  72 106 148 197 250 310 385 437
#     4  11  24  47  67 108 142 192 249 311 373 448
#     4  11  24  45  71 107 145 193 253 312 380 447
#     4  12  25  50  75 111 150 204 249 317 382 458
#     4  11  26  46  77 104 154 197 254 316 376 456
#
# _framework density 22.566583999999999
#
# number of rings (size 3 to 8) (size 9 to 14) (size 15 to 20)
#    0.000    0.500    5.000    3.000    3.500    4.000 
#    2.250    0.000    0.000    0.000    0.000    0.000 
#    0.000    0.000    0.000    0.000    0.000    0.000 
#
# Total GULP energy -178520.283871 kJ/mol
# GULP energy per Si atom -5578.758871 kJ/mol
# Density = 2.251522 g / cm^3
# Si number density = 22.566584 Si / 1000 Ang^3
#
#
#
# Elastic Constant Matrix: (Units=GPa)
#
#
# Indices 1 2 3 4 5 6 
#
# 1 73.0149 24.1179 23.1042 0.0000 0.0000 0.0000
# 2 24.1179 18.1303 8.3388 0.0000 0.0000 0.0000
# 3 23.1042 8.3388 124.0373 0.0000 0.0000 0.0000
# 4 0.0000 0.0000 0.0000 41.9298 0.0000 0.0000
# 5 0.0000 0.0000 0.0000 0.0000 27.5638 0.0000
# 6 0.0000 0.0000 0.0000 0.0000 0.0000 27.6540
#
#
#
# Elastic Compliance Matrix: (Units=1/GPa)
#
#
# Indices 1 2 3 4 5 6 
#
# 1 0.025169 -0.032324 -0.002515 0.000000 0.000000 0.000000
# 2 -0.032324 0.098430 -0.000596 0.000000 0.000000 0.000000
# 3 -0.002515 -0.000596 0.008571 0.000000 0.000000 0.000000
# 4 0.000000 0.000000 0.000000 0.023849 0.000000 0.000000
# 5 0.000000 0.000000 0.000000 0.000000 0.036279 0.000000
# 6 0.000000 0.000000 0.000000 0.000000 0.000000 0.036161
#
#
# Mechanical properties :
#
#
# Convention : Reuss Voigt Hill
#
# Bulk Modulus (GPa) = 16.31371 36.25606 26.28488
# Shear Modulus (GPa) = 15.63659 30.07096 22.85378
#
# Velocity S-wave (km/s) = 2.63517 3.65436 3.18579
# Velocity P-wave (km/s) = 4.06247 5.82297 5.02049
#
# Compressibility (1/GPa) = 0.06129815
#
# Stress axis : x y z
#
# Youngs Moduli (GPa) = 39.73172 10.15954 116.67721
#
# Poissons Ratio (x) = 0.32840 0.29345
# Poissons Ratio (y) = 1.28429 0.06958
# Poissons Ratio (z) = 0.09993 0.00606
#
# Static dielectric constant tensor:
#      x y z
#    x 1.873100 0.000000 0.000000 
#    y 0.000000 1.915310 0.000000 
#    z 0.000000 0.000000 1.989410 
# 
# From -- ./inp_files/6759.got.cif
#   From: 2010.05.17/outbox.cif.g08.bks.cpg/sg33_4_cif.got.tgz:6759.got - 2010.06.03 17:15:25.
