data_PCOD9346954
_publ_section_title
;
Structure prediction by ZEFSAII (Michael W. Deem and Ramdas Pophale) SiO2 
 PCOD9346954
Probable space group: P N A 21
;
_chemical_formula_sum "Si O2"
_cell_formula_units_Z 24
_cell_length_a 8.460226
_cell_length_b 9.487705
_cell_length_c 13.424931
_cell_angle_alpha 90.000000
_cell_angle_beta 90.000000
_cell_angle_gamma 90.000000
_cell_volume 1077.594087
_symmetry_space_group_name_H-M "P N A 21"
_symmetry_group_IT_number 33
_symmetry_cell_setting 'orthorhombic'
loop_
_space_group_symop_operation_xyz
x,y,z
-x,-y,1/2+z
1/2-x,1/2+y,1/2+z
1/2+x,1/2-y,z
loop_
_atom_site_type_symbol
_atom_site_label
_atom_site_fract_x
_atom_site_fract_y
_atom_site_fract_z
Si Si1 0.411569 0.929612 0.299730
Si Si2 0.609802 0.975875 0.580495
Si Si3 0.420877 0.330947 0.871296
Si Si4 0.570390 0.294748 0.082581
Si Si5 0.395588 0.835997 0.884710
Si Si6 0.939871 0.098220 0.293385
O O1 0.552359 0.827632 0.333779
O O2 0.258612 0.873846 0.355978
O O3 0.383676 0.937642 0.182596
O O4 0.458112 0.085423 0.332310
O O5 0.454002 0.875320 0.579599
O O6 0.755756 0.864437 0.577382
O O7 0.620059 0.086894 0.490525
O O8 0.520196 0.654501 0.483837
O O9 0.527342 0.433120 0.803523
O O10 0.492524 0.347706 0.185315
O O11 0.445653 0.673744 0.875327
O O12 0.238553 0.864628 0.821361
#
# Coordination Sequence:
#
# PCOD9346954 Si02
#       6
#     4   4   4   4   4   4
#     4  12  26  46  71 111 143 189 244 305 357 435
#     4  12  26  45  75 106 148 190 252 294 372 435
#     4  12  25  46  75 106 145 186 244 304 361 432
#     4  12  24  47  77 102 140 200 238 290 372 437
#     4  12  26  46  71 111 143 189 244 305 357 435
#     4  12  25  46  75 106 145 186 244 304 361 432
#
# _framework density 22.271839
#
# number of rings (size 3 to 8) (size 9 to 14) (size 15 to 20)
#    0.000    0.000    6.667    4.000    0.000    2.667 
#    0.000    0.000    0.000    0.000    0.000    0.000 
#    0.000    0.000    0.000    0.000    0.000    0.000 
#
# Total GULP energy -134349.856942 kJ/mol
# GULP energy per Si atom -5597.910706 kJ/mol
# Density = 2.222115 g / cm^3
# Si number density = 22.271839 Si / 1000 Ang^3
#
#
#
# Elastic Constant Matrix: (Units=GPa)
#
#
# Indices 1 2 3 4 5 6 
#
# 1 87.1160 -1.8771 20.5622 0.0000 0.0000 0.0000
# 2 -1.8771 61.2177 21.6842 0.0000 0.0000 0.0000
# 3 20.5622 21.6842 151.1005 0.0000 0.0000 0.0000
# 4 0.0000 0.0000 0.0000 28.4489 0.0000 0.0000
# 5 0.0000 0.0000 0.0000 0.0000 20.1153 0.0000
# 6 0.0000 0.0000 0.0000 0.0000 0.0000 39.3871
#
#
#
# Elastic Compliance Matrix: (Units=1/GPa)
#
#
# Indices 1 2 3 4 5 6 
#
# 1 0.011917 0.000990 -0.001764 0.000000 0.000000 0.000000
# 2 0.000990 0.017292 -0.002616 0.000000 0.000000 0.000000
# 3 -0.001764 -0.002616 0.007234 0.000000 0.000000 0.000000
# 4 0.000000 0.000000 0.000000 0.035151 0.000000 0.000000
# 5 0.000000 0.000000 0.000000 0.000000 0.049714 0.000000
# 6 0.000000 0.000000 0.000000 0.000000 0.000000 0.025389
#
#
# Mechanical properties :
#
#
# Convention : Reuss Voigt Hill
#
# Bulk Modulus (GPa) = 33.71253 42.24143 37.97698
# Shear Modulus (GPa) = 30.60667 34.86125 32.73396
#
# Velocity S-wave (km/s) = 3.71109 3.96063 3.83789
# Velocity P-wave (km/s) = 5.79073 6.31846 6.06034
#
# Compressibility (1/GPa) = 0.02966256
#
# Stress axis : x y z
#
# Youngs Moduli (GPa) = 83.91668 57.82944 138.24396
#
# Poissons Ratio (x) = -0.05726 0.24383
# Poissons Ratio (y) = -0.08309 0.36169
# Poissons Ratio (z) = 0.14801 0.15130
#
# Static dielectric constant tensor:
#      x y z
#    x 1.845870 0.000000 0.000000 
#    y 0.000000 1.782510 0.000000 
#    z 0.000000 0.000000 1.798300 
# 
# From -- ./inp_files/7549.got.cif
#   From: 2010.05.17/outbox.cif.g08.bks.cpg/sg33_4_cif.got.tgz:7549.got - 2010.06.03 17:15:25.
