data_PCOD9346538
_publ_section_title
;
Structure prediction by ZEFSAII (Michael W. Deem and Ramdas Pophale) SiO2 
 PCOD9346538
Probable space group: P N A 21
;
_chemical_formula_sum "Si O2"
_cell_formula_units_Z 32
_cell_length_a 24.054610
_cell_length_b 6.884738
_cell_length_c 8.549124
_cell_angle_alpha 90.000000
_cell_angle_beta 90.000000
_cell_angle_gamma 90.000000
_cell_volume 1415.817754
_symmetry_space_group_name_H-M "P N A 21"
_symmetry_group_IT_number 33
_symmetry_cell_setting 'orthorhombic'
loop_
_space_group_symop_operation_xyz
x,y,z
-x,-y,1/2+z
1/2-x,1/2+y,1/2+z
1/2+x,1/2-y,z
loop_
_atom_site_type_symbol
_atom_site_label
_atom_site_fract_x
_atom_site_fract_y
_atom_site_fract_z
Si Si1 0.529030 0.663659 0.418760
Si Si2 0.343273 0.667607 0.359884
Si Si3 0.653148 0.558524 0.156033
Si Si4 0.925444 0.744853 0.614244
Si Si5 0.603581 0.009739 0.422465
Si Si6 0.738135 0.865917 0.175690
Si Si7 0.787538 0.728864 0.858718
Si Si8 0.556712 0.318926 0.636041
O O1 0.486255 0.759137 0.544043
O O2 0.585266 0.787563 0.415731
O O3 0.542060 0.453590 0.489058
O O4 0.492371 0.674800 0.262066
O O5 0.329446 0.490521 0.476931
O O6 0.239685 0.410665 0.228509
O O7 0.387329 0.610587 0.225786
O O8 0.286106 0.735173 0.282224
O O9 0.677846 0.766775 0.196932
O O10 0.590739 0.471089 0.154366
O O11 0.682722 0.402814 0.267655
O O12 0.917627 0.609096 0.761851
O O13 0.879316 0.696300 0.478663
O O14 0.571430 0.109569 0.566997
O O15 0.666804 0.083279 0.436182
O O16 0.753911 0.826968 0.997483
#
# Coordination Sequence:
#
# PCOD9346538 Si02
#       8
#     4   4   4   4   4   4   4   4
#     4  11  23  40  67  95 122 177 215 261 343 394
#     4   9  20  41  63  89 128 173 207 278 325 375
#     4   9  22  42  65  91 132 173 212 280 318 390
#     4   8  19  41  63  89 130 165 213 271 325 381
#     4  11  22  41  62  97 125 169 213 277 323 396
#     4  12  22  43  65  99 130 179 220 265 340 398
#     4  11  25  39  67  96 131 170 226 267 336 395
#     4  11  23  41  64  90 134 164 218 277 324 401
#
# _framework density 22.601777999999999
#
# number of rings (size 3 to 8) (size 9 to 14) (size 15 to 20)
#    0.750    1.000    2.500    1.500    1.750    3.000 
#    2.250    1.250    0.000    0.000    0.000    0.000 
#    0.000    0.000    0.000    0.000    0.000    0.000 
#
# Total GULP energy -178467.036998 kJ/mol
# GULP energy per Si atom -5577.094906 kJ/mol
# Density = 2.255033 g / cm^3
# Si number density = 22.601778 Si / 1000 Ang^3
#
#
#
# Elastic Constant Matrix: (Units=GPa)
#
#
# Indices 1 2 3 4 5 6 
#
# 1 65.5299 -10.8959 24.5299 0.0000 0.0000 0.0000
# 2 -10.8959 34.6489 14.7039 0.0000 0.0000 0.0000
# 3 24.5299 14.7039 86.7494 0.0000 0.0000 0.0000
# 4 0.0000 0.0000 0.0000 23.0387 0.0000 0.0000
# 5 0.0000 0.0000 0.0000 0.0000 35.3690 0.0000
# 6 0.0000 0.0000 0.0000 0.0000 0.0000 24.3081
#
#
#
# Elastic Compliance Matrix: (Units=1/GPa)
#
#
# Indices 1 2 3 4 5 6 
#
# 1 0.019400 0.009082 -0.007025 0.000000 0.000000 0.000000
# 2 0.009082 0.035349 -0.008560 0.000000 0.000000 0.000000
# 3 -0.007025 -0.008560 0.014965 0.000000 0.000000 0.000000
# 4 0.000000 0.000000 0.000000 0.043405 0.000000 0.000000
# 5 0.000000 0.000000 0.000000 0.000000 0.028273 0.000000
# 6 0.000000 0.000000 0.000000 0.000000 0.000000 0.041139
#
#
# Mechanical properties :
#
#
# Convention : Reuss Voigt Hill
#
# Bulk Modulus (GPa) = 17.63411 27.06712 22.35062
# Shear Modulus (GPa) = 23.31656 27.11583 25.21619
#
# Velocity S-wave (km/s) = 3.21538 3.46746 3.34379
# Velocity P-wave (km/s) = 4.64800 5.29459 4.98179
#
# Compressibility (1/GPa) = 0.05670826
#
# Stress axis : x y z
#
# Youngs Moduli (GPa) = 51.54644 28.28906 66.82365
#
# Poissons Ratio (x) = -0.25692 0.46944
# Poissons Ratio (y) = -0.46814 0.57199
# Poissons Ratio (z) = 0.36212 0.24215
#
# Static dielectric constant tensor:
#      x y z
#    x 1.888210 0.000000 0.000000 
#    y 0.000000 1.849790 0.000000 
#    z 0.000000 0.000000 1.864370 
# 
# From -- ./inp_files/5200.got.cif
#   From: 2010.05.17/outbox.cif.g08.bks.cpg/sg33_3_cif.got.tgz:5200.got - 2010.06.03 17:15:25.
