data_PCOD9346309
_publ_section_title
;
Structure prediction by ZEFSAII (Michael W. Deem and Ramdas Pophale) SiO2 
 PCOD9346309
Probable space group: P N A 21
;
_chemical_formula_sum "Si O2"
_cell_formula_units_Z 24
_cell_length_a 7.416321
_cell_length_b 12.953696
_cell_length_c 10.887514
_cell_angle_alpha 90.000000
_cell_angle_beta 90.000000
_cell_angle_gamma 90.000000
_cell_volume 1045.950053
_symmetry_space_group_name_H-M "P N A 21"
_symmetry_group_IT_number 33
_symmetry_cell_setting 'orthorhombic'
loop_
_space_group_symop_operation_xyz
x,y,z
-x,-y,1/2+z
1/2-x,1/2+y,1/2+z
1/2+x,1/2-y,z
loop_
_atom_site_type_symbol
_atom_site_label
_atom_site_fract_x
_atom_site_fract_y
_atom_site_fract_z
Si Si1 0.951459 0.872771 0.889610
Si Si2 0.100975 0.382922 0.690178
Si Si3 0.425260 0.402480 0.965722
Si Si4 0.177776 0.738387 0.047481
Si Si5 0.228616 0.102118 0.148995
Si Si6 0.980278 0.673933 0.450487
O O1 0.843398 0.836942 0.768236
O O2 0.954383 0.996804 0.882285
O O3 0.832814 0.839227 0.006106
O O4 0.133434 0.815658 0.933218
O O5 0.271713 0.306092 0.668040
O O6 0.166703 0.498520 0.682057
O O7 0.991424 0.373702 0.816207
O O8 0.981450 0.340695 0.579046
O O9 0.215170 0.374179 0.986119
O O10 0.520085 0.296292 0.924794
O O11 0.540727 0.428781 0.085461
O O12 0.368171 0.156131 0.054314
#
# Coordination Sequence:
#
# PCOD9346309 Si02
#       6
#     4   4   4   4   4   4
#     4  11  25  47  69 102 147 184 244 297 368 440
#     4  11  23  46  70 101 141 187 243 293 363 445
#     4  12  25  47  69 108 143 192 241 297 374 437
#     4  10  24  44  72 102 139 193 234 300 365 447
#     4  12  27  46  71 107 145 190 241 306 371 437
#     4  12  26  46  73 108 145 188 249 305 367 440
#
# _framework density 22.945647999999998
#
# number of rings (size 3 to 8) (size 9 to 14) (size 15 to 20)
#    0.000    0.667    5.000    2.000    2.333    0.000 
#    6.000    0.000    0.000    0.000    0.000    0.000 
#    0.000    0.000    0.000    0.000    0.000    0.000 
#
# Total GULP energy -133750.510288 kJ/mol
# GULP energy per Si atom -5572.937929 kJ/mol
# Density = 2.289342 g / cm^3
# Si number density = 22.945648 Si / 1000 Ang^3
#
#
#
# Elastic Constant Matrix: (Units=GPa)
#
#
# Indices 1 2 3 4 5 6 
#
# 1 46.5400 -7.0600 -1.1570 0.0000 0.0000 0.0000
# 2 -7.0600 74.5613 17.2176 0.0000 0.0000 0.0000
# 3 -1.1570 17.2176 71.5589 0.0000 0.0000 0.0000
# 4 0.0000 0.0000 0.0000 26.2903 0.0000 0.0000
# 5 0.0000 0.0000 0.0000 0.0000 46.0983 0.0000
# 6 0.0000 0.0000 0.0000 0.0000 0.0000 18.1676
#
#
#
# Elastic Compliance Matrix: (Units=1/GPa)
#
#
# Indices 1 2 3 4 5 6 
#
# 1 0.021802 0.002100 -0.000153 0.000000 0.000000 0.000000
# 2 0.002100 0.014403 -0.003432 0.000000 0.000000 0.000000
# 3 -0.000153 -0.003432 0.014798 0.000000 0.000000 0.000000
# 4 0.000000 0.000000 0.000000 0.038037 0.000000 0.000000
# 5 0.000000 0.000000 0.000000 0.000000 0.021693 0.000000
# 6 0.000000 0.000000 0.000000 0.000000 0.000000 0.055043
#
#
# Mechanical properties :
#
#
# Convention : Reuss Voigt Hill
#
# Bulk Modulus (GPa) = 20.81902 23.40684 22.11293
# Shear Modulus (GPa) = 27.06283 30.35520 28.70901
#
# Velocity S-wave (km/s) = 3.43801 3.64114 3.54103
# Velocity P-wave (km/s) = 4.98526 5.28208 5.13581
#
# Compressibility (1/GPa) = 0.04803301
#
# Stress axis : x y z
#
# Youngs Moduli (GPa) = 45.86822 69.42998 67.57810
#
# Poissons Ratio (x) = -0.14577 0.01032
# Poissons Ratio (y) = -0.09630 0.23190
# Poissons Ratio (z) = 0.00700 0.23825
#
# Static dielectric constant tensor:
#      x y z
#    x 2.054600 0.000000 0.000000 
#    y 0.000000 1.908000 0.000000 
#    z 0.000000 0.000000 1.923690 
# 
# From -- ./inp_files/5805.got.cif
#   From: 2010.05.17/outbox.cif.g08.bks.cpg/sg33_3_cif.got.tgz:5805.got - 2010.06.03 17:15:25.
