data_PCOD9346138
_publ_section_title
;
Structure prediction by ZEFSAII (Michael W. Deem and Ramdas Pophale) SiO2 
 PCOD9346138
Probable space group: P N A 21
;
_chemical_formula_sum "Si O2"
_cell_formula_units_Z 28
_cell_length_a 10.811937
_cell_length_b 6.697737
_cell_length_c 15.882818
_cell_angle_alpha 90.000000
_cell_angle_beta 90.000000
_cell_angle_gamma 90.000000
_cell_volume 1150.162373
_symmetry_space_group_name_H-M "P N A 21"
_symmetry_group_IT_number 33
_symmetry_cell_setting 'orthorhombic'
loop_
_space_group_symop_operation_xyz
x,y,z
-x,-y,1/2+z
1/2-x,1/2+y,1/2+z
1/2+x,1/2-y,z
loop_
_atom_site_type_symbol
_atom_site_label
_atom_site_fract_x
_atom_site_fract_y
_atom_site_fract_z
Si Si1 0.774378 0.881334 0.944200
Si Si2 0.984871 0.059688 0.059453
Si Si3 0.591490 0.206822 0.907146
Si Si4 0.893443 0.554826 0.834287
Si Si5 0.129887 0.701884 0.103664
Si Si6 0.707899 0.256009 0.748690
Si Si7 0.937662 0.396025 0.183526
O O1 0.804334 0.714517 0.876241
O O2 0.720077 0.085864 0.907265
O O3 0.669015 0.807180 0.007387
O O4 0.894203 0.935139 0.999073
O O5 0.913504 0.216050 0.119679
O O6 0.068082 0.916938 0.117446
O O7 0.073557 0.170141 0.991556
O O8 0.598101 0.311913 0.814769
O O9 0.482285 0.046033 0.902611
O O10 0.822857 0.367151 0.793463
O O11 0.978115 0.660062 0.763791
O O12 0.256537 0.667376 0.155370
O O13 0.025955 0.544950 0.130239
O O14 0.673650 0.026215 0.723608
#
# Coordination Sequence:
#
# PCOD9346138 Si02
#       7
#     4   4   4   4   4   4   4
#     4  12  25  44  74 108 141 205 245 307 384 444
#     4  12  26  43  74 105 153 192 247 315 368 447
#     4  11  24  45  68 105 145 188 249 305 368 448
#     4  10  24  47  71 105 147 187 249 305 368 448
#     4  11  24  44  69 106 143 192 245 304 368 451
#     4  10  23  44  74  99 144 192 237 307 374 439
#     4  10  24  47  68 110 147 188 248 303 372 451
#
# _framework density 24.344389
#
# number of rings (size 3 to 8) (size 9 to 14) (size 15 to 20)
#    0.000    1.143    1.429    3.429    6.000    0.000 
#   15.429    0.000    0.000    0.000    0.000    0.000 
#    0.000    0.000    0.000    0.000    0.000    0.000 
#
# Total GULP energy -156248.922372 kJ/mol
# GULP energy per Si atom -5580.318656 kJ/mol
# Density = 2.428898 g / cm^3
# Si number density = 24.344389 Si / 1000 Ang^3
#
#
#
# Elastic Constant Matrix: (Units=GPa)
#
#
# Indices 1 2 3 4 5 6 
#
# 1 67.1646 28.5797 23.8914 0.0000 0.0000 0.0000
# 2 28.5797 71.0543 43.5181 0.0000 0.0000 0.0000
# 3 23.8914 43.5181 91.4377 0.0000 0.0000 0.0000
# 4 0.0000 0.0000 0.0000 34.6126 0.0000 0.0000
# 5 0.0000 0.0000 0.0000 0.0000 33.4459 0.0000
# 6 0.0000 0.0000 0.0000 0.0000 0.0000 47.9161
#
#
#
# Elastic Compliance Matrix: (Units=1/GPa)
#
#
# Indices 1 2 3 4 5 6 
#
# 1 0.018169 -0.006211 -0.001791 0.000000 0.000000 0.000000
# 2 -0.006211 0.021987 -0.008841 0.000000 0.000000 0.000000
# 3 -0.001791 -0.008841 0.015612 0.000000 0.000000 0.000000
# 4 0.000000 0.000000 0.000000 0.028891 0.000000 0.000000
# 5 0.000000 0.000000 0.000000 0.000000 0.029899 0.000000
# 6 0.000000 0.000000 0.000000 0.000000 0.000000 0.020870
#
#
# Mechanical properties :
#
#
# Convention : Reuss Voigt Hill
#
# Bulk Modulus (GPa) = 45.28798 46.84832 46.06815
# Shear Modulus (GPa) = 28.33250 32.10608 30.21929
#
# Velocity S-wave (km/s) = 3.41518 3.63551 3.52707
# Velocity P-wave (km/s) = 5.84763 6.07522 5.96251
#
# Compressibility (1/GPa) = 0.02208091
#
# Stress axis : x y z
#
# Youngs Moduli (GPa) = 55.03946 45.48151 64.05169
#
# Poissons Ratio (x) = 0.28248 0.11474
# Poissons Ratio (y) = 0.34184 0.56631
# Poissons Ratio (z) = 0.09859 0.40212
#
# Static dielectric constant tensor:
#      x y z
#    x 1.899680 0.000000 0.000000 
#    y 0.000000 1.958900 0.000000 
#    z 0.000000 0.000000 2.025030 
# 
# From -- ./inp_files/8641.got.cif
#   From: 2010.05.17/outbox.cif.g08.bks.cpg/sg33_5_cif.got.tgz:8641.got - 2010.06.03 17:15:25.
