data_PCOD9346343
_publ_section_title
;
Structure prediction by ZEFSAII (Michael W. Deem and Ramdas Pophale) SiO2 
 PCOD9346343
Probable space group: P N A 21
;
_chemical_formula_sum "Si O2"
_cell_formula_units_Z 32
_cell_length_a 9.575628
_cell_length_b 6.990487
_cell_length_c 18.411248
_cell_angle_alpha 90.000000
_cell_angle_beta 90.000000
_cell_angle_gamma 90.000000
_cell_volume 1232.417698
_symmetry_space_group_name_H-M "P N A 21"
_symmetry_group_IT_number 33
_symmetry_cell_setting 'orthorhombic'
loop_
_space_group_symop_operation_xyz
x,y,z
-x,-y,1/2+z
1/2-x,1/2+y,1/2+z
1/2+x,1/2-y,z
loop_
_atom_site_type_symbol
_atom_site_label
_atom_site_fract_x
_atom_site_fract_y
_atom_site_fract_z
Si Si1 0.882989 0.264116 0.800680
Si Si2 0.939296 0.521678 0.496619
Si Si3 0.715254 0.994392 0.411684
Si Si4 0.482348 0.521234 0.185023
Si Si5 0.384172 0.868672 0.118193
Si Si6 0.931038 0.380148 0.254295
Si Si7 0.289291 0.586795 0.875744
Si Si8 0.127803 0.073229 0.043302
O O1 0.752549 0.373633 0.838597
O O2 0.903072 0.158488 0.723999
O O3 0.892098 0.086945 0.857460
O O4 0.980935 0.452314 0.794922
O O5 0.827131 0.459669 0.436598
O O6 0.863742 0.697792 0.536775
O O7 0.083949 0.593058 0.457631
O O8 0.993916 0.367838 0.556326
O O9 0.656271 0.206624 0.398052
O O10 0.854590 0.994494 0.460191
O O11 0.363596 0.677351 0.165956
O O12 0.469880 0.339885 0.237933
O O13 0.509744 0.451180 0.103315
O O14 0.420190 0.033202 0.174747
O O15 0.249858 0.947067 0.078255
O O16 0.790430 0.376271 0.300077
#
# Coordination Sequence:
#
# PCOD9346343 Si02
#       8
#     4   4   4   4   4   4   4   4
#     4  11  24  44  69 107 144 194 247 305 382 456
#     4  11  23  48  73 104 152 189 252 314 374 453
#     4  11  25  46  71 109 144 196 255 302 385 453
#     4  11  24  46  75 106 150 192 249 324 365 460
#     4  10  24  46  71 110 142 194 253 298 382 450
#     4  11  24  46  73 108 147 194 247 308 378 451
#     4  12  25  44  72 107 146 200 242 320 373 455
#     4  11  23  48  74 103 147 201 245 311 381 446
#
# _framework density 25.965223000000002
#
# number of rings (size 3 to 8) (size 9 to 14) (size 15 to 20)
#    0.000    1.000    3.750    2.250    0.000    4.000 
#   11.250    0.000    0.000    0.000    0.000    0.000 
#    0.000    0.000    0.000    0.000    0.000    0.000 
#
# Total GULP energy -178322.280770 kJ/mol
# GULP energy per Si atom -5572.571274 kJ/mol
# Density = 2.590613 g / cm^3
# Si number density = 25.965223 Si / 1000 Ang^3
#
#
#
# Elastic Constant Matrix: (Units=GPa)
#
#
# Indices 1 2 3 4 5 6 
#
# 1 60.5328 41.8489 34.4172 0.0000 0.0000 0.0000
# 2 41.8489 178.9070 51.0116 0.0000 0.0000 0.0000
# 3 34.4172 51.0116 111.2602 0.0000 0.0000 0.0000
# 4 0.0000 0.0000 0.0000 53.7385 0.0000 0.0000
# 5 0.0000 0.0000 0.0000 0.0000 32.8137 0.0000
# 6 0.0000 0.0000 0.0000 0.0000 0.0000 19.9949
#
#
#
# Elastic Compliance Matrix: (Units=1/GPa)
#
#
# Indices 1 2 3 4 5 6 
#
# 1 0.021970 -0.003683 -0.005108 0.000000 0.000000 0.000000
# 2 -0.003683 0.007047 -0.002092 0.000000 0.000000 0.000000
# 3 -0.005108 -0.002092 0.011527 0.000000 0.000000 0.000000
# 4 0.000000 0.000000 0.000000 0.018609 0.000000 0.000000
# 5 0.000000 0.000000 0.000000 0.000000 0.030475 0.000000
# 6 0.000000 0.000000 0.000000 0.000000 0.000000 0.050013
#
#
# Mechanical properties :
#
#
# Convention : Reuss Voigt Hill
#
# Bulk Modulus (GPa) = 53.24875 67.25060 60.24967
# Shear Modulus (GPa) = 29.82119 36.20423 33.01271
#
# Velocity S-wave (km/s) = 3.39264 3.73813 3.56957
# Velocity P-wave (km/s) = 5.99157 6.67742 6.34377
#
# Compressibility (1/GPa) = 0.01877979
#
# Stress axis : x y z
#
# Youngs Moduli (GPa) = 45.51633 141.89578 86.75217
#
# Poissons Ratio (x) = 0.52257 0.44311
# Poissons Ratio (y) = 0.16763 0.18148
# Poissons Ratio (z) = 0.23248 0.29684
#
# Static dielectric constant tensor:
#      x y z
#    x 2.114140 0.000000 0.000000 
#    y 0.000000 2.058970 0.000000 
#    z 0.000000 0.000000 2.127990 
# 
# From -- ./inp_files/9102.got.cif
#   From: 2010.05.17/outbox.cif.g08.bks.cpg/sg33_5_cif.got.tgz:9102.got - 2010.06.03 17:15:25.
