data_PCOD9346670
_publ_section_title
;
Structure prediction by ZEFSAII (Michael W. Deem and Ramdas Pophale) SiO2 
 PCOD9346670
Probable space group: P N A 21
;
_chemical_formula_sum "Si O2"
_cell_formula_units_Z 32
_cell_length_a 18.190558
_cell_length_b 8.874573
_cell_length_c 6.832268
_cell_angle_alpha 90.000000
_cell_angle_beta 90.000000
_cell_angle_gamma 90.000000
_cell_volume 1102.956491
_symmetry_space_group_name_H-M "P N A 21"
_symmetry_group_IT_number 33
_symmetry_cell_setting 'orthorhombic'
loop_
_space_group_symop_operation_xyz
x,y,z
-x,-y,1/2+z
1/2-x,1/2+y,1/2+z
1/2+x,1/2-y,z
loop_
_atom_site_type_symbol
_atom_site_label
_atom_site_fract_x
_atom_site_fract_y
_atom_site_fract_z
Si Si1 0.782648 0.678067 0.315450
Si Si2 0.535614 0.846618 0.671464
Si Si3 0.372469 0.546853 0.217311
Si Si4 0.489437 0.523142 0.566671
Si Si5 0.754798 0.632030 0.913805
Si Si6 0.042000 0.676987 0.167661
Si Si7 0.850927 0.377938 0.920343
Si Si8 0.847979 0.387425 0.420335
O O1 0.842601 0.785707 0.211404
O O2 0.739404 0.592320 0.142562
O O3 0.724409 0.780023 0.426964
O O4 0.830670 0.563723 0.437984
O O5 0.486754 0.689278 0.668503
O O6 0.631001 0.873779 0.669455
O O7 0.501809 0.016029 0.668777
O O8 0.557973 0.831299 0.421463
O O9 0.426277 0.523786 0.403956
O O10 0.302402 0.446120 0.267562
O O11 0.421081 0.489897 0.036062
O O12 0.480203 0.355070 0.662387
O O13 0.731293 0.803754 0.906212
O O14 0.833252 0.556224 0.890241
O O15 0.059930 0.665657 0.915904
O O16 0.865333 0.345201 0.666968
#
# Coordination Sequence:
#
# PCOD9346670 Si02
#       8
#     4   4   4   4   4   4   4   4
#     4  11  24  46  71 101 145 190 242 309 357 433
#     4  12  25  43  70 109 139 190 243 286 363 444
#     4  11  24  43  73 103 144 192 237 300 369 428
#     4  12  23  45  72 105 151 188 238 303 358 442
#     4  11  23  47  69 101 143 185 243 296 356 432
#     4  12  25  46  70 106 149 186 234 303 363 429
#     4  11  25  45  70 101 141 188 239 296 363 429
#     4  12  23  45  69 102 140 191 238 297 359 431
#
# _framework density 29.012933
#
# number of rings (size 3 to 8) (size 9 to 14) (size 15 to 20)
#    0.000    0.500    5.000    3.000    0.000    2.000 
#    4.500    0.000    0.000    0.000    0.000    0.000 
#    0.000    0.000    0.000    0.000    0.000    0.000 
#
# Total GULP energy -178567.273755 kJ/mol
# GULP energy per Si atom -5580.227305 kJ/mol
# Density = 2.894690 g / cm^3
# Si number density = 29.012933 Si / 1000 Ang^3
#
#
#
# Elastic Constant Matrix: (Units=GPa)
#
#
# Indices 1 2 3 4 5 6 
#
# 1 82.7252 70.8742 39.8995 0.0000 0.0000 0.0000
# 2 70.8742 224.8141 42.4718 0.0000 0.0000 0.0000
# 3 39.8995 42.4718 204.6201 0.0000 0.0000 0.0000
# 4 0.0000 0.0000 0.0000 67.2424 0.0000 0.0000
# 5 0.0000 0.0000 0.0000 0.0000 81.3912 0.0000
# 6 0.0000 0.0000 0.0000 0.0000 0.0000 42.3482
#
#
#
# Elastic Compliance Matrix: (Units=1/GPa)
#
#
# Indices 1 2 3 4 5 6 
#
# 1 0.017603 -0.005101 -0.002374 0.000000 0.000000 0.000000
# 2 -0.005101 0.006108 -0.000273 0.000000 0.000000 0.000000
# 3 -0.002374 -0.000273 0.005407 0.000000 0.000000 0.000000
# 4 0.000000 0.000000 0.000000 0.014872 0.000000 0.000000
# 5 0.000000 0.000000 0.000000 0.000000 0.012286 0.000000
# 6 0.000000 0.000000 0.000000 0.000000 0.000000 0.023614
#
#
# Mechanical properties :
#
#
# Convention : Reuss Voigt Hill
#
# Bulk Modulus (GPa) = 73.41048 90.96116 82.18582
# Shear Modulus (GPa) = 50.03686 62.12397 56.08042
#
# Velocity S-wave (km/s) = 4.15738 4.63239 4.40130
# Velocity P-wave (km/s) = 6.95721 7.74803 7.36324
#
# Compressibility (1/GPa) = 0.01362203
#
# Stress axis : x y z
#
# Youngs Moduli (GPa) = 56.80692 163.72267 184.95736
#
# Poissons Ratio (x) = 0.83518 0.43904
# Poissons Ratio (y) = 0.28978 0.05051
# Poissons Ratio (z) = 0.13484 0.04471
#
# Static dielectric constant tensor:
#      x y z
#    x 2.193050 0.000000 0.000000 
#    y 0.000000 2.091190 0.000000 
#    z 0.000000 0.000000 2.596200 
# 
# From -- ./inp_files/5043.got.cif
#   From: 2010.05.17/outbox.cif.g08.bks.cpg/sg33_3_cif.got.tgz:5043.got - 2010.06.03 17:15:25.
