data_PCOD9346699
_publ_section_title
;
Structure prediction by ZEFSAII (Michael W. Deem and Ramdas Pophale) SiO2 
 PCOD9346699
Probable space group: P N A 21
;
_chemical_formula_sum "Si O2"
_cell_formula_units_Z 20
_cell_length_a 19.448248
_cell_length_b 5.297669
_cell_length_c 7.142072
_cell_angle_alpha 90.000000
_cell_angle_beta 90.000000
_cell_angle_gamma 90.000000
_cell_volume 735.850396
_symmetry_space_group_name_H-M "P N A 21"
_symmetry_group_IT_number 33
_symmetry_cell_setting 'orthorhombic'
loop_
_space_group_symop_operation_xyz
x,y,z
-x,-y,1/2+z
1/2-x,1/2+y,1/2+z
1/2+x,1/2-y,z
loop_
_atom_site_type_symbol
_atom_site_label
_atom_site_fract_x
_atom_site_fract_y
_atom_site_fract_z
Si Si1 0.398280 0.613252 0.213310
Si Si2 0.272342 0.615598 0.944340
Si Si3 0.683758 0.860594 0.251769
Si Si4 0.539520 0.339747 0.087774
Si Si5 0.437849 0.976898 0.936574
O O1 0.327906 0.536421 0.108133
O O2 0.469801 0.495492 0.130033
O O3 0.405857 0.564062 0.434958
O O4 0.405145 0.899420 0.134014
O O5 0.197705 0.590709 0.036362
O O6 0.277278 0.398041 0.792088
O O7 0.289879 0.892135 0.865045
O O8 0.606625 0.821150 0.322022
O O9 0.565742 0.252155 0.289095
O O10 0.511192 0.087448 0.984263
#
# Coordination Sequence:
#
# PCOD9346699 Si02
#       5
#     4   4   4   4   4
#     4  11  24  41  67  97 136 171 225 280 336 406
#     4  11  25  47  70  99 136 177 230 282 336 402
#     4  11  25  47  70  99 136 177 230 282 336 402
#     4  12  22  42  64  98 132 176 216 280 346 400
#     4  11  24  41  67  97 136 171 225 280 336 406
#
# _framework density 27.179438999999999
#
# number of rings (size 3 to 8) (size 9 to 14) (size 15 to 20)
#    0.000    0.800    6.000    1.200    2.800    0.000 
#    7.200    0.000    0.000    0.000    0.000    0.000 
#    0.000    0.000    0.000    0.000    0.000    0.000 
#
# Total GULP energy -111800.307167 kJ/mol
# GULP energy per Si atom -5590.015358 kJ/mol
# Density = 2.711758 g / cm^3
# Si number density = 27.179439 Si / 1000 Ang^3
#
#
#
# Elastic Constant Matrix: (Units=GPa)
#
#
# Indices 1 2 3 4 5 6 
#
# 1 62.2405 6.6163 19.7507 0.0000 0.0000 0.0000
# 2 6.6163 79.3996 7.8124 0.0000 0.0000 0.0000
# 3 19.7507 7.8124 92.7438 0.0000 0.0000 0.0000
# 4 0.0000 0.0000 0.0000 27.1372 0.0000 0.0000
# 5 0.0000 0.0000 0.0000 0.0000 48.8544 0.0000
# 6 0.0000 0.0000 0.0000 0.0000 0.0000 20.6908
#
#
#
# Elastic Compliance Matrix: (Units=1/GPa)
#
#
# Indices 1 2 3 4 5 6 
#
# 1 0.017324 -0.001090 -0.003598 0.000000 0.000000 0.000000
# 2 -0.001090 0.012768 -0.000844 0.000000 0.000000 0.000000
# 3 -0.003598 -0.000844 0.011620 0.000000 0.000000 0.000000
# 4 0.000000 0.000000 0.000000 0.036850 0.000000 0.000000
# 5 0.000000 0.000000 0.000000 0.000000 0.020469 0.000000
# 6 0.000000 0.000000 0.000000 0.000000 0.000000 0.048331
#
#
# Mechanical properties :
#
#
# Convention : Reuss Voigt Hill
#
# Bulk Modulus (GPa) = 32.62574 33.63807 33.13190
# Shear Modulus (GPa) = 29.64899 32.68344 31.16622
#
# Velocity S-wave (km/s) = 3.30640 3.47148 3.38995
# Velocity P-wave (km/s) = 5.15813 5.33586 5.24775
#
# Compressibility (1/GPa) = 0.03065065
#
# Stress axis : x y z
#
# Youngs Moduli (GPa) = 57.72286 78.31885 86.06164
#
# Poissons Ratio (x) = 0.08534 0.30961
# Poissons Ratio (y) = 0.06290 0.07259
# Poissons Ratio (z) = 0.20766 0.06606
#
# Static dielectric constant tensor:
#      x y z
#    x 2.305610 0.000000 0.000000 
#    y 0.000000 2.187740 0.000000 
#    z 0.000000 0.000000 2.062320 
# 
# From -- ./inp_files/1608.got.cif
#   From: 2010.05.17/outbox.cif.g08.bks.cpg/sg33_1_cif.got.tgz:1608.got - 2010.06.03 17:15:25.
