data_PCOD9346036
_publ_section_title
;
Structure prediction by ZEFSAII (Michael W. Deem and Ramdas Pophale) SiO2 
 PCOD9346036
Probable space group: P N A 21
;
_chemical_formula_sum "Si O2"
_cell_formula_units_Z 32
_cell_length_a 8.694986
_cell_length_b 15.210594
_cell_length_c 11.717436
_cell_angle_alpha 90.000000
_cell_angle_beta 90.000000
_cell_angle_gamma 90.000000
_cell_volume 1549.700066
_symmetry_space_group_name_H-M "P N A 21"
_symmetry_group_IT_number 33
_symmetry_cell_setting 'orthorhombic'
loop_
_space_group_symop_operation_xyz
x,y,z
-x,-y,1/2+z
1/2-x,1/2+y,1/2+z
1/2+x,1/2-y,z
loop_
_atom_site_type_symbol
_atom_site_label
_atom_site_fract_x
_atom_site_fract_y
_atom_site_fract_z
Si Si1 0.731915 0.497238 0.642150
Si Si2 0.179044 0.305344 0.660272
Si Si3 0.605261 0.528943 0.424520
Si Si4 0.696403 0.878462 0.815725
Si Si5 0.608292 0.224415 0.404736
Si Si6 0.284055 0.446493 0.401149
Si Si7 0.513354 0.345715 0.723078
Si Si8 0.089725 0.499307 0.615511
O O1 0.647440 0.560369 0.551508
O O2 0.741813 0.522935 0.773301
O O3 0.626580 0.409679 0.651390
O O4 0.907377 0.495141 0.602669
O O5 0.111088 0.265920 0.541988
O O6 0.361840 0.311137 0.659471
O O7 0.127718 0.405661 0.674560
O O8 0.115274 0.238927 0.754851
O O9 0.742611 0.464984 0.382711
O O10 0.455378 0.468458 0.436068
O O11 0.555568 0.600507 0.330902
O O12 0.545146 0.828112 0.864969
O O13 0.837279 0.808947 0.832356
O O14 0.650593 0.919533 0.692250
O O15 0.748387 0.155552 0.395600
O O16 0.173348 0.492413 0.493406
#
# Coordination Sequence:
#
# PCOD9346036 Si02
#       8
#     4   4   4   4   4   4   4   4
#     4  11  22  41  68  97 136 180 232 280 354 414
#     4  11  21  40  66 102 140 177 234 286 345 413
#     4  11  23  40  68  99 139 179 229 286 356 413
#     4  12  23  42  66 104 136 177 230 295 352 406
#     4  11  22  39  68 101 136 180 232 292 341 419
#     4  10  23  41  68  99 133 185 233 280 347 412
#     4  11  23  40  69 103 134 183 227 296 342 418
#     4  11  23  41  69  99 140 179 235 287 349 409
#
# _framework density 20.649158
#
# number of rings (size 3 to 8) (size 9 to 14) (size 15 to 20)
#    0.000    1.000    2.500    6.000    1.750    0.000 
#    0.000    0.000   11.000    0.000    0.000    0.000 
#    0.000    0.000    0.000    0.000    0.000    0.000 
#
# Total GULP energy -178384.846187 kJ/mol
# GULP energy per Si atom -5574.526443 kJ/mol
# Density = 2.060216 g / cm^3
# Si number density = 20.649158 Si / 1000 Ang^3
#
#
#
# Elastic Constant Matrix: (Units=GPa)
#
#
# Indices 1 2 3 4 5 6 
#
# 1 114.3616 46.1428 58.8137 0.0000 0.0000 0.0000
# 2 46.1428 94.7151 55.4972 0.0000 0.0000 0.0000
# 3 58.8137 55.4972 116.9853 0.0000 0.0000 0.0000
# 4 0.0000 0.0000 0.0000 -8.6201 0.0000 0.0000
# 5 0.0000 0.0000 0.0000 0.0000 19.2948 0.0000
# 6 0.0000 0.0000 0.0000 0.0000 0.0000 16.2530
#
#
#
# Elastic Compliance Matrix: (Units=1/GPa)
#
#
# Indices 1 2 3 4 5 6 
#
# 1 0.012511 -0.003337 -0.004707 0.000000 0.000000 0.000000
# 2 -0.003337 0.015513 -0.005681 0.000000 0.000000 0.000000
# 3 -0.004707 -0.005681 0.013610 0.000000 0.000000 0.000000
# 4 0.000000 0.000000 0.000000 -0.116008 0.000000 0.000000
# 5 0.000000 0.000000 0.000000 0.000000 0.051827 0.000000
# 6 0.000000 0.000000 0.000000 0.000000 0.000000 0.061527
#
#
# Mechanical properties :
#
#
# Convention : Reuss Voigt Hill
#
# Bulk Modulus (GPa) = 70.50810 71.88548 71.19679
# Shear Modulus (GPa) = 70.26579 16.42610 43.34595
#
# Velocity S-wave (km/s) = 5.83972 2.82349 4.58663
# Velocity P-wave (km/s) = 8.92690 6.74669 7.91225
#
# Compressibility (1/GPa) = 0.01418277
#
# Stress axis : x y z
#
# Youngs Moduli (GPa) = 79.92747 64.46309 73.47748
#
# Poissons Ratio (x) = 0.21513 0.34584
# Poissons Ratio (y) = 0.26674 0.41745
# Poissons Ratio (z) = 0.37620 0.36624
#
# Static dielectric constant tensor:
#      x y z
#    x 1.800470 0.000000 0.000000 
#    y 0.000000 1.883830 0.000000 
#    z 0.000000 0.000000 1.832910 
# 
# From -- ./inp_files/5983.got.cif
#   From: 2010.05.17/outbox.cif.g08.bks.cpg/sg33_3_cif.got.tgz:5983.got - 2010.06.03 17:15:25.
