data_PCOD9346486
_publ_section_title
;
Structure prediction by ZEFSAII (Michael W. Deem and Ramdas Pophale) SiO2 
 PCOD9346486
Probable space group: P N A 21
;
_chemical_formula_sum "Si O2"
_cell_formula_units_Z 32
_cell_length_a 5.460733
_cell_length_b 13.930233
_cell_length_c 21.702855
_cell_angle_alpha 90.000000
_cell_angle_beta 90.000000
_cell_angle_gamma 90.000000
_cell_volume 1650.920620
_symmetry_space_group_name_H-M "P N A 21"
_symmetry_group_IT_number 33
_symmetry_cell_setting 'orthorhombic'
loop_
_space_group_symop_operation_xyz
x,y,z
-x,-y,1/2+z
1/2-x,1/2+y,1/2+z
1/2+x,1/2-y,z
loop_
_atom_site_type_symbol
_atom_site_label
_atom_site_fract_x
_atom_site_fract_y
_atom_site_fract_z
Si Si1 0.266395 0.870182 0.408000
Si Si2 0.967805 0.998279 0.484721
Si Si3 0.238953 0.304800 0.514007
Si Si4 0.402354 0.279941 0.118153
Si Si5 0.663057 0.822325 0.490411
Si Si6 0.258011 0.903050 0.141265
Si Si7 0.259660 0.499319 0.103525
Si Si8 0.357476 0.807686 0.270964
O O1 0.501860 0.893254 0.448464
O O2 0.207495 0.766835 0.442395
O O3 0.316978 0.857798 0.336861
O O4 0.067778 0.951643 0.421998
O O5 0.852239 0.901783 0.514538
O O6 0.795343 0.090338 0.484967
O O7 0.187735 0.023828 0.531814
O O8 0.476056 0.239942 0.497632
O O9 0.240258 0.321356 0.588252
O O10 0.672076 0.276418 0.147628
O O11 0.302280 0.387257 0.114114
O O12 0.446303 0.228018 0.050928
O O13 0.487198 0.970411 0.122202
O O14 0.311888 0.867689 0.209596
O O15 0.986122 0.947924 0.137564
O O16 0.636445 0.770079 0.269998
#
# Coordination Sequence:
#
# PCOD9346486 Si02
#       8
#     4   4   4   4   4   4   4   4
#     4  12  21  35  58  94 133 161 192 240 316 397
#     4  11  23  35  60  88 125 164 195 258 319 378
#     4  11  24  41  58  83 117 160 213 260 299 346
#     4  12  20  31  54  86 129 155 180 230 309 384
#     4  12  19  33  54  93 132 158 183 236 310 409
#     4  11  24  39  61  81 119 167 217 260 295 348
#     4  11  21  37  57  88 120 163 203 253 304 371
#     4  12  24  41  62  87 125 172 213 247 308 375
#
# _framework density 19.383126000000001
#
# number of rings (size 3 to 8) (size 9 to 14) (size 15 to 20)
#    0.000    0.500    6.250    3.750    7.000    0.000 
#    0.000    0.000    0.000    0.000    0.000    5.250 
#    0.000    0.000    0.000    0.000    0.000    0.000 
#
# Total GULP energy -178263.341268 kJ/mol
# GULP energy per Si atom -5570.729415 kJ/mol
# Density = 1.933901 g / cm^3
# Si number density = 19.383126 Si / 1000 Ang^3
#
#
#
# Elastic Constant Matrix: (Units=GPa)
#
#
# Indices 1 2 3 4 5 6 
#
# 1 90.7020 28.3663 14.9422 0.0000 0.0000 0.0000
# 2 28.3663 71.3040 9.3093 0.0000 0.0000 0.0000
# 3 14.9422 9.3093 39.1983 0.0000 0.0000 0.0000
# 4 0.0000 0.0000 0.0000 22.3917 0.0000 0.0000
# 5 0.0000 0.0000 0.0000 0.0000 16.9847 0.0000
# 6 0.0000 0.0000 0.0000 0.0000 0.0000 40.6224
#
#
#
# Elastic Compliance Matrix: (Units=1/GPa)
#
#
# Indices 1 2 3 4 5 6 
#
# 1 0.013142 -0.004720 -0.003889 0.000000 0.000000 0.000000
# 2 -0.004720 0.016169 -0.002041 0.000000 0.000000 0.000000
# 3 -0.003889 -0.002041 0.027478 0.000000 0.000000 0.000000
# 4 0.000000 0.000000 0.000000 0.044659 0.000000 0.000000
# 5 0.000000 0.000000 0.000000 0.000000 0.058876 0.000000
# 6 0.000000 0.000000 0.000000 0.000000 0.000000 0.024617
#
#
# Mechanical properties :
#
#
# Convention : Reuss Voigt Hill
#
# Bulk Modulus (GPa) = 28.17712 34.04887 31.11300
# Shear Modulus (GPa) = 22.92832 25.90554 24.41693
#
# Velocity S-wave (km/s) = 3.44306 3.65978 3.55308
# Velocity P-wave (km/s) = 5.51133 5.95509 5.73750
#
# Compressibility (1/GPa) = 0.03548978
#
# Stress axis : x y z
#
# Youngs Moduli (GPa) = 76.09185 61.84757 36.39249
#
# Poissons Ratio (x) = 0.29195 0.14152
# Poissons Ratio (y) = 0.35919 0.07426
# Poissons Ratio (z) = 0.29589 0.12620
#
# Static dielectric constant tensor:
#      x y z
#    x 1.989350 0.000000 0.000000 
#    y 0.000000 1.719090 0.000000 
#    z 0.000000 0.000000 1.646440 
# 
# From -- ./inp_files/8897.got.cif
#   From: 2010.05.17/outbox.cif.g08.bks.cpg/sg33_5_cif.got.tgz:8897.got - 2010.06.03 17:15:25.
