data_PCOD9346142
_publ_section_title
;
Structure prediction by ZEFSAII (Michael W. Deem and Ramdas Pophale) SiO2 
 PCOD9346142
Probable space group: P N A 21
;
_chemical_formula_sum "Si O2"
_cell_formula_units_Z 28
_cell_length_a 14.676126
_cell_length_b 7.375770
_cell_length_c 11.080636
_cell_angle_alpha 90.000000
_cell_angle_beta 90.000000
_cell_angle_gamma 90.000000
_cell_volume 1199.453692
_symmetry_space_group_name_H-M "P N A 21"
_symmetry_group_IT_number 33
_symmetry_cell_setting 'orthorhombic'
loop_
_space_group_symop_operation_xyz
x,y,z
-x,-y,1/2+z
1/2-x,1/2+y,1/2+z
1/2+x,1/2-y,z
loop_
_atom_site_type_symbol
_atom_site_label
_atom_site_fract_x
_atom_site_fract_y
_atom_site_fract_z
Si Si1 0.612987 0.354336 0.119500
Si Si2 0.034781 0.791047 0.003215
Si Si3 0.207887 0.537191 0.550049
Si Si4 0.972803 0.455639 0.155908
Si Si5 0.719309 0.851706 0.054913
Si Si6 0.872362 0.978784 0.874720
Si Si7 0.619678 0.901450 0.304599
O O1 0.563574 0.543869 0.090803
O O2 0.702238 0.340432 0.037459
O O3 0.653712 0.371612 0.253588
O O4 0.538996 0.199509 0.105664
O O5 0.980999 0.637661 0.076254
O O6 0.131781 0.698883 0.970847
O O7 0.968977 0.887398 0.908986
O O8 0.239041 0.340947 0.595412
O O9 0.167535 0.507923 0.417481
O O10 0.129966 0.609390 0.639103
O O11 0.019225 0.515685 0.281324
O O12 0.675344 0.928901 0.179068
O O13 0.797948 0.953245 0.980638
O O14 0.884191 0.189919 0.841370
#
# Coordination Sequence:
#
# PCOD9346142 Si02
#       7
#     4   4   4   4   4   4   4
#     4  11  25  47  69 108 149 189 256 302 369 455
#     4  10  23  45  65 104 143 187 241 304 364 433
#     4  11  23  48  70 109 145 195 251 303 377 440
#     4  11  23  46  71 102 146 190 252 297 365 451
#     4  10  23  46  66 106 145 187 247 309 363 448
#     4  12  22  46  74 102 156 187 243 319 364 441
#     4  11  25  46  73 107 148 193 248 306 372 452
#
# _framework density 23.343961
#
# number of rings (size 3 to 8) (size 9 to 14) (size 15 to 20)
#    0.000    1.143    5.714    1.714    4.000    1.143 
#   15.429    0.000    0.000    0.000    0.000    0.000 
#    0.000    0.000    0.000    0.000    0.000    0.000 
#
# Total GULP energy -156457.536476 kJ/mol
# GULP energy per Si atom -5587.769160 kJ/mol
# Density = 2.329083 g / cm^3
# Si number density = 23.343961 Si / 1000 Ang^3
#
#
#
# Elastic Constant Matrix: (Units=GPa)
#
#
# Indices 1 2 3 4 5 6 
#
# 1 124.3259 27.8045 24.8979 0.0000 0.0000 0.0000
# 2 27.8045 89.4821 3.1926 0.0000 0.0000 0.0000
# 3 24.8979 3.1926 77.2889 0.0000 0.0000 0.0000
# 4 0.0000 0.0000 0.0000 35.0818 0.0000 0.0000
# 5 0.0000 0.0000 0.0000 0.0000 45.6940 0.0000
# 6 0.0000 0.0000 0.0000 0.0000 0.0000 35.0023
#
#
#
# Elastic Compliance Matrix: (Units=1/GPa)
#
#
# Indices 1 2 3 4 5 6 
#
# 1 0.009235 -0.002768 -0.002861 0.000000 0.000000 0.000000
# 2 -0.002768 0.012021 0.000395 0.000000 0.000000 0.000000
# 3 -0.002861 0.000395 0.013844 0.000000 0.000000 0.000000
# 4 0.000000 0.000000 0.000000 0.028505 0.000000 0.000000
# 5 0.000000 0.000000 0.000000 0.000000 0.021885 0.000000
# 6 0.000000 0.000000 0.000000 0.000000 0.000000 0.028570
#
#
# Mechanical properties :
#
#
# Convention : Reuss Voigt Hill
#
# Bulk Modulus (GPa) = 40.59497 44.76522 42.68009
# Shear Modulus (GPa) = 37.66847 38.83577 38.25212
#
# Velocity S-wave (km/s) = 4.02136 4.08319 4.05239
# Velocity P-wave (km/s) = 6.24415 6.43800 6.34182
#
# Compressibility (1/GPa) = 0.02463359
#
# Stress axis : x y z
#
# Youngs Moduli (GPa) = 108.28120 83.18577 72.23503
#
# Poissons Ratio (x) = 0.23022 0.20664
# Poissons Ratio (y) = 0.29967 -0.02853
# Poissons Ratio (z) = 0.30976 -0.03286
#
# Static dielectric constant tensor:
#      x y z
#    x 1.924460 0.000000 0.000000 
#    y 0.000000 1.914540 0.000000 
#    z 0.000000 0.000000 1.915710 
# 
# From -- ./inp_files/6753.got.cif
#   From: 2010.05.17/outbox.cif.g08.bks.cpg/sg33_4_cif.got.tgz:6753.got - 2010.06.03 17:15:25.
