data_PCOD9346568
_publ_section_title
;
Structure prediction by ZEFSAII (Michael W. Deem and Ramdas Pophale) SiO2 
 PCOD9346568
Probable space group: P N A 21
;
_chemical_formula_sum "Si O2"
_cell_formula_units_Z 16
_cell_length_a 9.796093
_cell_length_b 6.844998
_cell_length_c 8.245655
_cell_angle_alpha 90.000000
_cell_angle_beta 90.000000
_cell_angle_gamma 90.000000
_cell_volume 552.906105
_symmetry_space_group_name_H-M "P N A 21"
_symmetry_group_IT_number 33
_symmetry_cell_setting 'orthorhombic'
loop_
_space_group_symop_operation_xyz
x,y,z
-x,-y,1/2+z
1/2-x,1/2+y,1/2+z
1/2+x,1/2-y,z
loop_
_atom_site_type_symbol
_atom_site_label
_atom_site_fract_x
_atom_site_fract_y
_atom_site_fract_z
Si Si1 0.021064 0.540708 0.773470
Si Si2 0.797484 0.799056 0.615314
Si Si3 0.630804 0.680804 0.003249
Si Si4 0.333196 0.671169 0.269362
O O1 0.163004 0.606625 0.691326
O O2 0.030944 0.306787 0.777039
O O3 0.889852 0.634186 0.693035
O O4 0.030176 0.649049 0.947206
O O5 0.758030 0.742590 0.430950
O O6 0.901251 0.987632 0.607821
O O7 0.755720 0.785054 0.100553
O O8 0.653096 0.550948 0.835067
#
# Coordination Sequence:
#
# PCOD9346568 Si02
#       4
#     4   4   4   4
#     4  11  22  45  66 101 142 186 242 305 371 435
#     4   9  24  42  65 104 135 184 245 298 366 440
#     4   9  22  43  69 102 142 191 241 308 371 440
#     4   9  22  44  66 105 137 187 244 305 368 445
#
# _framework density 28.938003999999999
#
# number of rings (size 3 to 8) (size 9 to 14) (size 15 to 20)
#    1.500    1.000    0.000    0.000    3.500    8.000 
#    4.500    0.000    0.000    0.000    0.000    0.000 
#    0.000    0.000    0.000    0.000    0.000    0.000 
#
# Total GULP energy -89172.949238 kJ/mol
# GULP energy per Si atom -5573.309327 kJ/mol
# Density = 2.887214 g / cm^3
# Si number density = 28.938004 Si / 1000 Ang^3
#
#
#
# Elastic Constant Matrix: (Units=GPa)
#
#
# Indices 1 2 3 4 5 6 
#
# 1 99.2574 64.5734 68.0556 0.0000 0.0000 0.0000
# 2 64.5734 210.9917 47.1983 0.0000 0.0000 0.0000
# 3 68.0556 47.1983 110.6589 0.0000 0.0000 0.0000
# 4 0.0000 0.0000 0.0000 58.3671 0.0000 0.0000
# 5 0.0000 0.0000 0.0000 0.0000 54.1156 0.0000
# 6 0.0000 0.0000 0.0000 0.0000 0.0000 43.9492
#
#
#
# Elastic Compliance Matrix: (Units=1/GPa)
#
#
# Indices 1 2 3 4 5 6 
#
# 1 0.019692 -0.003667 -0.010546 0.000000 0.000000 0.000000
# 2 -0.003667 0.005922 -0.000271 0.000000 0.000000 0.000000
# 3 -0.010546 -0.000271 0.015638 0.000000 0.000000 0.000000
# 4 0.000000 0.000000 0.000000 0.017133 0.000000 0.000000
# 5 0.000000 0.000000 0.000000 0.000000 0.018479 0.000000
# 6 0.000000 0.000000 0.000000 0.000000 0.000000 0.022754
#
#
# Mechanical properties :
#
#
# Convention : Reuss Voigt Hill
#
# Bulk Modulus (GPa) = 81.40764 86.72916 84.06840
# Shear Modulus (GPa) = 37.68443 47.35843 42.52143
#
# Velocity S-wave (km/s) = 3.61258 4.04982 3.83743
# Velocity P-wave (km/s) = 6.75232 7.20443 6.98203
#
# Compressibility (1/GPa) = 0.01228386
#
# Stress axis : x y z
#
# Youngs Moduli (GPa) = 50.78280 168.84894 63.94623
#
# Poissons Ratio (x) = 0.61924 0.67439
# Poissons Ratio (y) = 0.18624 0.01730
# Poissons Ratio (z) = 0.53557 0.04568
#
# Static dielectric constant tensor:
#      x y z
#    x 2.253070 0.000000 0.000000 
#    y 0.000000 2.299010 0.000000 
#    z 0.000000 0.000000 2.611120 
# 
# From -- ./inp_files/3648.got.cif
#   From: 2010.05.17/outbox.cif.g08.bks.cpg/sg33_2_cif.got.tgz:3648.got - 2010.06.03 17:15:25.
