data_PCOD9346697
_publ_section_title
;
Structure prediction by ZEFSAII (Michael W. Deem and Ramdas Pophale) SiO2 
 PCOD9346697
Probable space group: P N A 21
;
_chemical_formula_sum "Si O2"
_cell_formula_units_Z 28
_cell_length_a 19.889562
_cell_length_b 10.026413
_cell_length_c 6.093669
_cell_angle_alpha 90.000000
_cell_angle_beta 90.000000
_cell_angle_gamma 90.000000
_cell_volume 1215.205340
_symmetry_space_group_name_H-M "P N A 21"
_symmetry_group_IT_number 33
_symmetry_cell_setting 'orthorhombic'
loop_
_space_group_symop_operation_xyz
x,y,z
-x,-y,1/2+z
1/2-x,1/2+y,1/2+z
1/2+x,1/2-y,z
loop_
_atom_site_type_symbol
_atom_site_label
_atom_site_fract_x
_atom_site_fract_y
_atom_site_fract_z
Si Si1 0.774407 0.259890 0.536270
Si Si2 0.785695 0.966063 0.373984
Si Si3 0.422729 0.162828 0.437107
Si Si4 0.093072 0.978106 0.582573
Si Si5 0.540656 0.112574 0.113635
Si Si6 0.995740 0.182520 0.791438
Si Si7 0.644241 0.319081 0.249974
O O1 0.769762 0.094700 0.535167
O O2 0.765448 0.361776 0.748434
O O3 0.844514 0.301854 0.421948
O O4 0.710731 0.294877 0.388668
O O5 0.831500 0.865965 0.514008
O O6 0.833797 0.033289 0.190240
O O7 0.468692 0.121159 0.231890
O O8 0.457188 0.284219 0.568093
O O9 0.432270 0.035046 0.591732
O O10 0.044792 0.059316 0.745619
O O11 0.102553 0.065479 0.365050
O O12 0.055878 0.850752 0.487370
O O13 0.595889 0.193320 0.249631
O O14 0.536191 0.190073 0.881533
#
# Coordination Sequence:
#
# PCOD9346697 Si02
#       7
#     4   4   4   4   4   4   4
#     4  11  27  46  71 105 148 195 253 303 381 454
#     4  11  25  48  71 107 144 195 254 308 375 448
#     4  12  26  45  69 111 149 190 246 307 374 446
#     4  11  24  40  70 106 138 190 239 304 362 444
#     4  12  24  45  72 105 147 193 243 305 372 439
#     4  12  24  41  71 103 144 181 241 304 362 443
#     4  11  24  47  72 101 146 194 246 305 370 446
#
# _framework density 23.041374000000001
#
# number of rings (size 3 to 8) (size 9 to 14) (size 15 to 20)
#    0.000    0.571    4.286    3.429    2.000    5.714 
#    2.571    0.000    0.000    0.000    0.000    0.000 
#    0.000    0.000    0.000    0.000    0.000    0.000 
#
# Total GULP energy -156252.037340 kJ/mol
# GULP energy per Si atom -5580.429905 kJ/mol
# Density = 2.298893 g / cm^3
# Si number density = 23.041374 Si / 1000 Ang^3
#
#
#
# Elastic Constant Matrix: (Units=GPa)
#
#
# Indices 1 2 3 4 5 6 
#
# 1 93.0495 25.9062 -1.7073 0.0000 0.0000 0.0000
# 2 25.9062 121.3876 8.1548 0.0000 0.0000 0.0000
# 3 -1.7073 8.1548 23.3404 0.0000 0.0000 0.0000
# 4 0.0000 0.0000 0.0000 40.7806 0.0000 0.0000
# 5 0.0000 0.0000 0.0000 0.0000 -61.4570 0.0000
# 6 0.0000 0.0000 0.0000 0.0000 0.0000 24.0220
#
#
#
# Elastic Compliance Matrix: (Units=1/GPa)
#
#
# Indices 1 2 3 4 5 6 
#
# 1 0.011494 -0.002570 0.001739 0.000000 0.000000 0.000000
# 2 -0.002570 0.009011 -0.003336 0.000000 0.000000 0.000000
# 3 0.001739 -0.003336 0.044137 0.000000 0.000000 0.000000
# 4 0.000000 0.000000 0.000000 0.024521 0.000000 0.000000
# 5 0.000000 0.000000 0.000000 0.000000 -0.016272 0.000000
# 6 0.000000 0.000000 0.000000 0.000000 0.000000 0.041629
#
#
# Mechanical properties :
#
#
# Convention : Reuss Voigt Hill
#
# Bulk Modulus (GPa) = 17.75974 33.60943 25.68458
# Shear Modulus (GPa) = 35.30469 14.36404 24.83436
#
# Velocity S-wave (km/s) = 3.91862 2.49951 3.28657
# Velocity P-wave (km/s) = 5.31023 4.79044 5.05702
#
# Compressibility (1/GPa) = 0.05630713
#
# Stress axis : x y z
#
# Youngs Moduli (GPa) = 86.99918 110.97974 22.65678
#
# Poissons Ratio (x) = 0.28521 -0.03939
# Poissons Ratio (y) = 0.22358 0.07559
# Poissons Ratio (z) = -0.15126 0.37025
#
# Static dielectric constant tensor:
#      x y z
#    x 1.846330 0.000000 0.000000 
#    y 0.000000 1.979120 0.000000 
#    z 0.000000 0.000000 1.903300 
# 
# From -- ./inp_files/1757.got.cif
#   From: 2010.05.17/outbox.cif.g08.bks.cpg/sg33_1_cif.got.tgz:1757.got - 2010.06.03 17:15:25.
