data_PCOD9346308
_publ_section_title
;
Structure prediction by ZEFSAII (Michael W. Deem and Ramdas Pophale) SiO2 
 PCOD9346308
Probable space group: P N A 21
;
_chemical_formula_sum "Si O2"
_cell_formula_units_Z 28
_cell_length_a 5.516886
_cell_length_b 23.043975
_cell_length_c 9.933326
_cell_angle_alpha 90.000000
_cell_angle_beta 90.000000
_cell_angle_gamma 90.000000
_cell_volume 1262.833499
_symmetry_space_group_name_H-M "P N A 21"
_symmetry_group_IT_number 33
_symmetry_cell_setting 'orthorhombic'
loop_
_space_group_symop_operation_xyz
x,y,z
-x,-y,1/2+z
1/2-x,1/2+y,1/2+z
1/2+x,1/2-y,z
loop_
_atom_site_type_symbol
_atom_site_label
_atom_site_fract_x
_atom_site_fract_y
_atom_site_fract_z
Si Si1 0.172568 0.391866 0.341240
Si Si2 0.378814 0.064231 0.116821
Si Si3 0.577270 0.717874 0.250692
Si Si4 0.631296 0.399758 0.843900
Si Si5 0.442812 0.283474 0.427827
Si Si6 0.125031 0.561925 0.074649
Si Si7 0.459735 0.520817 0.850132
O O1 0.381561 0.344777 0.358701
O O2 0.266116 0.458273 0.340943
O O3 0.043147 0.389620 0.197932
O O4 0.009877 0.392251 0.476140
O O5 0.171663 0.050157 0.225521
O O6 0.494450 0.000482 0.090666
O O7 0.277825 0.091177 0.980773
O O8 0.349368 0.760537 0.280896
O O9 0.509773 0.659534 0.327739
O O10 0.563006 0.707869 0.089223
O O11 0.805752 0.409473 0.715374
O O12 0.440101 0.452553 0.841151
O O13 0.706787 0.256854 0.393972
O O14 0.363747 0.544729 0.990794
#
# Coordination Sequence:
#
# PCOD9346308 Si02
#       7
#     4   4   4   4   4   4   4
#     4  11  24  42  66  96 137 173 223 285 342 416
#     4  11  24  41  60 102 142 174 219 280 352 434
#     4  10  25  45  67 101 137 179 242 295 341 411
#     4  12  23  41  69  99 134 185 220 289 357 411
#     4  10  24  44  71  99 131 180 241 294 338 398
#     4  11  23  40  64 101 134 175 224 276 347 417
#     4  11  23  41  65  98 135 172 229 275 345 425
#
# _framework density 22.172360999999999
#
# number of rings (size 3 to 8) (size 9 to 14) (size 15 to 20)
#    0.000    1.143    2.857    2.571   12.000    1.143 
#    0.000    1.429    0.000    0.000    0.000    0.000 
#    0.000    0.000    0.000    0.000    0.000    0.000 
#
# Total GULP energy -156494.128384 kJ/mol
# GULP energy per Si atom -5589.076014 kJ/mol
# Density = 2.212190 g / cm^3
# Si number density = 22.172361 Si / 1000 Ang^3
#
#
#
# Elastic Constant Matrix: (Units=GPa)
#
#
# Indices 1 2 3 4 5 6 
#
# 1 69.8850 25.7207 40.6180 0.0000 0.0000 0.0000
# 2 25.7207 98.2426 40.3767 0.0000 0.0000 0.0000
# 3 40.6180 40.3767 127.7562 0.0000 0.0000 0.0000
# 4 0.0000 0.0000 0.0000 21.3688 0.0000 0.0000
# 5 0.0000 0.0000 0.0000 0.0000 2.4588 0.0000
# 6 0.0000 0.0000 0.0000 0.0000 0.0000 32.8092
#
#
#
# Elastic Compliance Matrix: (Units=1/GPa)
#
#
# Indices 1 2 3 4 5 6 
#
# 1 0.018172 -0.002739 -0.004912 0.000000 0.000000 0.000000
# 2 -0.002739 0.012111 -0.002957 0.000000 0.000000 0.000000
# 3 -0.004912 -0.002957 0.010324 0.000000 0.000000 0.000000
# 4 0.000000 0.000000 0.000000 0.046797 0.000000 0.000000
# 5 0.000000 0.000000 0.000000 0.000000 0.406698 0.000000
# 6 0.000000 0.000000 0.000000 0.000000 0.000000 0.030479
#
#
# Mechanical properties :
#
#
# Convention : Reuss Voigt Hill
#
# Bulk Modulus (GPa) = 51.56893 56.59050 54.07971
# Shear Modulus (GPa) = 9.05370 23.93860 16.49615
#
# Velocity S-wave (km/s) = 2.02292 3.28938 2.73059
# Velocity P-wave (km/s) = 5.36330 6.32496 5.86388
#
# Compressibility (1/GPa) = 0.01939152
#
# Stress axis : x y z
#
# Youngs Moduli (GPa) = 55.02938 82.56825 96.86562
#
# Poissons Ratio (x) = 0.22614 0.47580
# Poissons Ratio (y) = 0.15072 0.28642
# Poissons Ratio (z) = 0.27030 0.24415
#
# Static dielectric constant tensor:
#      x y z
#    x 1.928280 0.000000 0.000000 
#    y 0.000000 1.827800 0.000000 
#    z 0.000000 0.000000 1.814010 
# 
# From -- ./inp_files/2723.got.cif
#   From: 2010.05.17/outbox.cif.g08.bks.cpg/sg33_2_cif.got.tgz:2723.got - 2010.06.03 17:15:25.
