data_PCOD9346959
_publ_section_title
;
Structure prediction by ZEFSAII (Michael W. Deem and Ramdas Pophale) SiO2 
 PCOD9346959
Probable space group: P N A 21
;
_chemical_formula_sum "Si O2"
_cell_formula_units_Z 32
_cell_length_a 8.862018
_cell_length_b 11.607500
_cell_length_c 13.805012
_cell_angle_alpha 90.000000
_cell_angle_beta 90.000000
_cell_angle_gamma 90.000000
_cell_volume 1420.064624
_symmetry_space_group_name_H-M "P N A 21"
_symmetry_group_IT_number 33
_symmetry_cell_setting 'orthorhombic'
loop_
_space_group_symop_operation_xyz
x,y,z
-x,-y,1/2+z
1/2-x,1/2+y,1/2+z
1/2+x,1/2-y,z
loop_
_atom_site_type_symbol
_atom_site_label
_atom_site_fract_x
_atom_site_fract_y
_atom_site_fract_z
Si Si1 0.952653 0.914275 0.468800
Si Si2 0.090657 0.150261 0.751530
Si Si3 0.262843 0.354625 0.697544
Si Si4 0.742378 0.489860 0.581208
Si Si5 0.418630 0.170533 0.430738
Si Si6 0.556788 0.214437 0.116813
Si Si7 0.731731 0.875177 0.726073
Si Si8 0.741903 0.118301 0.484659
O O1 0.956877 0.905408 0.353078
O O2 0.947737 0.789235 0.518780
O O3 0.094913 0.977038 0.518351
O O4 0.802975 0.988904 0.491380
O O5 0.178974 0.269006 0.769584
O O6 0.937486 0.177786 0.695180
O O7 0.190288 0.070260 0.681242
O O8 0.254240 0.488711 0.719760
O O9 0.194725 0.338739 0.591033
O O10 0.846053 0.405979 0.516594
O O11 0.833110 0.606016 0.605207
O O12 0.329186 0.147430 0.332622
O O13 0.594213 0.138303 0.420545
O O14 0.383041 0.303711 0.452751
O O15 0.395605 0.168111 0.150961
O O16 0.619886 0.303770 0.197363
#
# Coordination Sequence:
#
# PCOD9346959 Si02
#       8
#     4   4   4   4   4   4   4   4
#     4  12  28  48  76 105 154 195 246 302 376 444
#     4  12  29  47  78 108 148 197 248 305 372 441
#     4  12  26  51  71 107 147 192 244 305 367 434
#     4  12  26  50  71 107 152 194 240 309 369 434
#     4  12  27  42  78 108 144 192 248 301 364 442
#     4  12  27  49  72 108 149 194 240 309 368 438
#     4  12  27  48  76 108 149 192 246 300 370 441
#     4  12  24  49  70 107 143 194 240 305 364 432
#
# _framework density 22.534186999999999
#
# number of rings (size 3 to 8) (size 9 to 14) (size 15 to 20)
#    0.000    0.000    5.000    3.750    8.750    0.000 
#    0.000    0.000    0.000    0.000    0.000    0.000 
#    0.000    0.000    0.000    0.000    0.000    0.000 
#
# Total GULP energy -179238.598376 kJ/mol
# GULP energy per Si atom -5601.206199 kJ/mol
# Density = 2.248290 g / cm^3
# Si number density = 22.534187 Si / 1000 Ang^3
#
#
#
# Elastic Constant Matrix: (Units=GPa)
#
#
# Indices 1 2 3 4 5 6 
#
# 1 82.4377 36.0855 -6.4078 0.0000 0.0000 0.0000
# 2 36.0855 123.0814 14.9879 0.0000 0.0000 0.0000
# 3 -6.4078 14.9879 64.6717 0.0000 0.0000 0.0000
# 4 0.0000 0.0000 0.0000 20.0608 0.0000 0.0000
# 5 0.0000 0.0000 0.0000 0.0000 26.2125 0.0000
# 6 0.0000 0.0000 0.0000 0.0000 0.0000 42.2217
#
#
#
# Elastic Compliance Matrix: (Units=1/GPa)
#
#
# Indices 1 2 3 4 5 6 
#
# 1 0.014285 -0.004487 0.002455 0.000000 0.000000 0.000000
# 2 -0.004487 0.009770 -0.002709 0.000000 0.000000 0.000000
# 3 0.002455 -0.002709 0.016334 0.000000 0.000000 0.000000
# 4 0.000000 0.000000 0.000000 0.049848 0.000000 0.000000
# 5 0.000000 0.000000 0.000000 0.000000 0.038150 0.000000
# 6 0.000000 0.000000 0.000000 0.000000 0.000000 0.023685
#
#
# Mechanical properties :
#
#
# Convention : Reuss Voigt Hill
#
# Bulk Modulus (GPa) = 32.35422 39.94688 36.15055
# Shear Modulus (GPa) = 29.09409 32.73401 30.91405
#
# Velocity S-wave (km/s) = 3.59710 3.81548 3.70790
# Velocity P-wave (km/s) = 5.62505 6.09723 5.86589
#
# Compressibility (1/GPa) = 0.03090787
#
# Stress axis : x y z
#
# Youngs Moduli (GPa) = 70.00142 102.35251 61.22274
#
# Poissons Ratio (x) = 0.45928 -0.15032
# Poissons Ratio (y) = 0.31411 0.16584
# Poissons Ratio (z) = -0.17188 0.27726
#
# Static dielectric constant tensor:
#      x y z
#    x 1.801210 0.000000 0.000000 
#    y 0.000000 1.832210 0.000000 
#    z 0.000000 0.000000 1.854320 
# 
# From -- ./inp_files/7660.got.cif
#   From: 2010.05.17/outbox.cif.g08.bks.cpg/sg33_4_cif.got.tgz:7660.got - 2010.06.03 17:15:25.
