data_PCOD9346720
_publ_section_title
;
Structure prediction by ZEFSAII (Michael W. Deem and Ramdas Pophale) SiO2 
 PCOD9346720
Probable space group: P N A 21
;
_chemical_formula_sum "Si O2"
_cell_formula_units_Z 32
_cell_length_a 9.635134
_cell_length_b 5.606666
_cell_length_c 22.525074
_cell_angle_alpha 90.000000
_cell_angle_beta 90.000000
_cell_angle_gamma 90.000000
_cell_volume 1216.826532
_symmetry_space_group_name_H-M "P N A 21"
_symmetry_group_IT_number 33
_symmetry_cell_setting 'orthorhombic'
loop_
_space_group_symop_operation_xyz
x,y,z
-x,-y,1/2+z
1/2-x,1/2+y,1/2+z
1/2+x,1/2-y,z
loop_
_atom_site_type_symbol
_atom_site_label
_atom_site_fract_x
_atom_site_fract_y
_atom_site_fract_z
Si Si1 0.183134 0.968329 0.503170
Si Si2 0.533825 0.473755 0.251487
Si Si3 0.598264 0.755740 0.134380
Si Si4 0.306253 0.940181 0.379026
Si Si5 0.245928 0.860501 0.697455
Si Si6 0.161491 0.546236 0.596960
Si Si7 0.377324 0.443053 0.356706
Si Si8 0.449258 0.188782 0.469761
O O1 0.338543 0.071929 0.514619
O O2 0.082591 0.197877 0.499189
O O3 0.200126 0.914059 0.433293
O O4 0.142257 0.743922 0.544574
O O5 0.583749 0.666914 0.203318
O O6 0.623863 0.247706 0.231548
O O7 0.368916 0.471954 0.239088
O O8 0.524570 0.477743 0.322893
O O9 0.680358 0.553470 0.097622
O O10 0.699447 0.976150 0.144481
O O11 0.303376 0.693198 0.346027
O O12 0.309743 0.184968 0.341618
O O13 0.452272 0.988494 0.417275
O O14 0.155751 0.670108 0.661256
O O15 0.046694 0.342218 0.608219
O O16 0.386706 0.404224 0.428836
#
# Coordination Sequence:
#
# PCOD9346720 Si02
#       8
#     4   4   4   4   4   4   4   4
#     4   9  21  50  76 109 151 207 257 333 401 469
#     4  11  24  43  76 107 153 205 255 325 403 464
#     4  11  24  47  72 110 153 198 269 324 388 494
#     4   8  21  44  70 110 154 193 265 313 385 480
#     4  11  24  46  69 109 148 200 264 324 377 489
#     4  11  24  49  77 104 155 208 264 332 408 463
#     4   9  21  44  72 114 152 208 254 327 395 467
#     4   8  21  45  74 109 152 197 266 318 385 488
#
# _framework density 26.297917000000002
#
# number of rings (size 3 to 8) (size 9 to 14) (size 15 to 20)
#    1.500    0.500    2.500    0.000    1.750    2.000 
#   15.750    1.250    0.000    0.000    0.000    0.000 
#    0.000    0.000    0.000    0.000    0.000    0.000 
#
# Total GULP energy -178204.580797 kJ/mol
# GULP energy per Si atom -5568.893150 kJ/mol
# Density = 2.623806 g / cm^3
# Si number density = 26.297917 Si / 1000 Ang^3
#
#
#
# Elastic Constant Matrix: (Units=GPa)
#
#
# Indices 1 2 3 4 5 6 
#
# 1 103.1715 25.4431 22.2421 0.0000 0.0000 0.0000
# 2 25.4431 93.7508 18.3204 0.0000 0.0000 0.0000
# 3 22.2421 18.3204 103.4694 0.0000 0.0000 0.0000
# 4 0.0000 0.0000 0.0000 30.9808 0.0000 0.0000
# 5 0.0000 0.0000 0.0000 0.0000 30.1815 0.0000
# 6 0.0000 0.0000 0.0000 0.0000 0.0000 38.7876
#
#
#
# Elastic Compliance Matrix: (Units=1/GPa)
#
#
# Indices 1 2 3 4 5 6 
#
# 1 0.010720 -0.002547 -0.001853 0.000000 0.000000 0.000000
# 2 -0.002547 0.011654 -0.001516 0.000000 0.000000 0.000000
# 3 -0.001853 -0.001516 0.010332 0.000000 0.000000 0.000000
# 4 0.000000 0.000000 0.000000 0.032278 0.000000 0.000000
# 5 0.000000 0.000000 0.000000 0.000000 0.033133 0.000000
# 6 0.000000 0.000000 0.000000 0.000000 0.000000 0.025781
#
#
# Mechanical properties :
#
#
# Convention : Reuss Voigt Hill
#
# Bulk Modulus (GPa) = 47.90933 48.04478 47.97706
# Shear Modulus (GPa) = 35.04122 35.61573 35.32847
#
# Velocity S-wave (km/s) = 3.65426 3.68410 3.66921
# Velocity P-wave (km/s) = 6.00519 6.03373 6.01948
#
# Compressibility (1/GPa) = 0.02087276
#
# Stress axis : x y z
#
# Youngs Moduli (GPa) = 93.28062 85.80667 96.79105
#
# Poissons Ratio (x) = 0.21857 0.17940
# Poissons Ratio (y) = 0.23761 0.14673
# Poissons Ratio (z) = 0.17289 0.13008
#
# Static dielectric constant tensor:
#      x y z
#    x 2.116410 0.000000 0.000000 
#    y 0.000000 2.101460 0.000000 
#    z 0.000000 0.000000 2.310090 
# 
# From -- ./inp_files/9285.got.cif
#   From: 2010.05.17/outbox.cif.g08.bks.cpg/sg33_5_cif.got.tgz:9285.got - 2010.06.03 17:15:25.
