data_PCOD9346968
_publ_section_title
;
Structure prediction by ZEFSAII (Michael W. Deem and Ramdas Pophale) SiO2 
 PCOD9346968
Probable space group: P N A 21
;
_chemical_formula_sum "Si O2"
_cell_formula_units_Z 24
_cell_length_a 8.193015
_cell_length_b 9.190312
_cell_length_c 11.371589
_cell_angle_alpha 90.000000
_cell_angle_beta 90.000000
_cell_angle_gamma 90.000000
_cell_volume 856.239305
_symmetry_space_group_name_H-M "P N A 21"
_symmetry_group_IT_number 33
_symmetry_cell_setting 'orthorhombic'
loop_
_space_group_symop_operation_xyz
x,y,z
-x,-y,1/2+z
1/2-x,1/2+y,1/2+z
1/2+x,1/2-y,z
loop_
_atom_site_type_symbol
_atom_site_label
_atom_site_fract_x
_atom_site_fract_y
_atom_site_fract_z
Si Si1 0.426618 0.690031 0.274320
Si Si2 0.333226 0.147322 0.413526
Si Si3 0.730239 0.536470 0.191419
Si Si4 0.685821 0.063405 0.345341
Si Si5 0.744754 0.074362 0.092330
Si Si6 0.073627 0.162869 0.022900
O O1 0.560388 0.624710 0.187750
O O2 0.367513 0.843023 0.222192
O O3 0.268422 0.591711 0.312169
O O4 0.517360 0.656206 0.398251
O O5 0.519024 0.091263 0.413339
O O6 0.314535 0.320117 0.397225
O O7 0.245230 0.077298 0.299243
O O8 0.254659 0.083622 0.533264
O O9 0.718972 0.441860 0.070663
O O10 0.644880 0.103483 0.210281
O O11 0.652261 0.180761 0.005377
O O12 0.925914 0.135853 0.112276
#
# Coordination Sequence:
#
# PCOD9346968 Si02
#       6
#     4   4   4   4   4   4
#     4  12  25  47  72 111 155 197 251 328 379 462
#     4  12  26  47  78 110 151 206 258 319 396 462
#     4  12  25  47  75 111 150 204 260 316 391 465
#     4  12  27  48  74 109 158 194 255 329 380 461
#     4  12  26  47  79 111 148 206 261 316 402 461
#     4  12  25  46  78 108 150 203 259 316 390 465
#
# _framework density 28.02955
#
# number of rings (size 3 to 8) (size 9 to 14) (size 15 to 20)
#    0.000    0.000    6.667    3.000    2.333    1.333 
#    0.000    0.000    0.000    0.000    0.000    0.000 
#    0.000    0.000    0.000    0.000    0.000    0.000 
#
# Total GULP energy -134117.067193 kJ/mol
# GULP energy per Si atom -5588.211133 kJ/mol
# Density = 2.796575 g / cm^3
# Si number density = 28.029550 Si / 1000 Ang^3
#
#
#
# Elastic Constant Matrix: (Units=GPa)
#
#
# Indices 1 2 3 4 5 6 
#
# 1 100.7623 11.2486 5.4787 0.0000 0.0000 0.0000
# 2 11.2486 123.0646 23.8548 0.0000 0.0000 0.0000
# 3 5.4787 23.8548 50.0607 0.0000 0.0000 0.0000
# 4 0.0000 0.0000 0.0000 45.2260 0.0000 0.0000
# 5 0.0000 0.0000 0.0000 0.0000 39.3534 0.0000
# 6 0.0000 0.0000 0.0000 0.0000 0.0000 42.4662
#
#
#
# Elastic Compliance Matrix: (Units=1/GPa)
#
#
# Indices 1 2 3 4 5 6 
#
# 1 0.010051 -0.000777 -0.000730 0.000000 0.000000 0.000000
# 2 -0.000777 0.009013 -0.004210 0.000000 0.000000 0.000000
# 3 -0.000730 -0.004210 0.022062 0.000000 0.000000 0.000000
# 4 0.000000 0.000000 0.000000 0.022111 0.000000 0.000000
# 5 0.000000 0.000000 0.000000 0.000000 0.025411 0.000000
# 6 0.000000 0.000000 0.000000 0.000000 0.000000 0.023548
#
#
# Mechanical properties :
#
#
# Convention : Reuss Voigt Hill
#
# Bulk Modulus (GPa) = 33.67897 39.45018 36.56457
# Shear Modulus (GPa) = 37.44595 40.96283 39.20439
#
# Velocity S-wave (km/s) = 3.65902 3.82699 3.74395
# Velocity P-wave (km/s) = 5.46744 5.79939 5.63586
#
# Compressibility (1/GPa) = 0.02969212
#
# Stress axis : x y z
#
# Youngs Moduli (GPa) = 99.49469 110.95245 45.32768
#
# Poissons Ratio (x) = 0.08624 0.03307
# Poissons Ratio (y) = 0.07733 0.19082
# Poissons Ratio (z) = 0.07259 0.46708
#
# Static dielectric constant tensor:
#      x y z
#    x 2.133620 0.000000 0.000000 
#    y 0.000000 2.203330 0.000000 
#    z 0.000000 0.000000 2.318950 
# 
# From -- ./inp_files/5745.got.cif
#   From: 2010.05.17/outbox.cif.g08.bks.cpg/sg33_3_cif.got.tgz:5745.got - 2010.06.03 17:15:25.
