data_PCOD9346277
_publ_section_title
;
Structure prediction by ZEFSAII (Michael W. Deem and Ramdas Pophale) SiO2 
 PCOD9346277
Probable space group: P N A 21
;
_chemical_formula_sum "Si O2"
_cell_formula_units_Z 20
_cell_length_a 22.309264
_cell_length_b 5.018799
_cell_length_c 7.735502
_cell_angle_alpha 90.000000
_cell_angle_beta 90.000000
_cell_angle_gamma 90.000000
_cell_volume 866.110988
_symmetry_space_group_name_H-M "P N A 21"
_symmetry_group_IT_number 33
_symmetry_cell_setting 'orthorhombic'
loop_
_space_group_symop_operation_xyz
x,y,z
-x,-y,1/2+z
1/2-x,1/2+y,1/2+z
1/2+x,1/2-y,z
loop_
_atom_site_type_symbol
_atom_site_label
_atom_site_fract_x
_atom_site_fract_y
_atom_site_fract_z
Si Si1 0.788503 0.541194 0.253240
Si Si2 0.986527 0.884423 0.425328
Si Si3 0.673122 0.294465 0.416474
Si Si4 0.640636 0.532930 0.764803
Si Si5 0.950704 0.630394 0.789746
O O1 0.723812 0.439724 0.306778
O O2 0.809122 0.823944 0.328945
O O3 0.838454 0.327240 0.309834
O O4 0.856275 0.997412 0.056618
O O5 0.923067 0.946825 0.335725
O O6 0.973229 0.752163 0.609706
O O7 0.025684 0.665917 0.322577
O O8 0.020354 0.166742 0.429544
O O9 0.704304 0.086857 0.548085
O O10 0.620696 0.158235 0.307995
#
# Coordination Sequence:
#
# PCOD9346277 Si02
#       5
#     4   4   4   4   4
#     4  10  25  40  72  95 144 175 239 281 347 408
#     4  12  26  47  71 105 140 183 237 289 361 416
#     4  10  26  44  70 101 139 186 235 284 350 415
#     4  10  24  43  69  99 138 180 231 290 338 423
#     4  12  27  44  74 102 141 186 232 296 350 426
#
# _framework density 23.091726999999999
#
# number of rings (size 3 to 8) (size 9 to 14) (size 15 to 20)
#    1.200    0.000    0.000    4.800   11.200    0.000 
#    0.000    0.000    0.000    0.000    0.000    0.000 
#    0.000    0.000    0.000    0.000    0.000    0.000 
#
# Total GULP energy -111823.804131 kJ/mol
# GULP energy per Si atom -5591.190207 kJ/mol
# Density = 2.303917 g / cm^3
# Si number density = 23.091727 Si / 1000 Ang^3
#
#
#
# Elastic Constant Matrix: (Units=GPa)
#
#
# Indices 1 2 3 4 5 6 
#
# 1 120.3084 7.2393 18.8471 0.0000 0.0000 0.0000
# 2 7.2393 95.3618 0.1535 0.0000 0.0000 0.0000
# 3 18.8471 0.1535 50.3444 0.0000 0.0000 0.0000
# 4 0.0000 0.0000 0.0000 26.7721 0.0000 0.0000
# 5 0.0000 0.0000 0.0000 0.0000 43.4467 0.0000
# 6 0.0000 0.0000 0.0000 0.0000 0.0000 36.8881
#
#
#
# Elastic Compliance Matrix: (Units=1/GPa)
#
#
# Indices 1 2 3 4 5 6 
#
# 1 0.008872 -0.000668 -0.003319 0.000000 0.000000 0.000000
# 2 -0.000668 0.010537 0.000218 0.000000 0.000000 0.000000
# 3 -0.003319 0.000218 0.021105 0.000000 0.000000 0.000000
# 4 0.000000 0.000000 0.000000 0.037352 0.000000 0.000000
# 5 0.000000 0.000000 0.000000 0.000000 0.023017 0.000000
# 6 0.000000 0.000000 0.000000 0.000000 0.000000 0.027109
#
#
# Mechanical properties :
#
#
# Convention : Reuss Voigt Hill
#
# Bulk Modulus (GPa) = 30.32596 35.38823 32.85710
# Shear Modulus (GPa) = 34.12438 37.40637 35.76538
#
# Velocity S-wave (km/s) = 3.84835 4.02917 3.93980
# Velocity P-wave (km/s) = 5.73653 6.08309 5.91235
#
# Compressibility (1/GPa) = 0.03297505
#
# Stress axis : x y z
#
# Youngs Moduli (GPa) = 112.71191 94.90586 47.38176
#
# Poissons Ratio (x) = 0.06341 0.15728
# Poissons Ratio (y) = 0.07531 -0.01033
# Poissons Ratio (z) = 0.37413 -0.02069
#
# Static dielectric constant tensor:
#      x y z
#    x 1.829900 0.000000 0.000000 
#    y 0.000000 1.832880 0.000000 
#    z 0.000000 0.000000 1.904940 
# 
# From -- ./inp_files/4908.got.cif
#   From: 2010.05.17/outbox.cif.g08.bks.cpg/sg33_3_cif.got.tgz:4908.got - 2010.06.03 17:15:25.
