data_PCOD9346140
_publ_section_title
;
Structure prediction by ZEFSAII (Michael W. Deem and Ramdas Pophale) SiO2 
 PCOD9346140
Probable space group: P N A 21
;
_chemical_formula_sum "Si O2"
_cell_formula_units_Z 32
_cell_length_a 27.314705
_cell_length_b 8.496109
_cell_length_c 5.282471
_cell_angle_alpha 90.000000
_cell_angle_beta 90.000000
_cell_angle_gamma 90.000000
_cell_volume 1225.896236
_symmetry_space_group_name_H-M "P N A 21"
_symmetry_group_IT_number 33
_symmetry_cell_setting 'orthorhombic'
loop_
_space_group_symop_operation_xyz
x,y,z
-x,-y,1/2+z
1/2-x,1/2+y,1/2+z
1/2+x,1/2-y,z
loop_
_atom_site_type_symbol
_atom_site_label
_atom_site_fract_x
_atom_site_fract_y
_atom_site_fract_z
Si Si1 0.518960 0.410025 0.984810
Si Si2 0.063343 0.696412 0.510386
Si Si3 0.647879 0.749364 0.806597
Si Si4 0.614991 0.136801 0.533138
Si Si5 0.174683 0.446794 0.046337
Si Si6 0.266024 0.278915 0.922671
Si Si7 0.303364 0.501219 0.552713
Si Si8 0.896052 0.960069 0.833953
O O1 0.508263 0.500252 0.722708
O O2 0.493224 0.238397 0.979596
O O3 0.573811 0.409496 0.084066
O O4 0.090418 0.720599 0.778630
O O5 0.078726 0.513517 0.472517
O O6 0.088269 0.855928 0.381100
O O7 0.664468 0.868427 0.023096
O O8 0.684765 0.775829 0.568688
O O9 0.658118 0.569281 0.859070
O O10 0.592405 0.312154 0.519167
O O11 0.645642 0.113553 0.793588
O O12 0.651543 0.123030 0.296490
O O13 0.232599 0.414910 0.052207
O O14 0.271523 0.355045 0.648131
O O15 0.228679 0.137296 0.947478
O O16 0.337921 0.541011 0.789538
#
# Coordination Sequence:
#
# PCOD9346140 Si02
#       8
#     4   4   4   4   4   4   4   4
#     4  10  23  44  77 108 143 182 240 297 364 436
#     4  10  23  47  70 106 142 185 234 303 367 428
#     4  11  25  40  69  92 140 190 236 291 370 419
#     4  11  26  46  72 103 144 186 238 293 359 426
#     4  11  26  45  66 100 141 184 235 300 342 426
#     4  12  26  40  61 106 135 191 239 302 345 439
#     4  12  26  42  68  98 144 195 252 296 370 434
#     4  11  23  46  75 103 137 193 242 296 363 438
#
# _framework density 26.103351
#
# number of rings (size 3 to 8) (size 9 to 14) (size 15 to 20)
#    0.000    1.000    3.750    1.500    7.000    5.000 
#    0.000    7.500    0.000    0.000    0.000    0.000 
#    0.000    0.000    0.000    0.000    0.000    0.000 
#
# Total GULP energy -178548.756351 kJ/mol
# GULP energy per Si atom -5579.648636 kJ/mol
# Density = 2.604394 g / cm^3
# Si number density = 26.103351 Si / 1000 Ang^3
#
#
#
# Elastic Constant Matrix: (Units=GPa)
#
#
# Indices 1 2 3 4 5 6 
#
# 1 61.2898 17.0101 8.5726 0.0000 0.0000 0.0000
# 2 17.0101 126.7530 28.7701 0.0000 0.0000 0.0000
# 3 8.5726 28.7701 91.0344 0.0000 0.0000 0.0000
# 4 0.0000 0.0000 0.0000 30.8410 0.0000 0.0000
# 5 0.0000 0.0000 0.0000 0.0000 29.8352 0.0000
# 6 0.0000 0.0000 0.0000 0.0000 0.0000 40.3338
#
#
#
# Elastic Compliance Matrix: (Units=1/GPa)
#
#
# Indices 1 2 3 4 5 6 
#
# 1 0.017023 -0.002069 -0.000949 0.000000 0.000000 0.000000
# 2 -0.002069 0.008750 -0.002571 0.000000 0.000000 0.000000
# 3 -0.000949 -0.002571 0.011887 0.000000 0.000000 0.000000
# 4 0.000000 0.000000 0.000000 0.032424 0.000000 0.000000
# 5 0.000000 0.000000 0.000000 0.000000 0.033517 0.000000
# 6 0.000000 0.000000 0.000000 0.000000 0.000000 0.024793
#
#
# Mechanical properties :
#
#
# Convention : Reuss Voigt Hill
#
# Bulk Modulus (GPa) = 37.76083 43.08697 40.42390
# Shear Modulus (GPa) = 33.69272 35.18363 34.43817
#
# Velocity S-wave (km/s) = 3.59659 3.67530 3.63616
# Velocity P-wave (km/s) = 5.63423 5.87815 5.75748
#
# Compressibility (1/GPa) = 0.02648247
#
# Stress axis : x y z
#
# Youngs Moduli (GPa) = 58.74438 114.27933 84.12806
#
# Poissons Ratio (x) = 0.23645 0.07985
# Poissons Ratio (y) = 0.12154 0.21626
# Poissons Ratio (z) = 0.05576 0.29377
#
# Static dielectric constant tensor:
#      x y z
#    x 2.099880 0.000000 0.000000 
#    y 0.000000 2.163750 0.000000 
#    z 0.000000 0.000000 2.146050 
# 
# From -- ./inp_files/2521.got.cif
#   From: 2010.05.17/outbox.cif.g08.bks.cpg/sg33_2_cif.got.tgz:2521.got - 2010.06.03 17:15:25.
