data_PCOD9346704
_publ_section_title
;
Structure prediction by ZEFSAII (Michael W. Deem and Ramdas Pophale) SiO2 
 PCOD9346704
Probable space group: P N A 21
;
_chemical_formula_sum "Si O2"
_cell_formula_units_Z 32
_cell_length_a 18.397821
_cell_length_b 6.786809
_cell_length_c 11.942112
_cell_angle_alpha 90.000000
_cell_angle_beta 90.000000
_cell_angle_gamma 90.000000
_cell_volume 1491.121925
_symmetry_space_group_name_H-M "P N A 21"
_symmetry_group_IT_number 33
_symmetry_cell_setting 'orthorhombic'
loop_
_space_group_symop_operation_xyz
x,y,z
-x,-y,1/2+z
1/2-x,1/2+y,1/2+z
1/2+x,1/2-y,z
loop_
_atom_site_type_symbol
_atom_site_label
_atom_site_fract_x
_atom_site_fract_y
_atom_site_fract_z
Si Si1 0.131334 0.481468 0.152040
Si Si2 0.121947 0.839870 0.602393
Si Si3 0.519534 0.171714 0.980622
Si Si4 0.808152 0.914747 0.915587
Si Si5 0.950351 0.675747 0.856797
Si Si6 0.756373 0.852222 0.678119
Si Si7 0.069717 0.997294 0.819409
Si Si8 0.322289 0.343485 0.512148
O O1 0.081054 0.466665 0.260985
O O2 0.205629 0.364365 0.181211
O O3 0.140795 0.698930 0.103247
O O4 0.089731 0.354292 0.057888
O O5 0.046378 0.770196 0.549221
O O6 0.170040 0.675165 0.666006
O O7 0.106361 0.004482 0.697228
O O8 0.172221 0.910842 0.499807
O O9 0.539469 0.302535 0.872763
O O10 0.493010 0.956777 0.944360
O O11 0.881429 0.786735 0.908292
O O12 0.782709 0.964239 0.789942
O O13 0.742956 0.785646 0.963081
O O14 0.003964 0.841248 0.808825
O O15 0.788197 0.970399 0.574138
O O16 0.124682 0.909724 0.912612
#
# Coordination Sequence:
#
# PCOD9346704 Si02
#       8
#     4   4   4   4   4   4   4   4
#     4  11  24  42  68  99 133 176 231 282 342 416
#     4  12  25  47  71 105 142 183 236 292 351 422
#     4  12  25  43  71 100 137 186 229 285 349 416
#     4  11  25  47  69 102 138 179 234 285 346 419
#     4  11  25  43  66 101 137 178 229 284 343 410
#     4  11  25  46  72  98 137 180 230 292 347 410
#     4  12  25  44  71 101 142 179 232 288 346 418
#     4  12  24  46  72 100 134 187 229 288 348 411
#
# _framework density 21.460349999999998
#
# number of rings (size 3 to 8) (size 9 to 14) (size 15 to 20)
#    0.000    0.500    7.500    0.750    1.750    2.000 
#    6.750    0.000    0.000    0.000    0.000    0.000 
#    0.000    0.000    0.000    0.000    0.000    0.000 
#
# Total GULP energy -178928.104950 kJ/mol
# GULP energy per Si atom -5591.503280 kJ/mol
# Density = 2.141151 g / cm^3
# Si number density = 21.460350 Si / 1000 Ang^3
#
#
#
# Elastic Constant Matrix: (Units=GPa)
#
#
# Indices 1 2 3 4 5 6 
#
# 1 64.8016 1.5304 -0.9526 0.0000 0.0000 0.0000
# 2 1.5304 20.2898 -6.7169 0.0000 0.0000 0.0000
# 3 -0.9526 -6.7169 52.6356 0.0000 0.0000 0.0000
# 4 0.0000 0.0000 0.0000 19.9096 0.0000 0.0000
# 5 0.0000 0.0000 0.0000 0.0000 28.6680 0.0000
# 6 0.0000 0.0000 0.0000 0.0000 0.0000 26.5281
#
#
#
# Elastic Compliance Matrix: (Units=1/GPa)
#
#
# Indices 1 2 3 4 5 6 
#
# 1 0.015460 -0.001121 0.000137 0.000000 0.000000 0.000000
# 2 -0.001121 0.051541 0.006557 0.000000 0.000000 0.000000
# 3 0.000137 0.006557 0.019838 0.000000 0.000000 0.000000
# 4 0.000000 0.000000 0.000000 0.050227 0.000000 0.000000
# 5 0.000000 0.000000 0.000000 0.000000 0.034882 0.000000
# 6 0.000000 0.000000 0.000000 0.000000 0.000000 0.037696
#
#
# Mechanical properties :
#
#
# Convention : Reuss Voigt Hill
#
# Bulk Modulus (GPa) = 10.20565 13.93873 12.07219
# Shear Modulus (GPa) = 21.63007 24.61223 23.12115
#
# Velocity S-wave (km/s) = 3.17820 3.39022 3.28592
# Velocity P-wave (km/s) = 4.27011 4.67269 4.47593
#
# Compressibility (1/GPa) = 0.09798494
#
# Stress axis : x y z
#
# Youngs Moduli (GPa) = 64.68226 19.40200 50.40887
#
# Poissons Ratio (x) = 0.02175 -0.00689
# Poissons Ratio (y) = 0.07250 -0.33053
# Poissons Ratio (z) = -0.00885 -0.12722
#
# Static dielectric constant tensor:
#      x y z
#    x 1.768660 0.000000 0.000000 
#    y 0.000000 1.743350 0.000000 
#    z 0.000000 0.000000 1.807260 
# 
# From -- ./inp_files/7181.got.cif
#   From: 2010.05.17/outbox.cif.g08.bks.cpg/sg33_4_cif.got.tgz:7181.got - 2010.06.03 17:15:25.
