data_PCOD9346292
_publ_section_title
;
Structure prediction by ZEFSAII (Michael W. Deem and Ramdas Pophale) SiO2 
 PCOD9346292
Probable space group: P N A 21
;
_chemical_formula_sum "Si O2"
_cell_formula_units_Z 32
_cell_length_a 9.240844
_cell_length_b 26.132161
_cell_length_c 5.535605
_cell_angle_alpha 90.000000
_cell_angle_beta 90.000000
_cell_angle_gamma 90.000000
_cell_volume 1336.755738
_symmetry_space_group_name_H-M "P N A 21"
_symmetry_group_IT_number 33
_symmetry_cell_setting 'orthorhombic'
loop_
_space_group_symop_operation_xyz
x,y,z
-x,-y,1/2+z
1/2-x,1/2+y,1/2+z
1/2+x,1/2-y,z
loop_
_atom_site_type_symbol
_atom_site_label
_atom_site_fract_x
_atom_site_fract_y
_atom_site_fract_z
Si Si1 0.348790 0.239932 0.961510
Si Si2 0.983725 0.468046 0.169409
Si Si3 0.040661 0.865120 0.824030
Si Si4 0.402987 0.729181 0.795471
Si Si5 0.662860 0.437541 0.057334
Si Si6 0.778122 0.606264 0.501489
Si Si7 0.397429 0.807328 0.193057
Si Si8 0.451472 0.452610 0.702121
O O1 0.441580 0.200246 0.803346
O O2 0.230957 0.271434 0.807495
O O3 0.482190 0.271051 0.077090
O O4 0.254328 0.219103 0.186069
O O5 0.827059 0.443388 0.127575
O O6 0.007735 0.504004 0.930161
O O7 0.102698 0.423907 0.150155
O O8 0.186239 0.856176 0.672276
O O9 0.973058 0.815922 0.958058
O O10 0.911771 0.886552 0.655624
O O11 0.078405 0.913100 0.990111
O O12 0.406314 0.783946 0.925519
O O13 0.617647 0.442491 0.777381
O O14 0.582754 0.488744 0.155175
O O15 0.846373 0.636710 0.275627
O O16 0.659477 0.566049 0.407399
#
# Coordination Sequence:
#
# PCOD9346292 Si02
#       8
#     4   4   4   4   4   4   4   4
#     4  10  24  44  67  96 140 176 231 303 360 440
#     4  12  28  49  75 110 157 200 248 315 383 450
#     4  11  25  44  75 101 139 186 254 296 375 454
#     4  11  24  45  70 101 136 189 235 307 369 443
#     4  11  24  43  68 106 144 188 240 305 359 444
#     4  11  26  46  72 103 141 197 246 308 378 458
#     4  11  24  45  72 101 143 183 246 301 379 446
#     4  11  23  42  73 100 140 191 240 293 367 443
#
# _framework density 23.938555999999998
#
# number of rings (size 3 to 8) (size 9 to 14) (size 15 to 20)
#    0.000    1.000    3.750    1.500    8.750    1.000 
#    2.250    0.000    0.000    0.000    0.000    0.000 
#    0.000    0.000    0.000    0.000    0.000    0.000 
#
# Total GULP energy -178718.662861 kJ/mol
# GULP energy per Si atom -5584.958214 kJ/mol
# Density = 2.388407 g / cm^3
# Si number density = 23.938556 Si / 1000 Ang^3
#
#
#
# Elastic Constant Matrix: (Units=GPa)
#
#
# Indices 1 2 3 4 5 6 
#
# 1 140.4328 17.5890 17.3832 0.0000 0.0000 0.0000
# 2 17.5890 60.8104 -4.4053 0.0000 0.0000 0.0000
# 3 17.3832 -4.4053 47.6490 0.0000 0.0000 0.0000
# 4 0.0000 0.0000 0.0000 20.2424 0.0000 0.0000
# 5 0.0000 0.0000 0.0000 0.0000 20.2405 0.0000
# 6 0.0000 0.0000 0.0000 0.0000 0.0000 44.5362
#
#
#
# Elastic Compliance Matrix: (Units=1/GPa)
#
#
# Indices 1 2 3 4 5 6 
#
# 1 0.007813 -0.002483 -0.003080 0.000000 0.000000 0.000000
# 2 -0.002483 0.017345 0.002509 0.000000 0.000000 0.000000
# 3 -0.003080 0.002509 0.022342 0.000000 0.000000 0.000000
# 4 0.000000 0.000000 0.000000 0.049401 0.000000 0.000000
# 5 0.000000 0.000000 0.000000 0.000000 0.049406 0.000000
# 6 0.000000 0.000000 0.000000 0.000000 0.000000 0.022454
#
#
# Mechanical properties :
#
#
# Convention : Reuss Voigt Hill
#
# Bulk Modulus (GPa) = 24.15864 34.44732 29.30298
# Shear Modulus (GPa) = 26.50190 31.55883 29.03036
#
# Velocity S-wave (km/s) = 3.33089 3.63482 3.48617
# Velocity P-wave (km/s) = 4.99069 5.66012 5.33591
#
# Compressibility (1/GPa) = 0.04139306
#
# Stress axis : x y z
#
# Youngs Moduli (GPa) = 127.99049 57.65499 44.75787
#
# Poissons Ratio (x) = 0.14316 0.13785
# Poissons Ratio (y) = 0.31780 -0.11232
# Poissons Ratio (z) = 0.39420 -0.14468
#
# Static dielectric constant tensor:
#      x y z
#    x 1.878870 0.000000 0.000000 
#    y 0.000000 1.967850 0.000000 
#    z 0.000000 0.000000 2.043740 
# 
# From -- ./inp_files/621.got.cif
#   From: 2010.05.17/outbox.cif.g08.bks.cpg/sg33_1_cif.got.tgz:621.got - 2010.06.03 17:15:25.
