data_PCOD9346977
_publ_section_title
;
Structure prediction by ZEFSAII (Michael W. Deem and Ramdas Pophale) SiO2 
 PCOD9346977
Probable space group: P N A 21
;
_chemical_formula_sum "Si O2"
_cell_formula_units_Z 28
_cell_length_a 11.362219
_cell_length_b 9.051574
_cell_length_c 10.775156
_cell_angle_alpha 90.000000
_cell_angle_beta 90.000000
_cell_angle_gamma 90.000000
_cell_volume 1108.181329
_symmetry_space_group_name_H-M "P N A 21"
_symmetry_group_IT_number 33
_symmetry_cell_setting 'orthorhombic'
loop_
_space_group_symop_operation_xyz
x,y,z
-x,-y,1/2+z
1/2-x,1/2+y,1/2+z
1/2+x,1/2-y,z
loop_
_atom_site_type_symbol
_atom_site_label
_atom_site_fract_x
_atom_site_fract_y
_atom_site_fract_z
Si Si1 0.854408 0.297940 0.939060
Si Si2 0.846271 0.933669 0.588563
Si Si3 0.929219 0.712015 0.764729
Si Si4 0.221061 0.513583 0.100543
Si Si5 0.923530 0.536664 0.355687
Si Si6 0.239435 0.294255 0.707519
Si Si7 0.441374 0.529830 0.962243
O O1 0.765426 0.307410 0.824972
O O2 0.958543 0.413147 0.925174
O O3 0.909862 0.136442 0.919237
O O4 0.769410 0.341508 0.050984
O O5 0.938067 0.819888 0.647846
O O6 0.803080 0.050343 0.688955
O O7 0.919135 0.022241 0.485379
O O8 0.836088 0.589115 0.708186
O O9 0.905269 0.827001 0.879130
O O10 0.045276 0.621696 0.799567
O O11 0.198011 0.688804 0.107491
O O12 0.173294 0.462607 0.964975
O O13 0.362991 0.528667 0.089050
O O14 0.891316 0.646832 0.242149
#
# Coordination Sequence:
#
# PCOD9346977 Si02
#       7
#     4   4   4   4   4   4   4
#     4  12  25  50  74 110 161 199 262 322 392 475
#     4  12  28  48  78 113 155 214 254 332 392 477
#     4  12  26  50  79 114 156 209 257 334 397 466
#     4  12  27  49  79 116 155 209 259 329 398 469
#     4  12  28  50  78 118 155 203 267 328 389 486
#     4  12  27  49  76 110 157 206 260 315 405 459
#     4  12  27  48  76 115 157 202 273 316 397 482
#
# _framework density 25.266621000000001
#
# number of rings (size 3 to 8) (size 9 to 14) (size 15 to 20)
#    0.000    0.000    5.714    2.571    8.000    2.286 
#    2.571    0.000    0.000    0.000    0.000    0.000 
#    0.000    0.000    0.000    0.000    0.000    0.000 
#
# Total GULP energy -155877.676493 kJ/mol
# GULP energy per Si atom -5567.059875 kJ/mol
# Density = 2.520911 g / cm^3
# Si number density = 25.266621 Si / 1000 Ang^3
#
#
#
# Elastic Constant Matrix: (Units=GPa)
#
#
# Indices 1 2 3 4 5 6 
#
# 1 91.8762 36.3239 30.9698 0.0000 0.0000 0.0000
# 2 36.3239 126.9173 41.8378 0.0000 0.0000 0.0000
# 3 30.9698 41.8378 68.3278 0.0000 0.0000 0.0000
# 4 0.0000 0.0000 0.0000 23.7815 0.0000 0.0000
# 5 0.0000 0.0000 0.0000 0.0000 31.5674 0.0000
# 6 0.0000 0.0000 0.0000 0.0000 0.0000 23.0731
#
#
#
# Elastic Compliance Matrix: (Units=1/GPa)
#
#
# Indices 1 2 3 4 5 6 
#
# 1 0.013358 -0.002289 -0.004653 0.000000 0.000000 0.000000
# 2 -0.002289 0.010264 -0.005247 0.000000 0.000000 0.000000
# 3 -0.004653 -0.005247 0.019957 0.000000 0.000000 0.000000
# 4 0.000000 0.000000 0.000000 0.042050 0.000000 0.000000
# 5 0.000000 0.000000 0.000000 0.000000 0.031678 0.000000
# 6 0.000000 0.000000 0.000000 0.000000 0.000000 0.043341
#
#
# Mechanical properties :
#
#
# Convention : Reuss Voigt Hill
#
# Bulk Modulus (GPa) = 52.08176 56.15379 54.11778
# Shear Modulus (GPa) = 26.11983 27.55036 26.83509
#
# Velocity S-wave (km/s) = 3.21871 3.30568 3.26249
# Velocity P-wave (km/s) = 5.87121 6.06983 5.97134
#
# Compressibility (1/GPa) = 0.01920058
#
# Stress axis : x y z
#
# Youngs Moduli (GPa) = 74.86369 97.42752 50.10752
#
# Poissons Ratio (x) = 0.22303 0.23313
# Poissons Ratio (y) = 0.17138 0.26292
# Poissons Ratio (z) = 0.34832 0.51122
#
# Static dielectric constant tensor:
#      x y z
#    x 2.015770 0.000000 0.000000 
#    y 0.000000 2.090870 0.000000 
#    z 0.000000 0.000000 2.185010 
# 
# From -- ./inp_files/6331.got.cif
#   From: 2010.05.17/outbox.cif.g08.bks.cpg/sg33_4_cif.got.tgz:6331.got - 2010.06.03 17:15:25.
