data_PCOD9346316
_publ_section_title
;
Structure prediction by ZEFSAII (Michael W. Deem and Ramdas Pophale) SiO2 
 PCOD9346316
Probable space group: P N A 21
;
_chemical_formula_sum "Si O2"
_cell_formula_units_Z 32
_cell_length_a 11.981288
_cell_length_b 13.178947
_cell_length_c 8.644429
_cell_angle_alpha 90.000000
_cell_angle_beta 90.000000
_cell_angle_gamma 90.000000
_cell_volume 1364.961905
_symmetry_space_group_name_H-M "P N A 21"
_symmetry_group_IT_number 33
_symmetry_cell_setting 'orthorhombic'
loop_
_space_group_symop_operation_xyz
x,y,z
-x,-y,1/2+z
1/2-x,1/2+y,1/2+z
1/2+x,1/2-y,z
loop_
_atom_site_type_symbol
_atom_site_label
_atom_site_fract_x
_atom_site_fract_y
_atom_site_fract_z
Si Si1 0.035429 0.048183 0.118530
Si Si2 0.967056 0.723699 0.742419
Si Si3 0.373507 0.148492 0.457458
Si Si4 0.412617 0.921905 0.472218
Si Si5 0.158835 0.244935 0.552173
Si Si6 0.799125 0.116412 0.768653
Si Si7 0.118405 0.675171 0.296459
Si Si8 0.638398 0.421727 0.778266
O O1 0.041164 0.162850 0.180115
O O2 0.116803 0.969557 0.209726
O O3 0.079038 0.053052 0.941314
O O4 0.911312 0.004531 0.157513
O O5 0.912079 0.643385 0.627925
O O6 0.914032 0.718277 0.911887
O O7 0.092269 0.690803 0.790452
O O8 0.240434 0.160334 0.474124
O O9 0.406311 0.202422 0.617955
O O10 0.428950 0.040667 0.489572
O O11 0.297370 0.920371 0.380883
O O12 0.514654 0.875815 0.376242
O O13 0.231440 0.336260 0.622399
O O14 0.106143 0.185640 0.698016
O O15 0.852727 0.212991 0.858755
O O16 0.228104 0.600524 0.302370
#
# Coordination Sequence:
#
# PCOD9346316 Si02
#       8
#     4   4   4   4   4   4   4   4
#     4  12  26  43  76 112 150 193 259 315 396 452
#     4  12  26  43  73 112 146 189 258 320 369 462
#     4  10  24  45  68  98 140 193 242 308 374 451
#     4  12  25  47  70 108 141 200 249 313 378 460
#     4  10  24  46  69 102 149 193 247 306 385 454
#     4  10  25  43  76  97 149 199 241 316 377 455
#     4  10  25  47  71  99 150 193 249 301 385 449
#     4  10  25  46  73 104 151 198 243 319 376 459
#
# _framework density 23.443878999999999
#
# number of rings (size 3 to 8) (size 9 to 14) (size 15 to 20)
#    0.000    1.500    0.000    4.500   12.250    8.000 
#    0.000    0.000    0.000    0.000    0.000    0.000 
#    0.000    0.000    0.000    0.000    0.000    0.000 
#
# Total GULP energy -178623.708462 kJ/mol
# GULP energy per Si atom -5581.990889 kJ/mol
# Density = 2.339052 g / cm^3
# Si number density = 23.443879 Si / 1000 Ang^3
#
#
#
# Elastic Constant Matrix: (Units=GPa)
#
#
# Indices 1 2 3 4 5 6 
#
# 1 77.5675 30.0496 48.1098 0.0000 0.0000 0.0000
# 2 30.0496 97.5374 23.9453 0.0000 0.0000 0.0000
# 3 48.1098 23.9453 100.9995 0.0000 0.0000 0.0000
# 4 0.0000 0.0000 0.0000 45.0658 0.0000 0.0000
# 5 0.0000 0.0000 0.0000 0.0000 31.1978 0.0000
# 6 0.0000 0.0000 0.0000 0.0000 0.0000 34.2870
#
#
#
# Elastic Compliance Matrix: (Units=1/GPa)
#
#
# Indices 1 2 3 4 5 6 
#
# 1 0.019659 -0.003990 -0.008418 0.000000 0.000000 0.000000
# 2 -0.003990 0.011696 -0.000872 0.000000 0.000000 0.000000
# 3 -0.008418 -0.000872 0.014118 0.000000 0.000000 0.000000
# 4 0.000000 0.000000 0.000000 0.022190 0.000000 0.000000
# 5 0.000000 0.000000 0.000000 0.000000 0.032054 0.000000
# 6 0.000000 0.000000 0.000000 0.000000 0.000000 0.029166
#
#
# Mechanical properties :
#
#
# Convention : Reuss Voigt Hill
#
# Bulk Modulus (GPa) = 52.87801 53.36819 53.12310
# Shear Modulus (GPa) = 30.91253 33.71011 32.31132
#
# Velocity S-wave (km/s) = 3.63516 3.79609 3.71649
# Velocity P-wave (km/s) = 6.34218 6.48285 6.41290
#
# Compressibility (1/GPa) = 0.01891145
#
# Stress axis : x y z
#
# Youngs Moduli (GPa) = 50.86725 85.50029 70.83234
#
# Poissons Ratio (x) = 0.34114 0.59629
# Poissons Ratio (y) = 0.20296 0.06179
# Poissons Ratio (z) = 0.42822 0.07459
#
# Static dielectric constant tensor:
#      x y z
#    x 2.068930 0.000000 0.000000 
#    y 0.000000 1.081960 0.000000 
#    z 0.000000 0.000000 1.881530 
# 
# From -- ./inp_files/3953.got.cif
#   From: 2010.05.17/outbox.cif.g08.bks.cpg/sg33_2_cif.got.tgz:3953.got - 2010.06.03 17:15:25.
