data_PCOD9346743
_publ_section_title
;
Structure prediction by ZEFSAII (Michael W. Deem and Ramdas Pophale) SiO2 
 PCOD9346743
Probable space group: P N A 21
;
_chemical_formula_sum "Si O2"
_cell_formula_units_Z 16
_cell_length_a 7.495894
_cell_length_b 16.223209
_cell_length_c 5.196236
_cell_angle_alpha 90.000000
_cell_angle_beta 90.000000
_cell_angle_gamma 90.000000
_cell_volume 631.901036
_symmetry_space_group_name_H-M "P N A 21"
_symmetry_group_IT_number 33
_symmetry_cell_setting 'orthorhombic'
loop_
_space_group_symop_operation_xyz
x,y,z
-x,-y,1/2+z
1/2-x,1/2+y,1/2+z
1/2+x,1/2-y,z
loop_
_atom_site_type_symbol
_atom_site_label
_atom_site_fract_x
_atom_site_fract_y
_atom_site_fract_z
Si Si1 0.942507 0.585627 0.085720
Si Si2 0.797346 0.994887 0.939180
Si Si3 0.549434 0.820241 0.576613
Si Si4 0.547605 0.363714 0.156345
O O1 0.953957 0.653046 0.313872
O O2 0.777938 0.527473 0.163120
O O3 0.117254 0.526887 0.092379
O O4 0.956755 0.633218 0.816859
O O5 0.901252 0.908188 0.924383
O O6 0.923628 0.066780 0.034040
O O7 0.546011 0.724035 0.645468
O O8 0.754973 0.847101 0.545459
#
# Coordination Sequence:
#
# PCOD9346743 Si02
#       4
#     4   4   4   4
#     4  11  25  47  72 100 141 185 235 290 354 418
#     4  11  24  44  74 108 142 188 240 295 353 422
#     4  11  26  46  69 102 142 188 232 291 354 422
#     4  11  25  43  71 104 143 185 237 290 353 420
#
# _framework density 25.320419999999999
#
# number of rings (size 3 to 8) (size 9 to 14) (size 15 to 20)
#    0.000    1.000    0.000    6.000    0.000   14.000 
#    0.000    0.000    0.000    0.000    0.000    0.000 
#    0.000    0.000    0.000    0.000    0.000    0.000 
#
# Total GULP energy -89567.133157 kJ/mol
# GULP energy per Si atom -5597.945822 kJ/mol
# Density = 2.526279 g / cm^3
# Si number density = 25.320420 Si / 1000 Ang^3
#
#
#
# Elastic Constant Matrix: (Units=GPa)
#
#
# Indices 1 2 3 4 5 6 
#
# 1 97.3378 34.2949 24.4703 0.0000 0.0000 0.0000
# 2 34.2949 213.3135 33.6623 0.0000 0.0000 0.0000
# 3 24.4703 33.6623 111.7358 0.0000 0.0000 0.0000
# 4 0.0000 0.0000 0.0000 25.3326 0.0000 0.0000
# 5 0.0000 0.0000 0.0000 0.0000 45.4730 0.0000
# 6 0.0000 0.0000 0.0000 0.0000 0.0000 45.8459
#
#
#
# Elastic Compliance Matrix: (Units=1/GPa)
#
#
# Indices 1 2 3 4 5 6 
#
# 1 0.011311 -0.001499 -0.002026 0.000000 0.000000 0.000000
# 2 -0.001499 0.005121 -0.001214 0.000000 0.000000 0.000000
# 3 -0.002026 -0.001214 0.009759 0.000000 0.000000 0.000000
# 4 0.000000 0.000000 0.000000 0.039475 0.000000 0.000000
# 5 0.000000 0.000000 0.000000 0.000000 0.021991 0.000000
# 6 0.000000 0.000000 0.000000 0.000000 0.000000 0.021812
#
#
# Mechanical properties :
#
#
# Convention : Reuss Voigt Hill
#
# Bulk Modulus (GPa) = 59.83381 67.47133 63.65257
# Shear Modulus (GPa) = 40.15513 45.32762 42.74137
#
# Velocity S-wave (km/s) = 3.98663 4.23562 4.11301
# Velocity P-wave (km/s) = 6.69872 7.11516 6.91008
#
# Compressibility (1/GPa) = 0.01671296
#
# Stress axis : x y z
#
# Youngs Moduli (GPa) = 88.41115 195.29172 102.46812
#
# Poissons Ratio (x) = 0.29271 0.20755
# Poissons Ratio (y) = 0.13251 0.12444
# Poissons Ratio (z) = 0.17908 0.23716
#
# Static dielectric constant tensor:
#      x y z
#    x 2.015750 0.000000 0.000000 
#    y 0.000000 1.979070 0.000000 
#    z 0.000000 0.000000 2.056410 
# 
# From -- ./inp_files/279.got.cif
#   From: 2010.05.17/outbox.cif.g08.bks.cpg/sg33_1_cif.got.tgz:279.got - 2010.06.03 17:15:25.
