data_PCOD9346787
_publ_section_title
;
Structure prediction by ZEFSAII (Michael W. Deem and Ramdas Pophale) SiO2 
 PCOD9346787
Probable space group: P N A 21
;
_chemical_formula_sum "Si O2"
_cell_formula_units_Z 28
_cell_length_a 23.256221
_cell_length_b 6.503974
_cell_length_c 7.941719
_cell_angle_alpha 90.000000
_cell_angle_beta 90.000000
_cell_angle_gamma 90.000000
_cell_volume 1201.247395
_symmetry_space_group_name_H-M "P N A 21"
_symmetry_group_IT_number 33
_symmetry_cell_setting 'orthorhombic'
loop_
_space_group_symop_operation_xyz
x,y,z
-x,-y,1/2+z
1/2-x,1/2+y,1/2+z
1/2+x,1/2-y,z
loop_
_atom_site_type_symbol
_atom_site_label
_atom_site_fract_x
_atom_site_fract_y
_atom_site_fract_z
Si Si1 0.019131 0.323736 0.505320
Si Si2 0.221527 0.243686 0.478617
Si Si3 0.417363 0.851613 0.512001
Si Si4 0.362699 0.361525 0.953481
Si Si5 0.810976 0.467802 0.702779
Si Si6 0.368943 0.991802 0.156660
Si Si7 0.965708 0.985548 0.724532
O O1 0.083454 0.408416 0.523115
O O2 0.009102 0.204075 0.330754
O O3 0.973853 0.506725 0.522241
O O4 0.007667 0.157672 0.652691
O O5 0.226541 0.362836 0.302226
O O6 0.193867 0.406106 0.610059
O O7 0.173416 0.067421 0.469807
O O8 0.278242 0.137918 0.548813
O O9 0.369454 0.926975 0.643195
O O10 0.389385 0.899120 0.332071
O O11 0.433860 0.620541 0.565261
O O12 0.421322 0.410844 0.854767
O O13 0.326946 0.208335 0.834804
O O14 0.371131 0.236963 0.127316
#
# Coordination Sequence:
#
# PCOD9346787 Si02
#       7
#     4   4   4   4   4   4   4
#     4  12  26  43  72 104 142 188 231 290 351 432
#     4  11  26  47  71  99 139 184 235 296 355 423
#     4  12  26  44  68 105 141 182 234 294 348 425
#     4  11  24  48  69  96 141 183 227 296 348 425
#     4  11  26  46  70 101 136 184 237 293 355 423
#     4  11  27  43  69 106 139 180 239 285 355 422
#     4  12  25  45  71 101 144 187 235 286 362 422
#
# _framework density 23.309100999999998
#
# number of rings (size 3 to 8) (size 9 to 14) (size 15 to 20)
#    0.000    0.571    4.286    2.571   10.000    3.429 
#    0.000    0.000    0.000    0.000    0.000    0.000 
#    0.000    0.000    0.000    0.000    0.000    0.000 
#
# Total GULP energy -156799.344155 kJ/mol
# GULP energy per Si atom -5599.976577 kJ/mol
# Density = 2.325605 g / cm^3
# Si number density = 23.309101 Si / 1000 Ang^3
#
#
#
# Elastic Constant Matrix: (Units=GPa)
#
#
# Indices 1 2 3 4 5 6 
#
# 1 51.9711 2.1632 -16.0795 0.0000 0.0000 0.0000
# 2 2.1632 80.6500 3.3918 0.0000 0.0000 0.0000
# 3 -16.0795 3.3918 62.8588 0.0000 0.0000 0.0000
# 4 0.0000 0.0000 0.0000 38.7314 0.0000 0.0000
# 5 0.0000 0.0000 0.0000 0.0000 34.9424 0.0000
# 6 0.0000 0.0000 0.0000 0.0000 0.0000 30.8050
#
#
#
# Elastic Compliance Matrix: (Units=1/GPa)
#
#
# Indices 1 2 3 4 5 6 
#
# 1 0.020945 -0.000789 0.005400 0.000000 0.000000 0.000000
# 2 -0.000789 0.012457 -0.000874 0.000000 0.000000 0.000000
# 3 0.005400 -0.000874 0.017337 0.000000 0.000000 0.000000
# 4 0.000000 0.000000 0.000000 0.025819 0.000000 0.000000
# 5 0.000000 0.000000 0.000000 0.000000 0.028618 0.000000
# 6 0.000000 0.000000 0.000000 0.000000 0.000000 0.032462
#
#
# Mechanical properties :
#
#
# Convention : Reuss Voigt Hill
#
# Bulk Modulus (GPa) = 17.17782 19.38122 18.27952
# Shear Modulus (GPa) = 33.42936 34.62938 34.02937
#
# Velocity S-wave (km/s) = 3.79116 3.85861 3.82503
# Velocity P-wave (km/s) = 5.15262 5.30893 5.23136
#
# Compressibility (1/GPa) = 0.05821459
#
# Stress axis : x y z
#
# Youngs Moduli (GPa) = 47.74378 80.27504 57.67919
#
# Poissons Ratio (x) = 0.06333 -0.31149
# Poissons Ratio (y) = 0.03767 0.05041
# Poissons Ratio (z) = -0.25784 0.07016
#
# Static dielectric constant tensor:
#      x y z
#    x 1.845710 0.000000 0.000000 
#    y 0.000000 1.886510 0.000000 
#    z 0.000000 0.000000 1.929450 
# 
# From -- ./inp_files/5149.got.cif
#   From: 2010.05.17/outbox.cif.g08.bks.cpg/sg33_3_cif.got.tgz:5149.got - 2010.06.03 17:15:25.
