data_PCOD9346255
_publ_section_title
;
Structure prediction by ZEFSAII (Michael W. Deem and Ramdas Pophale) SiO2 
 PCOD9346255
Probable space group: P N A 21
;
_chemical_formula_sum "Si O2"
_cell_formula_units_Z 28
_cell_length_a 13.240710
_cell_length_b 9.289567
_cell_length_c 9.518475
_cell_angle_alpha 90.000000
_cell_angle_beta 90.000000
_cell_angle_gamma 90.000000
_cell_volume 1170.776829
_symmetry_space_group_name_H-M "P N A 21"
_symmetry_group_IT_number 33
_symmetry_cell_setting 'orthorhombic'
loop_
_space_group_symop_operation_xyz
x,y,z
-x,-y,1/2+z
1/2-x,1/2+y,1/2+z
1/2+x,1/2-y,z
loop_
_atom_site_type_symbol
_atom_site_label
_atom_site_fract_x
_atom_site_fract_y
_atom_site_fract_z
Si Si1 0.186481 0.886994 0.131230
Si Si2 0.492722 0.837425 0.477075
Si Si3 0.267213 0.083061 0.691870
Si Si4 0.083059 0.053998 0.882288
Si Si5 0.539853 0.749324 0.789989
Si Si6 0.797753 0.473628 0.388745
Si Si7 0.863977 0.595393 0.910827
O O1 0.159763 0.722316 0.172175
O O2 0.224635 0.971157 0.267542
O O3 0.113274 0.980118 0.031429
O O4 0.285307 0.871431 0.031578
O O5 0.494452 0.681514 0.406149
O O6 0.503075 0.812313 0.642775
O O7 0.390027 0.917900 0.428331
O O8 0.583330 0.942808 0.440188
O O9 0.237302 0.047743 0.532943
O O10 0.179483 0.121904 0.801753
O O11 0.311425 0.938354 0.762171
O O12 0.051398 0.920595 0.786953
O O13 0.642745 0.830029 0.836875
O O14 0.452284 0.789587 0.899680
#
# Coordination Sequence:
#
# PCOD9346255 Si02
#       7
#     4   4   4   4   4   4   4
#     4  11  23  43  69  99 128 172 229 273 322 394
#     4  11  23  42  66 100 132 172 219 269 332 395
#     4  11  23  43  69  99 128 172 229 273 322 394
#     4  11  26  41  67 103 134 166 228 275 326 391
#     4  11  23  42  66 100 132 172 219 269 332 395
#     4  11  22  43  71  92 129 176 216 271 330 387
#     4  10  24  42  70  93 133 180 216 268 334 402
#
# _framework density 23.915742999999999
#
# number of rings (size 3 to 8) (size 9 to 14) (size 15 to 20)
#    0.000    1.143    5.714    0.000    0.000    5.714 
#    0.000    0.000    0.000    0.000    0.000    0.000 
#    0.000    0.000    0.000    0.000    0.000    0.000 
#
# Total GULP energy -156629.715996 kJ/mol
# GULP energy per Si atom -5593.918428 kJ/mol
# Density = 2.386131 g / cm^3
# Si number density = 23.915743 Si / 1000 Ang^3
#
#
#
# Elastic Constant Matrix: (Units=GPa)
#
#
# Indices 1 2 3 4 5 6 
#
# 1 28.5640 5.9730 11.0022 0.0000 0.0000 0.0000
# 2 5.9730 90.7806 13.6668 0.0000 0.0000 0.0000
# 3 11.0022 13.6668 115.4850 0.0000 0.0000 0.0000
# 4 0.0000 0.0000 0.0000 29.7415 0.0000 0.0000
# 5 0.0000 0.0000 0.0000 0.0000 19.9201 0.0000
# 6 0.0000 0.0000 0.0000 0.0000 0.0000 21.0037
#
#
#
# Elastic Compliance Matrix: (Units=1/GPa)
#
#
# Indices 1 2 3 4 5 6 
#
# 1 0.036669 -0.001921 -0.003266 0.000000 0.000000 0.000000
# 2 -0.001921 0.011316 -0.001156 0.000000 0.000000 0.000000
# 3 -0.003266 -0.001156 0.009107 0.000000 0.000000 0.000000
# 4 0.000000 0.000000 0.000000 0.033623 0.000000 0.000000
# 5 0.000000 0.000000 0.000000 0.000000 0.050201 0.000000
# 6 0.000000 0.000000 0.000000 0.000000 0.000000 0.047611
#
#
# Mechanical properties :
#
#
# Convention : Reuss Voigt Hill
#
# Bulk Modulus (GPa) = 22.51971 32.90151 27.71061
# Shear Modulus (GPa) = 23.14659 27.74556 25.44608
#
# Velocity S-wave (km/s) = 3.11439 3.40978 3.26542
# Velocity P-wave (km/s) = 4.72961 5.41195 5.08225
#
# Compressibility (1/GPa) = 0.04440554
#
# Stress axis : x y z
#
# Youngs Moduli (GPa) = 27.27114 88.37036 109.80428
#
# Poissons Ratio (x) = 0.16976 0.35863
# Poissons Ratio (y) = 0.05239 0.12695
# Poissons Ratio (z) = 0.08907 0.10217
#
# Static dielectric constant tensor:
#      x y z
#    x 1.939840 0.000000 0.000000 
#    y 0.000000 1.908650 0.000000 
#    z 0.000000 0.000000 1.905630 
# 
# From -- ./inp_files/4290.got.cif
#   From: 2010.05.17/outbox.cif.g08.bks.cpg/sg33_3_cif.got.tgz:4290.got - 2010.06.03 17:15:25.
