data_PCOD9346635
_publ_section_title
;
Structure prediction by ZEFSAII (Michael W. Deem and Ramdas Pophale) SiO2 
 PCOD9346635
Probable space group: P N A 21
;
_chemical_formula_sum "Si O2"
_cell_formula_units_Z 24
_cell_length_a 9.165447
_cell_length_b 7.348977
_cell_length_c 16.914634
_cell_angle_alpha 90.000000
_cell_angle_beta 90.000000
_cell_angle_gamma 90.000000
_cell_volume 1139.313238
_symmetry_space_group_name_H-M "P N A 21"
_symmetry_group_IT_number 33
_symmetry_cell_setting 'orthorhombic'
loop_
_space_group_symop_operation_xyz
x,y,z
-x,-y,1/2+z
1/2-x,1/2+y,1/2+z
1/2+x,1/2-y,z
loop_
_atom_site_type_symbol
_atom_site_label
_atom_site_fract_x
_atom_site_fract_y
_atom_site_fract_z
Si Si1 0.175608 0.580632 0.302310
Si Si2 0.278695 0.311076 0.518795
Si Si3 0.999076 0.112446 0.868473
Si Si4 0.521411 0.203798 0.411026
Si Si5 0.230149 0.467441 0.125036
Si Si6 0.526930 0.332209 0.047112
O O1 0.092031 0.773271 0.304944
O O2 0.329741 0.606936 0.346982
O O3 0.067218 0.445098 0.348345
O O4 0.210113 0.492937 0.218036
O O5 0.357423 0.219199 0.442621
O O6 0.114868 0.337586 0.489677
O O7 0.363192 0.495254 0.539612
O O8 0.283458 0.167672 0.588377
O O9 0.946916 0.905047 0.877403
O O10 0.980545 0.201432 0.955783
O O11 0.386760 0.389222 0.098028
O O12 0.110278 0.334762 0.086633
#
# Coordination Sequence:
#
# PCOD9346635 Si02
#       6
#     4   4   4   4   4   4
#     4  12  28  43  67 104 139 176 221 287 347 387
#     4  11  23  44  71  99 133 178 229 272 330 409
#     4  11  25  47  72  98 133 181 234 269 334 409
#     4  11  23  44  71  99 133 178 229 272 330 409
#     4  12  28  43  67 104 139 176 221 287 347 387
#     4  11  25  47  72  98 133 181 234 269 334 409
#
# _framework density 21.065322999999999
#
# number of rings (size 3 to 8) (size 9 to 14) (size 15 to 20)
#    0.000    0.667    6.667    2.000    9.333    0.000 
#    0.000    0.000    0.000    0.000    0.000    0.000 
#    0.000    0.000    0.000    0.000    0.000    0.000 
#
# Total GULP energy -134234.095036 kJ/mol
# GULP energy per Si atom -5593.087293 kJ/mol
# Density = 2.101738 g / cm^3
# Si number density = 21.065323 Si / 1000 Ang^3
#
#
#
# Elastic Constant Matrix: (Units=GPa)
#
#
# Indices 1 2 3 4 5 6 
#
# 1 47.5233 4.1672 -23.2250 0.0000 0.0000 0.0000
# 2 4.1672 49.7705 8.0035 0.0000 0.0000 0.0000
# 3 -23.2250 8.0035 35.1237 0.0000 0.0000 0.0000
# 4 0.0000 0.0000 0.0000 14.6475 0.0000 0.0000
# 5 0.0000 0.0000 0.0000 0.0000 8.1253 0.0000
# 6 0.0000 0.0000 0.0000 0.0000 0.0000 30.6214
#
#
#
# Elastic Compliance Matrix: (Units=1/GPa)
#
#
# Indices 1 2 3 4 5 6 
#
# 1 0.033003 -0.006511 0.023307 0.000000 0.000000 0.000000
# 2 -0.006511 0.022141 -0.009351 0.000000 0.000000 0.000000
# 3 0.023307 -0.009351 0.046013 0.000000 0.000000 0.000000
# 4 0.000000 0.000000 0.000000 0.068271 0.000000 0.000000
# 5 0.000000 0.000000 0.000000 0.000000 0.123072 0.000000
# 6 0.000000 0.000000 0.000000 0.000000 0.000000 0.032657
#
#
# Mechanical properties :
#
#
# Convention : Reuss Voigt Hill
#
# Bulk Modulus (GPa) = 8.61723 12.25656 10.43689
# Shear Modulus (GPa) = 14.32871 20.24363 17.28617
#
# Velocity S-wave (km/s) = 2.61090 3.10335 2.86772
# Velocity P-wave (km/s) = 3.63162 4.32112 3.99129
#
# Compressibility (1/GPa) = 0.11604657
#
# Stress axis : x y z
#
# Youngs Moduli (GPa) = 30.29991 45.16492 21.73317
#
# Poissons Ratio (x) = 0.29408 -0.50653
# Poissons Ratio (y) = 0.19729 0.20322
# Poissons Ratio (z) = -0.70619 0.42232
#
# Static dielectric constant tensor:
#      x y z
#    x 1.735060 0.000000 0.000000 
#    y 0.000000 1.755420 0.000000 
#    z 0.000000 0.000000 1.739320 
# 
# From -- ./inp_files/7556.got.cif
#   From: 2010.05.17/outbox.cif.g08.bks.cpg/sg33_4_cif.got.tgz:7556.got - 2010.06.03 17:15:25.
