data_PCOD9346659
_publ_section_title
;
Structure prediction by ZEFSAII (Michael W. Deem and Ramdas Pophale) SiO2 
 PCOD9346659
Probable space group: P N A 21
;
_chemical_formula_sum "Si O2"
_cell_formula_units_Z 28
_cell_length_a 10.734967
_cell_length_b 5.770152
_cell_length_c 19.119963
_cell_angle_alpha 90.000000
_cell_angle_beta 90.000000
_cell_angle_gamma 90.000000
_cell_volume 1184.336230
_symmetry_space_group_name_H-M "P N A 21"
_symmetry_group_IT_number 33
_symmetry_cell_setting 'orthorhombic'
loop_
_space_group_symop_operation_xyz
x,y,z
-x,-y,1/2+z
1/2-x,1/2+y,1/2+z
1/2+x,1/2-y,z
loop_
_atom_site_type_symbol
_atom_site_label
_atom_site_fract_x
_atom_site_fract_y
_atom_site_fract_z
Si Si1 0.256322 0.352425 0.151160
Si Si2 0.354768 0.104532 0.354132
Si Si3 0.740482 0.396145 0.888121
Si Si4 0.884722 0.889040 0.538401
Si Si5 0.032373 0.502704 0.474217
Si Si6 0.512171 0.896122 0.711963
Si Si7 0.089290 0.232187 0.596620
O O1 0.230523 0.178534 0.087164
O O2 0.285803 0.600408 0.118790
O O3 0.131711 0.340899 0.196970
O O4 0.385093 0.292352 0.188735
O O5 0.282164 0.353673 0.349976
O O6 0.285875 0.852016 0.350828
O O7 0.422228 0.106433 0.429315
O O8 0.457887 0.082736 0.293510
O O9 0.878941 0.373867 0.919019
O O10 0.653888 0.410908 0.957673
O O11 0.973959 0.663796 0.533742
O O12 0.968413 0.078256 0.576322
O O13 0.115523 0.328585 0.518697
O O14 0.549208 0.112223 0.662580
#
# Coordination Sequence:
#
# PCOD9346659 Si02
#       7
#     4   4   4   4   4   4   4
#     4  12  27  49  74 114 157 200 264 324 394 465
#     4  11  29  49  72 111 153 208 255 315 389 473
#     4  11  26  46  76 106 152 198 252 322 384 467
#     4  11  23  46  70 114 148 194 257 327 390 457
#     4  11  25  45  73 113 146 201 258 325 395 457
#     4  12  30  48  76 111 153 213 256 321 389 478
#     4  12  24  45  77 111 151 198 264 324 391 465
#
# _framework density 23.641936000000001
#
# number of rings (size 3 to 8) (size 9 to 14) (size 15 to 20)
#    0.000    0.571    4.286    1.714   14.000    0.000 
#    0.000    0.000    0.000    0.000    0.000    0.000 
#    0.000    0.000    0.000    0.000    0.000    0.000 
#
# Total GULP energy -156319.309401 kJ/mol
# GULP energy per Si atom -5582.832479 kJ/mol
# Density = 2.358813 g / cm^3
# Si number density = 23.641936 Si / 1000 Ang^3
#
#
#
# Elastic Constant Matrix: (Units=GPa)
#
#
# Indices 1 2 3 4 5 6 
#
# 1 84.8235 9.1634 -1.2602 0.0000 0.0000 0.0000
# 2 9.1634 75.4615 22.8374 0.0000 0.0000 0.0000
# 3 -1.2602 22.8374 75.4247 0.0000 0.0000 0.0000
# 4 0.0000 0.0000 0.0000 19.8141 0.0000 0.0000
# 5 0.0000 0.0000 0.0000 0.0000 34.6473 0.0000
# 6 0.0000 0.0000 0.0000 0.0000 0.0000 33.8042
#
#
#
# Elastic Compliance Matrix: (Units=1/GPa)
#
#
# Indices 1 2 3 4 5 6 
#
# 1 0.011980 -0.001668 0.000705 0.000000 0.000000 0.000000
# 2 -0.001668 0.014821 -0.004515 0.000000 0.000000 0.000000
# 3 0.000705 -0.004515 0.014637 0.000000 0.000000 0.000000
# 4 0.000000 0.000000 0.000000 0.050469 0.000000 0.000000
# 5 0.000000 0.000000 0.000000 0.000000 0.028862 0.000000
# 6 0.000000 0.000000 0.000000 0.000000 0.000000 0.029582
#
#
# Mechanical properties :
#
#
# Convention : Reuss Voigt Hill
#
# Bulk Modulus (GPa) = 32.80693 33.02120 32.91406
# Shear Modulus (GPa) = 29.15985 31.31772 30.23878
#
# Velocity S-wave (km/s) = 3.51578 3.64355 3.58024
# Velocity P-wave (km/s) = 5.51250 5.63011 5.57162
#
# Compressibility (1/GPa) = 0.03048137
#
# Stress axis : x y z
#
# Youngs Moduli (GPa) = 83.47333 67.47238 68.31899
#
# Poissons Ratio (x) = 0.11255 -0.04818
# Poissons Ratio (y) = 0.13925 0.30849
# Poissons Ratio (z) = -0.05887 0.30466
#
# Static dielectric constant tensor:
#      x y z
#    x 1.932440 0.000000 0.000000 
#    y 0.000000 2.057700 0.000000 
#    z 0.000000 0.000000 1.888910 
# 
# From -- ./inp_files/8643.got.cif
#   From: 2010.05.17/outbox.cif.g08.bks.cpg/sg33_5_cif.got.tgz:8643.got - 2010.06.03 17:15:25.
