data_PCOD9346495
_publ_section_title
;
Structure prediction by ZEFSAII (Michael W. Deem and Ramdas Pophale) SiO2 
 PCOD9346495
Probable space group: P N A 21
;
_chemical_formula_sum "Si O2"
_cell_formula_units_Z 32
_cell_length_a 13.409912
_cell_length_b 5.516010
_cell_length_c 18.058301
_cell_angle_alpha 90.000000
_cell_angle_beta 90.000000
_cell_angle_gamma 90.000000
_cell_volume 1335.758235
_symmetry_space_group_name_H-M "P N A 21"
_symmetry_group_IT_number 33
_symmetry_cell_setting 'orthorhombic'
loop_
_space_group_symop_operation_xyz
x,y,z
-x,-y,1/2+z
1/2-x,1/2+y,1/2+z
1/2+x,1/2-y,z
loop_
_atom_site_type_symbol
_atom_site_label
_atom_site_fract_x
_atom_site_fract_y
_atom_site_fract_z
Si Si1 0.913414 0.262789 0.440410
Si Si2 0.484826 0.849470 0.336939
Si Si3 0.670074 0.601214 0.393063
Si Si4 0.149838 0.296117 0.272517
Si Si5 0.563933 0.230371 0.120336
Si Si6 0.546345 0.270698 0.573935
Si Si7 0.676143 0.444505 0.809336
Si Si8 0.244458 0.550344 0.044403
O O1 0.828129 0.258482 0.502699
O O2 0.916654 0.517456 0.397125
O O3 0.016634 0.257876 0.486221
O O4 0.881665 0.089131 0.373648
O O5 0.556810 0.677613 0.382831
O O6 0.411542 0.722812 0.278772
O O7 0.560884 0.027157 0.297038
O O8 0.677468 0.358510 0.344582
O O9 0.739015 0.791665 0.350390
O O10 0.701572 0.586531 0.477014
O O11 0.100605 0.179406 0.201200
O O12 0.257668 0.407705 0.251790
O O13 0.507360 0.469645 0.091138
O O14 0.667045 0.133545 0.082977
O O15 0.496369 0.979994 0.111967
O O16 0.664668 0.314057 0.585354
#
# Coordination Sequence:
#
# PCOD9346495 Si02
#       8
#     4   4   4   4   4   4   4   4
#     4  11  23  43  70 112 138 176 238 308 367 436
#     4  11  23  39  69 103 141 179 231 297 369 429
#     4  11  23  40  72 102 138 182 236 303 365 428
#     4  11  25  45  66 101 145 189 242 298 357 446
#     4  11  29  50  70 103 152 197 249 297 363 453
#     4  11  27  46  73 103 144 195 240 300 367 442
#     4  11  21  39  69 104 137 179 230 300 362 425
#     4  11  23  46  73 106 141 189 244 311 366 435
#
# _framework density 23.956429
#
# number of rings (size 3 to 8) (size 9 to 14) (size 15 to 20)
#    0.000    1.000    2.500    3.000   10.500    3.000 
#    4.500    0.000    0.000    0.000    0.000    0.000 
#    0.000    0.000    0.000    0.000    0.000    0.000 
#
# Total GULP energy -178485.655877 kJ/mol
# GULP energy per Si atom -5577.676746 kJ/mol
# Density = 2.390190 g / cm^3
# Si number density = 23.956429 Si / 1000 Ang^3
#
#
#
# Elastic Constant Matrix: (Units=GPa)
#
#
# Indices 1 2 3 4 5 6 
#
# 1 123.4511 32.6662 -0.9119 0.0000 0.0000 0.0000
# 2 32.6662 65.8972 -16.7775 0.0000 0.0000 0.0000
# 3 -0.9119 -16.7775 21.3306 0.0000 0.0000 0.0000
# 4 0.0000 0.0000 0.0000 13.7009 0.0000 0.0000
# 5 0.0000 0.0000 0.0000 0.0000 -10.6131 0.0000
# 6 0.0000 0.0000 0.0000 0.0000 0.0000 130.4148
#
#
#
# Elastic Compliance Matrix: (Units=1/GPa)
#
#
# Indices 1 2 3 4 5 6 
#
# 1 0.009611 -0.005827 -0.004172 0.000000 0.000000 0.000000
# 2 -0.005827 0.022507 0.017454 0.000000 0.000000 0.000000
# 3 -0.004172 0.017454 0.060431 0.000000 0.000000 0.000000
# 4 0.000000 0.000000 0.000000 0.072988 0.000000 0.000000
# 5 0.000000 0.000000 0.000000 0.000000 -0.094223 0.000000
# 6 0.000000 0.000000 0.000000 0.000000 0.000000 0.007668
#
#
# Mechanical properties :
#
#
# Convention : Reuss Voigt Hill
#
# Bulk Modulus (GPa) = 9.30579 26.73695 18.02137
# Shear Modulus (GPa) = 50.05391 39.74730 44.90061
#
# Velocity S-wave (km/s) = 4.57592 4.07769 4.33397
# Velocity P-wave (km/s) = 5.64018 5.77537 5.70818
#
# Compressibility (1/GPa) = 0.10745992
#
# Stress axis : x y z
#
# Youngs Moduli (GPa) = 104.04374 44.43003 16.54781
#
# Poissons Ratio (x) = 0.25888 0.06904
# Poissons Ratio (y) = 0.60623 -0.28882
# Poissons Ratio (z) = 0.43408 -0.77548
#
# Static dielectric constant tensor:
#      x y z
#    x 1.956940 0.000000 0.000000 
#    y 0.000000 2.433680 0.000000 
#    z 0.000000 0.000000 2.027950 
# 
# From -- ./inp_files/9105.got.cif
#   From: 2010.05.17/outbox.cif.g08.bks.cpg/sg33_5_cif.got.tgz:9105.got - 2010.06.03 17:15:25.
