data_PCOD9346896
_publ_section_title
;
Structure prediction by ZEFSAII (Michael W. Deem and Ramdas Pophale) SiO2 
 PCOD9346896
Probable space group: P N A 21
;
_chemical_formula_sum "Si O2"
_cell_formula_units_Z 20
_cell_length_a 17.647502
_cell_length_b 5.078441
_cell_length_c 9.929514
_cell_angle_alpha 90.000000
_cell_angle_beta 90.000000
_cell_angle_gamma 90.000000
_cell_volume 889.900895
_symmetry_space_group_name_H-M "P N A 21"
_symmetry_group_IT_number 33
_symmetry_cell_setting 'orthorhombic'
loop_
_space_group_symop_operation_xyz
x,y,z
-x,-y,1/2+z
1/2-x,1/2+y,1/2+z
1/2+x,1/2-y,z
loop_
_atom_site_type_symbol
_atom_site_label
_atom_site_fract_x
_atom_site_fract_y
_atom_site_fract_z
Si Si1 0.516815 0.877484 0.554460
Si Si2 0.104674 0.023882 0.159318
Si Si3 0.136821 0.523968 0.332005
Si Si4 0.594650 0.925781 0.828359
Si Si5 0.812781 0.918977 0.388533
O O1 0.474745 0.600900 0.587444
O O2 0.591369 0.880235 0.462980
O O3 0.455806 0.030534 0.461990
O O4 0.542804 0.981791 0.699319
O O5 0.113055 0.236250 0.279375
O O6 0.115713 0.735872 0.217792
O O7 0.169046 0.074353 0.047621
O O8 0.226109 0.524614 0.358135
O O9 0.662103 0.135762 0.834865
O O10 0.631240 0.637913 0.825617
#
# Coordination Sequence:
#
# PCOD9346896 Si02
#       5
#     4   4   4   4   4
#     4  11  26  48  74 107 140 195 239 301 360 433
#     4  11  26  47  71 105 144 184 250 299 356 438
#     4  12  27  45  75 104 144 192 242 299 370 430
#     4  11  26  48  73 105 146 188 243 299 361 437
#     4  11  27  46  73 103 148 189 240 302 367 432
#
# _framework density 22.474411
#
# number of rings (size 3 to 8) (size 9 to 14) (size 15 to 20)
#    0.000    0.800    2.000    3.600   11.200    4.800 
#    0.000    0.000    0.000    0.000    0.000    0.000 
#    0.000    0.000    0.000    0.000    0.000    0.000 
#
# Total GULP energy -111946.067268 kJ/mol
# GULP energy per Si atom -5597.303363 kJ/mol
# Density = 2.242326 g / cm^3
# Si number density = 22.474411 Si / 1000 Ang^3
#
#
#
# Elastic Constant Matrix: (Units=GPa)
#
#
# Indices 1 2 3 4 5 6 
#
# 1 120.6543 -7.5395 42.7763 0.0000 0.0000 0.0000
# 2 -7.5395 45.0486 11.9149 0.0000 0.0000 0.0000
# 3 42.7763 11.9149 123.5313 0.0000 0.0000 0.0000
# 4 0.0000 0.0000 0.0000 26.6970 0.0000 0.0000
# 5 0.0000 0.0000 0.0000 0.0000 34.1238 0.0000
# 6 0.0000 0.0000 0.0000 0.0000 0.0000 14.8772
#
#
#
# Elastic Compliance Matrix: (Units=1/GPa)
#
#
# Indices 1 2 3 4 5 6 
#
# 1 0.009733 0.002586 -0.003620 0.000000 0.000000 0.000000
# 2 0.002586 0.023467 -0.003159 0.000000 0.000000 0.000000
# 3 -0.003620 -0.003159 0.009653 0.000000 0.000000 0.000000
# 4 0.000000 0.000000 0.000000 0.037457 0.000000 0.000000
# 5 0.000000 0.000000 0.000000 0.000000 0.029305 0.000000
# 6 0.000000 0.000000 0.000000 0.000000 0.000000 0.067217
#
#
# Mechanical properties :
#
#
# Convention : Reuss Voigt Hill
#
# Bulk Modulus (GPa) = 29.01233 42.61529 35.81381
# Shear Modulus (GPa) = 25.41853 31.27843 28.34848
#
# Velocity S-wave (km/s) = 3.36668 3.73464 3.55543
# Velocity P-wave (km/s) = 5.29621 6.13185 5.72928
#
# Compressibility (1/GPa) = 0.03446811
#
# Stress axis : x y z
#
# Youngs Moduli (GPa) = 102.74195 42.61363 103.59168
#
# Poissons Ratio (x) = -0.11022 0.37499
# Poissons Ratio (y) = -0.26573 0.32725
# Poissons Ratio (z) = 0.37191 0.13462
#
# Static dielectric constant tensor:
#      x y z
#    x 1.803790 0.000000 0.000000 
#    y 0.000000 1.820470 0.000000 
#    z 0.000000 0.000000 1.831180 
# 
# From -- ./inp_files/4568.got.cif
#   From: 2010.05.17/outbox.cif.g08.bks.cpg/sg33_3_cif.got.tgz:4568.got - 2010.06.03 17:15:25.
