data_PCOD9346730
_publ_section_title
;
Structure prediction by ZEFSAII (Michael W. Deem and Ramdas Pophale) SiO2 
 PCOD9346730
Probable space group: P N A 21
;
_chemical_formula_sum "Si O2"
_cell_formula_units_Z 20
_cell_length_a 14.180877
_cell_length_b 6.908021
_cell_length_c 7.357267
_cell_angle_alpha 90.000000
_cell_angle_beta 90.000000
_cell_angle_gamma 90.000000
_cell_volume 720.731090
_symmetry_space_group_name_H-M "P N A 21"
_symmetry_group_IT_number 33
_symmetry_cell_setting 'orthorhombic'
loop_
_space_group_symop_operation_xyz
x,y,z
-x,-y,1/2+z
1/2-x,1/2+y,1/2+z
1/2+x,1/2-y,z
loop_
_atom_site_type_symbol
_atom_site_label
_atom_site_fract_x
_atom_site_fract_y
_atom_site_fract_z
Si Si1 0.387002 0.534361 0.936150
Si Si2 0.566515 0.180480 0.716118
Si Si3 0.994190 0.250611 0.120841
Si Si4 0.702896 0.246889 0.220055
Si Si5 0.271907 0.195413 0.820177
O O1 0.281962 0.639596 0.906885
O O2 0.358882 0.342281 0.808308
O O3 0.457733 0.698134 0.035571
O O4 0.407231 0.395787 0.122187
O O5 0.678355 0.208741 0.738964
O O6 0.535288 0.961001 0.683772
O O7 0.528983 0.247451 0.912340
O O8 0.089393 0.179373 0.224488
O O9 0.703672 0.019150 0.250201
O O10 0.746178 0.319976 0.035786
#
# Coordination Sequence:
#
# PCOD9346730 Si02
#       5
#     4   4   4   4   4
#     4  12  24  42  74 104 146 195 252 311 389 449
#     4  11  24  44  70 106 149 194 251 315 378 460
#     4  11  25  46  72 106 150 197 258 314 378 467
#     4  11  26  47  74 111 152 199 261 316 390 472
#     4  11  25  45  72 111 149 199 250 322 387 464
#
# _framework density 27.749600000000001
#
# number of rings (size 3 to 8) (size 9 to 14) (size 15 to 20)
#    0.000    0.800    2.000    4.800    5.600    0.000 
#    0.000    8.000    0.000    0.000    0.000    0.000 
#    0.000    0.000    0.000    0.000    0.000    0.000 
#
# Total GULP energy -111343.257558 kJ/mol
# GULP energy per Si atom -5567.162878 kJ/mol
# Density = 2.768644 g / cm^3
# Si number density = 27.749600 Si / 1000 Ang^3
#
#
#
# Elastic Constant Matrix: (Units=GPa)
#
#
# Indices 1 2 3 4 5 6 
#
# 1 97.2354 4.8276 23.6940 0.0000 0.0000 0.0000
# 2 4.8276 101.3012 5.3655 0.0000 0.0000 0.0000
# 3 23.6940 5.3655 153.3881 0.0000 0.0000 0.0000
# 4 0.0000 0.0000 0.0000 47.6451 0.0000 0.0000
# 5 0.0000 0.0000 0.0000 0.0000 54.1554 0.0000
# 6 0.0000 0.0000 0.0000 0.0000 0.0000 48.1903
#
#
#
# Elastic Compliance Matrix: (Units=1/GPa)
#
#
# Indices 1 2 3 4 5 6 
#
# 1 0.010705 -0.000423 -0.001639 0.000000 0.000000 0.000000
# 2 -0.000423 0.009907 -0.000281 0.000000 0.000000 0.000000
# 3 -0.001639 -0.000281 0.006782 0.000000 0.000000 0.000000
# 4 0.000000 0.000000 0.000000 0.020989 0.000000 0.000000
# 5 0.000000 0.000000 0.000000 0.000000 0.018465 0.000000
# 6 0.000000 0.000000 0.000000 0.000000 0.000000 0.020751
#
#
# Mechanical properties :
#
#
# Convention : Reuss Voigt Hill
#
# Bulk Modulus (GPa) = 44.03888 46.63320 45.33604
# Shear Modulus (GPa) = 50.07305 51.20069 50.63687
#
# Velocity S-wave (km/s) = 4.25250 4.30012 4.27638
# Velocity P-wave (km/s) = 6.32584 6.44175 6.38406
#
# Compressibility (1/GPa) = 0.02270721
#
# Stress axis : x y z
#
# Youngs Moduli (GPa) = 93.41728 100.94265 147.44084
#
# Poissons Ratio (x) = 0.04273 0.24162
# Poissons Ratio (y) = 0.03955 0.04145
# Poissons Ratio (z) = 0.15309 0.02838
#
# Static dielectric constant tensor:
#      x y z
#    x 2.380960 0.000000 0.000000 
#    y 0.000000 2.256450 0.000000 
#    z 0.000000 0.000000 2.267300 
# 
# From -- ./inp_files/4575.got.cif
#   From: 2010.05.17/outbox.cif.g08.bks.cpg/sg33_3_cif.got.tgz:4575.got - 2010.06.03 17:15:25.
