data_PCOD9346361
_publ_section_title
;
Structure prediction by ZEFSAII (Michael W. Deem and Ramdas Pophale) SiO2 
 PCOD9346361
Probable space group: P N A 21
;
_chemical_formula_sum "Si O2"
_cell_formula_units_Z 32
_cell_length_a 18.959518
_cell_length_b 11.739457
_cell_length_c 5.658894
_cell_angle_alpha 90.000000
_cell_angle_beta 90.000000
_cell_angle_gamma 90.000000
_cell_volume 1259.525199
_symmetry_space_group_name_H-M "P N A 21"
_symmetry_group_IT_number 33
_symmetry_cell_setting 'orthorhombic'
loop_
_space_group_symop_operation_xyz
x,y,z
-x,-y,1/2+z
1/2-x,1/2+y,1/2+z
1/2+x,1/2-y,z
loop_
_atom_site_type_symbol
_atom_site_label
_atom_site_fract_x
_atom_site_fract_y
_atom_site_fract_z
Si Si1 0.234601 0.278794 0.566140
Si Si2 0.764561 0.976654 0.732446
Si Si3 0.352016 0.120043 0.529958
Si Si4 0.995834 0.569303 0.968968
Si Si5 0.407853 0.446928 0.903063
Si Si6 0.361974 0.861456 0.717051
Si Si7 0.454012 0.430471 0.392644
Si Si8 0.633252 0.344007 0.886343
O O1 0.230802 0.402703 0.676878
O O2 0.307131 0.220258 0.647962
O O3 0.212776 0.309849 0.299048
O O4 0.171953 0.199330 0.654343
O O5 0.827675 0.010856 0.910983
O O6 0.806662 0.915716 0.524469
O O7 0.700246 0.898251 0.809735
O O8 0.433296 0.144168 0.481027
O O9 0.351449 0.993676 0.646246
O O10 0.007372 0.493820 0.725956
O O11 0.922887 0.632564 0.916207
O O12 0.423274 0.392068 0.644885
O O13 0.461988 0.555113 0.893528
O O14 0.426279 0.380026 0.144687
O O15 0.388373 0.771609 0.522201
O O16 0.427776 0.563087 0.371269
#
# Coordination Sequence:
#
# PCOD9346361 Si02
#       8
#     4   4   4   4   4   4   4   4
#     4  12  24  42  70 101 139 186 234 294 367 420
#     4  11  22  42  66 100 139 175 231 289 352 426
#     4  11  23  46  70 105 140 187 243 300 357 435
#     4  10  24  47  74 103 142 191 246 306 356 426
#     4   9  19  38  60  90 129 171 213 274 330 409
#     4  11  24  45  70 102 140 187 239 295 358 430
#     4   9  19  37  61  89 128 174 220 261 336 412
#     4  11  23  41  67 100 135 187 228 291 356 426
#
# _framework density 25.406399
#
# number of rings (size 3 to 8) (size 9 to 14) (size 15 to 20)
#    0.000    1.500    2.500    2.250    3.500    2.000 
#    2.250    6.250    0.000    0.000    0.000    0.000 
#    0.000    0.000    0.000    0.000    0.000    0.000 
#
# Total GULP energy -178569.495740 kJ/mol
# GULP energy per Si atom -5580.296742 kJ/mol
# Density = 2.534857 g / cm^3
# Si number density = 25.406399 Si / 1000 Ang^3
#
#
#
# Elastic Constant Matrix: (Units=GPa)
#
#
# Indices 1 2 3 4 5 6 
#
# 1 93.9461 45.4565 15.9512 0.0000 0.0000 0.0000
# 2 45.4565 48.8696 5.0630 0.0000 0.0000 0.0000
# 3 15.9512 5.0630 115.7850 0.0000 0.0000 0.0000
# 4 0.0000 0.0000 0.0000 8.8422 0.0000 0.0000
# 5 0.0000 0.0000 0.0000 0.0000 39.3485 0.0000
# 6 0.0000 0.0000 0.0000 0.0000 0.0000 34.7682
#
#
#
# Elastic Compliance Matrix: (Units=1/GPa)
#
#
# Indices 1 2 3 4 5 6 
#
# 1 0.019775 -0.018194 -0.001929 0.000000 0.000000 0.000000
# 2 -0.018194 0.037296 0.000876 0.000000 0.000000 0.000000
# 3 -0.001929 0.000876 0.008864 0.000000 0.000000 0.000000
# 4 0.000000 0.000000 0.000000 0.113094 0.000000 0.000000
# 5 0.000000 0.000000 0.000000 0.000000 0.025414 0.000000
# 6 0.000000 0.000000 0.000000 0.000000 0.000000 0.028762
#
#
# Mechanical properties :
#
#
# Convention : Reuss Voigt Hill
#
# Bulk Modulus (GPa) = 36.44297 43.50468 39.97383
# Shear Modulus (GPa) = 17.80330 29.40044 23.60187
#
# Velocity S-wave (km/s) = 2.65002 3.40546 3.05121
# Velocity P-wave (km/s) = 4.87223 5.71171 5.30859
#
# Compressibility (1/GPa) = 0.02744013
#
# Stress axis : x y z
#
# Youngs Moduli (GPa) = 50.56793 26.81284 112.81432
#
# Poissons Ratio (x) = 0.48784 0.21759
# Poissons Ratio (y) = 0.92005 -0.09879
# Poissons Ratio (z) = 0.09753 -0.02348
#
# Static dielectric constant tensor:
#      x y z
#    x 2.007720 0.000000 0.000000 
#    y 0.000000 2.007380 0.000000 
#    z 0.000000 0.000000 2.159250 
# 
# From -- ./inp_files/2036.got.cif
#   From: 2010.05.17/outbox.cif.g08.bks.cpg/sg33_2_cif.got.tgz:2036.got - 2010.06.03 17:15:25.
