data_PCOD9346615
_publ_section_title
;
Structure prediction by ZEFSAII (Michael W. Deem and Ramdas Pophale) SiO2 
 PCOD9346615
Probable space group: P N A 21
;
_chemical_formula_sum "Si O2"
_cell_formula_units_Z 20
_cell_length_a 12.591947
_cell_length_b 11.836535
_cell_length_c 5.125778
_cell_angle_alpha 90.000000
_cell_angle_beta 90.000000
_cell_angle_gamma 90.000000
_cell_volume 763.971692
_symmetry_space_group_name_H-M "P N A 21"
_symmetry_group_IT_number 33
_symmetry_cell_setting 'orthorhombic'
loop_
_space_group_symop_operation_xyz
x,y,z
-x,-y,1/2+z
1/2-x,1/2+y,1/2+z
1/2+x,1/2-y,z
loop_
_atom_site_type_symbol
_atom_site_label
_atom_site_fract_x
_atom_site_fract_y
_atom_site_fract_z
Si Si1 0.322336 0.873318 0.025200
Si Si2 0.352405 0.254576 0.285088
Si Si3 0.660712 0.888577 0.301689
Si Si4 0.399946 0.652598 0.170050
Si Si5 0.880809 0.062284 0.894459
O O1 0.404122 0.788503 0.158606
O O2 0.225898 0.903238 0.230490
O O3 0.270610 0.785404 0.822736
O O4 0.362336 0.981089 0.866510
O O5 0.372002 0.174429 0.535455
O O6 0.384093 0.180876 0.041303
O O7 0.385686 0.380554 0.185035
O O8 0.789517 0.876039 0.316638
O O9 0.512839 0.608254 0.265966
O O10 0.382800 0.572036 0.917703
#
# Coordination Sequence:
#
# PCOD9346615 Si02
#       5
#     4   4   4   4   4
#     4  11  23  46  72 108 152 203 249 314 389 464
#     4  11  23  42  71 102 150 188 248 306 379 452
#     4  11  23  43  72 104 143 205 243 305 381 467
#     4  11  25  43  77 113 149 195 259 322 382 451
#     4  12  24  46  74 119 150 199 263 329 383 464
#
# _framework density 26.178979999999999
#
# number of rings (size 3 to 8) (size 9 to 14) (size 15 to 20)
#    0.000    0.800    6.000    3.600    0.000    0.000 
#    0.000    0.000    8.800    0.000    0.000    0.000 
#    0.000    0.000    0.000    0.000    0.000    0.000 
#
# Total GULP energy -111526.811719 kJ/mol
# GULP energy per Si atom -5576.340586 kJ/mol
# Density = 2.611940 g / cm^3
# Si number density = 26.178980 Si / 1000 Ang^3
#
#
#
# Elastic Constant Matrix: (Units=GPa)
#
#
# Indices 1 2 3 4 5 6 
#
# 1 74.5515 1.9586 15.1636 0.0000 0.0000 0.0000
# 2 1.9586 148.9919 49.2561 0.0000 0.0000 0.0000
# 3 15.1636 49.2561 154.5412 0.0000 0.0000 0.0000
# 4 0.0000 0.0000 0.0000 53.4818 0.0000 0.0000
# 5 0.0000 0.0000 0.0000 0.0000 15.2057 0.0000
# 6 0.0000 0.0000 0.0000 0.0000 0.0000 26.7493
#
#
#
# Elastic Compliance Matrix: (Units=1/GPa)
#
#
# Indices 1 2 3 4 5 6 
#
# 1 0.013698 0.000295 -0.001438 0.000000 0.000000 0.000000
# 2 0.000295 0.007509 -0.002422 0.000000 0.000000 0.000000
# 3 -0.001438 -0.002422 0.007384 0.000000 0.000000 0.000000
# 4 0.000000 0.000000 0.000000 0.018698 0.000000 0.000000
# 5 0.000000 0.000000 0.000000 0.000000 0.065765 0.000000
# 6 0.000000 0.000000 0.000000 0.000000 0.000000 0.037384
#
#
# Mechanical properties :
#
#
# Convention : Reuss Voigt Hill
#
# Bulk Modulus (GPa) = 46.59649 56.76013 51.67831
# Shear Modulus (GPa) = 30.35429 39.86778 35.11103
#
# Velocity S-wave (km/s) = 3.40882 3.90666 3.66620
# Velocity P-wave (km/s) = 5.77332 6.48675 6.14041
#
# Compressibility (1/GPa) = 0.02146085
#
# Stress axis : x y z
#
# Youngs Moduli (GPa) = 73.00169 133.17967 135.42988
#
# Poissons Ratio (x) = -0.03934 0.19478
# Poissons Ratio (y) = -0.02157 0.32804
# Poissons Ratio (z) = 0.10499 0.32259
#
# Static dielectric constant tensor:
#      x y z
#    x 2.057100 0.000000 0.000000 
#    y 0.000000 2.151350 0.000000 
#    z 0.000000 0.000000 2.261950 
# 
# From -- ./inp_files/1288.got.cif
#   From: 2010.05.17/outbox.cif.g08.bks.cpg/sg33_1_cif.got.tgz:1288.got - 2010.06.03 17:15:25.
