data_PCOD9346736
_publ_section_title
;
Structure prediction by ZEFSAII (Michael W. Deem and Ramdas Pophale) SiO2 
 PCOD9346736
Probable space group: P N A 21
;
_chemical_formula_sum "Si O2"
_cell_formula_units_Z 32
_cell_length_a 14.752748
_cell_length_b 10.026029
_cell_length_c 8.013952
_cell_angle_alpha 90.000000
_cell_angle_beta 90.000000
_cell_angle_gamma 90.000000
_cell_volume 1185.355495
_symmetry_space_group_name_H-M "P N A 21"
_symmetry_group_IT_number 33
_symmetry_cell_setting 'orthorhombic'
loop_
_space_group_symop_operation_xyz
x,y,z
-x,-y,1/2+z
1/2-x,1/2+y,1/2+z
1/2+x,1/2-y,z
loop_
_atom_site_type_symbol
_atom_site_label
_atom_site_fract_x
_atom_site_fract_y
_atom_site_fract_z
Si Si1 0.939344 0.151635 0.880430
Si Si2 0.759185 0.923416 0.530104
Si Si3 0.965486 0.847848 0.923915
Si Si4 0.348699 0.295231 0.557341
Si Si5 0.424515 0.873346 0.410692
Si Si6 0.242122 0.842562 0.600031
Si Si7 0.577776 0.073247 0.513175
Si Si8 0.310210 0.614893 0.184228
O O1 0.912918 0.232323 0.715125
O O2 0.848009 0.158976 0.987214
O O3 0.021226 0.236625 0.958350
O O4 0.959880 0.995194 0.843472
O O5 0.754832 0.806649 0.668182
O O6 0.802400 0.840606 0.375383
O O7 0.811514 0.054785 0.583614
O O8 0.659393 0.971950 0.485385
O O9 0.919322 0.703325 0.892823
O O10 0.907520 0.881014 0.095268
O O11 0.072263 0.808081 0.919858
O O12 0.263558 0.195865 0.574104
O O13 0.330004 0.893076 0.503052
O O14 0.413669 0.886099 0.209221
O O15 0.487102 0.994232 0.473803
O O16 0.219156 0.962813 0.720597
#
# Coordination Sequence:
#
# PCOD9346736 Si02
#       8
#     4   4   4   4   4   4   4   4
#     4  11  24  46  68 102 143 183 236 296 355 430
#     4  12  25  46  71 104 144 191 234 303 362 427
#     4  11  25  44  71 106 135 187 239 295 355 437
#     4  12  23  44  74  97 140 190 230 289 368 418
#     4  12  25  47  76 103 145 194 240 304 357 435
#     4  11  24  44  72 102 139 185 239 291 362 425
#     4  12  25  47  73 107 147 190 245 297 368 431
#     4  11  25  48  71 103 147 186 237 303 357 431
#
# _framework density 26.996122
#
# number of rings (size 3 to 8) (size 9 to 14) (size 15 to 20)
#    0.000    0.500    5.000    3.000    3.500    1.000 
#    6.750    0.000    0.000    0.000    0.000    0.000 
#    0.000    0.000    0.000    0.000    0.000    0.000 
#
# Total GULP energy -178862.701035 kJ/mol
# GULP energy per Si atom -5589.459407 kJ/mol
# Density = 2.693468 g / cm^3
# Si number density = 26.996122 Si / 1000 Ang^3
#
#
#
# Elastic Constant Matrix: (Units=GPa)
#
#
# Indices 1 2 3 4 5 6 
#
# 1 180.9812 33.9552 27.3028 0.0000 0.0000 0.0000
# 2 33.9552 147.3444 -12.3730 0.0000 0.0000 0.0000
# 3 27.3028 -12.3730 48.2595 0.0000 0.0000 0.0000
# 4 0.0000 0.0000 0.0000 30.5839 0.0000 0.0000
# 5 0.0000 0.0000 0.0000 0.0000 35.3154 0.0000
# 6 0.0000 0.0000 0.0000 0.0000 0.0000 50.7901
#
#
#
# Elastic Compliance Matrix: (Units=1/GPa)
#
#
# Indices 1 2 3 4 5 6 
#
# 1 0.006498 -0.001846 -0.004149 0.000000 0.000000 0.000000
# 2 -0.001846 0.007460 0.002957 0.000000 0.000000 0.000000
# 3 -0.004149 0.002957 0.023827 0.000000 0.000000 0.000000
# 4 0.000000 0.000000 0.000000 0.032697 0.000000 0.000000
# 5 0.000000 0.000000 0.000000 0.000000 0.028316 0.000000
# 6 0.000000 0.000000 0.000000 0.000000 0.000000 0.019689
#
#
# Mechanical properties :
#
#
# Convention : Reuss Voigt Hill
#
# Bulk Modulus (GPa) = 31.53690 52.70614 42.12152
# Shear Modulus (GPa) = 37.00059 45.18456 41.09258
#
# Velocity S-wave (km/s) = 3.70616 4.09558 3.90573
# Velocity P-wave (km/s) = 5.47919 6.47542 5.99802
#
# Compressibility (1/GPa) = 0.03170889
#
# Stress axis : x y z
#
# Youngs Moduli (GPa) = 153.90045 134.03940 41.96937
#
# Poissons Ratio (x) = 0.24741 0.17414
# Poissons Ratio (y) = 0.28407 -0.12410
# Poissons Ratio (z) = 0.63858 -0.39636
#
# Static dielectric constant tensor:
#      x y z
#    x 2.094540 0.000000 0.000000 
#    y 0.000000 2.120720 0.000000 
#    z 0.000000 0.000000 2.149450 
# 
# From -- ./inp_files/6755.got.cif
#   From: 2010.05.17/outbox.cif.g08.bks.cpg/sg33_4_cif.got.tgz:6755.got - 2010.06.03 17:15:25.
