data_PCOD9346965
_publ_section_title
;
Structure prediction by ZEFSAII (Michael W. Deem and Ramdas Pophale) SiO2 
 PCOD9346965
Probable space group: P N A 21
;
_chemical_formula_sum "Si O2"
_cell_formula_units_Z 28
_cell_length_a 12.820609
_cell_length_b 14.955426
_cell_length_c 6.434942
_cell_angle_alpha 90.000000
_cell_angle_beta 90.000000
_cell_angle_gamma 90.000000
_cell_volume 1233.820780
_symmetry_space_group_name_H-M "P N A 21"
_symmetry_group_IT_number 33
_symmetry_cell_setting 'orthorhombic'
loop_
_space_group_symop_operation_xyz
x,y,z
-x,-y,1/2+z
1/2-x,1/2+y,1/2+z
1/2+x,1/2-y,z
loop_
_atom_site_type_symbol
_atom_site_label
_atom_site_fract_x
_atom_site_fract_y
_atom_site_fract_z
Si Si1 0.161100 0.978706 0.461820
Si Si2 0.142580 0.567628 0.026837
Si Si3 0.809334 0.649445 0.185605
Si Si4 0.900772 0.230232 0.615569
Si Si5 0.449491 0.919409 0.808229
Si Si6 0.507086 0.599072 0.779995
Si Si7 0.459294 0.752144 0.494272
O O1 0.241829 0.917949 0.331160
O O2 0.113953 0.931707 0.666150
O O3 0.233958 0.064951 0.500460
O O4 0.060263 0.012471 0.337084
O O5 0.098044 0.666094 0.058837
O O6 0.119189 0.497264 0.206939
O O7 0.063493 0.537211 0.845432
O O8 0.716909 0.701379 0.073144
O O9 0.872327 0.717296 0.331780
O O10 0.887186 0.609468 0.014925
O O11 0.969060 0.162382 0.477767
O O12 0.938336 0.230677 0.854894
O O13 0.465832 0.835336 0.653727
O O14 0.442419 0.662123 0.623172
#
# Coordination Sequence:
#
# PCOD9346965 Si02
#       7
#     4   4   4   4   4   4   4
#     4  12  28  48  76 112 150 207 262 318 401 459
#     4  12  25  43  77 109 146 200 248 324 387 453
#     4  12  26  48  75 112 152 208 252 316 392 472
#     4  12  27  47  76 108 152 203 257 312 394 462
#     4  12  25  49  74 112 161 189 259 324 387 467
#     4  12  28  52  76 109 160 205 261 330 382 485
#     4  12  25  49  76 110 153 202 253 318 389 464
#
# _framework density 22.693732000000001
#
# number of rings (size 3 to 8) (size 9 to 14) (size 15 to 20)
#    0.000    0.000    5.714    3.429    4.000    2.286 
#    0.000    0.000    0.000    0.000    0.000    0.000 
#    0.000    0.000    0.000    0.000    0.000    0.000 
#
# Total GULP energy -156444.027614 kJ/mol
# GULP energy per Si atom -5587.286700 kJ/mol
# Density = 2.264208 g / cm^3
# Si number density = 22.693732 Si / 1000 Ang^3
#
#
#
# Elastic Constant Matrix: (Units=GPa)
#
#
# Indices 1 2 3 4 5 6 
#
# 1 100.4411 31.5163 33.7114 0.0000 0.0000 0.0000
# 2 31.5163 71.4410 28.4360 0.0000 0.0000 0.0000
# 3 33.7114 28.4360 86.8533 0.0000 0.0000 0.0000
# 4 0.0000 0.0000 0.0000 43.5083 0.0000 0.0000
# 5 0.0000 0.0000 0.0000 0.0000 37.6322 0.0000
# 6 0.0000 0.0000 0.0000 0.0000 0.0000 42.1061
#
#
#
# Elastic Compliance Matrix: (Units=1/GPa)
#
#
# Indices 1 2 3 4 5 6 
#
# 1 0.012406 -0.004089 -0.003476 0.000000 0.000000 0.000000
# 2 -0.004089 0.017443 -0.004124 0.000000 0.000000 0.000000
# 3 -0.003476 -0.004124 0.014213 0.000000 0.000000 0.000000
# 4 0.000000 0.000000 0.000000 0.022984 0.000000 0.000000
# 5 0.000000 0.000000 0.000000 0.000000 0.026573 0.000000
# 6 0.000000 0.000000 0.000000 0.000000 0.000000 0.023750
#
#
# Mechanical properties :
#
#
# Convention : Reuss Voigt Hill
#
# Bulk Modulus (GPa) = 48.34801 49.56253 48.95527
# Shear Modulus (GPa) = 33.86577 35.65410 34.75993
#
# Velocity S-wave (km/s) = 3.86722 3.96801 3.91794
# Velocity P-wave (km/s) = 6.42583 6.54833 6.48737
#
# Compressibility (1/GPa) = 0.02068338
#
# Stress axis : x y z
#
# Youngs Moduli (GPa) = 80.60613 57.33008 70.35743
#
# Poissons Ratio (x) = 0.23443 0.24460
# Poissons Ratio (y) = 0.32961 0.29013
# Poissons Ratio (z) = 0.28023 0.23641
#
# Static dielectric constant tensor:
#      x y z
#    x 1.842360 0.000000 0.000000 
#    y 0.000000 1.918850 0.000000 
#    z 0.000000 0.000000 1.911640 
# 
# From -- ./inp_files/925.got.cif
#   From: 2010.05.17/outbox.cif.g08.bks.cpg/sg33_1_cif.got.tgz:925.got - 2010.06.03 17:15:25.
