data_PCOD9346143
_publ_section_title
;
Structure prediction by ZEFSAII (Michael W. Deem and Ramdas Pophale) SiO2 
 PCOD9346143
Probable space group: P N A 21
;
_chemical_formula_sum "Si O2"
_cell_formula_units_Z 32
_cell_length_a 13.916270
_cell_length_b 13.142975
_cell_length_c 8.846163
_cell_angle_alpha 90.000000
_cell_angle_beta 90.000000
_cell_angle_gamma 90.000000
_cell_volume 1617.973728
_symmetry_space_group_name_H-M "P N A 21"
_symmetry_group_IT_number 33
_symmetry_cell_setting 'orthorhombic'
loop_
_space_group_symop_operation_xyz
x,y,z
-x,-y,1/2+z
1/2-x,1/2+y,1/2+z
1/2+x,1/2-y,z
loop_
_atom_site_type_symbol
_atom_site_label
_atom_site_fract_x
_atom_site_fract_y
_atom_site_fract_z
Si Si1 0.784168 0.187237 0.728250
Si Si2 0.668588 0.360287 0.888462
Si Si3 0.809262 0.504859 0.058750
Si Si4 0.946079 0.343866 0.183715
Si Si5 0.331412 0.860288 0.757703
Si Si6 0.715830 0.812761 0.917916
Si Si7 0.446078 0.343869 0.962450
Si Si8 0.309260 0.504861 0.087414
O O1 0.718256 0.254828 0.839450
O O2 0.733320 0.082115 0.682109
O O3 0.796479 0.249999 0.573083
O O4 0.885772 0.171117 0.809042
O O5 0.670901 0.430506 0.738393
O O6 0.731486 0.418957 0.013516
O O7 0.559381 0.346967 0.937403
O O8 0.904281 0.447133 0.112368
O O9 0.829101 0.569493 0.907771
O O10 0.885774 0.328880 0.337125
O O11 0.923634 0.249998 0.073083
O O12 0.059381 0.346964 0.208760
O O13 0.281742 0.754830 0.806715
O O14 0.268514 0.918958 0.632648
O O15 0.766678 0.917883 0.964056
O O16 0.404280 0.447136 0.033797
#
# Coordination Sequence:
#
# PCOD9346143 Si02
#       8
#     4   4   4   4   4   4   4   4
#     4  10  23  45  66  92 132 173 215 272 320 388
#     4  10  24  43  64  98 131 166 218 272 321 394
#     4  10  23  45  65  93 133 169 217 270 324 384
#     4  12  25  39  70  97 129 171 216 266 329 389
#     4  10  24  43  64  98 131 166 218 272 321 394
#     4  10  23  45  66  92 132 173 215 272 320 388
#     4  12  25  39  70  97 129 171 216 266 329 389
#     4  10  23  45  65  93 133 169 217 270 324 384
#
# _framework density 19.777825
#
# number of rings (size 3 to 8) (size 9 to 14) (size 15 to 20)
#    0.000    1.500    2.500    0.750    7.000    5.000 
#    0.000    0.000    0.000    0.000    0.000    0.000 
#    0.000    0.000    0.000    0.000    0.000    0.000 
#
# Total GULP energy -178949.818549 kJ/mol
# GULP energy per Si atom -5592.181830 kJ/mol
# Density = 1.973281 g / cm^3
# Si number density = 19.777825 Si / 1000 Ang^3
#
#
#
# Elastic Constant Matrix: (Units=GPa)
#
#
# Indices 1 2 3 4 5 6 
#
# 1 116.5587 33.6707 32.6025 0.0000 0.0000 0.0000
# 2 33.6707 107.3530 55.5092 0.0000 0.0000 0.0000
# 3 32.6025 55.5092 48.5068 0.0000 0.0000 0.0000
# 4 0.0000 0.0000 0.0000 37.7452 0.0000 0.0000
# 5 0.0000 0.0000 0.0000 0.0000 24.9223 0.0000
# 6 0.0000 0.0000 0.0000 0.0000 0.0000 26.2229
#
#
#
# Elastic Compliance Matrix: (Units=1/GPa)
#
#
# Indices 1 2 3 4 5 6 
#
# 1 0.010600 0.000880 -0.008131 0.000000 0.000000 0.000000
# 2 0.000880 0.022888 -0.026784 0.000000 0.000000 0.000000
# 3 -0.008131 -0.026784 0.056731 0.000000 0.000000 0.000000
# 4 0.000000 0.000000 0.000000 0.026493 0.000000 0.000000
# 5 0.000000 0.000000 0.000000 0.000000 0.040125 0.000000
# 6 0.000000 0.000000 0.000000 0.000000 0.000000 0.038135
#
#
# Mechanical properties :
#
#
# Convention : Reuss Voigt Hill
#
# Bulk Modulus (GPa) = 45.14912 57.33147 51.24029
# Shear Modulus (GPa) = 18.48951 27.82050 23.15501
#
# Velocity S-wave (km/s) = 3.06087 3.75460 3.42534
# Velocity P-wave (km/s) = 5.94723 6.91713 6.45044
#
# Compressibility (1/GPa) = 0.02214883
#
# Stress axis : x y z
#
# Youngs Moduli (GPa) = 94.34385 43.69072 17.62713
#
# Poissons Ratio (x) = -0.03844 0.14333
# Poissons Ratio (y) = -0.08301 0.47212
# Poissons Ratio (z) = 0.76711 1.17020
#
# Static dielectric constant tensor:
#      x y z
#    x 1.626800 0.000000 0.000000 
#    y 0.000000 1.697140 0.000000 
#    z 0.000000 0.000000 1.701200 
# 
# From -- ./inp_files/3973.got.cif
#   From: 2010.05.17/outbox.cif.g08.bks.cpg/sg33_2_cif.got.tgz:3973.got - 2010.06.03 17:15:25.
