data_PCOD9346050
_publ_section_title
;
Structure prediction by ZEFSAII (Michael W. Deem and Ramdas Pophale) SiO2 
 PCOD9346050
Probable space group: P N A 21
;
_chemical_formula_sum "Si O2"
_cell_formula_units_Z 32
_cell_length_a 8.348922
_cell_length_b 11.692455
_cell_length_c 14.138404
_cell_angle_alpha 90.000000
_cell_angle_beta 90.000000
_cell_angle_gamma 90.000000
_cell_volume 1380.182442
_symmetry_space_group_name_H-M "P N A 21"
_symmetry_group_IT_number 33
_symmetry_cell_setting 'orthorhombic'
loop_
_space_group_symop_operation_xyz
x,y,z
-x,-y,1/2+z
1/2-x,1/2+y,1/2+z
1/2+x,1/2-y,z
loop_
_atom_site_type_symbol
_atom_site_label
_atom_site_fract_x
_atom_site_fract_y
_atom_site_fract_z
Si Si1 0.000997 0.753299 0.948270
Si Si2 0.248274 0.286223 0.585027
Si Si3 0.454308 0.399961 0.977266
Si Si4 0.569941 0.998900 0.675915
Si Si5 0.817760 0.340199 0.031576
Si Si6 0.589234 0.539853 0.820027
Si Si7 0.961732 0.507261 0.881762
Si Si8 0.796442 0.960085 0.131208
O O1 0.028899 0.841624 0.864409
O O2 0.038909 0.622775 0.921908
O O3 0.069296 0.792511 0.051353
O O4 0.816467 0.739679 0.978992
O O5 0.221097 0.175620 0.648877
O O6 0.171443 0.400596 0.625389
O O7 0.368955 0.503713 0.031367
O O8 0.634219 0.375241 0.014069
O O9 0.349505 0.289484 0.001885
O O10 0.485649 0.440236 0.870190
O O11 0.386175 0.998968 0.641387
O O12 0.640696 0.878883 0.638415
O O13 0.560478 0.022494 0.787614
O O14 0.935602 0.413491 0.962807
O O15 0.777015 0.528927 0.849040
O O16 0.592274 0.521678 0.708582
#
# Coordination Sequence:
#
# PCOD9346050 Si02
#       8
#     4   4   4   4   4   4   4   4
#     4  12  21  43  67  94 127 171 221 274 329 389
#     4  12  22  40  70  94 126 171 221 276 330 387
#     4  11  24  43  65  92 133 174 211 268 327 389
#     4  11  24  43  67  96 129 173 220 272 327 391
#     4  11  23  44  63  92 133 172 213 266 329 388
#     4  10  23  42  65  95 130 170 220 269 323 390
#     4  10  23  43  67  93 128 172 219 270 326 388
#     4  11  24  42  66  96 132 171 221 271 325 388
#
# _framework density 23.18534
#
# number of rings (size 3 to 8) (size 9 to 14) (size 15 to 20)
#    0.000    1.000    5.000    1.500    3.500    0.000 
#    2.250    0.000    0.000    0.000    0.000    0.000 
#    0.000    0.000    0.000    0.000    0.000    0.000 
#
# Total GULP energy -178727.842160 kJ/mol
# GULP energy per Si atom -5585.245067 kJ/mol
# Density = 2.313257 g / cm^3
# Si number density = 23.185340 Si / 1000 Ang^3
#
#
#
# Elastic Constant Matrix: (Units=GPa)
#
#
# Indices 1 2 3 4 5 6 
#
# 1 40.4839 0.6450 -4.9293 0.0000 0.0000 0.0000
# 2 0.6450 96.9262 -13.5768 0.0000 0.0000 0.0000
# 3 -4.9293 -13.5768 36.0687 0.0000 0.0000 0.0000
# 4 0.0000 0.0000 0.0000 32.1987 0.0000 0.0000
# 5 0.0000 0.0000 0.0000 0.0000 26.4807 0.0000
# 6 0.0000 0.0000 0.0000 0.0000 0.0000 32.1866
#
#
#
# Elastic Compliance Matrix: (Units=1/GPa)
#
#
# Indices 1 2 3 4 5 6 
#
# 1 0.025129 0.000331 0.003559 0.000000 0.000000 0.000000
# 2 0.000331 0.010896 0.004147 0.000000 0.000000 0.000000
# 3 0.003559 0.004147 0.029772 0.000000 0.000000 0.000000
# 4 0.000000 0.000000 0.000000 0.031057 0.000000 0.000000
# 5 0.000000 0.000000 0.000000 0.000000 0.037763 0.000000
# 6 0.000000 0.000000 0.000000 0.000000 0.000000 0.031069
#
#
# Mechanical properties :
#
#
# Convention : Reuss Voigt Hill
#
# Bulk Modulus (GPa) = 12.21437 15.30629 13.76033
# Shear Modulus (GPa) = 28.26408 30.92919 29.59663
#
# Velocity S-wave (km/s) = 3.49528 3.65636 3.57672
# Velocity P-wave (km/s) = 4.64423 4.94381 4.79636
#
# Compressibility (1/GPa) = 0.08187077
#
# Stress axis : x y z
#
# Youngs Moduli (GPa) = 39.79427 91.77882 33.58852
#
# Poissons Ratio (x) = -0.03040 -0.11954
# Poissons Ratio (y) = -0.01318 -0.13928
# Poissons Ratio (z) = -0.14163 -0.38057
#
# Static dielectric constant tensor:
#      x y z
#    x 1.855820 0.000000 0.000000 
#    y 0.000000 1.868600 0.000000 
#    z 0.000000 0.000000 1.860330 
# 
# From -- ./inp_files/7702.got.cif
#   From: 2010.05.17/outbox.cif.g08.bks.cpg/sg33_4_cif.got.tgz:7702.got - 2010.06.03 17:15:25.
