data_PCOD9346689
_publ_section_title
;
Structure prediction by ZEFSAII (Michael W. Deem and Ramdas Pophale) SiO2 
 PCOD9346689
Probable space group: P N A 21
;
_chemical_formula_sum "Si O2"
_cell_formula_units_Z 32
_cell_length_a 14.659763
_cell_length_b 11.565053
_cell_length_c 8.805725
_cell_angle_alpha 90.000000
_cell_angle_beta 90.000000
_cell_angle_gamma 90.000000
_cell_volume 1492.930859
_symmetry_space_group_name_H-M "P N A 21"
_symmetry_group_IT_number 33
_symmetry_cell_setting 'orthorhombic'
loop_
_space_group_symop_operation_xyz
x,y,z
-x,-y,1/2+z
1/2-x,1/2+y,1/2+z
1/2+x,1/2-y,z
loop_
_atom_site_type_symbol
_atom_site_label
_atom_site_fract_x
_atom_site_fract_y
_atom_site_fract_z
Si Si1 0.687156 0.478975 0.508970
Si Si2 0.348135 0.602861 0.677139
Si Si3 0.271926 0.198732 0.707322
Si Si4 0.507993 0.889432 0.587372
Si Si5 0.437113 0.355135 0.173430
Si Si6 0.379350 0.986000 0.851949
Si Si7 0.322753 0.822975 0.482383
Si Si8 0.807237 0.114025 0.460548
O O1 0.689975 0.427145 0.341822
O O2 0.692357 0.378765 0.632843
O O3 0.602901 0.563431 0.541181
O O4 0.775708 0.558807 0.532732
O O5 0.456742 0.617752 0.695045
O O6 0.311014 0.720934 0.604544
O O7 0.326770 0.499576 0.561225
O O8 0.340802 0.108101 0.786223
O O9 0.313060 0.275780 0.571907
O O10 0.227756 0.282300 0.831300
O O11 0.568823 0.779366 0.630283
O O12 0.567841 0.986271 0.507708
O O13 0.430454 0.845214 0.469190
O O14 0.450029 0.931289 0.732427
O O15 0.378582 0.378079 0.323664
O O16 0.293786 0.904091 0.891106
#
# Coordination Sequence:
#
# PCOD9346689 Si02
#       8
#     4   4   4   4   4   4   4   4
#     4  12  24  44  74 101 143 188 241 297 364 425
#     4  11  25  44  75 104 142 188 238 306 359 426
#     4  12  26  44  75 101 142 197 239 294 359 443
#     4  11  28  45  74 103 152 187 246 306 357 427
#     4  11  25  46  69 105 146 185 247 302 355 437
#     4  12  27  51  69 111 145 197 242 298 363 441
#     4  11  23  49  68 106 140 191 245 297 358 432
#     4  12  26  47  76 105 146 195 244 288 377 437
#
# _framework density 21.434348
#
# number of rings (size 3 to 8) (size 9 to 14) (size 15 to 20)
#    0.000    0.500    5.000    1.500    8.750    1.000 
#    2.250    0.000    0.000    0.000    0.000    0.000 
#    0.000    0.000    0.000    0.000    0.000    0.000 
#
# Total GULP energy -179149.099778 kJ/mol
# GULP energy per Si atom -5598.409368 kJ/mol
# Density = 2.138556 g / cm^3
# Si number density = 21.434348 Si / 1000 Ang^3
#
#
#
# Elastic Constant Matrix: (Units=GPa)
#
#
# Indices 1 2 3 4 5 6 
#
# 1 56.1331 5.8026 20.9255 0.0000 0.0000 0.0000
# 2 5.8026 39.5307 5.5025 0.0000 0.0000 0.0000
# 3 20.9255 5.5025 84.5926 0.0000 0.0000 0.0000
# 4 0.0000 0.0000 0.0000 43.8150 0.0000 0.0000
# 5 0.0000 0.0000 0.0000 0.0000 35.7450 0.0000
# 6 0.0000 0.0000 0.0000 0.0000 0.0000 32.3626
#
#
#
# Elastic Compliance Matrix: (Units=1/GPa)
#
#
# Indices 1 2 3 4 5 6 
#
# 1 0.019820 -0.002247 -0.004757 0.000000 0.000000 0.000000
# 2 -0.002247 0.025783 -0.001121 0.000000 0.000000 0.000000
# 3 -0.004757 -0.001121 0.013071 0.000000 0.000000 0.000000
# 4 0.000000 0.000000 0.000000 0.022823 0.000000 0.000000
# 5 0.000000 0.000000 0.000000 0.000000 0.027976 0.000000
# 6 0.000000 0.000000 0.000000 0.000000 0.000000 0.030900
#
#
# Mechanical properties :
#
#
# Convention : Reuss Voigt Hill
#
# Bulk Modulus (GPa) = 23.57174 27.19083 25.38129
# Shear Modulus (GPa) = 29.28007 32.25291 30.76649
#
# Velocity S-wave (km/s) = 3.70000 3.88329 3.79275
# Velocity P-wave (km/s) = 5.41058 5.72886 5.57199
#
# Compressibility (1/GPa) = 0.04242369
#
# Stress axis : x y z
#
# Youngs Moduli (GPa) = 50.45328 38.78562 76.50547
#
# Poissons Ratio (x) = 0.08716 0.36392
# Poissons Ratio (y) = 0.11338 0.08578
# Poissons Ratio (z) = 0.23999 0.04349
#
# Static dielectric constant tensor:
#      x y z
#    x 1.768300 0.000000 0.000000 
#    y 0.000000 1.763630 0.000000 
#    z 0.000000 0.000000 1.757810 
# 
# From -- ./inp_files/4419.got.cif
#   From: 2010.05.17/outbox.cif.g08.bks.cpg/sg33_3_cif.got.tgz:4419.got - 2010.06.03 17:15:25.
