data_PCOD9346423
_publ_section_title
;
Structure prediction by ZEFSAII (Michael W. Deem and Ramdas Pophale) SiO2 
 PCOD9346423
Probable space group: P N A 21
;
_chemical_formula_sum "Si O2"
_cell_formula_units_Z 16
_cell_length_a 8.481611
_cell_length_b 8.751019
_cell_length_c 7.638115
_cell_angle_alpha 90.000000
_cell_angle_beta 90.000000
_cell_angle_gamma 90.000000
_cell_volume 566.921816
_symmetry_space_group_name_H-M "P N A 21"
_symmetry_group_IT_number 33
_symmetry_cell_setting 'orthorhombic'
loop_
_space_group_symop_operation_xyz
x,y,z
-x,-y,1/2+z
1/2-x,1/2+y,1/2+z
1/2+x,1/2-y,z
loop_
_atom_site_type_symbol
_atom_site_label
_atom_site_fract_x
_atom_site_fract_y
_atom_site_fract_z
Si Si1 0.979092 0.076667 0.290250
Si Si2 0.318216 0.031212 0.219783
Si Si3 0.349817 0.958447 0.629762
Si Si4 0.512697 0.254210 0.659546
O O1 0.976605 0.889172 0.299339
O O2 0.809145 0.107941 0.206131
O O3 0.991840 0.159802 0.475789
O O4 0.146747 0.099100 0.191304
O O5 0.479796 0.116995 0.167189
O O6 0.330167 0.991885 0.425342
O O7 0.343021 0.865545 0.129775
O O8 0.381386 0.128258 0.710615
#
# Coordination Sequence:
#
# PCOD9346423 Si02
#       4
#     4   4   4   4
#     4  12  22  48  77 111 159 205 255 332 389 470
#     4  10  25  47  76 113 157 204 264 326 392 473
#     4  10  25  47  76 113 160 203 259 329 395 470
#     4  10  26  46  77 117 154 202 268 313 400 473
#
# _framework density 28.222587999999998
#
# number of rings (size 3 to 8) (size 9 to 14) (size 15 to 20)
#    1.500    0.000    2.500    1.500    3.500    0.000 
#    4.500    0.000    0.000    0.000    0.000    0.000 
#    0.000    0.000    0.000    0.000    0.000    0.000 
#
# Total GULP energy -89510.905001 kJ/mol
# GULP energy per Si atom -5594.431563 kJ/mol
# Density = 2.815835 g / cm^3
# Si number density = 28.222588 Si / 1000 Ang^3
#
#
#
# Elastic Constant Matrix: (Units=GPa)
#
#
# Indices 1 2 3 4 5 6 
#
# 1 310.4002 102.8328 59.8590 0.0000 0.0000 0.0000
# 2 102.8328 164.0612 19.0729 0.0000 0.0000 0.0000
# 3 59.8590 19.0729 107.6218 0.0000 0.0000 0.0000
# 4 0.0000 0.0000 0.0000 49.0913 0.0000 0.0000
# 5 0.0000 0.0000 0.0000 0.0000 44.3145 0.0000
# 6 0.0000 0.0000 0.0000 0.0000 0.0000 98.0140
#
#
#
# Elastic Compliance Matrix: (Units=1/GPa)
#
#
# Indices 1 2 3 4 5 6 
#
# 1 0.004461 -0.002560 -0.002027 0.000000 0.000000 0.000000
# 2 -0.002560 0.007693 0.000061 0.000000 0.000000 0.000000
# 3 -0.002027 0.000061 0.010409 0.000000 0.000000 0.000000
# 4 0.000000 0.000000 0.000000 0.020370 0.000000 0.000000
# 5 0.000000 0.000000 0.000000 0.000000 0.022566 0.000000
# 6 0.000000 0.000000 0.000000 0.000000 0.000000 0.010203
#
#
# Mechanical properties :
#
#
# Convention : Reuss Voigt Hill
#
# Bulk Modulus (GPa) = 74.02743 105.06804 89.54773
# Shear Modulus (GPa) = 56.01726 64.97185 60.49456
#
# Velocity S-wave (km/s) = 4.45999 4.80325 4.63480
# Velocity P-wave (km/s) = 7.26696 8.25050 7.77430
#
# Compressibility (1/GPa) = 0.01350851
#
# Stress axis : x y z
#
# Youngs Moduli (GPa) = 224.17357 129.98765 96.07386
#
# Poissons Ratio (x) = 0.33281 0.19478
# Poissons Ratio (y) = 0.57396 -0.00583
# Poissons Ratio (z) = 0.45448 -0.00789
#
# Static dielectric constant tensor:
#      x y z
#    x 2.302750 0.000000 0.000000 
#    y 0.000000 2.268690 0.000000 
#    z 0.000000 0.000000 2.112360 
# 
# From -- ./inp_files/2922.got.cif
#   From: 2010.05.17/outbox.cif.g08.bks.cpg/sg33_2_cif.got.tgz:2922.got - 2010.06.03 17:15:25.
