data_PCOD9346401
_publ_section_title
;
Structure prediction by ZEFSAII (Michael W. Deem and Ramdas Pophale) SiO2 
 PCOD9346401
Probable space group: P N A 21
;
_chemical_formula_sum "Si O2"
_cell_formula_units_Z 32
_cell_length_a 12.664350
_cell_length_b 8.374521
_cell_length_c 14.125115
_cell_angle_alpha 90.000000
_cell_angle_beta 90.000000
_cell_angle_gamma 90.000000
_cell_volume 1498.079540
_symmetry_space_group_name_H-M "P N A 21"
_symmetry_group_IT_number 33
_symmetry_cell_setting 'orthorhombic'
loop_
_space_group_symop_operation_xyz
x,y,z
-x,-y,1/2+z
1/2-x,1/2+y,1/2+z
1/2+x,1/2-y,z
loop_
_atom_site_type_symbol
_atom_site_label
_atom_site_fract_x
_atom_site_fract_y
_atom_site_fract_z
Si Si1 0.692191 0.380215 0.127600
Si Si2 0.455855 0.351954 0.066467
Si Si3 0.060012 0.003355 0.895417
Si Si4 0.381995 0.001976 0.024070
Si Si5 0.924965 0.269019 0.554188
Si Si6 0.257223 0.984946 0.619326
Si Si7 0.290799 0.099368 0.832634
Si Si8 0.611890 0.585016 0.254797
O O1 0.566759 0.378784 0.115895
O O2 0.763503 0.502276 0.066922
O O3 0.718748 0.200687 0.101689
O O4 0.699916 0.448834 0.233104
O O5 0.422782 0.167473 0.071254
O O6 0.367810 0.479838 0.098388
O O7 0.487313 0.383738 0.959100
O O8 0.172239 0.082943 0.872952
O O9 0.075821 0.846680 0.961745
O O10 0.989598 0.999681 0.801137
O O11 0.464508 0.865613 0.050029
O O12 0.366320 0.018585 0.911174
O O13 0.827978 0.396383 0.556577
O O14 0.915213 0.180107 0.656291
O O15 0.285055 0.020024 0.728747
O O16 0.331641 0.278694 0.817209
#
# Coordination Sequence:
#
# PCOD9346401 Si02
#       8
#     4   4   4   4   4   4   4   4
#     4  11  22  45  68  98 136 186 235 281 365 411
#     4  11  21  44  69  96 136 185 231 288 350 414
#     4  12  25  44  70 101 138 184 236 293 351 423
#     4  11  23  42  71 100 137 186 231 298 344 422
#     4  11  25  45  72 104 142 189 238 286 365 419
#     4  10  25  44  70  98 143 184 229 290 351 431
#     4  11  24  43  63 103 141 175 235 284 347 421
#     4  11  25  43  69 104 137 189 229 298 347 431
#
# _framework density 21.360681
#
# number of rings (size 3 to 8) (size 9 to 14) (size 15 to 20)
#    0.000    1.000    5.000    0.750    3.500    2.000 
#    0.000    0.000    0.000    0.000    0.000    0.000 
#    0.000    0.000    0.000    0.000    0.000    0.000 
#
# Total GULP energy -178254.757817 kJ/mol
# GULP energy per Si atom -5570.461182 kJ/mol
# Density = 2.131206 g / cm^3
# Si number density = 21.360681 Si / 1000 Ang^3
#
#
#
# Elastic Constant Matrix: (Units=GPa)
#
#
# Indices 1 2 3 4 5 6 
#
# 1 108.3403 56.5545 37.0086 0.0000 0.0000 0.0000
# 2 56.5545 106.3347 31.2625 0.0000 0.0000 0.0000
# 3 37.0086 31.2625 80.2403 0.0000 0.0000 0.0000
# 4 0.0000 0.0000 0.0000 24.8853 0.0000 0.0000
# 5 0.0000 0.0000 0.0000 0.0000 40.8129 0.0000
# 6 0.0000 0.0000 0.0000 0.0000 0.0000 69.3524
#
#
#
# Elastic Compliance Matrix: (Units=1/GPa)
#
#
# Indices 1 2 3 4 5 6 
#
# 1 0.013809 -0.006180 -0.003961 0.000000 0.000000 0.000000
# 2 -0.006180 0.013386 -0.002365 0.000000 0.000000 0.000000
# 3 -0.003961 -0.002365 0.015211 0.000000 0.000000 0.000000
# 4 0.000000 0.000000 0.000000 0.040184 0.000000 0.000000
# 5 0.000000 0.000000 0.000000 0.000000 0.024502 0.000000
# 6 0.000000 0.000000 0.000000 0.000000 0.000000 0.014419
#
#
# Mechanical properties :
#
#
# Convention : Reuss Voigt Hill
#
# Bulk Modulus (GPa) = 57.49134 60.50738 58.99936
# Shear Modulus (GPa) = 32.82487 38.34942 35.58715
#
# Velocity S-wave (km/s) = 3.92432 4.24173 4.08611
# Velocity P-wave (km/s) = 6.89251 7.23724 7.06698
#
# Compressibility (1/GPa) = 0.01739392
#
# Stress axis : x y z
#
# Youngs Moduli (GPa) = 72.41479 74.70241 65.74117
#
# Poissons Ratio (x) = 0.46165 0.26043
# Poissons Ratio (y) = 0.44752 0.15549
# Poissons Ratio (z) = 0.28686 0.17669
#
# Static dielectric constant tensor:
#      x y z
#    x 1.832580 0.000000 0.000000 
#    y 0.000000 1.808950 0.000000 
#    z 0.000000 0.000000 1.970700 
# 
# From -- ./inp_files/8007.got.cif
#   From: 2010.05.17/outbox.cif.g08.bks.cpg/sg33_5_cif.got.tgz:8007.got - 2010.06.03 17:15:25.
