data_PCOD9346933
_publ_section_title
;
Structure prediction by ZEFSAII (Michael W. Deem and Ramdas Pophale) SiO2 
 PCOD9346933
Probable space group: P N A 21
;
_chemical_formula_sum "Si O2"
_cell_formula_units_Z 28
_cell_length_a 10.082526
_cell_length_b 22.146643
_cell_length_c 5.186730
_cell_angle_alpha 90.000000
_cell_angle_beta 90.000000
_cell_angle_gamma 90.000000
_cell_volume 1158.166227
_symmetry_space_group_name_H-M "P N A 21"
_symmetry_group_IT_number 33
_symmetry_cell_setting 'orthorhombic'
loop_
_space_group_symop_operation_xyz
x,y,z
-x,-y,1/2+z
1/2-x,1/2+y,1/2+z
1/2+x,1/2-y,z
loop_
_atom_site_type_symbol
_atom_site_label
_atom_site_fract_x
_atom_site_fract_y
_atom_site_fract_z
Si Si1 0.910806 0.847620 0.985390
Si Si2 0.203433 0.410163 0.001941
Si Si3 0.084893 0.012163 0.570810
Si Si4 0.592201 0.917152 0.631228
Si Si5 0.993175 0.428370 0.632223
Si Si6 0.924135 0.186771 0.980176
Si Si7 0.837177 0.317500 0.806437
O O1 0.881982 0.919473 0.983124
O O2 0.975457 0.823742 0.719935
O O3 0.782923 0.813370 0.106246
O O4 0.016610 0.838591 0.214562
O O5 0.296760 0.464189 0.091579
O O6 0.290517 0.350595 0.025526
O O7 0.146461 0.426159 0.714093
O O8 0.064636 0.398055 0.151584
O O9 0.011733 0.013322 0.846489
O O10 0.581203 0.958748 0.381673
O O11 0.688544 0.863587 0.548666
O O12 0.598341 0.948798 0.898715
O O13 0.949647 0.357374 0.663818
O O14 0.889204 0.256132 0.924060
#
# Coordination Sequence:
#
# PCOD9346933 Si02
#       7
#     4   4   4   4   4   4   4
#     4  12  27  43  67 102 135 184 224 291 361 407
#     4   9  22  38  67  91 133 174 228 279 344 419
#     4  12  23  43  65  99 139 173 231 291 351 425
#     4   8  20  37  65  88 125 175 219 272 333 394
#     4   8  20  38  63  90 122 177 217 273 334 391
#     4  12  26  39  64 102 131 179 226 275 361 411
#     4   9  26  42  67  92 145 172 235 281 342 429
#
# _framework density 24.176151999999998
#
# number of rings (size 3 to 8) (size 9 to 14) (size 15 to 20)
#    1.714    0.000    2.857    0.000   12.000    0.000 
#    0.000    0.000    6.286    0.000    0.000    0.000 
#    0.000    0.000    0.000    0.000    0.000    0.000 
#
# Total GULP energy -156008.809569 kJ/mol
# GULP energy per Si atom -5571.743199 kJ/mol
# Density = 2.412113 g / cm^3
# Si number density = 24.176152 Si / 1000 Ang^3
#
#
#
# Elastic Constant Matrix: (Units=GPa)
#
#
# Indices 1 2 3 4 5 6 
#
# 1 105.7747 18.7103 6.1983 0.0000 0.0000 0.0000
# 2 18.7103 120.2286 -0.7115 0.0000 0.0000 0.0000
# 3 6.1983 -0.7115 111.8779 0.0000 0.0000 0.0000
# 4 0.0000 0.0000 0.0000 -10.3421 0.0000 0.0000
# 5 0.0000 0.0000 0.0000 0.0000 32.7663 0.0000
# 6 0.0000 0.0000 0.0000 0.0000 0.0000 -101.9158
#
#
#
# Elastic Compliance Matrix: (Units=1/GPa)
#
#
# Indices 1 2 3 4 5 6 
#
# 1 0.009755 -0.001521 -0.000550 0.000000 0.000000 0.000000
# 2 -0.001521 0.008555 0.000139 0.000000 0.000000 0.000000
# 3 -0.000550 0.000139 0.008970 0.000000 0.000000 0.000000
# 4 0.000000 0.000000 0.000000 -0.096692 0.000000 0.000000
# 5 0.000000 0.000000 0.000000 0.000000 0.030519 0.000000
# 6 0.000000 0.000000 0.000000 0.000000 0.000000 -0.009812
#
#
# Mechanical properties :
#
#
# Convention : Reuss Voigt Hill
#
# Bulk Modulus (GPa) = 42.70874 42.91951 42.81413
# Shear Modulus (GPa) = -135.00897 5.01396 -64.99751
#
# Velocity S-wave (km/s) = -7.48098 1.44168 -5.19070
# Velocity P-wave (km/s) = 7.54428 4.53460 4.26342
#
# Compressibility (1/GPa) = 0.02341441
#
# Stress axis : x y z
#
# Youngs Moduli (GPa) = 102.50718 116.88968 111.48677
#
# Poissons Ratio (x) = 0.17784 0.06133
# Poissons Ratio (y) = 0.15596 -0.01546
# Poissons Ratio (z) = 0.05639 -0.01621
#
# Static dielectric constant tensor:
#      x y z
#    x 2.042950 0.000000 0.000000 
#    y 0.000000 1.990820 0.000000 
#    z 0.000000 0.000000 2.463120 
# 
# From -- ./inp_files/549.got.cif
#   From: 2010.05.17/outbox.cif.g08.bks.cpg/sg33_1_cif.got.tgz:549.got - 2010.06.03 17:15:25.
