data_PCOD9346553
_publ_section_title
;
Structure prediction by ZEFSAII (Michael W. Deem and Ramdas Pophale) SiO2 
 PCOD9346553
Probable space group: P N A 21
;
_chemical_formula_sum "Si O2"
_cell_formula_units_Z 20
_cell_length_a 8.549158
_cell_length_b 17.258188
_cell_length_c 4.994208
_cell_angle_alpha 90.000000
_cell_angle_beta 90.000000
_cell_angle_gamma 90.000000
_cell_volume 736.860311
_symmetry_space_group_name_H-M "P N A 21"
_symmetry_group_IT_number 33
_symmetry_cell_setting 'orthorhombic'
loop_
_space_group_symop_operation_xyz
x,y,z
-x,-y,1/2+z
1/2-x,1/2+y,1/2+z
1/2+x,1/2-y,z
loop_
_atom_site_type_symbol
_atom_site_label
_atom_site_fract_x
_atom_site_fract_y
_atom_site_fract_z
Si Si1 0.590714 0.215320 0.004020
Si Si2 0.096511 0.993320 0.750306
Si Si3 0.234356 0.634015 0.492465
Si Si4 0.701096 0.129219 0.517092
Si Si5 0.044030 0.518338 0.805377
O O1 0.628450 0.187188 0.302394
O O2 0.623193 0.306823 0.010173
O O3 0.417641 0.186040 0.922890
O O4 0.707765 0.176384 0.789193
O O5 0.216230 0.064243 0.798735
O O6 0.151329 0.913698 0.892340
O O7 0.048242 0.983168 0.444861
O O8 0.175516 0.584039 0.748385
O O9 0.580900 0.039184 0.058202
O O10 0.919616 0.555418 0.060152
#
# Coordination Sequence:
#
# PCOD9346553 Si02
#       5
#     4   4   4   4   4
#     4  11  28  47  77 109 152 196 247 309 384 452
#     4  12  29  45  77 108 152 194 255 315 368 439
#     4  11  28  50  78 111 153 198 251 309 380 450
#     4  11  25  46  73 107 147 197 252 305 377 442
#     4  11  22  42  77 109 140 191 253 308 363 439
#
# _framework density 27.142188999999998
#
# number of rings (size 3 to 8) (size 9 to 14) (size 15 to 20)
#    0.000    0.800    2.000    3.600    8.400    8.000 
#    0.000    0.000    0.000    0.000    0.000    0.000 
#    0.000    0.000    0.000    0.000    0.000    0.000 
#
# Total GULP energy -111780.192179 kJ/mol
# GULP energy per Si atom -5589.009609 kJ/mol
# Density = 2.708041 g / cm^3
# Si number density = 27.142189 Si / 1000 Ang^3
#
#
#
# Elastic Constant Matrix: (Units=GPa)
#
#
# Indices 1 2 3 4 5 6 
#
# 1 85.9096 42.4131 21.2120 0.0000 0.0000 0.0000
# 2 42.4131 146.8615 54.2812 0.0000 0.0000 0.0000
# 3 21.2120 54.2812 184.0037 0.0000 0.0000 0.0000
# 4 0.0000 0.0000 0.0000 20.6079 0.0000 0.0000
# 5 0.0000 0.0000 0.0000 0.0000 38.7341 0.0000
# 6 0.0000 0.0000 0.0000 0.0000 0.0000 64.3990
#
#
#
# Elastic Compliance Matrix: (Units=1/GPa)
#
#
# Indices 1 2 3 4 5 6 
#
# 1 0.013610 -0.003761 -0.000460 0.000000 0.000000 0.000000
# 2 -0.003761 0.008682 -0.002128 0.000000 0.000000 0.000000
# 3 -0.000460 -0.002128 0.006115 0.000000 0.000000 0.000000
# 4 0.000000 0.000000 0.000000 0.048525 0.000000 0.000000
# 5 0.000000 0.000000 0.000000 0.000000 0.025817 0.000000
# 6 0.000000 0.000000 0.000000 0.000000 0.000000 0.015528
#
#
# Mechanical properties :
#
#
# Convention : Reuss Voigt Hill
#
# Bulk Modulus (GPa) = 63.64790 72.50969 68.07880
# Shear Modulus (GPa) = 36.70795 44.67278 40.69037
#
# Velocity S-wave (km/s) = 3.68153 4.06135 3.87609
# Velocity P-wave (km/s) = 6.44766 6.98323 6.72078
#
# Compressibility (1/GPa) = 0.01571144
#
# Stress axis : x y z
#
# Youngs Moduli (GPa) = 73.47393 115.18643 163.52491
#
# Poissons Ratio (x) = 0.43319 0.07515
# Poissons Ratio (y) = 0.27632 0.34790
# Poissons Ratio (z) = 0.03377 0.24506
#
# Static dielectric constant tensor:
#      x y z
#    x 2.416370 0.000000 0.000000 
#    y 0.000000 2.105800 0.000000 
#    z 0.000000 0.000000 2.083940 
# 
# From -- ./inp_files/352.got.cif
#   From: 2010.05.17/outbox.cif.g08.bks.cpg/sg33_1_cif.got.tgz:352.got - 2010.06.03 17:15:25.
