data_PCOD9346990
_publ_section_title
;
Structure prediction by ZEFSAII (Michael W. Deem and Ramdas Pophale) SiO2 
 PCOD9346990
Probable space group: P N A 21
;
_chemical_formula_sum "Si O2"
_cell_formula_units_Z 12
_cell_length_a 5.285491
_cell_length_b 18.149753
_cell_length_c 4.869701
_cell_angle_alpha 90.000000
_cell_angle_beta 90.000000
_cell_angle_gamma 90.000000
_cell_volume 467.152151
_symmetry_space_group_name_H-M "P N A 21"
_symmetry_group_IT_number 33
_symmetry_cell_setting 'orthorhombic'
loop_
_space_group_symop_operation_xyz
x,y,z
-x,-y,1/2+z
1/2-x,1/2+y,1/2+z
1/2+x,1/2-y,z
loop_
_atom_site_type_symbol
_atom_site_label
_atom_site_fract_x
_atom_site_fract_y
_atom_site_fract_z
Si Si1 0.993037 0.109566 0.508040
Si Si2 0.110862 0.205178 0.009739
Si Si3 0.146693 0.484140 0.181749
O O1 0.107414 0.172622 0.316050
O O2 0.736408 0.086402 0.354184
O O3 0.144075 0.032741 0.525428
O O4 0.006133 0.141299 0.810862
O O5 0.396751 0.232338 0.963218
O O6 0.035932 0.534272 0.428867
#
# Coordination Sequence:
#
# PCOD9346990 Si02
#       3
#     4   4   4
#     4  12  27  50  72 114 149 190 266 308 386 458
#     4  12  29  50  78 108 153 210 252 312 376 458
#     4  12  26  46  80 110 150 198 246 334 392 450
#
# _framework density 25.687566
#
# number of rings (size 3 to 8) (size 9 to 14) (size 15 to 20)
#    0.000    0.000    0.000   10.000   14.000    0.000 
#    0.000    0.000    0.000    0.000    0.000    0.000 
#    0.000    0.000    0.000    0.000    0.000    0.000 
#
# Total GULP energy -67154.153737 kJ/mol
# GULP energy per Si atom -5596.179478 kJ/mol
# Density = 2.562910 g / cm^3
# Si number density = 25.687566 Si / 1000 Ang^3
#
#
#
# Elastic Constant Matrix: (Units=GPa)
#
#
# Indices 1 2 3 4 5 6 
#
# 1 70.6050 10.0941 26.0266 0.0000 0.0000 0.0000
# 2 10.0941 52.6154 -9.5743 0.0000 0.0000 0.0000
# 3 26.0266 -9.5743 121.5263 0.0000 0.0000 0.0000
# 4 0.0000 0.0000 0.0000 71.3245 0.0000 0.0000
# 5 0.0000 0.0000 0.0000 0.0000 46.5682 0.0000
# 6 0.0000 0.0000 0.0000 0.0000 0.0000 32.1055
#
#
#
# Elastic Compliance Matrix: (Units=1/GPa)
#
#
# Indices 1 2 3 4 5 6 
#
# 1 0.016081 -0.003766 -0.003741 0.000000 0.000000 0.000000
# 2 -0.003766 0.020164 0.002395 0.000000 0.000000 0.000000
# 3 -0.003741 0.002395 0.009218 0.000000 0.000000 0.000000
# 4 0.000000 0.000000 0.000000 0.014020 0.000000 0.000000
# 5 0.000000 0.000000 0.000000 0.000000 0.021474 0.000000
# 6 0.000000 0.000000 0.000000 0.000000 0.000000 0.031147
#
#
# Mechanical properties :
#
#
# Convention : Reuss Voigt Hill
#
# Bulk Modulus (GPa) = 28.37620 33.09329 30.73474
# Shear Modulus (GPa) = 37.29285 44.54631 40.91958
#
# Velocity S-wave (km/s) = 3.81436 4.16884 3.99554
# Velocity P-wave (km/s) = 5.51995 6.00694 5.76858
#
# Compressibility (1/GPa) = 0.03524081
#
# Stress axis : x y z
#
# Youngs Moduli (GPa) = 62.18703 49.59307 108.47805
#
# Poissons Ratio (x) = 0.18675 0.40577
# Poissons Ratio (y) = 0.23418 -0.25981
# Poissons Ratio (z) = 0.23261 -0.11878
#
# Static dielectric constant tensor:
#      x y z
#    x 2.098790 0.000000 0.000000 
#    y 0.000000 2.075470 0.000000 
#    z 0.000000 0.000000 1.892580 
# 
# From -- ./inp_files/100.got.cif
#   From: 2010.05.17/outbox.cif.g08.bks.cpg/sg33_1_cif.got.tgz:100.got - 2010.06.03 17:15:25.
