data_PCOD9346503
_publ_section_title
;
Structure prediction by ZEFSAII (Michael W. Deem and Ramdas Pophale) SiO2 
 PCOD9346503
Probable space group: P N A 21
;
_chemical_formula_sum "Si O2"
_cell_formula_units_Z 20
_cell_length_a 5.512595
_cell_length_b 13.682871
_cell_length_c 10.519683
_cell_angle_alpha 90.000000
_cell_angle_beta 90.000000
_cell_angle_gamma 90.000000
_cell_volume 793.479978
_symmetry_space_group_name_H-M "P N A 21"
_symmetry_group_IT_number 33
_symmetry_cell_setting 'orthorhombic'
loop_
_space_group_symop_operation_xyz
x,y,z
-x,-y,1/2+z
1/2-x,1/2+y,1/2+z
1/2+x,1/2-y,z
loop_
_atom_site_type_symbol
_atom_site_label
_atom_site_fract_x
_atom_site_fract_y
_atom_site_fract_z
Si Si1 0.645626 0.785666 0.077680
Si Si2 0.648493 0.014930 0.137906
Si Si3 0.590265 0.671599 0.345218
Si Si4 0.919639 0.207073 0.124863
Si Si5 0.409857 0.059460 0.888200
O O1 0.383284 0.763459 0.015623
O O2 0.691685 0.901046 0.100827
O O3 0.604172 0.731437 0.214593
O O4 0.580844 0.027443 0.285159
O O5 0.868562 0.090936 0.120913
O O6 0.439449 0.042342 0.037487
O O7 0.580963 0.735027 0.474162
O O8 0.350637 0.606000 0.355705
O O9 0.837586 0.611449 0.350368
O O10 0.676345 0.258056 0.178330
#
# Coordination Sequence:
#
# PCOD9346503 Si02
#       5
#     4   4   4   4   4
#     4  12  22  39  71 106 137 181 245 298 349 426
#     4  11  26  46  70 112 145 194 238 316 364 442
#     4  11  21  41  71 105 134 186 247 302 330 433
#     4  11  24  41  68  99 142 187 240 295 355 428
#     4  11  25  43  70 104 150 182 244 291 368 425
#
# _framework density 25.205424000000001
#
# number of rings (size 3 to 8) (size 9 to 14) (size 15 to 20)
#    0.000    0.800    4.000    3.600    2.800    9.600 
#    0.000    2.000    0.000    0.000    0.000    0.000 
#    0.000    0.000    0.000    0.000    0.000    0.000 
#
# Total GULP energy -111659.042375 kJ/mol
# GULP energy per Si atom -5582.952119 kJ/mol
# Density = 2.514806 g / cm^3
# Si number density = 25.205424 Si / 1000 Ang^3
#
#
#
# Elastic Constant Matrix: (Units=GPa)
#
#
# Indices 1 2 3 4 5 6 
#
# 1 228.4299 66.3327 30.2477 0.0000 0.0000 0.0000
# 2 66.3327 127.1463 4.2489 0.0000 0.0000 0.0000
# 3 30.2477 4.2489 58.9826 0.0000 0.0000 0.0000
# 4 0.0000 0.0000 0.0000 36.7751 0.0000 0.0000
# 5 0.0000 0.0000 0.0000 0.0000 12.3182 0.0000
# 6 0.0000 0.0000 0.0000 0.0000 0.0000 -16.2807
#
#
#
# Elastic Compliance Matrix: (Units=1/GPa)
#
#
# Indices 1 2 3 4 5 6 
#
# 1 0.005541 -0.002803 -0.002640 0.000000 0.000000 0.000000
# 2 -0.002803 0.009301 0.000767 0.000000 0.000000 0.000000
# 3 -0.002640 0.000767 0.018253 0.000000 0.000000 0.000000
# 4 0.000000 0.000000 0.000000 0.027192 0.000000 0.000000
# 5 0.000000 0.000000 0.000000 0.000000 0.081181 0.000000
# 6 0.000000 0.000000 0.000000 0.000000 0.000000 -0.061422
#
#
# Mechanical properties :
#
#
# Convention : Reuss Voigt Hill
#
# Bulk Modulus (GPa) = 42.11432 68.46861 55.29146
# Shear Modulus (GPa) = 51.38162 27.47780 39.42971
#
# Velocity S-wave (km/s) = 4.51989 3.30533 3.95946
# Velocity P-wave (km/s) = 6.63204 6.46453 6.54882
#
# Compressibility (1/GPa) = 0.02374489
#
# Stress axis : x y z
#
# Youngs Moduli (GPa) = 180.47011 107.51018 54.78672
#
# Poissons Ratio (x) = 0.30131 0.14462
# Poissons Ratio (y) = 0.50578 -0.04203
# Poissons Ratio (z) = 0.47639 -0.08248
#
# Static dielectric constant tensor:
#      x y z
#    x 2.021610 0.000000 0.000000 
#    y 0.000000 2.122040 0.000000 
#    z 0.000000 0.000000 2.046400 
# 
# From -- ./inp_files/5409.got.cif
#   From: 2010.05.17/outbox.cif.g08.bks.cpg/sg33_3_cif.got.tgz:5409.got - 2010.06.03 17:15:25.
