data_PCOD9346483
_publ_section_title
;
Structure prediction by ZEFSAII (Michael W. Deem and Ramdas Pophale) SiO2 
 PCOD9346483
Probable space group: P N A 21
;
_chemical_formula_sum "Si O2"
_cell_formula_units_Z 32
_cell_length_a 13.238195
_cell_length_b 10.398720
_cell_length_c 12.958125
_cell_angle_alpha 90.000000
_cell_angle_beta 90.000000
_cell_angle_gamma 90.000000
_cell_volume 1783.819156
_symmetry_space_group_name_H-M "P N A 21"
_symmetry_group_IT_number 33
_symmetry_cell_setting 'orthorhombic'
loop_
_space_group_symop_operation_xyz
x,y,z
-x,-y,1/2+z
1/2-x,1/2+y,1/2+z
1/2+x,1/2-y,z
loop_
_atom_site_type_symbol
_atom_site_label
_atom_site_fract_x
_atom_site_fract_y
_atom_site_fract_z
Si Si1 0.626471 0.356383 0.288240
Si Si2 0.353033 0.113157 0.225659
Si Si3 0.500001 0.424712 0.895397
Si Si4 0.373528 0.356382 0.502553
Si Si5 0.041799 0.142847 0.670594
Si Si6 0.353034 0.886846 0.065133
Si Si7 0.541799 0.642844 0.620199
Si Si8 0.500000 0.137238 0.395396
O O1 0.745455 0.356945 0.276316
O O2 0.587208 0.478845 0.353801
O O3 0.566858 0.357894 0.178733
O O4 0.583227 0.231335 0.345071
O O5 0.395211 0.242580 0.171600
O O6 0.438433 0.066736 0.306604
O O7 0.336258 0.000003 0.145394
O O8 0.532342 0.346944 0.793857
O O9 0.587209 0.521155 0.936993
O O10 0.467658 0.346944 0.996937
O O11 0.433141 0.357891 0.612060
O O12 0.254544 0.356944 0.514477
O O13 0.416772 0.231335 0.445721
O O14 0.104788 0.257426 0.619194
O O15 0.084907 0.000002 0.645396
O O16 0.438434 0.933265 0.984186
#
# Coordination Sequence:
#
# PCOD9346483 Si02
#       8
#     4   4   4   4   4   4   4   4
#     4   9  18  36  57  74 101 143 182 206 250 320
#     4  11  21  35  54  80 110 137 169 215 266 311
#     4   9  16  33  58  78  96 132 184 226 246 288
#     4   9  18  36  57  74 101 143 182 206 250 320
#     4   9  19  35  54  77 103 137 179 218 251 302
#     4  11  21  35  54  80 110 137 169 215 266 311
#     4   9  19  35  54  77 103 137 179 218 251 302
#     4   9  20  35  54  76 104 144 176 206 256 318
#
# _framework density 17.939038
#
# number of rings (size 3 to 8) (size 9 to 14) (size 15 to 20)
#    0.000    2.500    0.000    4.500    0.000    1.000 
#    0.000   15.000    0.000    0.000    0.000    0.000 
#    0.000    0.000    0.000    0.000    0.000    0.000 
#
# Total GULP energy -178363.025852 kJ/mol
# GULP energy per Si atom -5573.844558 kJ/mol
# Density = 1.789821 g / cm^3
# Si number density = 17.939038 Si / 1000 Ang^3
#
#
#
# Elastic Constant Matrix: (Units=GPa)
#
#
# Indices 1 2 3 4 5 6 
#
# 1 123.8747 19.9634 41.3933 0.0000 0.0000 0.0000
# 2 19.9634 27.6579 2.0385 0.0000 0.0000 0.0000
# 3 41.3933 2.0385 114.1294 0.0000 0.0000 0.0000
# 4 0.0000 0.0000 0.0000 -4.2324 0.0000 0.0000
# 5 0.0000 0.0000 0.0000 0.0000 18.7131 0.0000
# 6 0.0000 0.0000 0.0000 0.0000 0.0000 269.4103
#
#
#
# Elastic Compliance Matrix: (Units=1/GPa)
#
#
# Indices 1 2 3 4 5 6 
#
# 1 0.010473 -0.007289 -0.003668 0.000000 0.000000 0.000000
# 2 -0.007289 0.041277 0.001906 0.000000 0.000000 0.000000
# 3 -0.003668 0.001906 0.010058 0.000000 0.000000 0.000000
# 4 0.000000 0.000000 0.000000 -0.236270 0.000000 0.000000
# 5 0.000000 0.000000 0.000000 0.000000 0.053439 0.000000
# 6 0.000000 0.000000 0.000000 0.000000 0.000000 0.003712
#
#
# Mechanical properties :
#
#
# Convention : Reuss Voigt Hill
#
# Bulk Modulus (GPa) = 22.88001 43.60583 33.24292
# Shear Modulus (GPa) = -59.07304 70.26264 5.59480
#
# Velocity S-wave (km/s) = -5.74468 6.26518 1.76792
# Velocity P-wave (km/s) = 5.58747 8.75769 4.76851
#
# Compressibility (1/GPa) = 0.04370627
#
# Stress axis : x y z
#
# Youngs Moduli (GPa) = 95.48233 24.22674 99.41970
#
# Poissons Ratio (x) = 0.17659 0.36470
# Poissons Ratio (y) = 0.69598 -0.18953
# Poissons Ratio (z) = 0.35026 -0.04619
#
# Static dielectric constant tensor:
#      x y z
#    x 1.586220 0.000000 0.000000 
#    y 0.000000 1.601920 0.000000 
#    z 0.000000 0.000000 1.668260 
# 
# From -- ./inp_files/6475.got.cif
#   From: 2010.05.17/outbox.cif.g08.bks.cpg/sg33_4_cif.got.tgz:6475.got - 2010.06.03 17:15:25.
