data_PCOD9346055
_publ_section_title
;
Structure prediction by ZEFSAII (Michael W. Deem and Ramdas Pophale) SiO2 
 PCOD9346055
Probable space group: P N A 21
;
_chemical_formula_sum "Si O2"
_cell_formula_units_Z 32
_cell_length_a 12.219556
_cell_length_b 6.778895
_cell_length_c 17.507779
_cell_angle_alpha 90.000000
_cell_angle_beta 90.000000
_cell_angle_gamma 90.000000
_cell_volume 1450.258398
_symmetry_space_group_name_H-M "P N A 21"
_symmetry_group_IT_number 33
_symmetry_cell_setting 'orthorhombic'
loop_
_space_group_symop_operation_xyz
x,y,z
-x,-y,1/2+z
1/2-x,1/2+y,1/2+z
1/2+x,1/2-y,z
loop_
_atom_site_type_symbol
_atom_site_label
_atom_site_fract_x
_atom_site_fract_y
_atom_site_fract_z
Si Si1 0.324845 0.526781 0.820830
Si Si2 0.425326 0.434024 0.527024
Si Si3 0.128532 0.592266 0.921404
Si Si4 0.896102 0.009818 0.149548
Si Si5 0.507910 0.800351 0.775888
Si Si6 0.856567 0.594750 0.198980
Si Si7 0.200041 0.652079 0.554241
Si Si8 0.542861 0.736959 0.420076
O O1 0.252439 0.549272 0.897614
O O2 0.389033 0.726573 0.800095
O O3 0.243084 0.482458 0.751324
O O4 0.406825 0.347737 0.841677
O O5 0.386231 0.221892 0.496792
O O6 0.504095 0.424694 0.599493
O O7 0.322339 0.575764 0.542860
O O8 0.496654 0.545219 0.463193
O O9 0.081549 0.720006 0.851108
O O10 0.055180 0.395384 0.917735
O O11 0.843780 0.826512 0.191809
O O12 0.815212 0.136327 0.095731
O O13 0.947724 0.156114 0.210956
O O14 0.534014 0.015339 0.740992
O O15 0.852461 0.500713 0.114688
O O16 0.134943 0.664544 0.474653
#
# Coordination Sequence:
#
# PCOD9346055 Si02
#       8
#     4   4   4   4   4   4   4   4
#     4  11  24  43  66 103 136 180 239 287 352 424
#     4  11  23  43  68  98 139 177 228 286 347 420
#     4  11  25  42  67  99 135 185 228 285 362 408
#     4  10  23  45  69  96 137 177 230 289 338 423
#     4  10  23  43  64  96 137 169 231 288 334 418
#     4  10  23  45  68  98 135 187 234 278 365 419
#     4  10  23  42  67 101 134 177 235 287 350 421
#     4  11  24  43  65  99 137 178 231 292 346 421
#
# _framework density 22.065034000000001
#
# number of rings (size 3 to 8) (size 9 to 14) (size 15 to 20)
#    0.000    1.500    1.250    2.250    5.250    4.000 
#    6.750    2.500    0.000    0.000    0.000    0.000 
#    0.000    0.000    0.000    0.000    0.000    0.000 
#
# Total GULP energy -178813.397043 kJ/mol
# GULP energy per Si atom -5587.918658 kJ/mol
# Density = 2.201481 g / cm^3
# Si number density = 22.065034 Si / 1000 Ang^3
#
#
#
# Elastic Constant Matrix: (Units=GPa)
#
#
# Indices 1 2 3 4 5 6 
#
# 1 69.6573 13.3977 -15.1348 0.0000 0.0000 0.0000
# 2 13.3977 62.9630 -1.8633 0.0000 0.0000 0.0000
# 3 -15.1348 -1.8633 36.7043 0.0000 0.0000 0.0000
# 4 0.0000 0.0000 0.0000 -7.6575 0.0000 0.0000
# 5 0.0000 0.0000 0.0000 0.0000 33.4242 0.0000
# 6 0.0000 0.0000 0.0000 0.0000 0.0000 32.7234
#
#
#
# Elastic Compliance Matrix: (Units=1/GPa)
#
#
# Indices 1 2 3 4 5 6 
#
# 1 0.016426 -0.003300 0.006606 0.000000 0.000000 0.000000
# 2 -0.003300 0.016569 -0.000520 0.000000 0.000000 0.000000
# 3 0.006606 -0.000520 0.029942 0.000000 0.000000 0.000000
# 4 0.000000 0.000000 0.000000 -0.130591 0.000000 0.000000
# 5 0.000000 0.000000 0.000000 0.000000 0.029918 0.000000
# 6 0.000000 0.000000 0.000000 0.000000 0.000000 0.030559
#
#
# Mechanical properties :
#
#
# Convention : Reuss Voigt Hill
#
# Bulk Modulus (GPa) = 14.59642 18.01375 16.30508
# Shear Modulus (GPa) = 495.63906 23.22635 259.43270
#
# Velocity S-wave (km/s) = 15.00380 3.24795 10.85503
# Velocity P-wave (km/s) = 17.51518 4.71670 12.82632
#
# Compressibility (1/GPa) = 0.06850997
#
# Stress axis : x y z
#
# Youngs Moduli (GPa) = 60.87945 60.35334 33.39769
#
# Poissons Ratio (x) = 0.19915 -0.22061
# Poissons Ratio (y) = 0.20089 0.01735
# Poissons Ratio (z) = -0.40215 0.03135
#
# Static dielectric constant tensor:
#      x y z
#    x 1.810220 0.000000 0.000000 
#    y 0.000000 1.971060 0.000000 
#    z 0.000000 0.000000 1.816550 
# 
# From -- ./inp_files/9153.got.cif
#   From: 2010.05.17/outbox.cif.g08.bks.cpg/sg33_5_cif.got.tgz:9153.got - 2010.06.03 17:15:25.
