data_PCOD9346573
_publ_section_title
;
Structure prediction by ZEFSAII (Michael W. Deem and Ramdas Pophale) SiO2 
 PCOD9346573
Probable space group: P N A 21
;
_chemical_formula_sum "Si O2"
_cell_formula_units_Z 28
_cell_length_a 17.457976
_cell_length_b 4.959155
_cell_length_c 12.236546
_cell_angle_alpha 90.000000
_cell_angle_beta 90.000000
_cell_angle_gamma 90.000000
_cell_volume 1059.401105
_symmetry_space_group_name_H-M "P N A 21"
_symmetry_group_IT_number 33
_symmetry_cell_setting 'orthorhombic'
loop_
_space_group_symop_operation_xyz
x,y,z
-x,-y,1/2+z
1/2-x,1/2+y,1/2+z
1/2+x,1/2-y,z
loop_
_atom_site_type_symbol
_atom_site_label
_atom_site_fract_x
_atom_site_fract_y
_atom_site_fract_z
Si Si1 0.765829 0.464686 0.487950
Si Si2 0.432068 0.777534 0.454916
Si Si3 0.429884 0.825135 0.986236
Si Si4 0.142411 0.955999 0.126876
Si Si5 0.368802 0.334083 0.864196
Si Si6 0.629151 0.221493 0.733027
Si Si7 0.274295 0.298438 0.199863
O O1 0.845779 0.604595 0.464428
O O2 0.793717 0.194297 0.550875
O O3 0.710432 0.497788 0.385370
O O4 0.712712 0.620276 0.574030
O O5 0.425792 0.549013 0.548021
O O6 0.433680 0.719063 0.325548
O O7 0.491528 0.008221 0.484483
O O8 0.428865 0.545364 0.918695
O O9 0.374840 0.044149 0.923825
O O10 0.404258 0.765147 0.110336
O O11 0.118982 0.792137 0.234518
O O12 0.186972 0.206044 0.183712
O O13 0.699111 0.429523 0.758021
O O14 0.665917 0.925623 0.736129
#
# Coordination Sequence:
#
# PCOD9346573 Si02
#       7
#     4   4   4   4   4   4   4
#     4  11  24  48  76 114 146 195 253 310 378 441
#     4  11  31  45  78 114 154 200 250 320 377 450
#     4  12  28  52  74 114 148 211 248 306 389 448
#     4  11  27  47  77 115 154 188 259 314 385 439
#     4  12  28  49  82 105 157 196 257 313 377 457
#     4  12  24  48  76 104 154 192 255 298 377 456
#     4  11  22  45  73 112 139 194 242 313 363 445
#
# _framework density 26.430026999999999
#
# number of rings (size 3 to 8) (size 9 to 14) (size 15 to 20)
#    0.000    0.571    4.286    0.857   14.000    0.000 
#    0.000    0.000    0.000    0.000    0.000    0.000 
#    0.000    0.000    0.000    0.000    0.000    0.000 
#
# Total GULP energy -156447.216272 kJ/mol
# GULP energy per Si atom -5587.400581 kJ/mol
# Density = 2.636987 g / cm^3
# Si number density = 26.430027 Si / 1000 Ang^3
#
#
#
# Elastic Constant Matrix: (Units=GPa)
#
#
# Indices 1 2 3 4 5 6 
#
# 1 73.6240 4.5865 36.1750 0.0000 0.0000 0.0000
# 2 4.5865 127.3329 37.4281 0.0000 0.0000 0.0000
# 3 36.1750 37.4281 174.2821 0.0000 0.0000 0.0000
# 4 0.0000 0.0000 0.0000 15.8191 0.0000 0.0000
# 5 0.0000 0.0000 0.0000 0.0000 38.0668 0.0000
# 6 0.0000 0.0000 0.0000 0.0000 0.0000 44.1922
#
#
#
# Elastic Compliance Matrix: (Units=1/GPa)
#
#
# Indices 1 2 3 4 5 6 
#
# 1 0.015145 0.000404 -0.003230 0.000000 0.000000 0.000000
# 2 0.000404 0.008393 -0.001886 0.000000 0.000000 0.000000
# 3 -0.003230 -0.001886 0.006813 0.000000 0.000000 0.000000
# 4 0.000000 0.000000 0.000000 0.063215 0.000000 0.000000
# 5 0.000000 0.000000 0.000000 0.000000 0.026270 0.000000
# 6 0.000000 0.000000 0.000000 0.000000 0.000000 0.022628
#
#
# Mechanical properties :
#
#
# Convention : Reuss Voigt Hill
#
# Bulk Modulus (GPa) = 47.78729 59.06866 53.42798
# Shear Modulus (GPa) = 31.47333 39.41892 35.44613
#
# Velocity S-wave (km/s) = 3.45457 3.86611 3.66612
# Velocity P-wave (km/s) = 5.83369 6.50590 6.17894
#
# Compressibility (1/GPa) = 0.02092607
#
# Stress axis : x y z
#
# Youngs Moduli (GPa) = 66.03042 119.14179 146.76913
#
# Poissons Ratio (x) = -0.04813 0.47410
# Poissons Ratio (y) = -0.02668 0.27686
# Poissons Ratio (z) = 0.21329 0.22475
#
# Static dielectric constant tensor:
#      x y z
#    x 2.136290 0.000000 0.000000 
#    y 0.000000 2.098140 0.000000 
#    z 0.000000 0.000000 2.218340 
# 
# From -- ./inp_files/7162.got.cif
#   From: 2010.05.17/outbox.cif.g08.bks.cpg/sg33_4_cif.got.tgz:7162.got - 2010.06.03 17:15:25.
