data_PCOD9346882
_publ_section_title
;
Structure prediction by ZEFSAII (Michael W. Deem and Ramdas Pophale) SiO2 
 PCOD9346882
Probable space group: P N A 21
;
_chemical_formula_sum "Si O2"
_cell_formula_units_Z 32
_cell_length_a 7.625833
_cell_length_b 12.560583
_cell_length_c 12.607828
_cell_angle_alpha 90.000000
_cell_angle_beta 90.000000
_cell_angle_gamma 90.000000
_cell_volume 1207.639649
_symmetry_space_group_name_H-M "P N A 21"
_symmetry_group_IT_number 33
_symmetry_cell_setting 'orthorhombic'
loop_
_space_group_symop_operation_xyz
x,y,z
-x,-y,1/2+z
1/2-x,1/2+y,1/2+z
1/2+x,1/2-y,z
loop_
_atom_site_type_symbol
_atom_site_label
_atom_site_fract_x
_atom_site_fract_y
_atom_site_fract_z
Si Si1 0.770584 0.701929 0.765710
Si Si2 0.685074 0.094831 0.883710
Si Si3 0.941787 0.838913 0.161823
Si Si4 0.188311 0.684957 0.352568
Si Si5 0.091701 0.632908 0.881579
Si Si6 0.272486 0.617557 0.587446
Si Si7 0.664258 0.550130 0.595624
Si Si8 0.657996 0.110506 0.586430
O O1 0.961225 0.656252 0.785178
O O2 0.702102 0.757252 0.874776
O O3 0.778866 0.795175 0.678945
O O4 0.671700 0.603606 0.711631
O O5 0.811953 0.186384 0.838538
O O6 0.494840 0.124619 0.838190
O O7 0.713163 0.970125 0.862533
O O8 0.702361 0.099861 0.011381
O O9 0.844176 0.854476 0.276492
O O10 0.926318 0.714475 0.139026
O O11 0.135506 0.866792 0.115921
O O12 0.820299 0.922534 0.096114
O O13 0.215600 0.667721 0.476811
O O14 0.953138 0.609728 0.975767
O O15 0.468733 0.578532 0.560302
O O16 0.156228 0.514370 0.616703
#
# Coordination Sequence:
#
# PCOD9346882 Si02
#       8
#     4   4   4   4   4   4   4   4
#     4  12  26  49  80 113 162 209 275 336 411 499
#     4  12  27  47  79 112 160 211 269 345 413 494
#     4  11  27  48  77 110 160 213 273 330 411 497
#     4  12  25  49  73 113 154 210 267 335 406 493
#     4  12  28  48  77 120 158 216 274 336 417 495
#     4  11  25  49  75 111 160 208 272 339 411 488
#     4  11  26  48  75 112 155 210 263 333 409 487
#     4  11  26  50  74 111 161 215 267 348 410 487
#
# _framework density 26.497969000000001
#
# number of rings (size 3 to 8) (size 9 to 14) (size 15 to 20)
#    0.000    0.500    3.750    3.000    7.000    0.000 
#    2.250    0.000    0.000    0.000    0.000    0.000 
#    0.000    0.000    0.000    0.000    0.000    0.000 
#
# Total GULP energy -178603.344780 kJ/mol
# GULP energy per Si atom -5581.354524 kJ/mol
# Density = 2.643766 g / cm^3
# Si number density = 26.497969 Si / 1000 Ang^3
#
#
#
# Elastic Constant Matrix: (Units=GPa)
#
#
# Indices 1 2 3 4 5 6 
#
# 1 80.9815 10.3502 28.1152 0.0000 0.0000 0.0000
# 2 10.3502 141.2528 65.0428 0.0000 0.0000 0.0000
# 3 28.1152 65.0428 79.0731 0.0000 0.0000 0.0000
# 4 0.0000 0.0000 0.0000 36.8659 0.0000 0.0000
# 5 0.0000 0.0000 0.0000 0.0000 39.6281 0.0000
# 6 0.0000 0.0000 0.0000 0.0000 0.0000 48.0953
#
#
#
# Elastic Compliance Matrix: (Units=1/GPa)
#
#
# Indices 1 2 3 4 5 6 
#
# 1 0.014467 0.002106 -0.006876 0.000000 0.000000 0.000000
# 2 0.002106 0.011703 -0.010375 0.000000 0.000000 0.000000
# 3 -0.006876 -0.010375 0.023626 0.000000 0.000000 0.000000
# 4 0.000000 0.000000 0.000000 0.027125 0.000000 0.000000
# 5 0.000000 0.000000 0.000000 0.000000 0.025235 0.000000
# 6 0.000000 0.000000 0.000000 0.000000 0.000000 0.020792
#
#
# Mechanical properties :
#
#
# Convention : Reuss Voigt Hill
#
# Bulk Modulus (GPa) = 51.26970 56.48042 53.87506
# Shear Modulus (GPa) = 31.30116 38.10446 34.70281
#
# Velocity S-wave (km/s) = 3.44068 3.79623 3.62282
# Velocity P-wave (km/s) = 5.93085 6.36996 6.15432
#
# Compressibility (1/GPa) = 0.01950470
#
# Stress axis : x y z
#
# Youngs Moduli (GPa) = 69.12472 85.45135 42.32697
#
# Poissons Ratio (x) = -0.17999 0.29105
# Poissons Ratio (y) = -0.14560 0.43914
# Poissons Ratio (z) = 0.47532 0.88656
#
# Static dielectric constant tensor:
#      x y z
#    x 2.194760 0.000000 0.000000 
#    y 0.000000 2.110970 0.000000 
#    z 0.000000 0.000000 2.142010 
# 
# From -- ./inp_files/7651.got.cif
#   From: 2010.05.17/outbox.cif.g08.bks.cpg/sg33_4_cif.got.tgz:7651.got - 2010.06.03 17:15:25.
