data_PCOD9346829
_publ_section_title
;
Structure prediction by ZEFSAII (Michael W. Deem and Ramdas Pophale) SiO2 
 PCOD9346829
Probable space group: P N A 21
;
_chemical_formula_sum "Si O2"
_cell_formula_units_Z 28
_cell_length_a 10.851624
_cell_length_b 10.173893
_cell_length_c 10.660385
_cell_angle_alpha 90.000000
_cell_angle_beta 90.000000
_cell_angle_gamma 90.000000
_cell_volume 1176.941272
_symmetry_space_group_name_H-M "P N A 21"
_symmetry_group_IT_number 33
_symmetry_cell_setting 'orthorhombic'
loop_
_space_group_symop_operation_xyz
x,y,z
-x,-y,1/2+z
1/2-x,1/2+y,1/2+z
1/2+x,1/2-y,z
loop_
_atom_site_type_symbol
_atom_site_label
_atom_site_fract_x
_atom_site_fract_y
_atom_site_fract_z
Si Si1 0.862899 0.485307 0.030510
Si Si2 0.839955 0.865389 0.365597
Si Si3 0.594218 0.838665 0.021678
Si Si4 0.823244 0.018911 0.981517
Si Si5 0.786309 0.160402 0.715404
Si Si6 0.005327 0.773658 0.596429
Si Si7 0.018047 0.869074 0.853379
O O1 0.760600 0.551582 0.118526
O O2 0.941016 0.371832 0.098136
O O3 0.792518 0.415854 0.915684
O O4 0.961577 0.597105 0.999671
O O5 0.820728 0.761648 0.255976
O O6 0.911142 0.798072 0.482503
O O7 0.914403 0.993919 0.326825
O O8 0.613070 0.737866 0.906473
O O9 0.695041 0.954435 0.019312
O O10 0.613065 0.751422 0.146627
O O11 0.818870 0.089559 0.845393
O O12 0.921844 0.902650 0.963056
O O13 0.879479 0.128137 0.072296
O O14 0.952265 0.814723 0.730209
#
# Coordination Sequence:
#
# PCOD9346829 Si02
#       7
#     4   4   4   4   4   4   4
#     4  12  26  46  74 107 147 190 250 299 373 447
#     4  11  25  48  72 106 148 194 244 308 377 447
#     4  12  27  46  72 110 141 196 245 309 371 448
#     4  11  25  46  71 101 147 189 244 303 378 437
#     4  12  25  46  75 107 152 188 250 306 373 443
#     4  11  25  46  73 104 143 193 243 308 371 442
#     4  11  25  44  73  99 146 186 248 301 373 444
#
# _framework density 23.790481
#
# number of rings (size 3 to 8) (size 9 to 14) (size 15 to 20)
#    0.000    0.571    2.857    4.286    6.000    2.286 
#    0.000    0.000    0.000    0.000    0.000    0.000 
#    0.000    0.000    0.000    0.000    0.000    0.000 
#
# Total GULP energy -156798.361263 kJ/mol
# GULP energy per Si atom -5599.941474 kJ/mol
# Density = 2.373633 g / cm^3
# Si number density = 23.790481 Si / 1000 Ang^3
#
#
#
# Elastic Constant Matrix: (Units=GPa)
#
#
# Indices 1 2 3 4 5 6 
#
# 1 62.7615 18.5339 -10.3463 0.0000 0.0000 0.0000
# 2 18.5339 105.4850 16.0915 0.0000 0.0000 0.0000
# 3 -10.3463 16.0915 61.8225 0.0000 0.0000 0.0000
# 4 0.0000 0.0000 0.0000 36.4768 0.0000 0.0000
# 5 0.0000 0.0000 0.0000 0.0000 36.2784 0.0000
# 6 0.0000 0.0000 0.0000 0.0000 0.0000 34.4504
#
#
#
# Elastic Compliance Matrix: (Units=1/GPa)
#
#
# Indices 1 2 3 4 5 6 
#
# 1 0.017674 -0.003704 0.003922 0.000000 0.000000 0.000000
# 2 -0.003704 0.010648 -0.003391 0.000000 0.000000 0.000000
# 3 0.003922 -0.003391 0.017714 0.000000 0.000000 0.000000
# 4 0.000000 0.000000 0.000000 0.027415 0.000000 0.000000
# 5 0.000000 0.000000 0.000000 0.000000 0.027565 0.000000
# 6 0.000000 0.000000 0.000000 0.000000 0.000000 0.029027
#
#
# Mechanical properties :
#
#
# Convention : Reuss Voigt Hill
#
# Bulk Modulus (GPa) = 25.19547 30.95858 28.07702
# Shear Modulus (GPa) = 33.41829 35.16044 34.28937
#
# Velocity S-wave (km/s) = 3.75199 3.84854 3.80057
# Velocity P-wave (km/s) = 5.42065 5.72622 5.57553
#
# Compressibility (1/GPa) = 0.03968967
#
# Stress axis : x y z
#
# Youngs Moduli (GPa) = 56.58186 93.91365 56.45134
#
# Poissons Ratio (x) = 0.34781 -0.22139
# Poissons Ratio (y) = 0.20955 0.19145
# Poissons Ratio (z) = -0.22190 0.31849
#
# Static dielectric constant tensor:
#      x y z
#    x 1.928950 0.000000 0.000000 
#    y 0.000000 1.891510 0.000000 
#    z 0.000000 0.000000 1.884360 
# 
# From -- ./inp_files/6316.got.cif
#   From: 2010.05.17/outbox.cif.g08.bks.cpg/sg33_4_cif.got.tgz:6316.got - 2010.06.03 17:15:25.
