data_PCOD9346056
_publ_section_title
;
Structure prediction by ZEFSAII (Michael W. Deem and Ramdas Pophale) SiO2 
 PCOD9346056
Probable space group: P N A 21
;
_chemical_formula_sum "Si O2"
_cell_formula_units_Z 32
_cell_length_a 5.233270
_cell_length_b 31.694003
_cell_length_c 8.353346
_cell_angle_alpha 90.000000
_cell_angle_beta 90.000000
_cell_angle_gamma 90.000000
_cell_volume 1385.513325
_symmetry_space_group_name_H-M "P N A 21"
_symmetry_group_IT_number 33
_symmetry_cell_setting 'orthorhombic'
loop_
_space_group_symop_operation_xyz
x,y,z
-x,-y,1/2+z
1/2-x,1/2+y,1/2+z
1/2+x,1/2-y,z
loop_
_atom_site_type_symbol
_atom_site_label
_atom_site_fract_x
_atom_site_fract_y
_atom_site_fract_z
Si Si1 0.756318 0.920879 0.523140
Si Si2 0.222669 0.774316 0.265567
Si Si3 0.608187 0.633391 0.740889
Si Si4 0.195996 0.775007 0.879022
Si Si5 0.350329 0.444036 0.784249
Si Si6 0.378966 0.863474 0.403048
Si Si7 0.516620 0.555431 0.933012
Si Si8 0.010439 0.522026 0.767774
O O1 0.648331 0.887491 0.395115
O O2 0.552214 0.953169 0.600045
O O3 0.866846 0.888996 0.656436
O O4 0.981039 0.948559 0.444591
O O5 0.434359 0.738900 0.310489
O O6 0.328502 0.816674 0.345513
O O7 0.211327 0.778960 0.072463
O O8 0.610864 0.680906 0.802451
O O9 0.805300 0.632412 0.591588
O O10 0.628021 0.602184 0.892442
O O11 0.478441 0.759028 0.832627
O O12 0.286568 0.394802 0.795668
O O13 0.491567 0.452904 0.619952
O O14 0.102815 0.473850 0.768780
O O15 0.234297 0.544652 0.871153
O O16 0.730069 0.528677 0.836742
#
# Coordination Sequence:
#
# PCOD9346056 Si02
#       8
#     4   4   4   4   4   4   4   4
#     4  10  24  45  63  99 138 183 223 291 334 418
#     4  10  24  45  68  99 135 174 222 282 338 409
#     4  10  23  43  65  94 136 177 219 281 339 409
#     4  10  23  42  67  98 130 170 222 279 339 409
#     4  11  26  40  70  98 134 181 233 283 345 408
#     4  11  24  43  68  98 138 180 227 279 347 407
#     4  11  25  44  67  99 129 183 227 283 338 408
#     4  11  25  44  68  95 140 176 233 284 348 400
#
# _framework density 23.096133999999999
#
# number of rings (size 3 to 8) (size 9 to 14) (size 15 to 20)
#    0.000    1.500    1.250    1.500   10.500    1.000 
#    2.250    0.000    0.000    0.000    0.000    0.000 
#    0.000    0.000    0.000    0.000    0.000    0.000 
#
# Total GULP energy -178591.585597 kJ/mol
# GULP energy per Si atom -5580.987050 kJ/mol
# Density = 2.304357 g / cm^3
# Si number density = 23.096134 Si / 1000 Ang^3
#
#
#
# Elastic Constant Matrix: (Units=GPa)
#
#
# Indices 1 2 3 4 5 6 
#
# 1 69.5496 10.8226 22.2378 0.0000 0.0000 0.0000
# 2 10.8226 134.4777 29.4709 0.0000 0.0000 0.0000
# 3 22.2378 29.4709 67.9375 0.0000 0.0000 0.0000
# 4 0.0000 0.0000 0.0000 34.4507 0.0000 0.0000
# 5 0.0000 0.0000 0.0000 0.0000 20.2654 0.0000
# 6 0.0000 0.0000 0.0000 0.0000 0.0000 30.1886
#
#
#
# Elastic Compliance Matrix: (Units=1/GPa)
#
#
# Indices 1 2 3 4 5 6 
#
# 1 0.016062 -0.000155 -0.005190 0.000000 0.000000 0.000000
# 2 -0.000155 0.008219 -0.003514 0.000000 0.000000 0.000000
# 3 -0.005190 -0.003514 0.017943 0.000000 0.000000 0.000000
# 4 0.000000 0.000000 0.000000 0.029027 0.000000 0.000000
# 5 0.000000 0.000000 0.000000 0.000000 0.049345 0.000000
# 6 0.000000 0.000000 0.000000 0.000000 0.000000 0.033125
#
#
# Mechanical properties :
#
#
# Convention : Reuss Voigt Hill
#
# Bulk Modulus (GPa) = 40.80987 44.11415 42.46201
# Shear Modulus (GPa) = 27.83832 30.94318 29.39075
#
# Velocity S-wave (km/s) = 3.47554 3.66424 3.57114
# Velocity P-wave (km/s) = 5.81496 6.08637 5.95221
#
# Compressibility (1/GPa) = 0.02450387
#
# Stress axis : x y z
#
# Youngs Moduli (GPa) = 62.25920 121.67122 55.73252
#
# Poissons Ratio (x) = 0.01889 0.28926
# Poissons Ratio (y) = 0.00966 0.19587
# Poissons Ratio (z) = 0.32314 0.42761
#
# Static dielectric constant tensor:
#      x y z
#    x 1.916830 0.000000 0.000000 
#    y 0.000000 1.845020 0.000000 
#    z 0.000000 0.000000 1.979760 
# 
# From -- ./inp_files/2848.got.cif
#   From: 2010.05.17/outbox.cif.g08.bks.cpg/sg33_2_cif.got.tgz:2848.got - 2010.06.03 17:15:25.
