data_PCOD9346881
_publ_section_title
;
Structure prediction by ZEFSAII (Michael W. Deem and Ramdas Pophale) SiO2 
 PCOD9346881
Probable space group: P N A 21
;
_chemical_formula_sum "Si O2"
_cell_formula_units_Z 28
_cell_length_a 12.705845
_cell_length_b 15.902340
_cell_length_c 5.309639
_cell_angle_alpha 90.000000
_cell_angle_beta 90.000000
_cell_angle_gamma 90.000000
_cell_volume 1072.826722
_symmetry_space_group_name_H-M "P N A 21"
_symmetry_group_IT_number 33
_symmetry_cell_setting 'orthorhombic'
loop_
_space_group_symop_operation_xyz
x,y,z
-x,-y,1/2+z
1/2-x,1/2+y,1/2+z
1/2+x,1/2-y,z
loop_
_atom_site_type_symbol
_atom_site_label
_atom_site_fract_x
_atom_site_fract_y
_atom_site_fract_z
Si Si1 0.244589 0.111032 0.704760
Si Si2 0.067739 0.152235 0.079719
Si Si3 0.687122 0.607909 0.026673
Si Si4 0.435612 0.984682 0.575921
Si Si5 0.426542 0.242471 0.673064
Si Si6 0.385066 0.478203 0.035632
Si Si7 0.100067 0.321528 0.354473
O O1 0.177149 0.122846 0.956257
O O2 0.315025 0.196510 0.713420
O O3 0.336836 0.043734 0.643990
O O4 0.146871 0.076734 0.524877
O O5 0.990327 0.211447 0.898027
O O6 0.104625 0.225320 0.271397
O O7 0.999750 0.063806 0.085855
O O8 0.601551 0.681006 0.987348
O O9 0.663545 0.565792 0.292181
O O10 0.673030 0.548619 0.790889
O O11 0.800879 0.648238 0.012711
O O12 0.408850 0.886578 0.624475
O O13 0.476981 0.998396 0.293852
O O14 0.499075 0.176087 0.532512
#
# Coordination Sequence:
#
# PCOD9346881 Si02
#       7
#     4   4   4   4   4   4   4
#     4  12  27  50  83 116 163 222 265 341 418 476
#     4  11  28  51  79 115 165 212 275 332 411 496
#     4  11  26  47  77 110 156 207 263 330 405 481
#     4  12  28  48  76 119 160 202 267 331 398 480
#     4  11  25  49  74 113 153 214 269 333 397 491
#     4  11  27  53  74 116 160 208 268 337 401 486
#     4  12  25  44  81 107 159 205 271 334 402 486
#
# _framework density 26.099277000000001
#
# number of rings (size 3 to 8) (size 9 to 14) (size 15 to 20)
#    0.000    0.571    4.286    1.714    8.000    3.429 
#   12.857    0.000    0.000    0.000    0.000    0.000 
#    0.000    0.000    0.000    0.000    0.000    0.000 
#
# Total GULP energy -156400.196913 kJ/mol
# GULP energy per Si atom -5585.721318 kJ/mol
# Density = 2.603987 g / cm^3
# Si number density = 26.099277 Si / 1000 Ang^3
#
#
#
# Elastic Constant Matrix: (Units=GPa)
#
#
# Indices 1 2 3 4 5 6 
#
# 1 105.2377 38.6504 26.3641 0.0000 0.0000 0.0000
# 2 38.6504 150.8143 27.5544 0.0000 0.0000 0.0000
# 3 26.3641 27.5544 85.5251 0.0000 0.0000 0.0000
# 4 0.0000 0.0000 0.0000 45.5288 0.0000 0.0000
# 5 0.0000 0.0000 0.0000 0.0000 28.8464 0.0000
# 6 0.0000 0.0000 0.0000 0.0000 0.0000 58.7283
#
#
#
# Elastic Compliance Matrix: (Units=1/GPa)
#
#
# Indices 1 2 3 4 5 6 
#
# 1 0.011025 -0.002342 -0.002644 0.000000 0.000000 0.000000
# 2 -0.002342 0.007543 -0.001708 0.000000 0.000000 0.000000
# 3 -0.002644 -0.001708 0.013058 0.000000 0.000000 0.000000
# 4 0.000000 0.000000 0.000000 0.021964 0.000000 0.000000
# 5 0.000000 0.000000 0.000000 0.000000 0.034666 0.000000
# 6 0.000000 0.000000 0.000000 0.000000 0.000000 0.017028
#
#
# Mechanical properties :
#
#
# Convention : Reuss Voigt Hill
#
# Bulk Modulus (GPa) = 54.83375 58.52387 56.67881
# Shear Modulus (GPa) = 40.07963 43.22126 41.65045
#
# Velocity S-wave (km/s) = 3.92300 4.07385 3.99914
# Velocity P-wave (km/s) = 6.44788 6.67837 6.56414
#
# Compressibility (1/GPa) = 0.01823694
#
# Stress axis : x y z
#
# Youngs Moduli (GPa) = 90.70356 132.57215 76.58250
#
# Poissons Ratio (x) = 0.31054 0.20248
# Poissons Ratio (y) = 0.21246 0.13081
# Poissons Ratio (z) = 0.23981 0.22645
#
# Static dielectric constant tensor:
#      x y z
#    x 2.039130 0.000000 0.000000 
#    y 0.000000 2.172060 0.000000 
#    z 0.000000 0.000000 2.072190 
# 
# From -- ./inp_files/915.got.cif
#   From: 2010.05.17/outbox.cif.g08.bks.cpg/sg33_1_cif.got.tgz:915.got - 2010.06.03 17:15:25.
