data_PCOD9346570
_publ_section_title
;
Structure prediction by ZEFSAII (Michael W. Deem and Ramdas Pophale) SiO2 
 PCOD9346570
Probable space group: P N A 21
;
_chemical_formula_sum "Si O2"
_cell_formula_units_Z 16
_cell_length_a 10.243532
_cell_length_b 4.890701
_cell_length_c 12.636979
_cell_angle_alpha 90.000000
_cell_angle_beta 90.000000
_cell_angle_gamma 90.000000
_cell_volume 633.088034
_symmetry_space_group_name_H-M "P N A 21"
_symmetry_group_IT_number 33
_symmetry_cell_setting 'orthorhombic'
loop_
_space_group_symop_operation_xyz
x,y,z
-x,-y,1/2+z
1/2-x,1/2+y,1/2+z
1/2+x,1/2-y,z
loop_
_atom_site_type_symbol
_atom_site_label
_atom_site_fract_x
_atom_site_fract_y
_atom_site_fract_z
Si Si1 0.122762 0.263693 0.514920
Si Si2 0.753623 0.747230 0.422032
Si Si3 0.696721 0.923536 0.708431
Si Si4 0.571324 0.137261 0.109764
O O1 0.174585 0.469384 0.423395
O O2 0.209206 0.349576 0.616052
O O3 0.981253 0.349331 0.559830
O O4 0.154203 0.962847 0.479060
O O5 0.796317 0.593762 0.316027
O O6 0.876633 0.773116 0.500755
O O7 0.557105 0.786357 0.679528
O O8 0.810376 0.705216 0.688662
#
# Coordination Sequence:
#
# PCOD9346570 Si02
#       4
#     4   4   4   4
#     4   9  24  41  67 100 142 173 241 284 338 429
#     4  11  22  45  69 101 137 191 222 296 353 414
#     4   9  22  44  70 103 140 185 233 290 357 415
#     4   9  22  46  66 108 137 181 238 294 336 434
#
# _framework density 25.272946000000001
#
# number of rings (size 3 to 8) (size 9 to 14) (size 15 to 20)
#    1.500    1.000    0.000    0.000    3.500    8.000 
#    0.000    0.000    0.000    0.000    0.000    0.000 
#    0.000    0.000    0.000    0.000    0.000    0.000 
#
# Total GULP energy -89096.612187 kJ/mol
# GULP energy per Si atom -5568.538262 kJ/mol
# Density = 2.521542 g / cm^3
# Si number density = 25.272946 Si / 1000 Ang^3
#
#
#
# Elastic Constant Matrix: (Units=GPa)
#
#
# Indices 1 2 3 4 5 6 
#
# 1 192.8251 49.9722 45.1361 0.0000 0.0000 0.0000
# 2 49.9722 96.4567 19.2078 0.0000 0.0000 0.0000
# 3 45.1361 19.2078 158.5784 0.0000 0.0000 0.0000
# 4 0.0000 0.0000 0.0000 33.1689 0.0000 0.0000
# 5 0.0000 0.0000 0.0000 0.0000 18.7387 0.0000
# 6 0.0000 0.0000 0.0000 0.0000 0.0000 33.0387
#
#
#
# Elastic Compliance Matrix: (Units=1/GPa)
#
#
# Indices 1 2 3 4 5 6 
#
# 1 0.006292 -0.002975 -0.001431 0.000000 0.000000 0.000000
# 2 -0.002975 0.012030 -0.000610 0.000000 0.000000 0.000000
# 3 -0.001431 -0.000610 0.006787 0.000000 0.000000 0.000000
# 4 0.000000 0.000000 0.000000 0.030149 0.000000 0.000000
# 5 0.000000 0.000000 0.000000 0.000000 0.053365 0.000000
# 6 0.000000 0.000000 0.000000 0.000000 0.000000 0.030268
#
#
# Mechanical properties :
#
#
# Convention : Reuss Voigt Hill
#
# Bulk Modulus (GPa) = 66.32374 75.16582 70.74478
# Shear Modulus (GPa) = 32.47849 39.22554 35.85201
#
# Velocity S-wave (km/s) = 3.58873 3.94391 3.77051
# Velocity P-wave (km/s) = 6.59333 7.10953 6.85629
#
# Compressibility (1/GPa) = 0.01507756
#
# Stress axis : x y z
#
# Youngs Moduli (GPa) = 158.93583 83.12491 147.33749
#
# Poissons Ratio (x) = 0.24728 0.21077
# Poissons Ratio (y) = 0.47280 0.08994
# Poissons Ratio (z) = 0.22736 0.05074
#
# Static dielectric constant tensor:
#      x y z
#    x 2.072100 0.000000 0.000000 
#    y 0.000000 2.088630 0.000000 
#    z 0.000000 0.000000 1.997260 
# 
# From -- ./inp_files/6171.got.cif
#   From: 2010.05.17/outbox.cif.g08.bks.cpg/sg33_4_cif.got.tgz:6171.got - 2010.06.03 17:15:25.
