data_PCOD9346886
_publ_section_title
;
Structure prediction by ZEFSAII (Michael W. Deem and Ramdas Pophale) SiO2 
 PCOD9346886
Probable space group: P N A 21
;
_chemical_formula_sum "Si O2"
_cell_formula_units_Z 16
_cell_length_a 8.807029
_cell_length_b 5.437785
_cell_length_c 12.249777
_cell_angle_alpha 90.000000
_cell_angle_beta 90.000000
_cell_angle_gamma 90.000000
_cell_volume 586.650765
_symmetry_space_group_name_H-M "P N A 21"
_symmetry_group_IT_number 33
_symmetry_cell_setting 'orthorhombic'
loop_
_space_group_symop_operation_xyz
x,y,z
-x,-y,1/2+z
1/2-x,1/2+y,1/2+z
1/2+x,1/2-y,z
loop_
_atom_site_type_symbol
_atom_site_label
_atom_site_fract_x
_atom_site_fract_y
_atom_site_fract_z
Si Si1 0.105592 0.909144 0.457140
Si Si2 0.375297 0.019172 0.795871
Si Si3 0.164914 0.645140 0.667593
Si Si4 0.811007 0.191994 0.499531
O O1 0.100034 0.802768 0.335132
O O2 0.074517 0.736890 0.560710
O O3 0.210200 0.441441 0.407525
O O4 0.269843 0.025709 0.480851
O O5 0.265533 0.871544 0.712324
O O6 0.542515 0.938237 0.756905
O O7 0.018105 0.878420 0.974176
O O8 0.262266 0.417908 0.617052
#
# Coordination Sequence:
#
# PCOD9346886 Si02
#       4
#     4   4   4   4
#     4  11  27  50  80 120 166 217 276 351 424 508
#     4  11  26  49  81 119 163 216 278 343 426 500
#     4  11  25  50  83 118 158 223 278 351 420 501
#     4  11  26  47  78 121 165 212 280 343 426 503
#
# _framework density 27.273465999999999
#
# number of rings (size 3 to 8) (size 9 to 14) (size 15 to 20)
#    0.000    1.000    2.500    1.500    3.500   12.000 
#    0.000    2.500    0.000    0.000    0.000    0.000 
#    0.000    0.000    0.000    0.000    0.000    0.000 
#
# Total GULP energy -89413.112515 kJ/mol
# GULP energy per Si atom -5588.319532 kJ/mol
# Density = 2.721139 g / cm^3
# Si number density = 27.273466 Si / 1000 Ang^3
#
#
#
# Elastic Constant Matrix: (Units=GPa)
#
#
# Indices 1 2 3 4 5 6 
#
# 1 147.1607 48.4564 54.2489 0.0000 0.0000 0.0000
# 2 48.4564 89.1619 34.2463 0.0000 0.0000 0.0000
# 3 54.2489 34.2463 160.3737 0.0000 0.0000 0.0000
# 4 0.0000 0.0000 0.0000 48.2558 0.0000 0.0000
# 5 0.0000 0.0000 0.0000 0.0000 39.3367 0.0000
# 6 0.0000 0.0000 0.0000 0.0000 0.0000 32.4057
#
#
#
# Elastic Compliance Matrix: (Units=1/GPa)
#
#
# Indices 1 2 3 4 5 6 
#
# 1 0.008913 -0.004015 -0.002157 0.000000 0.000000 0.000000
# 2 -0.004015 0.014026 -0.001637 0.000000 0.000000 0.000000
# 3 -0.002157 -0.001637 0.007315 0.000000 0.000000 0.000000
# 4 0.000000 0.000000 0.000000 0.020723 0.000000 0.000000
# 5 0.000000 0.000000 0.000000 0.000000 0.025422 0.000000
# 6 0.000000 0.000000 0.000000 0.000000 0.000000 0.030859
#
#
# Mechanical properties :
#
#
# Convention : Reuss Voigt Hill
#
# Bulk Modulus (GPa) = 68.33075 74.51106 71.42090
# Shear Modulus (GPa) = 39.13756 41.31594 40.22675
#
# Velocity S-wave (km/s) = 3.79226 3.89636 3.84466
# Velocity P-wave (km/s) = 6.65457 6.90083 6.77882
#
# Compressibility (1/GPa) = 0.01463470
#
# Stress axis : x y z
#
# Youngs Moduli (GPa) = 112.19972 71.29432 136.70890
#
# Poissons Ratio (x) = 0.28625 0.29495
# Poissons Ratio (y) = 0.45049 0.22380
# Poissons Ratio (z) = 0.24207 0.11671
#
# Static dielectric constant tensor:
#      x y z
#    x 2.031670 0.000000 0.000000 
#    y 0.000000 2.511420 0.000000 
#    z 0.000000 0.000000 2.131450 
# 
# From -- ./inp_files/6201.got.cif
#   From: 2010.05.17/outbox.cif.g08.bks.cpg/sg33_4_cif.got.tgz:6201.got - 2010.06.03 17:15:25.
