data_PCOD9346232
_publ_section_title
;
Structure prediction by ZEFSAII (Michael W. Deem and Ramdas Pophale) SiO2 
 PCOD9346232
Probable space group: P N A 21
;
_chemical_formula_sum "Si O2"
_cell_formula_units_Z 20
_cell_length_a 9.111080
_cell_length_b 5.050739
_cell_length_c 18.192050
_cell_angle_alpha 90.000000
_cell_angle_beta 90.000000
_cell_angle_gamma 90.000000
_cell_volume 837.156064
_symmetry_space_group_name_H-M "P N A 21"
_symmetry_group_IT_number 33
_symmetry_cell_setting 'orthorhombic'
loop_
_space_group_symop_operation_xyz
x,y,z
-x,-y,1/2+z
1/2-x,1/2+y,1/2+z
1/2+x,1/2-y,z
loop_
_atom_site_type_symbol
_atom_site_label
_atom_site_fract_x
_atom_site_fract_y
_atom_site_fract_z
Si Si1 0.679929 0.472994 0.638540
Si Si2 0.819806 0.918861 0.859028
Si Si3 0.931895 0.695737 0.561841
Si Si4 0.143405 0.070306 0.804894
Si Si5 0.701466 0.701256 0.008920
O O1 0.833552 0.630201 0.633957
O O2 0.571655 0.656980 0.592184
O O3 0.622836 0.393347 0.717501
O O4 0.714303 0.223957 0.586620
O O5 0.757005 0.672659 0.812633
O O6 0.793878 0.813999 0.941663
O O7 0.988133 0.991420 0.841403
O O8 0.718350 0.171498 0.840028
O O9 0.929337 0.416739 0.519745
O O10 0.855030 0.904237 0.506345
#
# Coordination Sequence:
#
# PCOD9346232 Si02
#       5
#     4   4   4   4   4
#     4  10  26  42  74  96 142 174 242 279 350 414
#     4  12  28  47  72 105 149 192 234 299 363 432
#     4  10  24  41  71 100 130 179 233 291 336 404
#     4  12  28  47  72 105 148 189 237 293 370 426
#     4  10  26  41  73  96 143 174 244 276 353 408
#
# _framework density 23.890408999999998
#
# number of rings (size 3 to 8) (size 9 to 14) (size 15 to 20)
#    1.200    0.000    0.000    3.600   14.000    0.000 
#    0.000    0.000    0.000    0.000    0.000    0.000 
#    0.000    0.000    0.000    0.000    0.000    0.000 
#
# Total GULP energy -111759.931650 kJ/mol
# GULP energy per Si atom -5587.996582 kJ/mol
# Density = 2.383603 g / cm^3
# Si number density = 23.890409 Si / 1000 Ang^3
#
#
#
# Elastic Constant Matrix: (Units=GPa)
#
#
# Indices 1 2 3 4 5 6 
#
# 1 56.9401 17.9061 19.9116 0.0000 0.0000 0.0000
# 2 17.9061 126.2510 28.1659 0.0000 0.0000 0.0000
# 3 19.9116 28.1659 122.6893 0.0000 0.0000 0.0000
# 4 0.0000 0.0000 0.0000 26.2561 0.0000 0.0000
# 5 0.0000 0.0000 0.0000 0.0000 26.9498 0.0000
# 6 0.0000 0.0000 0.0000 0.0000 0.0000 38.9666
#
#
#
# Elastic Compliance Matrix: (Units=1/GPa)
#
#
# Indices 1 2 3 4 5 6 
#
# 1 0.019148 -0.002132 -0.002618 0.000000 0.000000 0.000000
# 2 -0.002132 0.008586 -0.001625 0.000000 0.000000 0.000000
# 3 -0.002618 -0.001625 0.008949 0.000000 0.000000 0.000000
# 4 0.000000 0.000000 0.000000 0.038086 0.000000 0.000000
# 5 0.000000 0.000000 0.000000 0.000000 0.037106 0.000000
# 6 0.000000 0.000000 0.000000 0.000000 0.000000 0.025663
#
#
# Mechanical properties :
#
#
# Convention : Reuss Voigt Hill
#
# Bulk Modulus (GPa) = 41.78407 48.64974 45.21691
# Shear Modulus (GPa) = 31.59249 34.42760 33.01004
#
# Velocity S-wave (km/s) = 3.64042 3.80025 3.72119
# Velocity P-wave (km/s) = 5.93279 6.29792 6.11808
#
# Compressibility (1/GPa) = 0.02393257
#
# Stress axis : x y z
#
# Youngs Moduli (GPa) = 52.22407 116.47411 111.74852
#
# Poissons Ratio (x) = 0.24828 0.29259
# Poissons Ratio (y) = 0.11132 0.18160
# Poissons Ratio (z) = 0.13674 0.18928
#
# Static dielectric constant tensor:
#      x y z
#    x 1.972380 0.000000 0.000000 
#    y 0.000000 1.872480 0.000000 
#    z 0.000000 0.000000 1.922800 
# 
# From -- ./inp_files/8413.got.cif
#   From: 2010.05.17/outbox.cif.g08.bks.cpg/sg33_5_cif.got.tgz:8413.got - 2010.06.03 17:15:25.
