data_PCOD9346919
_publ_section_title
;
Structure prediction by ZEFSAII (Michael W. Deem and Ramdas Pophale) SiO2 
 PCOD9346919
Probable space group: P N A 21
;
_chemical_formula_sum "Si O2"
_cell_formula_units_Z 20
_cell_length_a 13.335982
_cell_length_b 5.274265
_cell_length_c 11.161807
_cell_angle_alpha 90.000000
_cell_angle_beta 90.000000
_cell_angle_gamma 90.000000
_cell_volume 785.093635
_symmetry_space_group_name_H-M "P N A 21"
_symmetry_group_IT_number 33
_symmetry_cell_setting 'orthorhombic'
loop_
_space_group_symop_operation_xyz
x,y,z
-x,-y,1/2+z
1/2-x,1/2+y,1/2+z
1/2+x,1/2-y,z
loop_
_atom_site_type_symbol
_atom_site_label
_atom_site_fract_x
_atom_site_fract_y
_atom_site_fract_z
Si Si1 0.582961 0.071916 0.936020
Si Si2 0.556187 0.127442 0.261512
Si Si3 0.901682 0.122299 0.859373
Si Si4 0.656870 0.963963 0.690792
Si Si5 0.734105 0.469722 0.583481
O O1 0.511824 0.312698 0.915297
O O2 0.661265 0.068160 0.825358
O O3 0.506189 0.855505 0.890930
O O4 0.649738 0.027247 0.051526
O O5 0.598100 0.407540 0.257173
O O6 0.624813 0.887983 0.293515
O O7 0.464503 0.058628 0.172272
O O8 0.832483 0.047435 0.968698
O O9 0.707863 0.178132 0.610167
O O10 0.698705 0.681579 0.678368
#
# Coordination Sequence:
#
# PCOD9346919 Si02
#       5
#     4   4   4   4   4
#     4   8  23  38  58  79 128 146 182 252 287 322
#     4   8  18  40  53  74 121 148 171 246 293 306
#     4   9  19  35  59  78 107 155 189 230 291 330
#     4   9  22  35  58  88 116 151 189 244 284 330
#     4  12  20  36  64  85 110 160 201 220 289 364
#
# _framework density 25.474665999999999
#
# number of rings (size 3 to 8) (size 9 to 14) (size 15 to 20)
#    2.400    0.000    0.000    3.600    2.800    0.000 
#    0.000   10.000    0.000    0.000    0.000    0.000 
#    0.000    0.000    0.000    0.000    0.000    0.000 
#
# Total GULP energy -111479.006002 kJ/mol
# GULP energy per Si atom -5573.950300 kJ/mol
# Density = 2.541668 g / cm^3
# Si number density = 25.474666 Si / 1000 Ang^3
#
#
#
# Elastic Constant Matrix: (Units=GPa)
#
#
# Indices 1 2 3 4 5 6 
#
# 1 84.1102 32.1322 6.4610 0.0000 0.0000 0.0000
# 2 32.1322 168.5507 3.0216 0.0000 0.0000 0.0000
# 3 6.4610 3.0216 25.8281 0.0000 0.0000 0.0000
# 4 0.0000 0.0000 0.0000 29.7503 0.0000 0.0000
# 5 0.0000 0.0000 0.0000 0.0000 22.2640 0.0000
# 6 0.0000 0.0000 0.0000 0.0000 0.0000 26.5350
#
#
#
# Elastic Compliance Matrix: (Units=1/GPa)
#
#
# Indices 1 2 3 4 5 6 
#
# 1 0.013048 -0.002434 -0.002979 0.000000 0.000000 0.000000
# 2 -0.002434 0.006399 -0.000140 0.000000 0.000000 0.000000
# 3 -0.002979 -0.000140 0.039479 0.000000 0.000000 0.000000
# 4 0.000000 0.000000 0.000000 0.033613 0.000000 0.000000
# 5 0.000000 0.000000 0.000000 0.000000 0.044916 0.000000
# 6 0.000000 0.000000 0.000000 0.000000 0.000000 0.037686
#
#
# Mechanical properties :
#
#
# Convention : Reuss Voigt Hill
#
# Bulk Modulus (GPa) = 20.91158 40.19097 30.55127
# Shear Modulus (GPa) = 24.72953 31.50147 28.11550
#
# Velocity S-wave (km/s) = 3.11907 3.52032 3.32575
# Velocity P-wave (km/s) = 4.60413 5.68635 5.17362
#
# Compressibility (1/GPa) = 0.04782040
#
# Stress axis : x y z
#
# Youngs Moduli (GPa) = 76.64088 156.26330 25.32982
#
# Poissons Ratio (x) = 0.38035 0.07546
# Poissons Ratio (y) = 0.18654 0.00354
# Poissons Ratio (z) = 0.22833 0.02184
#
# Static dielectric constant tensor:
#      x y z
#    x 3.093820 0.000000 0.000000 
#    y 0.000000 1.917740 0.000000 
#    z 0.000000 0.000000 2.198840 
# 
# From -- ./inp_files/6609.got.cif
#   From: 2010.05.17/outbox.cif.g08.bks.cpg/sg33_4_cif.got.tgz:6609.got - 2010.06.03 17:15:25.
