data_PCOD9346992
_publ_section_title
;
Structure prediction by ZEFSAII (Michael W. Deem and Ramdas Pophale) SiO2 
 PCOD9346992
Probable space group: P N A 21
;
_chemical_formula_sum "Si O2"
_cell_formula_units_Z 28
_cell_length_a 14.238114
_cell_length_b 14.306451
_cell_length_c 6.094940
_cell_angle_alpha 90.000000
_cell_angle_beta 90.000000
_cell_angle_gamma 90.000000
_cell_volume 1241.520263
_symmetry_space_group_name_H-M "P N A 21"
_symmetry_group_IT_number 33
_symmetry_cell_setting 'orthorhombic'
loop_
_space_group_symop_operation_xyz
x,y,z
-x,-y,1/2+z
1/2-x,1/2+y,1/2+z
1/2+x,1/2-y,z
loop_
_atom_site_type_symbol
_atom_site_label
_atom_site_fract_x
_atom_site_fract_y
_atom_site_fract_z
Si Si1 0.437443 0.874627 0.285120
Si Si2 0.804804 0.351570 0.298452
Si Si3 0.596594 0.731954 0.169986
Si Si4 0.752417 0.687164 0.524374
Si Si5 0.513481 0.456490 0.682062
Si Si6 0.895561 0.484167 0.954045
Si Si7 0.281384 0.516053 0.137356
O O1 0.509669 0.790231 0.266768
O O2 0.352280 0.848727 0.440913
O O3 0.501865 0.961066 0.363099
O O4 0.394529 0.912785 0.057894
O O5 0.867764 0.291699 0.464751
O O6 0.745134 0.433437 0.411183
O O7 0.739507 0.274480 0.185122
O O8 0.871639 0.404893 0.130839
O O9 0.685619 0.722288 0.329117
O O10 0.555458 0.629456 0.132894
O O11 0.702761 0.595168 0.623667
O O12 0.514599 0.506336 0.432916
O O13 0.624004 0.435589 0.720199
O O14 0.812030 0.472747 0.781308
#
# Coordination Sequence:
#
# PCOD9346992 Si02
#       7
#     4   4   4   4   4   4   4
#     4  12  26  47  80 110 153 209 259 331 411 483
#     4  12  26  49  78 111 162 201 270 341 402 495
#     4  12  28  50  72 117 154 207 274 329 406 492
#     4  12  27  49  76 114 156 203 265 339 407 486
#     4  12  30  52  82 116 162 221 270 334 418 495
#     4  12  26  51  75 115 159 202 271 332 409 489
#     4  12  27  50  79 115 160 211 265 346 409 486
#
# _framework density 22.552996
#
# number of rings (size 3 to 8) (size 9 to 14) (size 15 to 20)
#    0.000    0.000    5.714    2.571   10.000    1.143 
#    0.000    0.000    0.000    0.000    0.000    0.000 
#    0.000    0.000    0.000    0.000    0.000    0.000 
#
# Total GULP energy -156454.228104 kJ/mol
# GULP energy per Si atom -5587.651004 kJ/mol
# Density = 2.250166 g / cm^3
# Si number density = 22.552996 Si / 1000 Ang^3
#
#
#
# Elastic Constant Matrix: (Units=GPa)
#
#
# Indices 1 2 3 4 5 6 
#
# 1 100.2528 -7.4450 17.8921 0.0000 0.0000 0.0000
# 2 -7.4450 74.2609 31.2686 0.0000 0.0000 0.0000
# 3 17.8921 31.2686 69.0545 0.0000 0.0000 0.0000
# 4 0.0000 0.0000 0.0000 47.3090 0.0000 0.0000
# 5 0.0000 0.0000 0.0000 0.0000 17.2863 0.0000
# 6 0.0000 0.0000 0.0000 0.0000 0.0000 22.0251
#
#
#
# Elastic Compliance Matrix: (Units=1/GPa)
#
#
# Indices 1 2 3 4 5 6 
#
# 1 0.010918 0.002824 -0.004108 0.000000 0.000000 0.000000
# 2 0.002824 0.017369 -0.008597 0.000000 0.000000 0.000000
# 3 -0.004108 -0.008597 0.019438 0.000000 0.000000 0.000000
# 4 0.000000 0.000000 0.000000 0.021138 0.000000 0.000000
# 5 0.000000 0.000000 0.000000 0.000000 0.057849 0.000000
# 6 0.000000 0.000000 0.000000 0.000000 0.000000 0.045403
#
#
# Mechanical properties :
#
#
# Convention : Reuss Voigt Hill
#
# Bulk Modulus (GPa) = 35.75940 36.33326 36.04633
# Shear Modulus (GPa) = 24.85142 30.78092 27.81617
#
# Velocity S-wave (km/s) = 3.32311 3.69836 3.51575
# Velocity P-wave (km/s) = 5.53301 5.86364 5.70073
#
# Compressibility (1/GPa) = 0.02796467
#
# Stress axis : x y z
#
# Youngs Moduli (GPa) = 91.59544 57.57432 51.44515
#
# Poissons Ratio (x) = -0.16259 0.21131
# Poissons Ratio (y) = -0.25867 0.44225
# Poissons Ratio (z) = 0.37623 0.49494
#
# Static dielectric constant tensor:
#      x y z
#    x 1.815130 0.000000 0.000000 
#    y 0.000000 1.841910 0.000000 
#    z 0.000000 0.000000 1.919390 
# 
# From -- ./inp_files/1415.got.cif
#   From: 2010.05.17/outbox.cif.g08.bks.cpg/sg33_1_cif.got.tgz:1415.got - 2010.06.03 17:15:25.
