data_PCOD9346985
_publ_section_title
;
Structure prediction by ZEFSAII (Michael W. Deem and Ramdas Pophale) SiO2 
 PCOD9346985
Probable space group: P N A 21
;
_chemical_formula_sum "Si O2"
_cell_formula_units_Z 28
_cell_length_a 11.840126
_cell_length_b 6.834855
_cell_length_c 15.599232
_cell_angle_alpha 90.000000
_cell_angle_beta 90.000000
_cell_angle_gamma 90.000000
_cell_volume 1262.376342
_symmetry_space_group_name_H-M "P N A 21"
_symmetry_group_IT_number 33
_symmetry_cell_setting 'orthorhombic'
loop_
_space_group_symop_operation_xyz
x,y,z
-x,-y,1/2+z
1/2-x,1/2+y,1/2+z
1/2+x,1/2-y,z
loop_
_atom_site_type_symbol
_atom_site_label
_atom_site_fract_x
_atom_site_fract_y
_atom_site_fract_z
Si Si1 0.363331 0.663294 0.560070
Si Si2 0.279799 0.913297 0.714075
Si Si3 0.541251 0.066178 0.923594
Si Si4 0.246827 0.137809 0.375738
Si Si5 0.948786 0.947117 0.145743
Si Si6 0.653936 0.125747 0.534943
Si Si7 0.389461 0.293978 0.788718
O O1 0.353939 0.806810 0.641801
O O2 0.374185 0.791937 0.475102
O O3 0.477929 0.539081 0.569418
O O4 0.255799 0.520391 0.557473
O O5 0.280238 0.796098 0.802800
O O6 0.154004 0.919339 0.675771
O O7 0.320126 0.131923 0.735657
O O8 0.475006 0.180699 0.850613
O O9 0.619397 0.896402 0.885078
O O10 0.448669 0.986654 0.989710
O O11 0.200210 0.216152 0.466065
O O12 0.189285 0.937895 0.343328
O O13 0.894979 0.742875 0.115477
O O14 0.036429 0.916297 0.222144
#
# Coordination Sequence:
#
# PCOD9346985 Si02
#       7
#     4   4   4   4   4   4   4
#     4  12  26  49  74 111 150 195 252 309 374 457
#     4  12  27  47  73 110 149 191 249 309 370 447
#     4  12  26  44  78 103 150 194 247 298 382 433
#     4  12  27  47  73 110 149 191 249 309 370 447
#     4  12  26  44  78 103 150 194 247 298 382 433
#     4  12  26  49  74 111 150 195 252 309 374 457
#     4  12  26  48  72 112 146 198 246 310 362 452
#
# _framework density 22.180392000000001
#
# number of rings (size 3 to 8) (size 9 to 14) (size 15 to 20)
#    0.000    0.000    2.857    6.857    8.000    0.000 
#    0.000    0.000    0.000    0.000    0.000    0.000 
#    0.000    0.000    0.000    0.000    0.000    0.000 
#
# Total GULP energy -156924.910480 kJ/mol
# GULP energy per Si atom -5604.461089 kJ/mol
# Density = 2.212991 g / cm^3
# Si number density = 22.180392 Si / 1000 Ang^3
#
#
#
# Elastic Constant Matrix: (Units=GPa)
#
#
# Indices 1 2 3 4 5 6 
#
# 1 60.1292 20.1536 -5.3431 0.0000 0.0000 0.0000
# 2 20.1536 66.9076 -0.7610 0.0000 0.0000 0.0000
# 3 -5.3431 -0.7610 49.0535 0.0000 0.0000 0.0000
# 4 0.0000 0.0000 0.0000 47.7901 0.0000 0.0000
# 5 0.0000 0.0000 0.0000 0.0000 9.4281 0.0000
# 6 0.0000 0.0000 0.0000 0.0000 0.0000 -299.1325
#
#
#
# Elastic Compliance Matrix: (Units=1/GPa)
#
#
# Indices 1 2 3 4 5 6 
#
# 1 0.018683 -0.005605 0.001948 0.000000 0.000000 0.000000
# 2 -0.005605 0.016630 -0.000353 0.000000 0.000000 0.000000
# 3 0.001948 -0.000353 0.020593 0.000000 0.000000 0.000000
# 4 0.000000 0.000000 0.000000 0.020925 0.000000 0.000000
# 5 0.000000 0.000000 0.000000 0.000000 0.106066 0.000000
# 6 0.000000 0.000000 0.000000 0.000000 0.000000 -0.003343
#
#
# Mechanical properties :
#
#
# Convention : Reuss Voigt Hill
#
# Bulk Modulus (GPa) = 20.88294 22.68770 21.78532
# Shear Modulus (GPa) = 24.56570 -37.58016 -6.50723
#
# Velocity S-wave (km/s) = 3.33158 -4.12065 -1.71468
# Velocity P-wave (km/s) = 4.92288 3.51976 2.43372
#
# Compressibility (1/GPa) = 0.04788597
#
# Stress axis : x y z
#
# Youngs Moduli (GPa) = 53.52541 60.13085 48.56105
#
# Poissons Ratio (x) = 0.33706 -0.09460
# Poissons Ratio (y) = 0.30003 0.01712
# Poissons Ratio (z) = -0.10427 0.02120
#
# Static dielectric constant tensor:
#      x y z
#    x 1.781370 0.000000 0.000000 
#    y 0.000000 1.811810 0.000000 
#    z 0.000000 0.000000 1.804790 
# 
# From -- ./inp_files/8628.got.cif
#   From: 2010.05.17/outbox.cif.g08.bks.cpg/sg33_5_cif.got.tgz:8628.got - 2010.06.03 17:15:25.
