data_PCOD9346784
_publ_section_title
;
Structure prediction by ZEFSAII (Michael W. Deem and Ramdas Pophale) SiO2 
 PCOD9346784
Probable space group: P N A 21
;
_chemical_formula_sum "Si O2"
_cell_formula_units_Z 20
_cell_length_a 17.347165
_cell_length_b 8.422167
_cell_length_c 5.303220
_cell_angle_alpha 90.000000
_cell_angle_beta 90.000000
_cell_angle_gamma 90.000000
_cell_volume 774.804264
_symmetry_space_group_name_H-M "P N A 21"
_symmetry_group_IT_number 33
_symmetry_cell_setting 'orthorhombic'
loop_
_space_group_symop_operation_xyz
x,y,z
-x,-y,1/2+z
1/2-x,1/2+y,1/2+z
1/2+x,1/2-y,z
loop_
_atom_site_type_symbol
_atom_site_label
_atom_site_fract_x
_atom_site_fract_y
_atom_site_fract_z
Si Si1 0.835592 0.710898 0.974410
Si Si2 0.579078 0.464606 0.207666
Si Si3 0.041247 0.743945 0.478902
Si Si4 0.344883 0.298727 0.370227
Si Si5 0.596512 0.043037 0.977916
O O1 0.866429 0.889422 0.921023
O O2 0.744012 0.713693 0.939907
O O3 0.867743 0.614281 0.732533
O O4 0.863109 0.629861 0.235926
O O5 0.513888 0.332790 0.179227
O O6 0.534395 0.626253 0.264080
O O7 0.629022 0.528089 0.972054
O O8 0.127746 0.760432 0.583275
O O9 0.994614 0.582913 0.442818
O O10 0.386524 0.143432 0.491187
#
# Coordination Sequence:
#
# PCOD9346784 Si02
#       5
#     4   4   4   4   4
#     4  11  28  50  74 108 152 201 249 315 381 462
#     4  11  24  47  74 104 146 197 251 296 381 455
#     4  11  25  44  75 104 146 197 244 307 367 461
#     4  12  28  44  77 111 151 197 255 317 383 450
#     4  11  29  49  74 109 153 194 257 313 386 446
#
# _framework density 25.812971999999998
#
# number of rings (size 3 to 8) (size 9 to 14) (size 15 to 20)
#    0.000    0.800    2.000    2.400   16.800    0.000 
#    0.000    0.000    0.000    0.000    0.000    0.000 
#    0.000    0.000    0.000    0.000    0.000    0.000 
#
# Total GULP energy -111671.997379 kJ/mol
# GULP energy per Si atom -5583.599869 kJ/mol
# Density = 2.575422 g / cm^3
# Si number density = 25.812972 Si / 1000 Ang^3
#
#
#
# Elastic Constant Matrix: (Units=GPa)
#
#
# Indices 1 2 3 4 5 6 
#
# 1 127.3978 28.6190 35.9072 0.0000 0.0000 0.0000
# 2 28.6190 127.1314 33.6146 0.0000 0.0000 0.0000
# 3 35.9072 33.6146 104.5842 0.0000 0.0000 0.0000
# 4 0.0000 0.0000 0.0000 54.6491 0.0000 0.0000
# 5 0.0000 0.0000 0.0000 0.0000 27.3862 0.0000
# 6 0.0000 0.0000 0.0000 0.0000 0.0000 30.2445
#
#
#
# Elastic Compliance Matrix: (Units=1/GPa)
#
#
# Indices 1 2 3 4 5 6 
#
# 1 0.008884 -0.001304 -0.002631 0.000000 0.000000 0.000000
# 2 -0.001304 0.008788 -0.002377 0.000000 0.000000 0.000000
# 3 -0.002631 -0.002377 0.011229 0.000000 0.000000 0.000000
# 4 0.000000 0.000000 0.000000 0.018299 0.000000 0.000000
# 5 0.000000 0.000000 0.000000 0.000000 0.036515 0.000000
# 6 0.000000 0.000000 0.000000 0.000000 0.000000 0.033064
#
#
# Mechanical properties :
#
#
# Convention : Reuss Voigt Hill
#
# Bulk Modulus (GPa) = 61.43695 61.71055 61.57375
# Shear Modulus (GPa) = 37.08444 39.85414 38.46929
#
# Velocity S-wave (km/s) = 3.79444 3.93359 3.86464
# Velocity P-wave (km/s) = 6.56121 6.67754 6.61963
#
# Compressibility (1/GPa) = 0.01627685
#
# Stress axis : x y z
#
# Youngs Moduli (GPa) = 112.56248 113.79268 89.05612
#
# Poissons Ratio (x) = 0.14841 0.23430
# Poissons Ratio (y) = 0.14681 0.21166
# Poissons Ratio (z) = 0.29615 0.27046
#
# Static dielectric constant tensor:
#      x y z
#    x 2.042970 0.000000 0.000000 
#    y 0.000000 2.135340 0.000000 
#    z 0.000000 0.000000 2.366160 
# 
# From -- ./inp_files/1596.got.cif
#   From: 2010.05.17/outbox.cif.g08.bks.cpg/sg33_1_cif.got.tgz:1596.got - 2010.06.03 17:15:25.
