data_PCOD9346135
_publ_section_title
;
Structure prediction by ZEFSAII (Michael W. Deem and Ramdas Pophale) SiO2 
 PCOD9346135
Probable space group: P N A 21
;
_chemical_formula_sum "Si O2"
_cell_formula_units_Z 32
_cell_length_a 14.571373
_cell_length_b 11.359785
_cell_length_c 8.165975
_cell_angle_alpha 90.000000
_cell_angle_beta 90.000000
_cell_angle_gamma 90.000000
_cell_volume 1351.694770
_symmetry_space_group_name_H-M "P N A 21"
_symmetry_group_IT_number 33
_symmetry_cell_setting 'orthorhombic'
loop_
_space_group_symop_operation_xyz
x,y,z
-x,-y,1/2+z
1/2-x,1/2+y,1/2+z
1/2+x,1/2-y,z
loop_
_atom_site_type_symbol
_atom_site_label
_atom_site_fract_x
_atom_site_fract_y
_atom_site_fract_z
Si Si1 0.574740 0.322804 0.548450
Si Si2 0.383014 0.070931 0.525224
Si Si3 0.369272 0.322537 0.410283
Si Si4 0.599638 0.582936 0.548625
Si Si5 0.434119 0.701185 0.438620
Si Si6 0.188511 0.406465 0.556987
Si Si7 0.452077 0.069543 0.894201
Si Si8 0.776293 0.645773 0.431917
O O1 0.472507 0.322744 0.478173
O O2 0.619776 0.447606 0.508802
O O3 0.567706 0.322860 0.745647
O O4 0.632419 0.208967 0.494061
O O5 0.340383 0.187070 0.445003
O O6 0.467991 0.028469 0.412445
O O7 0.423858 0.092463 0.706666
O O8 0.311823 0.963011 0.541198
O O9 0.292945 0.401266 0.498606
O O10 0.373917 0.369769 0.226391
O O11 0.490986 0.600097 0.525666
O O12 0.667317 0.656666 0.431227
O O13 0.331901 0.738783 0.487255
O O14 0.498361 0.815764 0.466822
O O15 0.133877 0.519875 0.494702
O O16 0.189531 0.389693 0.751775
#
# Coordination Sequence:
#
# PCOD9346135 Si02
#       8
#     4   4   4   4   4   4   4   4
#     4  11  23  49  66  99 137 190 224 292 349 424
#     4  11  22  40  69  98 130 172 225 295 337 419
#     4  12  25  41  68 101 138 182 230 279 359 415
#     4  12  26  43  67 101 143 183 235 284 349 428
#     4  10  23  44  70  96 138 182 230 288 351 413
#     4  11  24  43  71  99 139 182 228 289 359 416
#     4  11  21  41  70  98 133 172 233 292 352 403
#     4  10  24  43  67 102 136 177 237 287 350 418
#
# _framework density 23.673983
#
# number of rings (size 3 to 8) (size 9 to 14) (size 15 to 20)
#    0.000    1.000    2.500    4.500    5.250    1.000 
#    4.500    1.250    0.000    0.000    0.000    0.000 
#    0.000    0.000    0.000    0.000    0.000    0.000 
#
# Total GULP energy -178992.529220 kJ/mol
# GULP energy per Si atom -5593.516538 kJ/mol
# Density = 2.362010 g / cm^3
# Si number density = 23.673983 Si / 1000 Ang^3
#
#
#
# Elastic Constant Matrix: (Units=GPa)
#
#
# Indices 1 2 3 4 5 6 
#
# 1 111.2784 3.0805 0.9538 0.0000 0.0000 0.0000
# 2 3.0805 48.8347 -9.2069 0.0000 0.0000 0.0000
# 3 0.9538 -9.2069 32.6131 0.0000 0.0000 0.0000
# 4 0.0000 0.0000 0.0000 25.0915 0.0000 0.0000
# 5 0.0000 0.0000 0.0000 0.0000 -9.9109 0.0000
# 6 0.0000 0.0000 0.0000 0.0000 0.0000 32.8313
#
#
#
# Elastic Compliance Matrix: (Units=1/GPa)
#
#
# Indices 1 2 3 4 5 6 
#
# 1 0.009008 -0.000653 -0.000448 0.000000 0.000000 0.000000
# 2 -0.000653 0.021676 0.006138 0.000000 0.000000 0.000000
# 3 -0.000448 0.006138 0.032409 0.000000 0.000000 0.000000
# 4 0.000000 0.000000 0.000000 0.039854 0.000000 0.000000
# 5 0.000000 0.000000 0.000000 0.000000 -0.100899 0.000000
# 6 0.000000 0.000000 0.000000 0.000000 0.000000 0.030459
#
#
# Mechanical properties :
#
#
# Convention : Reuss Voigt Hill
#
# Bulk Modulus (GPa) = 13.66711 20.26455 16.96583
# Shear Modulus (GPa) = 106.79158 22.79563 64.79360
#
# Velocity S-wave (km/s) = 6.72363 3.10643 5.23723
# Velocity P-wave (km/s) = 8.12784 4.63087 6.61463
#
# Compressibility (1/GPa) = 0.07316836
#
# Stress axis : x y z
#
# Youngs Moduli (GPa) = 111.00784 46.13467 30.85610
#
# Poissons Ratio (x) = 0.03011 0.01381
# Poissons Ratio (y) = 0.07245 -0.18940
# Poissons Ratio (z) = 0.04970 -0.28319
#
# Static dielectric constant tensor:
#      x y z
#    x 1.897840 0.000000 0.000000 
#    y 0.000000 1.965800 0.000000 
#    z 0.000000 0.000000 1.857360 
# 
# From -- ./inp_files/4454.got.cif
#   From: 2010.05.17/outbox.cif.g08.bks.cpg/sg33_3_cif.got.tgz:4454.got - 2010.06.03 17:15:25.
