data_PCOD9346608
_publ_section_title
;
Structure prediction by ZEFSAII (Michael W. Deem and Ramdas Pophale) SiO2 
 PCOD9346608
Probable space group: P N A 21
;
_chemical_formula_sum "Si O2"
_cell_formula_units_Z 32
_cell_length_a 8.960292
_cell_length_b 5.059438
_cell_length_c 29.319653
_cell_angle_alpha 90.000000
_cell_angle_beta 90.000000
_cell_angle_gamma 90.000000
_cell_volume 1329.178376
_symmetry_space_group_name_H-M "P N A 21"
_symmetry_group_IT_number 33
_symmetry_cell_setting 'orthorhombic'
loop_
_space_group_symop_operation_xyz
x,y,z
-x,-y,1/2+z
1/2-x,1/2+y,1/2+z
1/2+x,1/2-y,z
loop_
_atom_site_type_symbol
_atom_site_label
_atom_site_fract_x
_atom_site_fract_y
_atom_site_fract_z
Si Si1 0.154579 0.932824 0.416030
Si Si2 0.569836 0.890981 0.677075
Si Si3 0.105213 0.712360 0.505438
Si Si4 0.653176 0.567758 0.044303
Si Si5 0.891728 0.110628 0.645114
Si Si6 0.570932 0.890721 0.783297
Si Si7 0.396484 0.210729 0.454996
Si Si8 0.392797 0.389596 0.815270
O O1 0.206151 0.778294 0.461198
O O2 0.124435 0.802467 0.368135
O O3 0.291984 0.132192 0.412910
O O4 0.005385 0.071464 0.433801
O O5 0.731574 0.000396 0.661607
O O6 0.454387 0.134909 0.671316
O O7 0.507218 0.634616 0.650333
O O8 0.578858 0.814572 0.730172
O O9 0.210115 0.633182 0.547374
O O10 0.000514 0.500938 0.480313
O O11 0.996691 0.930560 0.526710
O O12 0.624258 0.698441 0.092247
O O13 0.704795 0.721842 0.999090
O O14 0.508602 0.634368 0.810104
O O15 0.455687 0.134760 0.789247
O O16 0.732979 0.999709 0.798547
#
# Coordination Sequence:
#
# PCOD9346608 Si02
#       8
#     4   4   4   4   4   4   4   4
#     4  11  25  40  68  97 134 181 233 275 343 399
#     4  12  26  50  74 106 142 187 233 302 374 426
#     4  11  23  42  63  92 137 181 218 279 330 403
#     4  11  25  40  68  97 134 181 233 275 343 399
#     4  12  28  45  78 107 144 185 244 298 347 444
#     4  12  26  50  74 106 142 187 233 302 374 426
#     4  11  23  42  63  92 137 181 218 279 330 403
#     4  12  28  45  78 107 144 185 244 298 347 444
#
# _framework density 24.075022000000001
#
# number of rings (size 3 to 8) (size 9 to 14) (size 15 to 20)
#    0.000    0.500    2.500    5.250    7.000    0.000 
#    0.000    0.000    0.000    0.000    0.000    0.000 
#    0.000    0.000    0.000    0.000    0.000    0.000 
#
# Total GULP energy -178825.908765 kJ/mol
# GULP energy per Si atom -5588.309649 kJ/mol
# Density = 2.402023 g / cm^3
# Si number density = 24.075022 Si / 1000 Ang^3
#
#
#
# Elastic Constant Matrix: (Units=GPa)
#
#
# Indices 1 2 3 4 5 6 
#
# 1 86.0146 -6.0080 0.4670 0.0000 0.0000 0.0000
# 2 -6.0080 55.4577 -12.9163 0.0000 0.0000 0.0000
# 3 0.4670 -12.9163 89.4669 0.0000 0.0000 0.0000
# 4 0.0000 0.0000 0.0000 27.0709 0.0000 0.0000
# 5 0.0000 0.0000 0.0000 0.0000 30.3574 0.0000
# 6 0.0000 0.0000 0.0000 0.0000 0.0000 40.5589
#
#
#
# Elastic Compliance Matrix: (Units=1/GPa)
#
#
# Indices 1 2 3 4 5 6 
#
# 1 0.011716 0.001299 0.000126 0.000000 0.000000 0.000000
# 2 0.001299 0.018803 0.002708 0.000000 0.000000 0.000000
# 3 0.000126 0.002708 0.011568 0.000000 0.000000 0.000000
# 4 0.000000 0.000000 0.000000 0.036940 0.000000 0.000000
# 5 0.000000 0.000000 0.000000 0.000000 0.032941 0.000000
# 6 0.000000 0.000000 0.000000 0.000000 0.000000 0.024655
#
#
# Mechanical properties :
#
#
# Convention : Reuss Voigt Hill
#
# Bulk Modulus (GPa) = 19.86008 21.55830 20.70919
# Shear Modulus (GPa) = 34.44914 36.22388 35.33651
#
# Velocity S-wave (km/s) = 3.78684 3.88316 3.83530
# Velocity P-wave (km/s) = 5.23329 5.39252 5.31350
#
# Compressibility (1/GPa) = 0.05035226
#
# Stress axis : x y z
#
# Youngs Moduli (GPa) = 85.35371 53.18273 86.44844
#
# Poissons Ratio (x) = -0.06907 -0.01092
# Poissons Ratio (y) = -0.11085 -0.23409
# Poissons Ratio (z) = -0.01078 -0.14401
#
# Static dielectric constant tensor:
#      x y z
#    x 2.039070 0.000000 0.000000 
#    y 0.000000 2.424720 0.000000 
#    z 0.000000 0.000000 2.118760 
# 
# From -- ./inp_files/9380.got.cif
#   From: 2010.05.17/outbox.cif.g08.bks.cpg/sg33_5_cif.got.tgz:9380.got - 2010.06.03 17:15:25.
