data_PCOD9346770
_publ_section_title
;
Structure prediction by ZEFSAII (Michael W. Deem and Ramdas Pophale) SiO2 
 PCOD9346770
Probable space group: P N A 21
;
_chemical_formula_sum "Si O2"
_cell_formula_units_Z 20
_cell_length_a 12.249141
_cell_length_b 5.569597
_cell_length_c 10.044875
_cell_angle_alpha 90.000000
_cell_angle_beta 90.000000
_cell_angle_gamma 90.000000
_cell_volume 685.289287
_symmetry_space_group_name_H-M "P N A 21"
_symmetry_group_IT_number 33
_symmetry_cell_setting 'orthorhombic'
loop_
_space_group_symop_operation_xyz
x,y,z
-x,-y,1/2+z
1/2-x,1/2+y,1/2+z
1/2+x,1/2-y,z
loop_
_atom_site_type_symbol
_atom_site_label
_atom_site_fract_x
_atom_site_fract_y
_atom_site_fract_z
Si Si1 0.562409 0.444206 0.740160
Si Si2 0.246429 0.437977 0.561568
Si Si3 0.281194 0.781492 0.796856
Si Si4 0.940207 0.419732 0.603993
Si Si5 0.430169 0.279088 0.972011
O O1 0.676520 0.536350 0.795670
O O2 0.550449 0.181405 0.673095
O O3 0.545021 0.613123 0.615192
O O4 0.467687 0.439368 0.849482
O O5 0.249203 0.547668 0.711976
O O6 0.194968 0.244258 0.453910
O O7 0.364460 0.305306 0.567456
O O8 0.190761 0.670241 0.486526
O O9 0.371646 0.923485 0.709862
O O10 0.979855 0.562560 0.474975
#
# Coordination Sequence:
#
# PCOD9346770 Si02
#       5
#     4   4   4   4   4
#     4  11  24  46  77 113 156 205 263 326 391 480
#     4  11  26  49  75 111 157 201 264 327 402 479
#     4  11  24  46  72 112 151 203 257 322 402 472
#     4  12  24  45  75 112 154 200 258 325 389 481
#     4  11  26  50  79 118 154 211 264 328 404 478
#
# _framework density 29.184750999999999
#
# number of rings (size 3 to 8) (size 9 to 14) (size 15 to 20)
#    0.000    0.800    2.000    4.800    0.000    8.000 
#   14.400    0.000    0.000    0.000    0.000    0.000 
#    0.000    0.000    0.000    0.000    0.000    0.000 
#
# Total GULP energy -111635.749686 kJ/mol
# GULP energy per Si atom -5581.787484 kJ/mol
# Density = 2.911833 g / cm^3
# Si number density = 29.184751 Si / 1000 Ang^3
#
#
#
# Elastic Constant Matrix: (Units=GPa)
#
#
# Indices 1 2 3 4 5 6 
#
# 1 121.8366 73.6345 78.9956 0.0000 0.0000 0.0000
# 2 73.6345 93.5537 50.9786 0.0000 0.0000 0.0000
# 3 78.9956 50.9786 221.8852 0.0000 0.0000 0.0000
# 4 0.0000 0.0000 0.0000 52.8958 0.0000 0.0000
# 5 0.0000 0.0000 0.0000 0.0000 70.1519 0.0000
# 6 0.0000 0.0000 0.0000 0.0000 0.0000 63.9485
#
#
#
# Elastic Compliance Matrix: (Units=1/GPa)
#
#
# Indices 1 2 3 4 5 6 
#
# 1 0.017827 -0.012086 -0.003570 0.000000 0.000000 0.000000
# 2 -0.012086 0.020412 -0.000387 0.000000 0.000000 0.000000
# 3 -0.003570 -0.000387 0.005867 0.000000 0.000000 0.000000
# 4 0.000000 0.000000 0.000000 0.018905 0.000000 0.000000
# 5 0.000000 0.000000 0.000000 0.000000 0.014255 0.000000
# 6 0.000000 0.000000 0.000000 0.000000 0.000000 0.015638
#
#
# Mechanical properties :
#
#
# Convention : Reuss Voigt Hill
#
# Bulk Modulus (GPa) = 83.19191 93.83254 88.51223
# Shear Modulus (GPa) = 38.76110 52.97703 45.86907
#
# Velocity S-wave (km/s) = 3.64830 4.26517 3.96874
# Velocity P-wave (km/s) = 6.80544 7.51509 7.16905
#
# Compressibility (1/GPa) = 0.01202040
#
# Stress axis : x y z
#
# Youngs Moduli (GPa) = 56.09592 48.98983 170.45305
#
# Poissons Ratio (x) = 0.59208 0.60850
# Poissons Ratio (y) = 0.67796 0.06597
# Poissons Ratio (z) = 0.20026 0.01896
#
# Static dielectric constant tensor:
#      x y z
#    x 2.448030 0.000000 0.000000 
#    y 0.000000 2.326010 0.000000 
#    z 0.000000 0.000000 2.434280 
# 
# From -- ./inp_files/6625.got.cif
#   From: 2010.05.17/outbox.cif.g08.bks.cpg/sg33_4_cif.got.tgz:6625.got - 2010.06.03 17:15:25.
