data_PCOD9346216
_publ_section_title
;
Structure prediction by ZEFSAII (Michael W. Deem and Ramdas Pophale) SiO2 
 PCOD9346216
Probable space group: P N A 21
;
_chemical_formula_sum "Si O2"
_cell_formula_units_Z 20
_cell_length_a 19.106887
_cell_length_b 4.989044
_cell_length_c 8.733271
_cell_angle_alpha 90.000000
_cell_angle_beta 90.000000
_cell_angle_gamma 90.000000
_cell_volume 832.499931
_symmetry_space_group_name_H-M "P N A 21"
_symmetry_group_IT_number 33
_symmetry_cell_setting 'orthorhombic'
loop_
_space_group_symop_operation_xyz
x,y,z
-x,-y,1/2+z
1/2-x,1/2+y,1/2+z
1/2+x,1/2-y,z
loop_
_atom_site_type_symbol
_atom_site_label
_atom_site_fract_x
_atom_site_fract_y
_atom_site_fract_z
Si Si1 0.697856 0.293364 0.096670
Si Si2 0.785999 0.255805 0.398913
Si Si3 0.927674 0.483490 0.021303
Si Si4 0.595112 0.496781 0.696825
Si Si5 0.047973 0.251328 0.200281
O O1 0.731378 0.249567 0.261592
O O2 0.616729 0.364659 0.123971
O O3 0.703065 0.038866 0.983003
O O4 0.737592 0.544212 0.025435
O O5 0.855401 0.121617 0.324505
O O6 0.894663 0.192080 0.049232
O O7 0.007675 0.442082 0.079795
O O8 0.894714 0.696352 0.140318
O O9 0.929022 0.590450 0.851157
O O10 0.513745 0.542312 0.742380
#
# Coordination Sequence:
#
# PCOD9346216 Si02
#       5
#     4   4   4   4   4
#     4  12  29  47  78  99 151 188 247 290 363 427
#     4  12  28  51  72 108 142 194 241 298 356 429
#     4  10  24  39  70 100 138 179 226 293 347 424
#     4  10  25  40  73  96 145 168 240 290 354 407
#     4  10  26  41  73 101 142 179 242 281 372 403
#
# _framework density 24.024025999999999
#
# number of rings (size 3 to 8) (size 9 to 14) (size 15 to 20)
#    1.200    0.000    0.000    3.600   16.800    0.000 
#    0.000    0.000    0.000    0.000    0.000    0.000 
#    0.000    0.000    0.000    0.000    0.000    0.000 
#
# Total GULP energy -111877.760544 kJ/mol
# GULP energy per Si atom -5593.888027 kJ/mol
# Density = 2.396935 g / cm^3
# Si number density = 24.024026 Si / 1000 Ang^3
#
#
#
# Elastic Constant Matrix: (Units=GPa)
#
#
# Indices 1 2 3 4 5 6 
#
# 1 117.9731 15.5173 19.1332 0.0000 0.0000 0.0000
# 2 15.5173 49.6935 -8.9428 0.0000 0.0000 0.0000
# 3 19.1332 -8.9428 57.8039 0.0000 0.0000 0.0000
# 4 0.0000 0.0000 0.0000 32.7744 0.0000 0.0000
# 5 0.0000 0.0000 0.0000 0.0000 2.6791 0.0000
# 6 0.0000 0.0000 0.0000 0.0000 0.0000 -46.4683
#
#
#
# Elastic Compliance Matrix: (Units=1/GPa)
#
#
# Indices 1 2 3 4 5 6 
#
# 1 0.009563 -0.003658 -0.003731 0.000000 0.000000 0.000000
# 2 -0.003658 0.022099 0.004629 0.000000 0.000000 0.000000
# 3 -0.003731 0.004629 0.019251 0.000000 0.000000 0.000000
# 4 0.000000 0.000000 0.000000 0.030512 0.000000 0.000000
# 5 0.000000 0.000000 0.000000 0.000000 0.373256 0.000000
# 6 0.000000 0.000000 0.000000 0.000000 0.000000 -0.021520
#
#
# Mechanical properties :
#
#
# Convention : Reuss Voigt Hill
#
# Bulk Modulus (GPa) = 22.02928 30.76509 26.39719
# Shear Modulus (GPa) = 11.01784 11.11456 11.06620
#
# Velocity S-wave (km/s) = 2.14386 2.15325 2.14856
# Velocity P-wave (km/s) = 3.91379 4.36070 4.14328
#
# Compressibility (1/GPa) = 0.04539412
#
# Stress axis : x y z
#
# Youngs Moduli (GPa) = 104.57279 45.25177 51.94511
#
# Poissons Ratio (x) = 0.16551 0.19381
# Poissons Ratio (y) = 0.38248 -0.24048
# Poissons Ratio (z) = 0.39017 -0.20949
#
# Static dielectric constant tensor:
#      x y z
#    x 1.964150 0.000000 0.000000 
#    y 0.000000 1.907830 0.000000 
#    z 0.000000 0.000000 1.939340 
# 
# From -- ./inp_files/5083.got.cif
#   From: 2010.05.17/outbox.cif.g08.bks.cpg/sg33_3_cif.got.tgz:5083.got - 2010.06.03 17:15:25.
