data_PCOD9346404
_publ_section_title
;
Structure prediction by ZEFSAII (Michael W. Deem and Ramdas Pophale) SiO2 
 PCOD9346404
Probable space group: P N A 21
;
_chemical_formula_sum "Si O2"
_cell_formula_units_Z 24
_cell_length_a 18.162031
_cell_length_b 9.169881
_cell_length_c 5.780012
_cell_angle_alpha 90.000000
_cell_angle_beta 90.000000
_cell_angle_gamma 90.000000
_cell_volume 962.624371
_symmetry_space_group_name_H-M "P N A 21"
_symmetry_group_IT_number 33
_symmetry_cell_setting 'orthorhombic'
loop_
_space_group_symop_operation_xyz
x,y,z
-x,-y,1/2+z
1/2-x,1/2+y,1/2+z
1/2+x,1/2-y,z
loop_
_atom_site_type_symbol
_atom_site_label
_atom_site_fract_x
_atom_site_fract_y
_atom_site_fract_z
Si Si1 0.396762 0.571932 0.265650
Si Si2 0.767587 0.934824 0.634302
Si Si3 0.522309 0.069961 0.193711
Si Si4 0.652370 0.895721 0.269559
Si Si5 0.549701 0.666816 0.455275
Si Si6 0.715388 0.248629 0.553345
O O1 0.338882 0.544991 0.468970
O O2 0.480487 0.586453 0.342399
O O3 0.395051 0.446221 0.073165
O O4 0.365033 0.719410 0.153750
O O5 0.688844 0.893343 0.521037
O O6 0.787471 0.793764 0.786544
O O7 0.748172 0.105816 0.675110
O O8 0.486761 0.226921 0.147702
O O9 0.495384 0.009866 0.444949
O O10 0.609457 0.043327 0.216418
O O11 0.592515 0.766995 0.270395
O O12 0.723921 0.872840 0.117087
#
# Coordination Sequence:
#
# PCOD9346404 Si02
#       6
#     4   4   4   4   4   4
#     4  11  28  44  68 110 145 196 255 322 397 483
#     4  11  26  46  74 105 148 206 250 334 391 493
#     4  10  25  44  74 110 147 195 252 320 390 470
#     4  10  25  45  72 107 142 195 256 315 390 478
#     4  11  26  47  73 106 153 194 263 319 413 468
#     4  11  26  46  77 102 153 194 268 316 411 468
#
# _framework density 24.931843000000001
#
# number of rings (size 3 to 8) (size 9 to 14) (size 15 to 20)
#    0.000    1.333    0.000    2.000   16.333    6.667 
#    0.000    0.000    0.000    0.000    0.000    0.000 
#    0.000    0.000    0.000    0.000    0.000    0.000 
#
# Total GULP energy -133790.154229 kJ/mol
# GULP energy per Si atom -5574.589760 kJ/mol
# Density = 2.487510 g / cm^3
# Si number density = 24.931843 Si / 1000 Ang^3
#
#
#
# Elastic Constant Matrix: (Units=GPa)
#
#
# Indices 1 2 3 4 5 6 
#
# 1 74.4809 17.6494 2.6382 0.0000 0.0000 0.0000
# 2 17.6494 66.1453 14.9977 0.0000 0.0000 0.0000
# 3 2.6382 14.9977 58.6854 0.0000 0.0000 0.0000
# 4 0.0000 0.0000 0.0000 -14.7110 0.0000 0.0000
# 5 0.0000 0.0000 0.0000 0.0000 8.1707 0.0000
# 6 0.0000 0.0000 0.0000 0.0000 0.0000 58.3431
#
#
#
# Elastic Compliance Matrix: (Units=1/GPa)
#
#
# Indices 1 2 3 4 5 6 
#
# 1 0.014339 -0.003906 0.000354 0.000000 0.000000 0.000000
# 2 -0.003906 0.017112 -0.004198 0.000000 0.000000 0.000000
# 3 0.000354 -0.004198 0.018097 0.000000 0.000000 0.000000
# 4 0.000000 0.000000 0.000000 -0.067976 0.000000 0.000000
# 5 0.000000 0.000000 0.000000 0.000000 0.122388 0.000000
# 6 0.000000 0.000000 0.000000 0.000000 0.000000 0.017140
#
#
# Mechanical properties :
#
#
# Convention : Reuss Voigt Hill
#
# Bulk Modulus (GPa) = 29.37030 29.98691 29.67861
# Shear Modulus (GPa) = 33.79507 21.29564 27.54535
#
# Velocity S-wave (km/s) = 3.68570 2.92576 3.32750
# Velocity P-wave (km/s) = 5.46977 4.84429 5.16650
#
# Compressibility (1/GPa) = 0.03404800
#
# Stress axis : x y z
#
# Youngs Moduli (GPa) = 69.73791 58.43739 55.25821
#
# Poissons Ratio (x) = 0.22828 -0.01954
# Poissons Ratio (y) = 0.27242 0.23195
# Poissons Ratio (z) = -0.02467 0.24530
#
# Static dielectric constant tensor:
#      x y z
#    x 1.908050 0.000000 0.000000 
#    y 0.000000 2.180530 0.000000 
#    z 0.000000 0.000000 2.173320 
# 
# From -- ./inp_files/1666.got.cif
#   From: 2010.05.17/outbox.cif.g08.bks.cpg/sg33_1_cif.got.tgz:1666.got - 2010.06.03 17:15:25.
