data_PCOD9346641
_publ_section_title
;
Structure prediction by ZEFSAII (Michael W. Deem and Ramdas Pophale) SiO2 
 PCOD9346641
Probable space group: P N A 21
;
_chemical_formula_sum "Si O2"
_cell_formula_units_Z 16
_cell_length_a 8.548765
_cell_length_b 11.917792
_cell_length_c 5.637615
_cell_angle_alpha 90.000000
_cell_angle_beta 90.000000
_cell_angle_gamma 90.000000
_cell_volume 574.373764
_symmetry_space_group_name_H-M "P N A 21"
_symmetry_group_IT_number 33
_symmetry_cell_setting 'orthorhombic'
loop_
_space_group_symop_operation_xyz
x,y,z
-x,-y,1/2+z
1/2-x,1/2+y,1/2+z
1/2+x,1/2-y,z
loop_
_atom_site_type_symbol
_atom_site_label
_atom_site_fract_x
_atom_site_fract_y
_atom_site_fract_z
Si Si1 0.192900 0.558704 0.405240
Si Si2 0.651856 0.710216 0.129443
Si Si3 0.382834 0.680469 0.785106
Si Si4 0.366075 0.901788 0.515627
O O1 0.147206 0.677384 0.286414
O O2 0.322233 0.585264 0.605183
O O3 0.240736 0.469134 0.205173
O O4 0.019888 0.520438 0.489570
O O5 0.763311 0.629363 0.284967
O O6 0.494662 0.659689 0.012864
O O7 0.732640 0.762496 0.900643
O O8 0.432282 0.785479 0.622657
#
# Coordination Sequence:
#
# PCOD9346641 Si02
#       4
#     4   4   4   4
#     4  11  24  41  75 115 152 211 272 321 391 488
#     4  11  23  44  75 110 155 208 259 328 402 468
#     4  11  23  44  75 110 155 208 259 328 402 468
#     4  11  24  41  75 115 152 211 272 321 391 488
#
# _framework density 27.856424000000001
#
# number of rings (size 3 to 8) (size 9 to 14) (size 15 to 20)
#    0.000    1.000    5.000    1.500    0.000    0.000 
#    0.000    0.000   11.000    6.000    0.000    0.000 
#    0.000    0.000    0.000    0.000    0.000    0.000 
#
# Total GULP energy -89433.775123 kJ/mol
# GULP energy per Si atom -5589.610945 kJ/mol
# Density = 2.779302 g / cm^3
# Si number density = 27.856424 Si / 1000 Ang^3
#
#
#
# Elastic Constant Matrix: (Units=GPa)
#
#
# Indices 1 2 3 4 5 6 
#
# 1 106.2444 34.0913 44.0851 0.0000 0.0000 0.0000
# 2 34.0913 111.1262 50.8827 0.0000 0.0000 0.0000
# 3 44.0851 50.8827 122.0801 0.0000 0.0000 0.0000
# 4 0.0000 0.0000 0.0000 79.6367 0.0000 0.0000
# 5 0.0000 0.0000 0.0000 0.0000 90.5613 0.0000
# 6 0.0000 0.0000 0.0000 0.0000 0.0000 33.2408
#
#
#
# Elastic Compliance Matrix: (Units=1/GPa)
#
#
# Indices 1 2 3 4 5 6 
#
# 1 0.011418 -0.001996 -0.003292 0.000000 0.000000 0.000000
# 2 -0.001996 0.011470 -0.004060 0.000000 0.000000 0.000000
# 3 -0.003292 -0.004060 0.011072 0.000000 0.000000 0.000000
# 4 0.000000 0.000000 0.000000 0.012557 0.000000 0.000000
# 5 0.000000 0.000000 0.000000 0.000000 0.011042 0.000000
# 6 0.000000 0.000000 0.000000 0.000000 0.000000 0.030083
#
#
# Mechanical properties :
#
#
# Convention : Reuss Voigt Hill
#
# Bulk Modulus (GPa) = 65.50498 66.39655 65.95077
# Shear Modulus (GPa) = 44.87254 54.71387 49.79321
#
# Velocity S-wave (km/s) = 4.01789 4.43667 4.23246
# Velocity P-wave (km/s) = 6.71498 7.08042 6.90012
#
# Compressibility (1/GPa) = 0.01526601
#
# Stress axis : x y z
#
# Youngs Moduli (GPa) = 87.57741 87.18369 90.31669
#
# Poissons Ratio (x) = 0.17400 0.29728
# Poissons Ratio (y) = 0.17479 0.36668
# Poissons Ratio (z) = 0.28826 0.35396
#
# Static dielectric constant tensor:
#      x y z
#    x 2.294150 0.000000 0.000000 
#    y 0.000000 2.162610 0.000000 
#    z 0.000000 0.000000 2.396020 
# 
# From -- ./inp_files/259.got.cif
#   From: 2010.05.17/outbox.cif.g08.bks.cpg/sg33_1_cif.got.tgz:259.got - 2010.06.03 17:15:25.
