data_PCOD9346118
_publ_section_title
;
Structure prediction by ZEFSAII (Michael W. Deem and Ramdas Pophale) SiO2 
 PCOD9346118
Probable space group: P N A 21
;
_chemical_formula_sum "Si O2"
_cell_formula_units_Z 20
_cell_length_a 13.850310
_cell_length_b 7.665692
_cell_length_c 8.104167
_cell_angle_alpha 90.000000
_cell_angle_beta 90.000000
_cell_angle_gamma 90.000000
_cell_volume 860.437325
_symmetry_space_group_name_H-M "P N A 21"
_symmetry_group_IT_number 33
_symmetry_cell_setting 'orthorhombic'
loop_
_space_group_symop_operation_xyz
x,y,z
-x,-y,1/2+z
1/2-x,1/2+y,1/2+z
1/2+x,1/2-y,z
loop_
_atom_site_type_symbol
_atom_site_label
_atom_site_fract_x
_atom_site_fract_y
_atom_site_fract_z
Si Si1 0.872748 0.502864 0.019550
Si Si2 0.104683 0.148056 0.663645
Si Si3 0.057695 0.013501 0.328784
Si Si4 0.775783 0.138441 0.016774
Si Si5 0.924050 0.633501 0.652934
O O1 0.842216 0.673116 0.124085
O O2 0.801882 0.339838 0.040398
O O3 0.976779 0.448837 0.092684
O O4 0.887887 0.551387 0.827162
O O5 0.040690 0.118849 0.497895
O O6 0.176850 0.983464 0.660717
O O7 0.025736 0.127961 0.804186
O O8 0.059618 0.161867 0.191099
O O9 0.161680 0.926798 0.360650
O O10 0.662419 0.109932 0.022908
#
# Coordination Sequence:
#
# PCOD9346118 Si02
#       5
#     4   4   4   4   4
#     4  11  23  45  72  95 135 182 223 279 343 396
#     4   9  20  42  68  97 131 178 222 275 340 389
#     4   9  19  42  65  94 136 174 217 288 325 387
#     4  10  23  44  64 102 137 173 229 278 334 408
#     4  11  23  45  69 102 135 181 231 272 346 406
#
# _framework density 23.243993
#
# number of rings (size 3 to 8) (size 9 to 14) (size 15 to 20)
#    1.200    0.800    2.000    1.200    0.000    1.600 
#   18.000    0.000    0.000    0.000    0.000    0.000 
#    0.000    0.000    0.000    0.000    0.000    0.000 
#
# Total GULP energy -111645.672858 kJ/mol
# GULP energy per Si atom -5582.283643 kJ/mol
# Density = 2.319109 g / cm^3
# Si number density = 23.243993 Si / 1000 Ang^3
#
#
#
# Elastic Constant Matrix: (Units=GPa)
#
#
# Indices 1 2 3 4 5 6 
#
# 1 47.4421 -4.5238 9.2712 0.0000 0.0000 0.0000
# 2 -4.5238 122.7830 16.0404 0.0000 0.0000 0.0000
# 3 9.2712 16.0404 64.0595 0.0000 0.0000 0.0000
# 4 0.0000 0.0000 0.0000 28.8587 0.0000 0.0000
# 5 0.0000 0.0000 0.0000 0.0000 26.9893 0.0000
# 6 0.0000 0.0000 0.0000 0.0000 0.0000 10.9416
#
#
#
# Elastic Compliance Matrix: (Units=1/GPa)
#
#
# Indices 1 2 3 4 5 6 
#
# 1 0.021879 0.001261 -0.003482 0.000000 0.000000 0.000000
# 2 0.001261 0.008493 -0.002309 0.000000 0.000000 0.000000
# 3 -0.003482 -0.002309 0.016693 0.000000 0.000000 0.000000
# 4 0.000000 0.000000 0.000000 0.034652 0.000000 0.000000
# 5 0.000000 0.000000 0.000000 0.000000 0.037052 0.000000
# 6 0.000000 0.000000 0.000000 0.000000 0.000000 0.091394
#
#
# Mechanical properties :
#
#
# Convention : Reuss Voigt Hill
#
# Bulk Modulus (GPa) = 26.31319 30.65113 28.48216
# Shear Modulus (GPa) = 21.56191 27.59104 24.57648
#
# Velocity S-wave (km/s) = 3.04901 3.44905 3.25518
# Velocity P-wave (km/s) = 4.87240 5.39227 5.13891
#
# Compressibility (1/GPa) = 0.03800375
#
# Stress axis : x y z
#
# Youngs Moduli (GPa) = 45.70576 117.75005 59.90663
#
# Poissons Ratio (x) = -0.14849 0.20861
# Poissons Ratio (y) = -0.05764 0.13833
# Poissons Ratio (z) = 0.15916 0.27189
#
# Static dielectric constant tensor:
#      x y z
#    x 1.831280 0.000000 0.000000 
#    y 0.000000 1.916480 0.000000 
#    z 0.000000 0.000000 1.943730 
# 
# From -- ./inp_files/4171.got.cif
#   From: 2010.05.17/outbox.cif.g08.bks.cpg/sg33_3_cif.got.tgz:4171.got - 2010.06.03 17:15:25.
