data_PCOD9346647
_publ_section_title
;
Structure prediction by ZEFSAII (Michael W. Deem and Ramdas Pophale) SiO2 
 PCOD9346647
Probable space group: P N A 21
;
_chemical_formula_sum "Si O2"
_cell_formula_units_Z 32
_cell_length_a 9.550080
_cell_length_b 10.659573
_cell_length_c 14.487587
_cell_angle_alpha 90.000000
_cell_angle_beta 90.000000
_cell_angle_gamma 90.000000
_cell_volume 1474.833096
_symmetry_space_group_name_H-M "P N A 21"
_symmetry_group_IT_number 33
_symmetry_cell_setting 'orthorhombic'
loop_
_space_group_symop_operation_xyz
x,y,z
-x,-y,1/2+z
1/2-x,1/2+y,1/2+z
1/2+x,1/2-y,z
loop_
_atom_site_type_symbol
_atom_site_label
_atom_site_fract_x
_atom_site_fract_y
_atom_site_fract_z
Si Si1 0.810015 0.250762 0.408960
Si Si2 0.367560 0.714499 0.207657
Si Si3 0.503673 0.482500 0.122089
Si Si4 0.391434 0.156125 0.828833
Si Si5 0.040771 0.499351 0.966986
Si Si6 0.708458 0.077837 0.568612
Si Si7 0.568709 0.403628 0.329858
Si Si8 0.829079 0.127640 0.965485
O O1 0.884398 0.366414 0.460935
O O2 0.722486 0.171111 0.482232
O O3 0.702065 0.311334 0.336820
O O4 0.931436 0.164792 0.368157
O O5 0.429542 0.618865 0.132094
O O6 0.492173 0.768418 0.270559
O O7 0.248161 0.645445 0.267550
O O8 0.299929 0.835250 0.158637
O O9 0.652119 0.496818 0.072092
O O10 0.535904 0.443028 0.226171
O O11 0.405562 0.393074 0.062341
O O12 0.458293 0.031213 0.871889
O O13 0.353706 0.240349 0.917381
O O14 0.164577 0.399176 0.975370
O O15 0.932449 0.501242 0.051056
O O16 0.609056 0.522014 0.394759
#
# Coordination Sequence:
#
# PCOD9346647 Si02
#       8
#     4   4   4   4   4   4   4   4
#     4  11  23  45  69 100 138 182 229 291 347 421
#     4  12  24  44  70 107 135 183 242 291 337 423
#     4  12  26  42  73 102 140 183 233 290 352 424
#     4  12  26  46  72  99 146 186 231 290 361 416
#     4  11  26  44  72 101 135 191 230 289 357 422
#     4  12  24  44  71 106 135 182 240 291 344 413
#     4  11  23  45  69  99 136 182 230 289 349 411
#     4  11  24  48  68 102 145 181 237 293 355 418
#
# _framework density 21.697372000000001
#
# number of rings (size 3 to 8) (size 9 to 14) (size 15 to 20)
#    0.000    0.500    6.250    2.250    7.000    0.000 
#    4.500    0.000    0.000    0.000    0.000    0.000 
#    0.000    0.000    0.000    0.000    0.000    0.000 
#
# Total GULP energy -179139.470866 kJ/mol
# GULP energy per Si atom -5598.108465 kJ/mol
# Density = 2.164799 g / cm^3
# Si number density = 21.697372 Si / 1000 Ang^3
#
#
#
# Elastic Constant Matrix: (Units=GPa)
#
#
# Indices 1 2 3 4 5 6 
#
# 1 106.4589 11.6104 31.6674 0.0000 0.0000 0.0000
# 2 11.6104 20.5857 -12.4987 0.0000 0.0000 0.0000
# 3 31.6674 -12.4987 38.0040 0.0000 0.0000 0.0000
# 4 0.0000 0.0000 0.0000 20.6539 0.0000 0.0000
# 5 0.0000 0.0000 0.0000 0.0000 39.0320 0.0000
# 6 0.0000 0.0000 0.0000 0.0000 0.0000 20.6061
#
#
#
# Elastic Compliance Matrix: (Units=1/GPa)
#
#
# Indices 1 2 3 4 5 6 
#
# 1 0.019752 -0.026406 -0.025143 0.000000 0.000000 0.000000
# 2 -0.026406 0.095999 0.053575 0.000000 0.000000 0.000000
# 3 -0.025143 0.053575 0.064884 0.000000 0.000000 0.000000
# 4 0.000000 0.000000 0.000000 0.048417 0.000000 0.000000
# 5 0.000000 0.000000 0.000000 0.000000 0.025620 0.000000
# 6 0.000000 0.000000 0.000000 0.000000 0.000000 0.048529
#
#
# Mechanical properties :
#
#
# Convention : Reuss Voigt Hill
#
# Bulk Modulus (GPa) = 5.41458 25.17854 15.29656
# Shear Modulus (GPa) = 13.86147 25.00970 19.43559
#
# Velocity S-wave (km/s) = 2.53030 3.39877 2.99617
# Velocity P-wave (km/s) = 3.32227 5.19921 4.36287
#
# Compressibility (1/GPa) = 0.18468655
#
# Stress axis : x y z
#
# Youngs Moduli (GPa) = 50.62694 10.41678 15.41217
#
# Poissons Ratio (x) = 0.27507 0.38751
# Poissons Ratio (y) = 1.33686 -0.82571
# Poissons Ratio (z) = 1.27293 -0.55808
#
# Static dielectric constant tensor:
#      x y z
#    x 1.772580 0.000000 0.000000 
#    y 0.000000 1.773060 0.000000 
#    z 0.000000 0.000000 1.765920 
# 
# From -- ./inp_files/7623.got.cif
#   From: 2010.05.17/outbox.cif.g08.bks.cpg/sg33_4_cif.got.tgz:7623.got - 2010.06.03 17:15:25.
