data_PCOD9346852
_publ_section_title
;
Structure prediction by ZEFSAII (Michael W. Deem and Ramdas Pophale) SiO2 
 PCOD9346852
Probable space group: P N A 21
;
_chemical_formula_sum "Si O2"
_cell_formula_units_Z 16
_cell_length_a 8.895197
_cell_length_b 12.660940
_cell_length_c 5.246270
_cell_angle_alpha 90.000000
_cell_angle_beta 90.000000
_cell_angle_gamma 90.000000
_cell_volume 590.843088
_symmetry_space_group_name_H-M "P N A 21"
_symmetry_group_IT_number 33
_symmetry_cell_setting 'orthorhombic'
loop_
_space_group_symop_operation_xyz
x,y,z
-x,-y,1/2+z
1/2-x,1/2+y,1/2+z
1/2+x,1/2-y,z
loop_
_atom_site_type_symbol
_atom_site_label
_atom_site_fract_x
_atom_site_fract_y
_atom_site_fract_z
Si Si1 0.905048 0.477852 0.407450
Si Si2 0.830413 0.087516 0.589375
Si Si3 0.325436 0.250721 0.211540
Si Si4 0.089951 0.145519 0.911289
O O1 0.764876 0.553768 0.337785
O O2 0.853185 0.358090 0.361750
O O3 0.975559 0.495153 0.683399
O O4 0.746024 0.166243 0.399368
O O5 0.866085 0.975654 0.459326
O O6 0.987527 0.142550 0.662767
O O7 0.236455 0.215282 0.957249
O O8 0.476835 0.307455 0.121556
#
# Coordination Sequence:
#
# PCOD9346852 Si02
#       4
#     4   4   4   4
#     4  11  28  49  76 117 161 203 269 333 391 483
#     4  11  25  47  78 111 159 205 266 327 404 468
#     4  11  26  46  75 114 148 212 259 320 409 467
#     4  11  25  46  77 108 156 202 262 326 394 478
#
# _framework density 27.079948999999999
#
# number of rings (size 3 to 8) (size 9 to 14) (size 15 to 20)
#    0.000    1.000    2.500    1.500   10.500    2.000 
#    0.000    0.000    0.000    0.000    0.000    0.000 
#    0.000    0.000    0.000    0.000    0.000    0.000 
#
# Total GULP energy -89795.539193 kJ/mol
# GULP energy per Si atom -5612.221200 kJ/mol
# Density = 2.701831 g / cm^3
# Si number density = 27.079949 Si / 1000 Ang^3
#
#
#
# Elastic Constant Matrix: (Units=GPa)
#
#
# Indices 1 2 3 4 5 6 
#
# 1 95.9006 46.1153 32.5326 0.0000 0.0000 0.0000
# 2 46.1153 210.1958 40.7963 0.0000 0.0000 0.0000
# 3 32.5326 40.7963 94.3895 0.0000 0.0000 0.0000
# 4 0.0000 0.0000 0.0000 39.9838 0.0000 0.0000
# 5 0.0000 0.0000 0.0000 0.0000 55.3634 0.0000
# 6 0.0000 0.0000 0.0000 0.0000 0.0000 26.5885
#
#
#
# Elastic Compliance Matrix: (Units=1/GPa)
#
#
# Indices 1 2 3 4 5 6 
#
# 1 0.012602 -0.002098 -0.003437 0.000000 0.000000 0.000000
# 2 -0.002098 0.005542 -0.001672 0.000000 0.000000 0.000000
# 3 -0.003437 -0.001672 0.012502 0.000000 0.000000 0.000000
# 4 0.000000 0.000000 0.000000 0.025010 0.000000 0.000000
# 5 0.000000 0.000000 0.000000 0.000000 0.018062 0.000000
# 6 0.000000 0.000000 0.000000 0.000000 0.000000 0.037610
#
#
# Mechanical properties :
#
#
# Convention : Reuss Voigt Hill
#
# Bulk Modulus (GPa) = 61.60601 71.04161 66.32381
# Shear Modulus (GPa) = 38.12321 43.12325 40.62323
#
# Velocity S-wave (km/s) = 3.75614 3.99487 3.87734
# Velocity P-wave (km/s) = 6.45062 6.89707 6.67758
#
# Compressibility (1/GPa) = 0.01623218
#
# Stress axis : x y z
#
# Youngs Moduli (GPa) = 79.35194 180.43058 79.98860
#
# Poissons Ratio (x) = 0.37850 0.27490
# Poissons Ratio (y) = 0.16646 0.13378
# Poissons Ratio (z) = 0.27272 0.30176
#
# Static dielectric constant tensor:
#      x y z
#    x 2.144930 0.000000 0.000000 
#    y 0.000000 2.023870 0.000000 
#    z 0.000000 0.000000 2.048010 
# 
# From -- ./inp_files/256.got.cif
#   From: 2010.05.17/outbox.cif.g08.bks.cpg/sg33_1_cif.got.tgz:256.got - 2010.06.03 17:15:25.
