data_PCOD9346749
_publ_section_title
;
Structure prediction by ZEFSAII (Michael W. Deem and Ramdas Pophale) SiO2 
 PCOD9346749
Probable space group: P N A 21
;
_chemical_formula_sum "Si O2"
_cell_formula_units_Z 20
_cell_length_a 9.142151
_cell_length_b 17.013190
_cell_length_c 4.794477
_cell_angle_alpha 90.000000
_cell_angle_beta 90.000000
_cell_angle_gamma 90.000000
_cell_volume 745.719298
_symmetry_space_group_name_H-M "P N A 21"
_symmetry_group_IT_number 33
_symmetry_cell_setting 'orthorhombic'
loop_
_space_group_symop_operation_xyz
x,y,z
-x,-y,1/2+z
1/2-x,1/2+y,1/2+z
1/2+x,1/2-y,z
loop_
_atom_site_type_symbol
_atom_site_label
_atom_site_fract_x
_atom_site_fract_y
_atom_site_fract_z
Si Si1 0.895889 0.244603 0.439800
Si Si2 0.858041 0.643522 0.175817
Si Si3 0.796347 0.892015 0.968802
Si Si4 0.810362 0.543966 0.657476
Si Si5 0.501061 0.616173 0.505955
O O1 0.799743 0.187051 0.639539
O O2 0.780689 0.312687 0.365849
O O3 0.957289 0.196104 0.176453
O O4 0.024444 0.292597 0.585935
O O5 0.896878 0.607518 0.473332
O O6 0.840800 0.569514 0.969562
O O7 0.878382 0.924531 0.699669
O O8 0.677393 0.952908 0.087316
O O9 0.081343 0.122676 0.709667
O O10 0.645147 0.564116 0.554963
#
# Coordination Sequence:
#
# PCOD9346749 Si02
#       5
#     4   4   4   4   4
#     4  11  26  46  72 108 142 199 241 307 366 444
#     4  11  26  45  70 101 150 183 247 299 367 439
#     4  12  25  44  76 104 147 194 244 302 376 431
#     4  11  25  44  71 106 144 191 241 305 364 445
#     4  11  24  45  71 105 147 191 245 299 365 449
#
# _framework density 26.819739999999999
#
# number of rings (size 3 to 8) (size 9 to 14) (size 15 to 20)
#    0.000    0.800    2.000    4.800    2.800    6.400 
#    0.000    0.000    0.000    0.000    0.000    0.000 
#    0.000    0.000    0.000    0.000    0.000    0.000 
#
# Total GULP energy -112077.988956 kJ/mol
# GULP energy per Si atom -5603.899448 kJ/mol
# Density = 2.675870 g / cm^3
# Si number density = 26.819740 Si / 1000 Ang^3
#
#
#
# Elastic Constant Matrix: (Units=GPa)
#
#
# Indices 1 2 3 4 5 6 
#
# 1 112.3162 2.3341 2.3585 0.0000 0.0000 0.0000
# 2 2.3341 94.9882 -15.2959 0.0000 0.0000 0.0000
# 3 2.3585 -15.2959 83.5917 0.0000 0.0000 0.0000
# 4 0.0000 0.0000 0.0000 38.7267 0.0000 0.0000
# 5 0.0000 0.0000 0.0000 0.0000 27.3387 0.0000
# 6 0.0000 0.0000 0.0000 0.0000 0.0000 33.4008
#
#
#
# Elastic Compliance Matrix: (Units=1/GPa)
#
#
# Indices 1 2 3 4 5 6 
#
# 1 0.008915 -0.000267 -0.000300 0.000000 0.000000 0.000000
# 2 -0.000267 0.010855 0.001994 0.000000 0.000000 0.000000
# 3 -0.000300 0.001994 0.012336 0.000000 0.000000 0.000000
# 4 0.000000 0.000000 0.000000 0.025822 0.000000 0.000000
# 5 0.000000 0.000000 0.000000 0.000000 0.036578 0.000000
# 6 0.000000 0.000000 0.000000 0.000000 0.000000 0.029939
#
#
# Mechanical properties :
#
#
# Convention : Reuss Voigt Hill
#
# Bulk Modulus (GPa) = 28.60517 29.96548 29.28533
# Shear Modulus (GPa) = 37.52419 39.99319 38.75869
#
# Velocity S-wave (km/s) = 3.74455 3.86578 3.80564
# Velocity P-wave (km/s) = 5.42074 5.57878 5.50033
#
# Compressibility (1/GPa) = 0.03495872
#
# Stress axis : x y z
#
# Youngs Moduli (GPa) = 112.16665 92.12114 81.06195
#
# Poissons Ratio (x) = 0.02464 0.02436
# Poissons Ratio (y) = 0.03000 -0.16163
# Poissons Ratio (z) = 0.03370 -0.18368
#
# Static dielectric constant tensor:
#      x y z
#    x 2.178550 0.000000 0.000000 
#    y 0.000000 2.147460 0.000000 
#    z 0.000000 0.000000 2.041240 
# 
# From -- ./inp_files/3078.got.cif
#   From: 2010.05.17/outbox.cif.g08.bks.cpg/sg33_2_cif.got.tgz:3078.got - 2010.06.03 17:15:25.
