data_PCOD9346578
_publ_section_title
;
Structure prediction by ZEFSAII (Michael W. Deem and Ramdas Pophale) SiO2 
 PCOD9346578
Probable space group: P N A 21
;
_chemical_formula_sum "Si O2"
_cell_formula_units_Z 32
_cell_length_a 11.398599
_cell_length_b 7.560385
_cell_length_c 13.999396
_cell_angle_alpha 90.000000
_cell_angle_beta 90.000000
_cell_angle_gamma 90.000000
_cell_volume 1206.437105
_symmetry_space_group_name_H-M "P N A 21"
_symmetry_group_IT_number 33
_symmetry_cell_setting 'orthorhombic'
loop_
_space_group_symop_operation_xyz
x,y,z
-x,-y,1/2+z
1/2-x,1/2+y,1/2+z
1/2+x,1/2-y,z
loop_
_atom_site_type_symbol
_atom_site_label
_atom_site_fract_x
_atom_site_fract_y
_atom_site_fract_z
Si Si1 0.825618 0.590675 0.464980
Si Si2 0.295568 0.901277 0.788369
Si Si3 0.589916 0.362061 0.720522
Si Si4 0.477838 0.163635 0.096838
Si Si5 0.895588 0.948770 0.845967
Si Si6 0.252639 0.013576 0.993289
Si Si7 0.516411 0.568859 0.035487
Si Si8 0.453060 0.998075 0.288782
O O1 0.703617 0.522769 0.419021
O O2 0.808528 0.803079 0.457753
O O3 0.917607 0.487621 0.397897
O O4 0.893460 0.582408 0.568372
O O5 0.338643 0.699021 0.775870
O O6 0.189815 0.991523 0.733051
O O7 0.407822 0.030020 0.782886
O O8 0.267171 0.897113 0.900388
O O9 0.474589 0.424794 0.779570
O O10 0.558031 0.324884 0.611325
O O11 0.623432 0.171403 0.760493
O O12 0.373214 0.067521 0.041136
O O13 0.481667 0.365470 0.061416
O O14 0.441272 0.145780 0.207678
O O15 0.988528 0.883910 0.926451
O O16 0.154615 0.918667 0.056630
#
# Coordination Sequence:
#
# PCOD9346578 Si02
#       8
#     4   4   4   4   4   4   4   4
#     4  11  24  46  73 100 143 194 237 299 371 433
#     4  12  27  46  76 104 147 190 253 301 375 449
#     4  12  28  48  70 110 151 190 252 310 373 440
#     4  11  25  44  73 110 143 195 250 297 372 448
#     4  12  27  47  73 104 150 194 241 310 371 438
#     4  11  22  47  73  98 144 194 243 302 364 442
#     4  11  26  45  71 106 150 188 242 305 374 439
#     4  12  27  45  75 106 144 193 248 306 368 437
#
# _framework density 26.524384000000001
#
# number of rings (size 3 to 8) (size 9 to 14) (size 15 to 20)
#    0.000    0.500    5.000    2.250    8.750    1.000 
#    0.000    0.000    0.000    0.000    0.000    0.000 
#    0.000    0.000    0.000    0.000    0.000    0.000 
#
# Total GULP energy -178800.828390 kJ/mol
# GULP energy per Si atom -5587.525887 kJ/mol
# Density = 2.646401 g / cm^3
# Si number density = 26.524384 Si / 1000 Ang^3
#
#
#
# Elastic Constant Matrix: (Units=GPa)
#
#
# Indices 1 2 3 4 5 6 
#
# 1 101.2243 7.6447 -15.2346 0.0000 0.0000 0.0000
# 2 7.6447 87.3724 -8.0131 0.0000 0.0000 0.0000
# 3 -15.2346 -8.0131 53.8864 0.0000 0.0000 0.0000
# 4 0.0000 0.0000 0.0000 33.5959 0.0000 0.0000
# 5 0.0000 0.0000 0.0000 0.0000 36.6455 0.0000
# 6 0.0000 0.0000 0.0000 0.0000 0.0000 25.5191
#
#
#
# Elastic Compliance Matrix: (Units=1/GPa)
#
#
# Indices 1 2 3 4 5 6 
#
# 1 0.010354 -0.000646 0.002831 0.000000 0.000000 0.000000
# 2 -0.000646 0.011644 0.001549 0.000000 0.000000 0.000000
# 3 0.002831 0.001549 0.019588 0.000000 0.000000 0.000000
# 4 0.000000 0.000000 0.000000 0.029766 0.000000 0.000000
# 5 0.000000 0.000000 0.000000 0.000000 0.027289 0.000000
# 6 0.000000 0.000000 0.000000 0.000000 0.000000 0.039186
#
#
# Mechanical properties :
#
#
# Convention : Reuss Voigt Hill
#
# Bulk Modulus (GPa) = 20.38596 23.47521 21.93058
# Shear Modulus (GPa) = 34.08078 36.35784 35.21931
#
# Velocity S-wave (km/s) = 3.58842 3.70636 3.64786
# Velocity P-wave (km/s) = 4.98713 5.21400 5.10182
#
# Compressibility (1/GPa) = 0.04905338
#
# Stress axis : x y z
#
# Youngs Moduli (GPa) = 96.58141 85.88222 51.05094
#
# Poissons Ratio (x) = 0.05550 -0.14453
# Poissons Ratio (y) = 0.06242 -0.07907
# Poissons Ratio (z) = -0.27344 -0.13301
#
# Static dielectric constant tensor:
#      x y z
#    x 2.163680 0.000000 0.000000 
#    y 0.000000 2.087500 0.000000 
#    z 0.000000 0.000000 2.069690 
# 
# From -- ./inp_files/7943.got.cif
#   From: 2010.05.17/outbox.cif.g08.bks.cpg/sg33_4_cif.got.tgz:7943.got - 2010.06.03 17:15:25.
