data_PCOD9346995
_publ_section_title
;
Structure prediction by ZEFSAII (Michael W. Deem and Ramdas Pophale) SiO2 
 PCOD9346995
Probable space group: P N A 21
;
_chemical_formula_sum "Si O2"
_cell_formula_units_Z 32
_cell_length_a 9.451587
_cell_length_b 10.265237
_cell_length_c 13.517038
_cell_angle_alpha 90.000000
_cell_angle_beta 90.000000
_cell_angle_gamma 90.000000
_cell_volume 1311.460612
_symmetry_space_group_name_H-M "P N A 21"
_symmetry_group_IT_number 33
_symmetry_cell_setting 'orthorhombic'
loop_
_space_group_symop_operation_xyz
x,y,z
-x,-y,1/2+z
1/2-x,1/2+y,1/2+z
1/2+x,1/2-y,z
loop_
_atom_site_type_symbol
_atom_site_label
_atom_site_fract_x
_atom_site_fract_y
_atom_site_fract_z
Si Si1 0.957818 0.533028 0.757960
Si Si2 0.524653 0.478839 0.164200
Si Si3 0.048745 0.183597 0.354427
Si Si4 0.664661 0.982772 0.573864
Si Si5 0.595058 0.701279 0.492984
Si Si6 0.357680 0.829820 0.369759
Si Si7 0.219794 0.769652 0.985417
Si Si8 0.776632 0.845432 0.190657
O O1 0.042287 0.516324 0.655288
O O2 0.044477 0.449311 0.837884
O O3 0.950373 0.681906 0.791523
O O4 0.806535 0.466081 0.739303
O O5 0.525068 0.429215 0.275964
O O6 0.684708 0.488335 0.128603
O O7 0.433268 0.609383 0.160365
O O8 0.449846 0.375885 0.090666
O O9 0.197735 0.176755 0.409914
O O10 0.923786 0.184615 0.434528
O O11 0.647448 0.846650 0.518550
O O12 0.674164 0.107683 0.502974
O O13 0.460170 0.723529 0.422085
O O14 0.728811 0.634728 0.441224
O O15 0.289923 0.766506 0.271955
O O16 0.201150 0.702797 0.091336
#
# Coordination Sequence:
#
# PCOD9346995 Si02
#       8
#     4   4   4   4   4   4   4   4
#     4  12  26  48  76 105 151 194 246 305 379 438
#     4  12  29  47  76 107 153 189 248 308 370 443
#     4  12  27  47  75 108 145 191 243 302 370 439
#     4  12  26  49  75 107 152 195 245 308 370 442
#     4  12  27  47  75 108 145 196 248 304 371 444
#     4  12  27  48  74 107 145 194 250 302 372 441
#     4  12  27  48  74 109 145 192 246 298 372 435
#     4  12  29  48  75 109 150 195 244 313 366 450
#
# _framework density 24.400276999999999
#
# number of rings (size 3 to 8) (size 9 to 14) (size 15 to 20)
#    0.000    0.000    5.000    3.750   10.500    1.000 
#    0.000    0.000    0.000    0.000    0.000    0.000 
#    0.000    0.000    0.000    0.000    0.000    0.000 
#
# Total GULP energy -179642.937753 kJ/mol
# GULP energy per Si atom -5613.841805 kJ/mol
# Density = 2.434474 g / cm^3
# Si number density = 24.400277 Si / 1000 Ang^3
#
#
#
# Elastic Constant Matrix: (Units=GPa)
#
#
# Indices 1 2 3 4 5 6 
#
# 1 100.1071 -7.3082 30.2987 0.0000 0.0000 0.0000
# 2 -7.3082 66.8467 10.4927 0.0000 0.0000 0.0000
# 3 30.2987 10.4927 93.8557 0.0000 0.0000 0.0000
# 4 0.0000 0.0000 0.0000 19.4002 0.0000 0.0000
# 5 0.0000 0.0000 0.0000 0.0000 39.1837 0.0000
# 6 0.0000 0.0000 0.0000 0.0000 0.0000 33.4937
#
#
#
# Elastic Compliance Matrix: (Units=1/GPa)
#
#
# Indices 1 2 3 4 5 6 
#
# 1 0.011289 0.001838 -0.003850 0.000000 0.000000 0.000000
# 2 0.001838 0.015526 -0.002329 0.000000 0.000000 0.000000
# 3 -0.003850 -0.002329 0.012158 0.000000 0.000000 0.000000
# 4 0.000000 0.000000 0.000000 0.051546 0.000000 0.000000
# 5 0.000000 0.000000 0.000000 0.000000 0.025521 0.000000
# 6 0.000000 0.000000 0.000000 0.000000 0.000000 0.029856
#
#
# Mechanical properties :
#
#
# Convention : Reuss Voigt Hill
#
# Bulk Modulus (GPa) = 33.01245 36.41954 34.71600
# Shear Modulus (GPa) = 30.36300 33.57061 31.96680
#
# Velocity S-wave (km/s) = 3.53139 3.71324 3.62346
# Velocity P-wave (km/s) = 5.49423 5.77430 5.63600
#
# Compressibility (1/GPa) = 0.03029160
#
# Stress axis : x y z
#
# Youngs Moduli (GPa) = 88.58414 64.40722 82.25140
#
# Poissons Ratio (x) = -0.11841 0.31665
# Poissons Ratio (y) = -0.16286 0.19159
# Poissons Ratio (z) = 0.34103 0.15002
#
# Static dielectric constant tensor:
#      x y z
#    x 1.890160 0.000000 0.000000 
#    y 0.000000 1.923820 0.000000 
#    z 0.000000 0.000000 1.926940 
# 
# From -- ./inp_files/7654.got.cif
#   From: 2010.05.17/outbox.cif.g08.bks.cpg/sg33_4_cif.got.tgz:7654.got - 2010.06.03 17:15:25.
