data_PCOD9346853
_publ_section_title
;
Structure prediction by ZEFSAII (Michael W. Deem and Ramdas Pophale) SiO2 
 PCOD9346853
Probable space group: P N A 21
;
_chemical_formula_sum "Si O2"
_cell_formula_units_Z 16
_cell_length_a 11.280861
_cell_length_b 10.094522
_cell_length_c 5.285806
_cell_angle_alpha 90.000000
_cell_angle_beta 90.000000
_cell_angle_gamma 90.000000
_cell_volume 601.920627
_symmetry_space_group_name_H-M "P N A 21"
_symmetry_group_IT_number 33
_symmetry_cell_setting 'orthorhombic'
loop_
_space_group_symop_operation_xyz
x,y,z
-x,-y,1/2+z
1/2-x,1/2+y,1/2+z
1/2+x,1/2-y,z
loop_
_atom_site_type_symbol
_atom_site_label
_atom_site_fract_x
_atom_site_fract_y
_atom_site_fract_z
Si Si1 0.034179 0.569370 0.143300
Si Si2 0.692629 0.549400 0.322241
Si Si3 0.245061 0.162878 0.948895
Si Si4 0.468564 0.651955 0.117937
O O1 0.169022 0.609189 0.222594
O O2 0.978750 0.535511 0.418764
O O3 0.963921 0.696273 0.031159
O O4 0.732214 0.679452 0.479454
O O5 0.606421 0.618755 0.117696
O O6 0.600571 0.457946 0.468279
O O7 0.770677 0.440993 0.173010
O O8 0.106102 0.154452 0.879110
#
# Coordination Sequence:
#
# PCOD9346853 Si02
#       4
#     4   4   4   4
#     4  11  28  49  75 115 156 198 260 325 387 481
#     4  11  25  48  74 112 153 203 265 325 399 480
#     4  11  26  45  78 109 151 209 255 326 405 473
#     4  11  25  46  77 110 154 202 260 326 395 472
#
# _framework density 26.581576999999999
#
# number of rings (size 3 to 8) (size 9 to 14) (size 15 to 20)
#    0.000    1.000    2.500    1.500   10.500    2.000 
#    0.000    0.000    0.000    0.000    0.000    0.000 
#    0.000    0.000    0.000    0.000    0.000    0.000 
#
# Total GULP energy -89291.571466 kJ/mol
# GULP energy per Si atom -5580.723217 kJ/mol
# Density = 2.652108 g / cm^3
# Si number density = 26.581577 Si / 1000 Ang^3
#
#
#
# Elastic Constant Matrix: (Units=GPa)
#
#
# Indices 1 2 3 4 5 6 
#
# 1 74.7100 28.0986 9.8821 0.0000 0.0000 0.0000
# 2 28.0986 201.4038 59.2433 0.0000 0.0000 0.0000
# 3 9.8821 59.2433 73.7815 0.0000 0.0000 0.0000
# 4 0.0000 0.0000 0.0000 42.9589 0.0000 0.0000
# 5 0.0000 0.0000 0.0000 0.0000 33.8564 0.0000
# 6 0.0000 0.0000 0.0000 0.0000 0.0000 46.2795
#
#
#
# Elastic Compliance Matrix: (Units=1/GPa)
#
#
# Indices 1 2 3 4 5 6 
#
# 1 0.014136 -0.001853 -0.000406 0.000000 0.000000 0.000000
# 2 -0.001853 0.006743 -0.005166 0.000000 0.000000 0.000000
# 3 -0.000406 -0.005166 0.017756 0.000000 0.000000 0.000000
# 4 0.000000 0.000000 0.000000 0.023278 0.000000 0.000000
# 5 0.000000 0.000000 0.000000 0.000000 0.029537 0.000000
# 6 0.000000 0.000000 0.000000 0.000000 0.000000 0.021608
#
#
# Mechanical properties :
#
#
# Convention : Reuss Voigt Hill
#
# Bulk Modulus (GPa) = 42.04231 60.48261 51.26246
# Shear Modulus (GPa) = 36.80913 41.46371 39.13642
#
# Velocity S-wave (km/s) = 3.72527 3.95380 3.84124
# Velocity P-wave (km/s) = 5.86125 6.60654 6.24502
#
# Compressibility (1/GPa) = 0.02378556
#
# Stress axis : x y z
#
# Youngs Moduli (GPa) = 70.74346 148.29383 56.31806
#
# Poissons Ratio (x) = 0.27476 0.02284
# Poissons Ratio (y) = 0.13107 0.29097
# Poissons Ratio (z) = 0.02869 0.76616
#
# Static dielectric constant tensor:
#      x y z
#    x 2.260460 0.000000 0.000000 
#    y 0.000000 2.076100 0.000000 
#    z 0.000000 0.000000 2.145630 
# 
# From -- ./inp_files/634.got.cif
#   From: 2010.05.17/outbox.cif.g08.bks.cpg/sg33_1_cif.got.tgz:634.got - 2010.06.03 17:15:25.
