data_PCOD9346470
_publ_section_title
;
Structure prediction by ZEFSAII (Michael W. Deem and Ramdas Pophale) SiO2 
 PCOD9346470
Probable space group: P N A 21
;
_chemical_formula_sum "Si O2"
_cell_formula_units_Z 32
_cell_length_a 16.133494
_cell_length_b 6.150826
_cell_length_c 13.579542
_cell_angle_alpha 90.000000
_cell_angle_beta 90.000000
_cell_angle_gamma 90.000000
_cell_volume 1347.556540
_symmetry_space_group_name_H-M "P N A 21"
_symmetry_group_IT_number 33
_symmetry_cell_setting 'orthorhombic'
loop_
_space_group_symop_operation_xyz
x,y,z
-x,-y,1/2+z
1/2-x,1/2+y,1/2+z
1/2+x,1/2-y,z
loop_
_atom_site_type_symbol
_atom_site_label
_atom_site_fract_x
_atom_site_fract_y
_atom_site_fract_z
Si Si1 0.069529 0.041345 0.575610
Si Si2 0.473099 0.797238 0.451496
Si Si3 0.650822 0.930278 0.067200
Si Si4 0.232227 0.684293 0.863940
Si Si5 0.130475 0.433178 0.432803
Si Si6 0.618405 0.457056 0.780963
Si Si7 0.778038 0.292839 0.078765
Si Si8 0.266827 0.331513 0.723900
O O1 0.097973 0.251887 0.512155
O O2 0.051863 0.065688 0.692203
O O3 0.145708 0.871841 0.581254
O O4 0.999443 0.908542 0.517840
O O5 0.412332 0.696111 0.369930
O O6 0.434150 0.989653 0.518347
O O7 0.554829 0.910297 0.405498
O O8 0.657719 0.768281 0.160146
O O9 0.694975 0.158457 0.089532
O O10 0.706213 0.832804 0.978277
O O11 0.317598 0.817419 0.847907
O O12 0.264397 0.447974 0.829330
O O13 0.151659 0.805972 0.816660
O O14 0.203375 0.576345 0.480440
O O15 0.700613 0.357024 0.733654
O O16 0.774829 0.475873 0.161132
#
# Coordination Sequence:
#
# PCOD9346470 Si02
#       8
#     4   4   4   4   4   4   4   4
#     4  11  23  47  73 104 149 201 242 309 381 452
#     4  11  29  43  77 105 162 201 242 314 400 449
#     4  12  24  45  73 111 145 193 252 315 367 452
#     4  12  24  42  82 102 143 193 266 304 368 456
#     4  11  24  46  71 105 149 196 237 317 377 443
#     4  12  24  48  77 109 144 204 255 306 377 463
#     4  11  19  43  75  99 131 188 244 304 365 424
#     4  12  23  40  78 109 137 184 258 313 361 439
#
# _framework density 23.746683000000001
#
# number of rings (size 3 to 8) (size 9 to 14) (size 15 to 20)
#    0.000    0.500    7.500    0.750    1.750    0.000 
#    0.000    7.500    0.000    0.000    0.000    0.000 
#    0.000    0.000    0.000    0.000    0.000    0.000 
#
# Total GULP energy -178512.302631 kJ/mol
# GULP energy per Si atom -5578.509457 kJ/mol
# Density = 2.369263 g / cm^3
# Si number density = 23.746683 Si / 1000 Ang^3
#
#
#
# Elastic Constant Matrix: (Units=GPa)
#
#
# Indices 1 2 3 4 5 6 
#
# 1 59.2748 14.2626 27.2996 0.0000 0.0000 0.0000
# 2 14.2626 100.7985 38.8971 0.0000 0.0000 0.0000
# 3 27.2996 38.8971 66.8506 0.0000 0.0000 0.0000
# 4 0.0000 0.0000 0.0000 45.4524 0.0000 0.0000
# 5 0.0000 0.0000 0.0000 0.0000 21.3106 0.0000
# 6 0.0000 0.0000 0.0000 0.0000 0.0000 43.8631
#
#
#
# Elastic Compliance Matrix: (Units=1/GPa)
#
#
# Indices 1 2 3 4 5 6 
#
# 1 0.020793 0.000431 -0.008742 0.000000 0.000000 0.000000
# 2 0.000431 0.012802 -0.007625 0.000000 0.000000 0.000000
# 3 -0.008742 -0.007625 0.022965 0.000000 0.000000 0.000000
# 4 0.000000 0.000000 0.000000 0.022001 0.000000 0.000000
# 5 0.000000 0.000000 0.000000 0.000000 0.046925 0.000000
# 6 0.000000 0.000000 0.000000 0.000000 0.000000 0.022798
#
#
# Mechanical properties :
#
#
# Convention : Reuss Voigt Hill
#
# Bulk Modulus (GPa) = 40.50419 43.09361 41.79890
# Shear Modulus (GPa) = 26.54117 31.88954 29.21536
#
# Velocity S-wave (km/s) = 3.34680 3.66854 3.51136
# Velocity P-wave (km/s) = 5.65938 6.01090 5.83778
#
# Compressibility (1/GPa) = 0.02468881
#
# Stress axis : x y z
#
# Youngs Moduli (GPa) = 48.09289 78.11149 43.54359
#
# Poissons Ratio (x) = -0.03370 0.38067
# Poissons Ratio (y) = -0.02075 0.33203
# Poissons Ratio (z) = 0.42044 0.59561
#
# Static dielectric constant tensor:
#      x y z
#    x 1.889320 0.000000 0.000000 
#    y 0.000000 1.991870 0.000000 
#    z 0.000000 0.000000 2.083020 
# 
# From -- ./inp_files/8270.got.cif
#   From: 2010.05.17/outbox.cif.g08.bks.cpg/sg33_5_cif.got.tgz:8270.got - 2010.06.03 17:15:25.
