data_PCOD9346916
_publ_section_title
;
Structure prediction by ZEFSAII (Michael W. Deem and Ramdas Pophale) SiO2 
 PCOD9346916
Probable space group: P N A 21
;
_chemical_formula_sum "Si O2"
_cell_formula_units_Z 20
_cell_length_a 11.453137
_cell_length_b 8.818576
_cell_length_c 7.365422
_cell_angle_alpha 90.000000
_cell_angle_beta 90.000000
_cell_angle_gamma 90.000000
_cell_volume 743.910267
_symmetry_space_group_name_H-M "P N A 21"
_symmetry_group_IT_number 33
_symmetry_cell_setting 'orthorhombic'
loop_
_space_group_symop_operation_xyz
x,y,z
-x,-y,1/2+z
1/2-x,1/2+y,1/2+z
1/2+x,1/2-y,z
loop_
_atom_site_type_symbol
_atom_site_label
_atom_site_fract_x
_atom_site_fract_y
_atom_site_fract_z
Si Si1 0.349022 0.531847 0.839390
Si Si2 0.078269 0.829413 0.013952
Si Si3 0.199539 0.498062 0.400860
Si Si4 0.479790 0.991795 0.578334
Si Si5 0.808282 0.719986 0.515432
O O1 0.399378 0.401912 0.708795
O O2 0.311205 0.667155 0.694408
O O3 0.456963 0.603992 0.944749
O O4 0.266473 0.435962 0.980023
O O5 0.067866 0.650474 0.007748
O O6 0.192650 0.884975 0.905807
O O7 0.097048 0.466078 0.258783
O O8 0.256856 0.661107 0.372129
O O9 0.119217 0.496976 0.583559
O O10 0.439536 0.838510 0.475285
#
# Coordination Sequence:
#
# PCOD9346916 Si02
#       5
#     4   4   4   4   4
#     4  11  27  53  85 121 176 227 300 357 454 523
#     4  11  28  51  82 120 167 228 285 365 436 538
#     4  11  29  49  77 118 162 221 283 355 442 523
#     4  12  28  47  81 113 164 213 284 350 437 520
#     4  11  28  50  81 122 167 225 292 367 439 540
#
# _framework density 26.884964
#
# number of rings (size 3 to 8) (size 9 to 14) (size 15 to 20)
#    0.000    0.800    2.000    1.200   19.600    0.000 
#    0.000    0.000    0.000    0.000    0.000    0.000 
#    0.000    0.000    0.000    0.000    0.000    0.000 
#
# Total GULP energy -111694.093732 kJ/mol
# GULP energy per Si atom -5584.704687 kJ/mol
# Density = 2.682377 g / cm^3
# Si number density = 26.884964 Si / 1000 Ang^3
#
#
#
# Elastic Constant Matrix: (Units=GPa)
#
#
# Indices 1 2 3 4 5 6 
#
# 1 134.7476 94.2690 35.0670 0.0000 0.0000 0.0000
# 2 94.2690 219.3694 35.6877 0.0000 0.0000 0.0000
# 3 35.0670 35.6877 81.7287 0.0000 0.0000 0.0000
# 4 0.0000 0.0000 0.0000 50.8009 0.0000 0.0000
# 5 0.0000 0.0000 0.0000 0.0000 51.6856 0.0000
# 6 0.0000 0.0000 0.0000 0.0000 0.0000 66.3867
#
#
#
# Elastic Compliance Matrix: (Units=1/GPa)
#
#
# Indices 1 2 3 4 5 6 
#
# 1 0.011222 -0.004348 -0.002916 0.000000 0.000000 0.000000
# 2 -0.004348 0.006592 -0.001013 0.000000 0.000000 0.000000
# 3 -0.002916 -0.001013 0.013929 0.000000 0.000000 0.000000
# 4 0.000000 0.000000 0.000000 0.019685 0.000000 0.000000
# 5 0.000000 0.000000 0.000000 0.000000 0.019348 0.000000
# 6 0.000000 0.000000 0.000000 0.000000 0.000000 0.015063
#
#
# Mechanical properties :
#
#
# Convention : Reuss Voigt Hill
#
# Bulk Modulus (GPa) = 65.83869 85.09923 75.46896
# Shear Modulus (GPa) = 46.53069 51.82946 49.18007
#
# Velocity S-wave (km/s) = 4.16472 4.39546 4.28165
# Velocity P-wave (km/s) = 6.90425 7.58168 7.25088
#
# Compressibility (1/GPa) = 0.01518864
#
# Stress axis : x y z
#
# Youngs Moduli (GPa) = 89.10983 151.70515 71.79168
#
# Poissons Ratio (x) = 0.65961 0.20938
# Poissons Ratio (y) = 0.38745 0.07271
# Poissons Ratio (z) = 0.25988 0.15364
#
# Static dielectric constant tensor:
#      x y z
#    x 2.130130 0.000000 0.000000 
#    y 0.000000 2.071670 0.000000 
#    z 0.000000 0.000000 2.541550 
# 
# From -- ./inp_files/3680.got.cif
#   From: 2010.05.17/outbox.cif.g08.bks.cpg/sg33_2_cif.got.tgz:3680.got - 2010.06.03 17:15:25.
