data_PCOD9346211
_publ_section_title
;
Structure prediction by ZEFSAII (Michael W. Deem and Ramdas Pophale) SiO2 
 PCOD9346211
Probable space group: P N A 21
;
_chemical_formula_sum "Si O2"
_cell_formula_units_Z 32
_cell_length_a 26.014399
_cell_length_b 6.374067
_cell_length_c 7.777716
_cell_angle_alpha 90.000000
_cell_angle_beta 90.000000
_cell_angle_gamma 90.000000
_cell_volume 1289.681595
_symmetry_space_group_name_H-M "P N A 21"
_symmetry_group_IT_number 33
_symmetry_cell_setting 'orthorhombic'
loop_
_space_group_symop_operation_xyz
x,y,z
-x,-y,1/2+z
1/2-x,1/2+y,1/2+z
1/2+x,1/2-y,z
loop_
_atom_site_type_symbol
_atom_site_label
_atom_site_fract_x
_atom_site_fract_y
_atom_site_fract_z
Si Si1 0.936094 0.237199 0.409160
Si Si2 0.504564 0.992225 0.204743
Si Si3 0.188796 0.775054 0.641607
Si Si4 0.600181 0.472821 0.491358
Si Si5 0.650020 0.716499 0.167625
Si Si6 0.007340 0.161668 0.991844
Si Si7 0.151409 0.407444 0.398506
Si Si8 0.732722 0.463219 0.350518
O O1 0.948372 0.400016 0.253278
O O2 0.879150 0.216549 0.487280
O O3 0.972689 0.336580 0.559690
O O4 0.955173 0.997526 0.398636
O O5 0.512741 0.849409 0.371007
O O6 0.531588 0.214180 0.153169
O O7 0.141280 0.939426 0.632063
O O8 0.168219 0.579560 0.533604
O O9 0.216074 0.659615 0.799404
O O10 0.231758 0.893689 0.521951
O O11 0.543329 0.535433 0.536076
O O12 0.603506 0.224371 0.466261
O O13 0.616585 0.587064 0.311355
O O14 0.706382 0.611671 0.201197
O O15 0.647365 0.957924 0.226672
O O16 0.193145 0.225865 0.379813
#
# Coordination Sequence:
#
# PCOD9346211 Si02
#       8
#     4   4   4   4   4   4   4   4
#     4  11  22  38  58  86 117 157 204 250 298 361
#     4  10  24  36  57  83 116 157 195 249 297 352
#     4   9  19  36  56  89 112 148 201 239 304 365
#     4   9  19  34  59  83 109 153 198 240 294 363
#     4   9  19  35  56  85 108 150 204 237 296 363
#     4  11  22  40  58  85 118 157 202 250 302 358
#     4   8  18  34  59  81 111 151 191 242 286 361
#     4   9  19  35  57  84 115 149 195 245 299 365
#
# _framework density 24.812327
#
# number of rings (size 3 to 8) (size 9 to 14) (size 15 to 20)
#    0.000    3.000    1.250    0.750    1.750    8.000 
#    0.000    5.000    0.000    0.000    0.000    0.000 
#    0.000    0.000    0.000    0.000    0.000    0.000 
#
# Total GULP energy -178272.827709 kJ/mol
# GULP energy per Si atom -5571.025866 kJ/mol
# Density = 2.475585 g / cm^3
# Si number density = 24.812327 Si / 1000 Ang^3
#
#
#
# Elastic Constant Matrix: (Units=GPa)
#
#
# Indices 1 2 3 4 5 6 
#
# 1 90.2662 50.4567 25.7515 0.0000 0.0000 0.0000
# 2 50.4567 154.1010 39.2138 0.0000 0.0000 0.0000
# 3 25.7515 39.2138 62.2841 0.0000 0.0000 0.0000
# 4 0.0000 0.0000 0.0000 33.5454 0.0000 0.0000
# 5 0.0000 0.0000 0.0000 0.0000 35.2233 0.0000
# 6 0.0000 0.0000 0.0000 0.0000 0.0000 29.9583
#
#
#
# Elastic Compliance Matrix: (Units=1/GPa)
#
#
# Indices 1 2 3 4 5 6 
#
# 1 0.014173 -0.003750 -0.003499 0.000000 0.000000 0.000000
# 2 -0.003750 0.008720 -0.003939 0.000000 0.000000 0.000000
# 3 -0.003499 -0.003939 0.019982 0.000000 0.000000 0.000000
# 4 0.000000 0.000000 0.000000 0.029810 0.000000 0.000000
# 5 0.000000 0.000000 0.000000 0.000000 0.028390 0.000000
# 6 0.000000 0.000000 0.000000 0.000000 0.000000 0.033380
#
#
# Mechanical properties :
#
#
# Convention : Reuss Voigt Hill
#
# Bulk Modulus (GPa) = 48.78476 59.72170 54.25323
# Shear Modulus (GPa) = 30.55041 32.49400 31.52221
#
# Velocity S-wave (km/s) = 3.51274 3.62275 3.56817
# Velocity P-wave (km/s) = 6.01304 6.45141 6.23608
#
# Compressibility (1/GPa) = 0.02049820
#
# Stress axis : x y z
#
# Youngs Moduli (GPa) = 70.55795 114.68409 50.04474
#
# Poissons Ratio (x) = 0.43009 0.17509
# Poissons Ratio (y) = 0.26461 0.19714
# Poissons Ratio (z) = 0.24685 0.45177
#
# Static dielectric constant tensor:
#      x y z
#    x 2.041330 0.000000 0.000000 
#    y 0.000000 1.956650 0.000000 
#    z 0.000000 0.000000 2.117140 
# 
# From -- ./inp_files/5338.got.cif
#   From: 2010.05.17/outbox.cif.g08.bks.cpg/sg33_3_cif.got.tgz:5338.got - 2010.06.03 17:15:25.
