data_PCOD9346284
_publ_section_title
;
Structure prediction by ZEFSAII (Michael W. Deem and Ramdas Pophale) SiO2 
 PCOD9346284
Probable space group: P N A 21
;
_chemical_formula_sum "Si O2"
_cell_formula_units_Z 20
_cell_length_a 11.762998
_cell_length_b 9.057322
_cell_length_c 7.435986
_cell_angle_alpha 90.000000
_cell_angle_beta 90.000000
_cell_angle_gamma 90.000000
_cell_volume 792.239322
_symmetry_space_group_name_H-M "P N A 21"
_symmetry_group_IT_number 33
_symmetry_cell_setting 'orthorhombic'
loop_
_space_group_symop_operation_xyz
x,y,z
-x,-y,1/2+z
1/2-x,1/2+y,1/2+z
1/2+x,1/2-y,z
loop_
_atom_site_type_symbol
_atom_site_label
_atom_site_fract_x
_atom_site_fract_y
_atom_site_fract_z
Si Si1 0.850239 0.141301 0.934560
Si Si2 0.551699 0.479156 0.722154
Si Si3 0.142583 0.531571 0.842297
Si Si4 0.765379 0.448258 0.961711
Si Si5 0.056452 0.324889 0.547227
O O1 0.819383 0.304178 0.869971
O O2 0.927027 0.060495 0.787329
O O3 0.731777 0.056523 0.964708
O O4 0.925822 0.128719 0.114116
O O5 0.640357 0.470455 0.885938
O O6 0.579624 0.345011 0.584988
O O7 0.216293 0.590729 0.673295
O O8 0.063811 0.409947 0.739624
O O9 0.061552 0.640544 0.949413
O O10 0.841497 0.594791 0.939487
#
# Coordination Sequence:
#
# PCOD9346284 Si02
#       5
#     4   4   4   4   4
#     4  12  27  44  71 104 146 186 236 310 346 431
#     4  12  27  46  70 106 151 183 244 298 365 418
#     4  10  24  43  74 101 136 190 241 287 364 417
#     4  10  24  47  71 103 139 187 242 297 355 437
#     4  10  24  46  74  98 144 190 243 292 356 443
#
# _framework density 25.244896000000001
#
# number of rings (size 3 to 8) (size 9 to 14) (size 15 to 20)
#    1.200    0.000    2.000    2.400    8.400    1.600 
#    0.000    0.000    0.000    0.000    0.000    0.000 
#    0.000    0.000    0.000    0.000    0.000    0.000 
#
# Total GULP energy -111818.345089 kJ/mol
# GULP energy per Si atom -5590.917254 kJ/mol
# Density = 2.518744 g / cm^3
# Si number density = 25.244896 Si / 1000 Ang^3
#
#
#
# Elastic Constant Matrix: (Units=GPa)
#
#
# Indices 1 2 3 4 5 6 
#
# 1 121.0618 30.7680 20.1954 0.0000 0.0000 0.0000
# 2 30.7680 70.0004 14.9228 0.0000 0.0000 0.0000
# 3 20.1954 14.9228 49.9963 0.0000 0.0000 0.0000
# 4 0.0000 0.0000 0.0000 32.7415 0.0000 0.0000
# 5 0.0000 0.0000 0.0000 0.0000 56.6305 0.0000
# 6 0.0000 0.0000 0.0000 0.0000 0.0000 28.3598
#
#
#
# Elastic Compliance Matrix: (Units=1/GPa)
#
#
# Indices 1 2 3 4 5 6 
#
# 1 0.009656 -0.003644 -0.002812 0.000000 0.000000 0.000000
# 2 -0.003644 0.016632 -0.003492 0.000000 0.000000 0.000000
# 3 -0.002812 -0.003492 0.022180 0.000000 0.000000 0.000000
# 4 0.000000 0.000000 0.000000 0.030542 0.000000 0.000000
# 5 0.000000 0.000000 0.000000 0.000000 0.017658 0.000000
# 6 0.000000 0.000000 0.000000 0.000000 0.000000 0.035261
#
#
# Mechanical properties :
#
#
# Convention : Reuss Voigt Hill
#
# Bulk Modulus (GPa) = 35.00261 41.42567 38.21414
# Shear Modulus (GPa) = 30.98841 35.22451 33.10646
#
# Velocity S-wave (km/s) = 3.50739 3.73944 3.62527
# Velocity P-wave (km/s) = 5.50433 5.92366 5.71784
#
# Compressibility (1/GPa) = 0.02856930
#
# Stress axis : x y z
#
# Youngs Moduli (GPa) = 103.56611 60.12506 45.08591
#
# Poissons Ratio (x) = 0.21912 0.12680
# Poissons Ratio (y) = 0.37745 0.15745
# Poissons Ratio (z) = 0.29128 0.20997
#
# Static dielectric constant tensor:
#      x y z
#    x 1.913020 0.000000 0.000000 
#    y 0.000000 1.967770 0.000000 
#    z 0.000000 0.000000 2.076610 
# 
# From -- ./inp_files/3751.got.cif
#   From: 2010.05.17/outbox.cif.g08.bks.cpg/sg33_2_cif.got.tgz:3751.got - 2010.06.03 17:15:25.
