data_PCOD9346033
_publ_section_title
;
Structure prediction by ZEFSAII (Michael W. Deem and Ramdas Pophale) SiO2 
 PCOD9346033
Probable space group: P N A 21
;
_chemical_formula_sum "Si O2"
_cell_formula_units_Z 32
_cell_length_a 9.899092
_cell_length_b 12.234866
_cell_length_c 12.142419
_cell_angle_alpha 90.000000
_cell_angle_beta 90.000000
_cell_angle_gamma 90.000000
_cell_volume 1470.617714
_symmetry_space_group_name_H-M "P N A 21"
_symmetry_group_IT_number 33
_symmetry_cell_setting 'orthorhombic'
loop_
_space_group_symop_operation_xyz
x,y,z
-x,-y,1/2+z
1/2-x,1/2+y,1/2+z
1/2+x,1/2-y,z
loop_
_atom_site_type_symbol
_atom_site_label
_atom_site_fract_x
_atom_site_fract_y
_atom_site_fract_z
Si Si1 0.932850 0.497307 0.367090
Si Si2 0.254118 0.647907 0.981858
Si Si3 0.475047 0.142213 0.670050
Si Si4 0.673652 0.384896 0.997560
Si Si5 0.932846 0.002698 0.113735
Si Si6 0.245882 0.352091 0.998966
Si Si7 0.975048 0.142210 0.810774
Si Si8 0.673656 0.115105 0.483269
O O1 0.990951 0.545892 0.255178
O O2 0.046415 0.415136 0.409370
O O3 0.797021 0.425389 0.379591
O O4 0.894927 0.598340 0.450602
O O5 0.253243 0.774355 0.947708
O O6 0.147414 0.632015 0.083110
O O7 0.394926 0.598334 0.030220
O O8 0.449175 0.250001 0.740413
O O9 0.613029 0.149687 0.601061
O O10 0.746760 0.274357 0.033115
O O11 0.613030 0.350320 0.879764
O O12 0.749992 0.500003 0.990418
O O13 0.546407 0.415124 0.071459
O O14 0.990952 0.954109 0.225644
O O15 0.797014 0.074612 0.101235
O O16 0.352587 0.367988 0.897714
#
# Coordination Sequence:
#
# PCOD9346033 Si02
#       8
#     4   4   4   4   4   4   4   4
#     4  10  23  41  68  95 134 169 223 277 339 381
#     4  10  23  43  66  98 136 172 224 282 330 402
#     4  11  22  39  71  99 121 172 232 270 323 403
#     4  11  24  39  68  98 134 172 222 277 337 396
#     4  10  23  41  68  95 134 169 223 277 339 381
#     4  10  23  43  66  98 136 172 224 282 330 402
#     4  11  22  39  71  99 121 172 232 270 323 403
#     4  11  24  39  68  98 134 172 222 277 337 396
#
# _framework density 21.759564999999998
#
# number of rings (size 3 to 8) (size 9 to 14) (size 15 to 20)
#    0.000    1.500    2.500    1.500   10.500    0.000 
#    0.000    1.250    0.000    0.000    0.000    0.000 
#    0.000    0.000    0.000    0.000    0.000    0.000 
#
# Total GULP energy -178355.121788 kJ/mol
# GULP energy per Si atom -5573.597556 kJ/mol
# Density = 2.171004 g / cm^3
# Si number density = 21.759565 Si / 1000 Ang^3
#
#
#
# Elastic Constant Matrix: (Units=GPa)
#
#
# Indices 1 2 3 4 5 6 
#
# 1 52.8477 33.7606 8.0441 0.0000 0.0000 0.0000
# 2 33.7606 173.8472 19.1546 0.0000 0.0000 0.0000
# 3 8.0441 19.1546 42.6001 0.0000 0.0000 0.0000
# 4 0.0000 0.0000 0.0000 45.8695 0.0000 0.0000
# 5 0.0000 0.0000 0.0000 0.0000 23.1034 0.0000
# 6 0.0000 0.0000 0.0000 0.0000 0.0000 36.2228
#
#
#
# Elastic Compliance Matrix: (Units=1/GPa)
#
#
# Indices 1 2 3 4 5 6 
#
# 1 0.021820 -0.003981 -0.002330 0.000000 0.000000 0.000000
# 2 -0.003981 0.006778 -0.002296 0.000000 0.000000 0.000000
# 3 -0.002330 -0.002296 0.024947 0.000000 0.000000 0.000000
# 4 0.000000 0.000000 0.000000 0.021801 0.000000 0.000000
# 5 0.000000 0.000000 0.000000 0.000000 0.043284 0.000000
# 6 0.000000 0.000000 0.000000 0.000000 0.000000 0.027607
#
#
# Mechanical properties :
#
#
# Convention : Reuss Voigt Hill
#
# Bulk Modulus (GPa) = 27.52505 43.46818 35.49662
# Shear Modulus (GPa) = 28.48020 34.92820 31.70420
#
# Velocity S-wave (km/s) = 3.62174 4.01083 3.82124
# Velocity P-wave (km/s) = 5.49240 6.43964 5.98479
#
# Compressibility (1/GPa) = 0.03633054
#
# Stress axis : x y z
#
# Youngs Moduli (GPa) = 45.82969 147.53231 40.08565
#
# Poissons Ratio (x) = 0.58727 0.09342
# Poissons Ratio (y) = 0.18243 0.09204
# Poissons Ratio (z) = 0.10680 0.33874
#
# Static dielectric constant tensor:
#      x y z
#    x 1.925640 0.000000 0.000000 
#    y 0.000000 1.941060 0.000000 
#    z 0.000000 0.000000 1.837000 
# 
# From -- ./inp_files/6509.got.cif
#   From: 2010.05.17/outbox.cif.g08.bks.cpg/sg33_4_cif.got.tgz:6509.got - 2010.06.03 17:15:25.
