data_PCOD9346351
_publ_section_title
;
Structure prediction by ZEFSAII (Michael W. Deem and Ramdas Pophale) SiO2 
 PCOD9346351
Probable space group: P N A 21
;
_chemical_formula_sum "Si O2"
_cell_formula_units_Z 20
_cell_length_a 9.237682
_cell_length_b 5.737718
_cell_length_c 14.373491
_cell_angle_alpha 90.000000
_cell_angle_beta 90.000000
_cell_angle_gamma 90.000000
_cell_volume 761.841224
_symmetry_space_group_name_H-M "P N A 21"
_symmetry_group_IT_number 33
_symmetry_cell_setting 'orthorhombic'
loop_
_space_group_symop_operation_xyz
x,y,z
-x,-y,1/2+z
1/2-x,1/2+y,1/2+z
1/2+x,1/2-y,z
loop_
_atom_site_type_symbol
_atom_site_label
_atom_site_fract_x
_atom_site_fract_y
_atom_site_fract_z
Si Si1 0.798841 0.252149 0.334000
Si Si2 0.148495 0.413166 0.682466
Si Si3 0.942041 0.446659 0.833024
Si Si4 0.205540 0.060406 0.534821
Si Si5 0.024329 0.268785 0.036093
O O1 0.754695 0.426320 0.250347
O O2 0.724969 0.004300 0.317289
O O3 0.743499 0.330165 0.435445
O O4 0.970569 0.303265 0.333545
O O5 0.055754 0.576040 0.612977
O O6 0.027182 0.311367 0.753098
O O7 0.233361 0.235082 0.618609
O O8 0.971080 0.340020 0.933125
O O9 0.037480 0.990111 0.544809
O O10 0.307634 0.832552 0.542306
#
# Coordination Sequence:
#
# PCOD9346351 Si02
#       5
#     4   4   4   4   4
#     4   9  21  44  72 105 150 192 251 309 375 453
#     4  10  24  46  74 106 148 200 248 310 378 450
#     4   9  21  44  71 109 142 199 244 312 373 450
#     4  11  25  48  71 107 156 199 249 319 374 457
#     4  11  25  44  74 107 148 200 250 306 382 444
#
# _framework density 26.252189000000001
#
# number of rings (size 3 to 8) (size 9 to 14) (size 15 to 20)
#    1.200    0.800    2.000    0.000    2.800    4.800 
#    3.600    0.000    4.400    0.000    0.000    0.000 
#    0.000    0.000    0.000    0.000    0.000    0.000 
#
# Total GULP energy -111833.810003 kJ/mol
# GULP energy per Si atom -5591.690500 kJ/mol
# Density = 2.619244 g / cm^3
# Si number density = 26.252189 Si / 1000 Ang^3
#
#
#
# Elastic Constant Matrix: (Units=GPa)
#
#
# Indices 1 2 3 4 5 6 
#
# 1 99.3554 28.8938 39.5135 0.0000 0.0000 0.0000
# 2 28.8938 21.7693 40.4774 0.0000 0.0000 0.0000
# 3 39.5135 40.4774 214.1795 0.0000 0.0000 0.0000
# 4 0.0000 0.0000 0.0000 29.2942 0.0000 0.0000
# 5 0.0000 0.0000 0.0000 0.0000 32.6046 0.0000
# 6 0.0000 0.0000 0.0000 0.0000 0.0000 46.8868
#
#
#
# Elastic Compliance Matrix: (Units=1/GPa)
#
#
# Indices 1 2 3 4 5 6 
#
# 1 0.016792 -0.025482 0.001718 0.000000 0.000000 0.000000
# 2 -0.025482 0.109493 -0.015992 0.000000 0.000000 0.000000
# 3 0.001718 -0.015992 0.007374 0.000000 0.000000 0.000000
# 4 0.000000 0.000000 0.000000 0.034136 0.000000 0.000000
# 5 0.000000 0.000000 0.000000 0.000000 0.030671 0.000000
# 6 0.000000 0.000000 0.000000 0.000000 0.000000 0.021328
#
#
# Mechanical properties :
#
#
# Convention : Reuss Voigt Hill
#
# Bulk Modulus (GPa) = 18.46809 61.45262 39.96036
# Shear Modulus (GPa) = 15.75523 36.85174 26.30349
#
# Velocity S-wave (km/s) = 2.45245 3.75074 3.16880
# Velocity P-wave (km/s) = 3.88195 6.49745 5.35193
#
# Compressibility (1/GPa) = 0.05414745
#
# Stress axis : x y z
#
# Youngs Moduli (GPa) = 59.55156 9.13304 135.60597
#
# Poissons Ratio (x) = 0.23273 -0.23295
# Poissons Ratio (y) = 1.51749 2.16857
# Poissons Ratio (z) = -0.10230 0.14605
#
# Static dielectric constant tensor:
#      x y z
#    x 2.007960 0.000000 0.000000 
#    y 0.000000 2.067710 0.000000 
#    z 0.000000 0.000000 1.990480 
# 
# From -- ./inp_files/7803.got.cif
#   From: 2010.05.17/outbox.cif.g08.bks.cpg/sg33_4_cif.got.tgz:7803.got - 2010.06.03 17:15:25.
