data_PCOD9346102
_publ_section_title
;
Structure prediction by ZEFSAII (Michael W. Deem and Ramdas Pophale) SiO2 
 PCOD9346102
Probable space group: P N A 21
;
_chemical_formula_sum "Si O2"
_cell_formula_units_Z 28
_cell_length_a 23.923754
_cell_length_b 6.394671
_cell_length_c 7.750349
_cell_angle_alpha 90.000000
_cell_angle_beta 90.000000
_cell_angle_gamma 90.000000
_cell_volume 1185.683545
_symmetry_space_group_name_H-M "P N A 21"
_symmetry_group_IT_number 33
_symmetry_cell_setting 'orthorhombic'
loop_
_space_group_symop_operation_xyz
x,y,z
-x,-y,1/2+z
1/2-x,1/2+y,1/2+z
1/2+x,1/2-y,z
loop_
_atom_site_type_symbol
_atom_site_label
_atom_site_fract_x
_atom_site_fract_y
_atom_site_fract_z
Si Si1 0.773521 0.363134 0.633860
Si Si2 0.329860 0.395614 0.210702
Si Si3 0.463468 0.377142 0.684793
Si Si4 0.883613 0.847627 0.480971
Si Si5 0.184455 0.464278 0.769341
Si Si6 0.615235 0.002765 0.268035
Si Si7 0.922175 0.851512 0.009825
O O1 0.734660 0.555748 0.689866
O O2 0.788929 0.423380 0.438173
O O3 0.828547 0.365258 0.752652
O O4 0.732321 0.167739 0.672496
O O5 0.345685 0.464446 0.406326
O O6 0.339882 0.157286 0.166786
O O7 0.367856 0.531046 0.082214
O O8 0.439129 0.526810 0.532439
O O9 0.432415 0.152224 0.693241
O O10 0.528805 0.345292 0.651602
O O11 0.446861 0.504681 0.855738
O O12 0.867120 0.675948 0.336237
O O13 0.871031 0.706015 0.647696
O O14 0.593071 0.123092 0.436240
#
# Coordination Sequence:
#
# PCOD9346102 Si02
#       7
#     4   4   4   4   4   4   4
#     4  10  24  41  70 105 140 192 245 296 366 440
#     4  11  24  42  69 102 148 185 241 300 355 435
#     4  11  24  45  73 100 146 187 243 303 357 433
#     4   9  20  43  66 102 135 184 234 288 355 427
#     4  10  23  43  71 102 145 190 238 297 370 430
#     4  10  24  45  74 101 142 192 243 297 368 426
#     4  11  27  45  69 108 140 194 246 299 365 439
#
# _framework density 23.615071
#
# number of rings (size 3 to 8) (size 9 to 14) (size 15 to 20)
#    0.000    1.714    0.000    2.571    4.000   11.429 
#    0.000    1.429    0.000    0.000    0.000    0.000 
#    0.000    0.000    0.000    0.000    0.000    0.000 
#
# Total GULP energy -156187.077449 kJ/mol
# GULP energy per Si atom -5578.109909 kJ/mol
# Density = 2.356132 g / cm^3
# Si number density = 23.615071 Si / 1000 Ang^3
#
#
#
# Elastic Constant Matrix: (Units=GPa)
#
#
# Indices 1 2 3 4 5 6 
#
# 1 84.5251 21.2422 22.7832 0.0000 0.0000 0.0000
# 2 21.2422 131.6406 30.1192 0.0000 0.0000 0.0000
# 3 22.7832 30.1192 93.7931 0.0000 0.0000 0.0000
# 4 0.0000 0.0000 0.0000 26.4942 0.0000 0.0000
# 5 0.0000 0.0000 0.0000 0.0000 40.9731 0.0000
# 6 0.0000 0.0000 0.0000 0.0000 0.0000 17.0547
#
#
#
# Elastic Compliance Matrix: (Units=1/GPa)
#
#
# Indices 1 2 3 4 5 6 
#
# 1 0.012920 -0.001475 -0.002665 0.000000 0.000000 0.000000
# 2 -0.001475 0.008367 -0.002329 0.000000 0.000000 0.000000
# 3 -0.002665 -0.002329 0.012057 0.000000 0.000000 0.000000
# 4 0.000000 0.000000 0.000000 0.037744 0.000000 0.000000
# 5 0.000000 0.000000 0.000000 0.000000 0.024406 0.000000
# 6 0.000000 0.000000 0.000000 0.000000 0.000000 0.058635
#
#
# Mechanical properties :
#
#
# Convention : Reuss Voigt Hill
#
# Bulk Modulus (GPa) = 49.00259 50.91644 49.95951
# Shear Modulus (GPa) = 28.75741 32.62534 30.69138
#
# Velocity S-wave (km/s) = 3.49342 3.72095 3.60898
# Velocity P-wave (km/s) = 6.08832 6.32996 6.21032
#
# Compressibility (1/GPa) = 0.02040709
#
# Stress axis : x y z
#
# Youngs Moduli (GPa) = 77.40087 119.51344 82.94082
#
# Poissons Ratio (x) = 0.17630 0.22101
# Poissons Ratio (y) = 0.11418 0.19314
# Poissons Ratio (z) = 0.20624 0.27830
#
# Static dielectric constant tensor:
#      x y z
#    x 1.834410 0.000000 0.000000 
#    y 0.000000 1.927510 0.000000 
#    z 0.000000 0.000000 2.029110 
# 
# From -- ./inp_files/5148.got.cif
#   From: 2010.05.17/outbox.cif.g08.bks.cpg/sg33_3_cif.got.tgz:5148.got - 2010.06.03 17:15:25.
