data_PCOD9346823
_publ_section_title
;
Structure prediction by ZEFSAII (Michael W. Deem and Ramdas Pophale) SiO2 
 PCOD9346823
Probable space group: P N A 21
;
_chemical_formula_sum "Si O2"
_cell_formula_units_Z 24
_cell_length_a 9.402477
_cell_length_b 7.597544
_cell_length_c 16.969387
_cell_angle_alpha 90.000000
_cell_angle_beta 90.000000
_cell_angle_gamma 90.000000
_cell_volume 1212.220594
_symmetry_space_group_name_H-M "P N A 21"
_symmetry_group_IT_number 33
_symmetry_cell_setting 'orthorhombic'
loop_
_space_group_symop_operation_xyz
x,y,z
-x,-y,1/2+z
1/2-x,1/2+y,1/2+z
1/2+x,1/2-y,z
loop_
_atom_site_type_symbol
_atom_site_label
_atom_site_fract_x
_atom_site_fract_y
_atom_site_fract_z
Si Si1 0.294266 0.436591 0.968070
Si Si2 0.458479 0.071518 0.959062
Si Si3 0.589097 0.722483 0.749049
Si Si4 0.057632 0.445800 0.639648
Si Si5 0.222052 0.081882 0.645653
Si Si6 0.840048 0.745391 0.856291
O O1 0.380582 0.258385 0.954460
O O2 0.356774 0.593034 0.915452
O O3 0.127855 0.409660 0.947729
O O4 0.300927 0.500818 0.058504
O O5 0.393411 0.932628 0.897472
O O6 0.435082 0.998875 0.047705
O O7 0.644786 0.550575 0.705072
O O8 0.677039 0.735798 0.829938
O O9 0.426345 0.718311 0.776188
O O10 0.608218 0.891648 0.693265
O O11 0.151882 0.273134 0.651850
O O12 0.891626 0.410094 0.659109
#
# Coordination Sequence:
#
# PCOD9346823 Si02
#       6
#     4   4   4   4   4   4
#     4  11  25  44  71 101 134 181 228 278 337 407
#     4  11  25  44  71 102 134 180 231 272 339 410
#     4  12  26  46  66 103 143 174 221 285 345 395
#     4  11  25  44  71 102 134 180 231 272 339 410
#     4  11  25  44  71 101 134 181 228 278 337 407
#     4  12  26  46  66 103 143 174 221 285 345 395
#
# _framework density 19.798376999999999
#
# number of rings (size 3 to 8) (size 9 to 14) (size 15 to 20)
#    0.000    0.667    6.667    0.000    4.667    4.000 
#    0.000    0.000    0.000    0.000    0.000    0.000 
#    0.000    0.000    0.000    0.000    0.000    0.000 
#
# Total GULP energy -134239.229202 kJ/mol
# GULP energy per Si atom -5593.301217 kJ/mol
# Density = 1.975332 g / cm^3
# Si number density = 19.798377 Si / 1000 Ang^3
#
#
#
# Elastic Constant Matrix: (Units=GPa)
#
#
# Indices 1 2 3 4 5 6 
#
# 1 35.5525 9.3209 -1.5582 0.0000 0.0000 0.0000
# 2 9.3209 81.6614 0.9294 0.0000 0.0000 0.0000
# 3 -1.5582 0.9294 41.3798 0.0000 0.0000 0.0000
# 4 0.0000 0.0000 0.0000 43.2621 0.0000 0.0000
# 5 0.0000 0.0000 0.0000 0.0000 37.6764 0.0000
# 6 0.0000 0.0000 0.0000 0.0000 0.0000 38.9288
#
#
#
# Elastic Compliance Matrix: (Units=1/GPa)
#
#
# Indices 1 2 3 4 5 6 
#
# 1 0.029051 -0.003329 0.001169 0.000000 0.000000 0.000000
# 2 -0.003329 0.012630 -0.000409 0.000000 0.000000 0.000000
# 3 0.001169 -0.000409 0.024220 0.000000 0.000000 0.000000
# 4 0.000000 0.000000 0.000000 0.023115 0.000000 0.000000
# 5 0.000000 0.000000 0.000000 0.000000 0.026542 0.000000
# 6 0.000000 0.000000 0.000000 0.000000 0.000000 0.025688
#
#
# Mechanical properties :
#
#
# Convention : Reuss Voigt Hill
#
# Bulk Modulus (GPa) = 16.45758 19.55309 18.00533
# Shear Modulus (GPa) = 30.00495 33.96691 31.98593
#
# Velocity S-wave (km/s) = 3.89720 4.14652 4.02379
# Velocity P-wave (km/s) = 5.34617 5.72909 5.54094
#
# Compressibility (1/GPa) = 0.06076228
#
# Stress axis : x y z
#
# Youngs Moduli (GPa) = 34.42168 79.17439 41.28894
#
# Poissons Ratio (x) = 0.26359 -0.04826
# Poissons Ratio (y) = 0.11460 0.01689
# Poissons Ratio (z) = -0.04023 0.03239
#
# Static dielectric constant tensor:
#      x y z
#    x 1.665790 0.000000 0.000000 
#    y 0.000000 1.634770 0.000000 
#    z 0.000000 0.000000 1.696780 
# 
# From -- ./inp_files/7870.got.cif
#   From: 2010.05.17/outbox.cif.g08.bks.cpg/sg33_4_cif.got.tgz:7870.got - 2010.06.03 17:15:25.
