data_PCOD9346403
_publ_section_title
;
Structure prediction by ZEFSAII (Michael W. Deem and Ramdas Pophale) SiO2 
 PCOD9346403
Probable space group: P N A 21
;
_chemical_formula_sum "Si O2"
_cell_formula_units_Z 28
_cell_length_a 23.637435
_cell_length_b 5.278711
_cell_length_c 9.592897
_cell_angle_alpha 90.000000
_cell_angle_beta 90.000000
_cell_angle_gamma 90.000000
_cell_volume 1196.955528
_symmetry_space_group_name_H-M "P N A 21"
_symmetry_group_IT_number 33
_symmetry_cell_setting 'orthorhombic'
loop_
_space_group_symop_operation_xyz
x,y,z
-x,-y,1/2+z
1/2-x,1/2+y,1/2+z
1/2+x,1/2-y,z
loop_
_atom_site_type_symbol
_atom_site_label
_atom_site_fract_x
_atom_site_fract_y
_atom_site_fract_z
Si Si1 0.203554 0.684178 0.323610
Si Si2 0.339432 0.692313 0.771263
Si Si3 0.481508 0.884279 0.359749
Si Si4 0.389817 0.939951 0.129007
Si Si5 0.443499 0.457397 0.014227
Si Si6 0.756819 0.502590 0.101834
Si Si7 0.459192 0.722916 0.661531
O O1 0.154536 0.478416 0.320567
O O2 0.245029 0.564998 0.438801
O O3 0.228153 0.750710 0.171567
O O4 0.177810 0.956108 0.369482
O O5 0.281952 0.704102 0.678776
O O6 0.395668 0.632900 0.687050
O O7 0.424187 0.863435 0.269086
O O8 0.462723 0.904956 0.522523
O O9 0.527021 0.652978 0.375180
O O10 0.514794 0.117430 0.289484
O O11 0.407043 0.710273 0.024727
O O12 0.322528 0.973115 0.142644
O O13 0.412436 0.213111 0.079901
O O14 0.498506 0.496549 0.111033
#
# Coordination Sequence:
#
# PCOD9346403 Si02
#       7
#     4   4   4   4   4   4   4
#     4  10  26  43  71 104 146 194 255 306 387 461
#     4  10  25  44  73 105 147 198 245 325 375 471
#     4   9  22  45  71 110 141 201 240 317 377 456
#     4  11  23  44  70 103 143 189 243 314 364 465
#     4   9  24  41  68 101 140 188 239 298 376 437
#     4  10  27  47  71 110 145 203 252 312 394 457
#     4   9  21  46  70 109 152 189 260 306 391 453
#
# _framework density 23.392679999999999
#
# number of rings (size 3 to 8) (size 9 to 14) (size 15 to 20)
#    1.714    0.571    0.000    0.000    8.000    4.571 
#    0.000    0.000    0.000    0.000    0.000    0.000 
#    0.000    0.000    0.000    0.000    0.000    0.000 
#
# Total GULP energy -155875.833520 kJ/mol
# GULP energy per Si atom -5566.994054 kJ/mol
# Density = 2.333944 g / cm^3
# Si number density = 23.392680 Si / 1000 Ang^3
#
#
#
# Elastic Constant Matrix: (Units=GPa)
#
#
# Indices 1 2 3 4 5 6 
#
# 1 102.8002 30.3030 20.3825 0.0000 0.0000 0.0000
# 2 30.3030 110.1521 29.4917 0.0000 0.0000 0.0000
# 3 20.3825 29.4917 86.3429 0.0000 0.0000 0.0000
# 4 0.0000 0.0000 0.0000 37.1900 0.0000 0.0000
# 5 0.0000 0.0000 0.0000 0.0000 44.6106 0.0000
# 6 0.0000 0.0000 0.0000 0.0000 0.0000 30.9771
#
#
#
# Elastic Compliance Matrix: (Units=1/GPa)
#
#
# Indices 1 2 3 4 5 6 
#
# 1 0.010806 -0.002520 -0.001690 0.000000 0.000000 0.000000
# 2 -0.002520 0.010580 -0.003019 0.000000 0.000000 0.000000
# 3 -0.001690 -0.003019 0.013012 0.000000 0.000000 0.000000
# 4 0.000000 0.000000 0.000000 0.026889 0.000000 0.000000
# 5 0.000000 0.000000 0.000000 0.000000 0.022416 0.000000
# 6 0.000000 0.000000 0.000000 0.000000 0.000000 0.032282
#
#
# Mechanical properties :
#
#
# Convention : Reuss Voigt Hill
#
# Bulk Modulus (GPa) = 50.15216 51.07219 50.61218
# Shear Modulus (GPa) = 36.47271 37.16339 36.81805
#
# Velocity S-wave (km/s) = 3.95289 3.99014 3.97156
# Velocity P-wave (km/s) = 6.50535 6.56569 6.53559
#
# Compressibility (1/GPa) = 0.01993932
#
# Stress axis : x y z
#
# Youngs Moduli (GPa) = 92.54488 94.51883 76.85328
#
# Poissons Ratio (x) = 0.23820 0.12988
# Poissons Ratio (y) = 0.23323 0.23201
# Poissons Ratio (z) = 0.15640 0.28533
#
# Static dielectric constant tensor:
#      x y z
#    x 1.934120 0.000000 0.000000 
#    y 0.000000 1.949440 0.000000 
#    z 0.000000 0.000000 2.046730 
# 
# From -- ./inp_files/7297.got.cif
#   From: 2010.05.17/outbox.cif.g08.bks.cpg/sg33_4_cif.got.tgz:7297.got - 2010.06.03 17:15:25.
