data_PCOD9346812
_publ_section_title
;
Structure prediction by ZEFSAII (Michael W. Deem and Ramdas Pophale) SiO2 
 PCOD9346812
Probable space group: P N A 21
;
_chemical_formula_sum "Si O2"
_cell_formula_units_Z 16
_cell_length_a 9.480244
_cell_length_b 5.776568
_cell_length_c 10.900768
_cell_angle_alpha 90.000000
_cell_angle_beta 90.000000
_cell_angle_gamma 90.000000
_cell_volume 596.961746
_symmetry_space_group_name_H-M "P N A 21"
_symmetry_group_IT_number 33
_symmetry_cell_setting 'orthorhombic'
loop_
_space_group_symop_operation_xyz
x,y,z
-x,-y,1/2+z
1/2-x,1/2+y,1/2+z
1/2+x,1/2-y,z
loop_
_atom_site_type_symbol
_atom_site_label
_atom_site_fract_x
_atom_site_fract_y
_atom_site_fract_z
Si Si1 0.087516 0.554993 0.887590
Si Si2 0.173872 0.690173 0.451707
Si Si3 0.326128 0.309828 0.620957
Si Si4 0.587516 0.554992 0.685074
O O1 0.209644 0.363386 0.897608
O O2 0.118213 0.750001 0.786332
O O3 0.935186 0.443360 0.864652
O O4 0.081629 0.664398 0.023371
O O5 0.250000 0.500002 0.536333
O O6 0.081629 0.835602 0.549293
O O7 0.435186 0.443359 0.708013
O O8 0.209643 0.136615 0.675056
#
# Coordination Sequence:
#
# PCOD9346812 Si02
#       4
#     4   4   4   4
#     4  11  26  51  84 118 165 221 277 350 422 493
#     4  11  24  52  79 122 165 213 285 346 408 509
#     4  11  24  52  79 122 165 213 285 346 408 509
#     4  11  26  51  84 118 165 221 277 350 422 493
#
# _framework density 26.802387
#
# number of rings (size 3 to 8) (size 9 to 14) (size 15 to 20)
#    0.000    1.000    5.000    0.000    0.000    4.000 
#    9.000    2.500    0.000    0.000    0.000    0.000 
#    0.000    0.000    0.000    0.000    0.000    0.000 
#
# Total GULP energy -89851.155664 kJ/mol
# GULP energy per Si atom -5615.697229 kJ/mol
# Density = 2.674138 g / cm^3
# Si number density = 26.802387 Si / 1000 Ang^3
#
#
#
# Elastic Constant Matrix: (Units=GPa)
#
#
# Indices 1 2 3 4 5 6 
#
# 1 205.2295 114.0932 41.1568 0.0000 0.0000 0.0000
# 2 114.0932 201.2126 62.3683 0.0000 0.0000 0.0000
# 3 41.1568 62.3683 87.6613 0.0000 0.0000 0.0000
# 4 0.0000 0.0000 0.0000 98.1201 0.0000 0.0000
# 5 0.0000 0.0000 0.0000 0.0000 40.3511 0.0000
# 6 0.0000 0.0000 0.0000 0.0000 0.0000 69.3964
#
#
#
# Elastic Compliance Matrix: (Units=1/GPa)
#
#
# Indices 1 2 3 4 5 6 
#
# 1 0.007141 -0.003861 -0.000605 0.000000 0.000000 0.000000
# 2 -0.003861 0.008464 -0.004209 0.000000 0.000000 0.000000
# 3 -0.000605 -0.004209 0.014686 0.000000 0.000000 0.000000
# 4 0.000000 0.000000 0.000000 0.010192 0.000000 0.000000
# 5 0.000000 0.000000 0.000000 0.000000 0.024782 0.000000
# 6 0.000000 0.000000 0.000000 0.000000 0.000000 0.014410
#
#
# Mechanical properties :
#
#
# Convention : Reuss Voigt Hill
#
# Bulk Modulus (GPa) = 77.28157 103.25998 90.27078
# Shear Modulus (GPa) = 49.33923 60.00585 54.67254
#
# Velocity S-wave (km/s) = 4.29517 4.73676 4.52136
# Velocity P-wave (km/s) = 7.31399 8.27803 7.81090
#
# Compressibility (1/GPa) = 0.01293970
#
# Stress axis : x y z
#
# Youngs Moduli (GPa) = 140.04447 118.14812 68.09074
#
# Poissons Ratio (x) = 0.45620 0.04122
# Poissons Ratio (y) = 0.54075 0.28659
# Poissons Ratio (z) = 0.08477 0.49728
#
# Static dielectric constant tensor:
#      x y z
#    x 2.004680 0.000000 0.000000 
#    y 0.000000 2.122930 0.000000 
#    z 0.000000 0.000000 2.245440 
# 
# From -- ./inp_files/267.got.cif
#   From: 2010.05.17/outbox.cif.g08.bks.cpg/sg33_1_cif.got.tgz:267.got - 2010.06.03 17:15:25.
