data_PCOD9346069
_publ_section_title
;
Structure prediction by ZEFSAII (Michael W. Deem and Ramdas Pophale) SiO2 
 PCOD9346069
Probable space group: P N A 21
;
_chemical_formula_sum "Si O2"
_cell_formula_units_Z 16
_cell_length_a 9.428915
_cell_length_b 13.217487
_cell_length_c 4.894968
_cell_angle_alpha 90.000000
_cell_angle_beta 90.000000
_cell_angle_gamma 90.000000
_cell_volume 610.043030
_symmetry_space_group_name_H-M "P N A 21"
_symmetry_group_IT_number 33
_symmetry_cell_setting 'orthorhombic'
loop_
_space_group_symop_operation_xyz
x,y,z
-x,-y,1/2+z
1/2-x,1/2+y,1/2+z
1/2+x,1/2-y,z
loop_
_atom_site_type_symbol
_atom_site_label
_atom_site_fract_x
_atom_site_fract_y
_atom_site_fract_z
Si Si1 0.077064 0.794790 0.656460
Si Si2 0.691051 0.594563 0.169800
Si Si3 0.592527 0.005998 0.040407
Si Si4 0.217354 0.130305 0.255304
O O1 0.174466 0.849253 0.885584
O O2 0.153634 0.688209 0.611312
O O3 0.918713 0.798934 0.773651
O O4 0.078792 0.855246 0.374312
O O5 0.832491 0.594829 0.361905
O O6 0.666818 0.475460 0.123894
O O7 0.708104 0.915455 0.027242
O O8 0.462170 0.974566 0.841909
#
# Coordination Sequence:
#
# PCOD9346069 Si02
#       4
#     4   4   4   4
#     4  12  25  46  69 104 135 186 225 286 344 401
#     4  10  26  43  72  94 145 174 229 280 345 396
#     4  10  23  42  71  97 137 174 224 277 346 394
#     4  10  28  43  74 101 141 176 236 277 343 411
#
# _framework density 26.227661000000001
#
# number of rings (size 3 to 8) (size 9 to 14) (size 15 to 20)
#    1.500    0.000    0.000    3.000    7.000    8.000 
#    0.000    0.000    0.000    0.000    0.000    0.000 
#    0.000    0.000    0.000    0.000    0.000    0.000 
#
# Total GULP energy -89353.997147 kJ/mol
# GULP energy per Si atom -5584.624822 kJ/mol
# Density = 2.616797 g / cm^3
# Si number density = 26.227661 Si / 1000 Ang^3
#
#
#
# Elastic Constant Matrix: (Units=GPa)
#
#
# Indices 1 2 3 4 5 6 
#
# 1 86.1445 32.0683 13.6241 0.0000 0.0000 0.0000
# 2 32.0683 115.7856 31.8325 0.0000 0.0000 0.0000
# 3 13.6241 31.8325 157.6488 0.0000 0.0000 0.0000
# 4 0.0000 0.0000 0.0000 18.9641 0.0000 0.0000
# 5 0.0000 0.0000 0.0000 0.0000 25.0334 0.0000
# 6 0.0000 0.0000 0.0000 0.0000 0.0000 33.4817
#
#
#
# Elastic Compliance Matrix: (Units=1/GPa)
#
#
# Indices 1 2 3 4 5 6 
#
# 1 0.012969 -0.003477 -0.000419 0.000000 0.000000 0.000000
# 2 -0.003477 0.010076 -0.001734 0.000000 0.000000 0.000000
# 3 -0.000419 -0.001734 0.006730 0.000000 0.000000 0.000000
# 4 0.000000 0.000000 0.000000 0.052731 0.000000 0.000000
# 5 0.000000 0.000000 0.000000 0.000000 0.039947 0.000000
# 6 0.000000 0.000000 0.000000 0.000000 0.000000 0.029867
#
#
# Mechanical properties :
#
#
# Convention : Reuss Voigt Hill
#
# Bulk Modulus (GPa) = 54.00893 57.18098 55.59495
# Shear Modulus (GPa) = 29.45491 34.29943 31.87717
#
# Velocity S-wave (km/s) = 3.35483 3.62022 3.49004
# Velocity P-wave (km/s) = 5.97022 6.27086 6.12239
#
# Compressibility (1/GPa) = 0.01851546
#
# Stress axis : x y z
#
# Youngs Moduli (GPa) = 77.10754 99.24227 148.59807
#
# Poissons Ratio (x) = 0.34504 0.06222
# Poissons Ratio (y) = 0.26809 0.25769
# Poissons Ratio (z) = 0.03229 0.17210
#
# Static dielectric constant tensor:
#      x y z
#    x 2.136490 0.000000 0.000000 
#    y 0.000000 2.135530 0.000000 
#    z 0.000000 0.000000 1.952520 
# 
# From -- ./inp_files/297.got.cif
#   From: 2010.05.17/outbox.cif.g08.bks.cpg/sg33_1_cif.got.tgz:297.got - 2010.06.03 17:15:25.
