data_PCOD9346064
_publ_section_title
;
Structure prediction by ZEFSAII (Michael W. Deem and Ramdas Pophale) SiO2 
 PCOD9346064
Probable space group: P N A 21
;
_chemical_formula_sum "Si O2"
_cell_formula_units_Z 32
_cell_length_a 15.069743
_cell_length_b 15.957707
_cell_length_c 4.884234
_cell_angle_alpha 90.000000
_cell_angle_beta 90.000000
_cell_angle_gamma 90.000000
_cell_volume 1174.553478
_symmetry_space_group_name_H-M "P N A 21"
_symmetry_group_IT_number 33
_symmetry_cell_setting 'orthorhombic'
loop_
_space_group_symop_operation_xyz
x,y,z
-x,-y,1/2+z
1/2-x,1/2+y,1/2+z
1/2+x,1/2-y,z
loop_
_atom_site_type_symbol
_atom_site_label
_atom_site_fract_x
_atom_site_fract_y
_atom_site_fract_z
Si Si1 0.453723 0.899118 0.724670
Si Si2 0.116432 0.490591 0.726633
Si Si3 0.053314 0.259721 0.793016
Si Si4 0.373743 0.261668 0.502064
Si Si5 0.370817 0.381254 0.010704
Si Si6 0.557016 0.414830 0.081964
Si Si7 0.785816 0.995408 0.370308
Si Si8 0.306846 0.670183 0.015069
O O1 0.396942 0.965021 0.539921
O O2 0.439412 0.812597 0.569819
O O3 0.554911 0.928500 0.681995
O O4 0.426473 0.917580 0.035539
O O5 0.212325 0.501823 0.602694
O O6 0.047233 0.160576 0.862140
O O7 0.147017 0.253616 0.637905
O O8 0.963119 0.279709 0.626242
O O9 0.349655 0.332859 0.730241
O O10 0.290636 0.202638 0.428696
O O11 0.398320 0.308322 0.224065
O O12 0.454970 0.443797 0.050687
O O13 0.289423 0.429807 0.152025
O O14 0.619625 0.492936 0.021797
O O15 0.618225 0.367759 0.311031
O O16 0.783157 0.905700 0.220503
#
# Coordination Sequence:
#
# PCOD9346064 Si02
#       8
#     4   4   4   4   4   4   4   4
#     4  10  23  42  69  92 143 169 229 275 354 405
#     4  10  24  43  63 106 126 184 219 283 342 415
#     4  10  23  44  66  98 133 183 222 294 341 415
#     4  11  26  46  70 103 140 181 242 287 356 412
#     4  11  27  46  71 102 140 187 232 294 348 420
#     4  10  25  45  68 101 139 184 237 282 360 410
#     4  11  27  42  71  99 143 178 240 283 350 415
#     4  11  25  44  70 101 134 186 231 288 349 418
#
# _framework density 27.244396999999999
#
# number of rings (size 3 to 8) (size 9 to 14) (size 15 to 20)
#    0.000    1.500    1.250    0.750   14.000    0.000 
#    2.250    0.000    0.000    0.000    0.000    0.000 
#    0.000    0.000    0.000    0.000    0.000    0.000 
#
# Total GULP energy -179021.667948 kJ/mol
# GULP energy per Si atom -5594.427123 kJ/mol
# Density = 2.718239 g / cm^3
# Si number density = 27.244397 Si / 1000 Ang^3
#
#
#
# Elastic Constant Matrix: (Units=GPa)
#
#
# Indices 1 2 3 4 5 6 
#
# 1 140.6458 2.3688 19.5582 0.0000 0.0000 0.0000
# 2 2.3688 70.1980 4.9877 0.0000 0.0000 0.0000
# 3 19.5582 4.9877 97.8762 0.0000 0.0000 0.0000
# 4 0.0000 0.0000 0.0000 46.9429 0.0000 0.0000
# 5 0.0000 0.0000 0.0000 0.0000 41.9160 0.0000
# 6 0.0000 0.0000 0.0000 0.0000 0.0000 36.8529
#
#
#
# Elastic Compliance Matrix: (Units=1/GPa)
#
#
# Indices 1 2 3 4 5 6 
#
# 1 0.007315 -0.000143 -0.001454 0.000000 0.000000 0.000000
# 2 -0.000143 0.014300 -0.000700 0.000000 0.000000 0.000000
# 3 -0.001454 -0.000700 0.010543 0.000000 0.000000 0.000000
# 4 0.000000 0.000000 0.000000 0.021302 0.000000 0.000000
# 5 0.000000 0.000000 0.000000 0.000000 0.023857 0.000000
# 6 0.000000 0.000000 0.000000 0.000000 0.000000 0.027135
#
#
# Mechanical properties :
#
#
# Convention : Reuss Voigt Hill
#
# Bulk Modulus (GPa) = 36.28156 40.28325 38.28240
# Shear Modulus (GPa) = 42.28839 43.92940 43.10889
#
# Velocity S-wave (km/s) = 3.94405 4.01985 3.98213
# Velocity P-wave (km/s) = 5.83838 6.03022 5.93508
#
# Compressibility (1/GPa) = 0.02756221
#
# Stress axis : x y z
#
# Youngs Moduli (GPa) = 136.71063 69.93010 94.84717
#
# Poissons Ratio (x) = 0.01003 0.13794
# Poissons Ratio (y) = 0.01962 0.06640
# Poissons Ratio (z) = 0.19883 0.04895
#
# Static dielectric constant tensor:
#      x y z
#    x 2.260850 0.000000 0.000000 
#    y 0.000000 2.153310 0.000000 
#    z 0.000000 0.000000 2.230650 
# 
# From -- ./inp_files/1483.got.cif
#   From: 2010.05.17/outbox.cif.g08.bks.cpg/sg33_1_cif.got.tgz:1483.got - 2010.06.03 17:15:25.
