data_PCOD9346311
_publ_section_title
;
Structure prediction by ZEFSAII (Michael W. Deem and Ramdas Pophale) SiO2 
 PCOD9346311
Probable space group: P N A 21
;
_chemical_formula_sum "Si O2"
_cell_formula_units_Z 20
_cell_length_a 19.599157
_cell_length_b 6.886318
_cell_length_c 6.355265
_cell_angle_alpha 90.000000
_cell_angle_beta 90.000000
_cell_angle_gamma 90.000000
_cell_volume 857.744872
_symmetry_space_group_name_H-M "P N A 21"
_symmetry_group_IT_number 33
_symmetry_cell_setting 'orthorhombic'
loop_
_space_group_symop_operation_xyz
x,y,z
-x,-y,1/2+z
1/2-x,1/2+y,1/2+z
1/2+x,1/2-y,z
loop_
_atom_site_type_symbol
_atom_site_label
_atom_site_fract_x
_atom_site_fract_y
_atom_site_fract_z
Si Si1 0.548597 0.206139 0.816480
Si Si2 0.846312 0.027772 0.243543
Si Si3 0.839316 0.608622 0.619451
Si Si4 0.248892 0.180652 0.423704
Si Si5 0.903144 0.382220 0.978277
O O1 0.583470 0.416033 0.788511
O O2 0.468359 0.200557 0.852609
O O3 0.570154 0.055065 0.632314
O O4 0.585852 0.143891 0.032207
O O5 0.799695 0.133425 0.420367
O O6 0.867311 0.209624 0.101613
O O7 0.800713 0.869705 0.118457
O O8 0.798208 0.786666 0.719381
O O9 0.797306 0.507233 0.433865
O O10 0.848764 0.466181 0.815220
#
# Coordination Sequence:
#
# PCOD9346311 Si02
#       5
#     4   4   4   4   4
#     4  12  26  47  73 105 144 188 244 298 354 423
#     4  11  26  44  72 110 140 191 236 294 364 421
#     4  11  24  44  72 102 146 183 236 300 350 419
#     4  10  24  44  72 108 142 188 238 290 358 438
#     4  12  26  47  73 105 144 188 244 298 354 423
#
# _framework density 23.316956999999999
#
# number of rings (size 3 to 8) (size 9 to 14) (size 15 to 20)
#    0.000    0.800    6.000    0.000    0.000   16.000 
#    0.000    0.000    0.000    0.000    0.000    0.000 
#    0.000    0.000    0.000    0.000    0.000    0.000 
#
# Total GULP energy -111706.867668 kJ/mol
# GULP energy per Si atom -5585.343383 kJ/mol
# Density = 2.326389 g / cm^3
# Si number density = 23.316957 Si / 1000 Ang^3
#
#
#
# Elastic Constant Matrix: (Units=GPa)
#
#
# Indices 1 2 3 4 5 6 
#
# 1 103.4634 22.8867 18.3560 0.0000 0.0000 0.0000
# 2 22.8867 96.6683 52.7648 0.0000 0.0000 0.0000
# 3 18.3560 52.7648 39.5256 0.0000 0.0000 0.0000
# 4 0.0000 0.0000 0.0000 60.0946 0.0000 0.0000
# 5 0.0000 0.0000 0.0000 0.0000 148.7377 0.0000
# 6 0.0000 0.0000 0.0000 0.0000 0.0000 56.2631
#
#
#
# Elastic Compliance Matrix: (Units=1/GPa)
#
#
# Indices 1 2 3 4 5 6 
#
# 1 0.010544 0.000650 -0.005765 0.000000 0.000000 0.000000
# 2 0.000650 0.038164 -0.051250 0.000000 0.000000 0.000000
# 3 -0.005765 -0.051250 0.096393 0.000000 0.000000 0.000000
# 4 0.000000 0.000000 0.000000 0.016640 0.000000 0.000000
# 5 0.000000 0.000000 0.000000 0.000000 0.006723 0.000000
# 6 0.000000 0.000000 0.000000 0.000000 0.000000 0.017774
#
#
# Mechanical properties :
#
#
# Convention : Reuss Voigt Hill
#
# Bulk Modulus (GPa) = 30.88973 47.51914 39.20443
# Shear Modulus (GPa) = 16.14157 62.72908 39.43533
#
# Velocity S-wave (km/s) = 2.63395 5.19242 4.11697
# Velocity P-wave (km/s) = 4.74624 7.50814 6.28088
#
# Compressibility (1/GPa) = 0.03237322
#
# Stress axis : x y z
#
# Youngs Moduli (GPa) = 94.83894 26.20237 10.37416
#
# Poissons Ratio (x) = -0.01704 0.05981
# Poissons Ratio (y) = -0.06167 0.53167
# Poissons Ratio (z) = 0.54674 1.34287
#
# Static dielectric constant tensor:
#      x y z
#    x 1.772110 0.000000 0.000000 
#    y 0.000000 1.913650 0.000000 
#    z 0.000000 0.000000 1.903110 
# 
# From -- ./inp_files/1937.got.cif
#   From: 2010.05.17/outbox.cif.g08.bks.cpg/sg33_1_cif.got.tgz:1937.got - 2010.06.03 17:15:25.
