data_PCOD9346966
_publ_section_title
;
Structure prediction by ZEFSAII (Michael W. Deem and Ramdas Pophale) SiO2 
 PCOD9346966
Probable space group: P N A 21
;
_chemical_formula_sum "Si O2"
_cell_formula_units_Z 16
_cell_length_a 19.113196
_cell_length_b 7.632467
_cell_length_c 4.915382
_cell_angle_alpha 90.000000
_cell_angle_beta 90.000000
_cell_angle_gamma 90.000000
_cell_volume 717.060044
_symmetry_space_group_name_H-M "P N A 21"
_symmetry_group_IT_number 33
_symmetry_cell_setting 'orthorhombic'
loop_
_space_group_symop_operation_xyz
x,y,z
-x,-y,1/2+z
1/2-x,1/2+y,1/2+z
1/2+x,1/2-y,z
loop_
_atom_site_type_symbol
_atom_site_label
_atom_site_fract_x
_atom_site_fract_y
_atom_site_fract_z
Si Si1 0.687148 0.639699 0.420840
Si Si2 0.042966 0.445103 0.711330
Si Si3 0.543730 0.445948 0.495537
Si Si4 0.684901 0.880078 0.917210
O O1 0.615176 0.533187 0.395338
O O2 0.693402 0.711693 0.725416
O O3 0.752378 0.514302 0.364420
O O4 0.685869 0.806673 0.222306
O O5 0.055729 0.249109 0.606143
O O6 0.112173 0.529152 0.838040
O O7 0.014518 0.551283 0.450982
O O8 0.489545 0.446910 0.246127
#
# Coordination Sequence:
#
# PCOD9346966 Si02
#       4
#     4   4   4   4
#     4  12  26  46  69  99 135 177 223 274 331 395
#     4  12  25  44  69  99 134 175 221 274 332 395
#     4  12  25  44  69  99 134 175 221 274 332 395
#     4  12  26  46  69  99 135 177 223 274 331 395
#
# _framework density 22.313334000000001
#
# number of rings (size 3 to 8) (size 9 to 14) (size 15 to 20)
#    0.000    0.000    0.000   12.000    0.000    4.000 
#    0.000    0.000    0.000    0.000    0.000    0.000 
#    0.000    0.000    0.000    0.000    0.000    0.000 
#
# Total GULP energy -89759.738403 kJ/mol
# GULP energy per Si atom -5609.983650 kJ/mol
# Density = 2.226255 g / cm^3
# Si number density = 22.313334 Si / 1000 Ang^3
#
#
#
# Elastic Constant Matrix: (Units=GPa)
#
#
# Indices 1 2 3 4 5 6 
#
# 1 148.1584 46.4023 19.3225 0.0000 0.0000 0.0000
# 2 46.4023 92.7721 -3.8871 0.0000 0.0000 0.0000
# 3 19.3225 -3.8871 83.4348 0.0000 0.0000 0.0000
# 4 0.0000 0.0000 0.0000 56.4147 0.0000 0.0000
# 5 0.0000 0.0000 0.0000 0.0000 33.3223 0.0000
# 6 0.0000 0.0000 0.0000 0.0000 0.0000 38.6782
#
#
#
# Elastic Compliance Matrix: (Units=1/GPa)
#
#
# Indices 1 2 3 4 5 6 
#
# 1 0.008367 -0.004274 -0.002137 0.000000 0.000000 0.000000
# 2 -0.004274 0.012984 0.001595 0.000000 0.000000 0.000000
# 3 -0.002137 0.001595 0.012555 0.000000 0.000000 0.000000
# 4 0.000000 0.000000 0.000000 0.017726 0.000000 0.000000
# 5 0.000000 0.000000 0.000000 0.000000 0.030010 0.000000
# 6 0.000000 0.000000 0.000000 0.000000 0.000000 0.025854
#
#
# Mechanical properties :
#
#
# Convention : Reuss Voigt Hill
#
# Bulk Modulus (GPa) = 41.19895 49.78231 45.49063
# Shear Modulus (GPa) = 39.92992 43.18488 41.55740
#
# Velocity S-wave (km/s) = 4.23485 4.40407 4.32029
# Velocity P-wave (km/s) = 6.51274 6.94407 6.73186
#
# Compressibility (1/GPa) = 0.02427246
#
# Stress axis : x y z
#
# Youngs Moduli (GPa) = 119.51784 77.01835 79.65227
#
# Poissons Ratio (x) = 0.32921 0.17020
# Poissons Ratio (y) = 0.51088 -0.12703
# Poissons Ratio (z) = 0.25539 -0.12283
#
# Static dielectric constant tensor:
#      x y z
#    x 1.788610 0.000000 0.000000 
#    y 0.000000 1.724380 0.000000 
#    z 0.000000 0.000000 1.774150 
# 
# From -- ./inp_files/1604.got.cif
#   From: 2010.05.17/outbox.cif.g08.bks.cpg/sg33_1_cif.got.tgz:1604.got - 2010.06.03 17:15:25.
