data_PCOD9346458
_publ_section_title
;
Structure prediction by ZEFSAII (Michael W. Deem and Ramdas Pophale) SiO2 
 PCOD9346458
Probable space group: P N A 21
;
_chemical_formula_sum "Si O2"
_cell_formula_units_Z 16
_cell_length_a 8.099664
_cell_length_b 4.919755
_cell_length_c 13.850977
_cell_angle_alpha 90.000000
_cell_angle_beta 90.000000
_cell_angle_gamma 90.000000
_cell_volume 551.938752
_symmetry_space_group_name_H-M "P N A 21"
_symmetry_group_IT_number 33
_symmetry_cell_setting 'orthorhombic'
loop_
_space_group_symop_operation_xyz
x,y,z
-x,-y,1/2+z
1/2-x,1/2+y,1/2+z
1/2+x,1/2-y,z
loop_
_atom_site_type_symbol
_atom_site_label
_atom_site_fract_x
_atom_site_fract_y
_atom_site_fract_z
Si Si1 0.381514 0.456786 0.777820
Si Si2 0.935209 0.782080 0.545073
Si Si3 0.654926 0.047249 0.415541
Si Si4 0.701916 0.444029 0.663730
O O1 0.356388 0.861377 0.640622
O O2 0.569277 0.512786 0.746368
O O3 0.265797 0.359098 0.686818
O O4 0.379493 0.168452 0.831202
O O5 0.003759 0.522654 0.486745
O O6 0.812014 0.949709 0.477381
O O7 0.086953 0.981615 0.571881
O O8 0.671250 0.328114 0.358389
#
# Coordination Sequence:
#
# PCOD9346458 Si02
#       4
#     4   4   4   4
#     4  12  28  52  80 119 166 218 273 342 420 497
#     4  10  26  52  86 123 166 220 284 346 414 495
#     4  11  27  51  82 121 166 219 277 344 418 495
#     4  11  27  51  84 121 166 219 280 344 416 495
#
# _framework density 28.988724999999999
#
# number of rings (size 3 to 8) (size 9 to 14) (size 15 to 20)
#    0.000    1.000    0.000    3.000    0.000   26.000 
#    0.000    2.500    0.000    0.000    0.000    0.000 
#    0.000    0.000    0.000    0.000    0.000    0.000 
#
# Total GULP energy -89674.182324 kJ/mol
# GULP energy per Si atom -5604.636395 kJ/mol
# Density = 2.892274 g / cm^3
# Si number density = 28.988725 Si / 1000 Ang^3
#
#
#
# Elastic Constant Matrix: (Units=GPa)
#
#
# Indices 1 2 3 4 5 6 
#
# 1 168.5942 81.8787 55.1679 0.0000 0.0000 0.0000
# 2 81.8787 208.7090 88.2770 0.0000 0.0000 0.0000
# 3 55.1679 88.2770 137.3474 0.0000 0.0000 0.0000
# 4 0.0000 0.0000 0.0000 72.0067 0.0000 0.0000
# 5 0.0000 0.0000 0.0000 0.0000 56.9807 0.0000
# 6 0.0000 0.0000 0.0000 0.0000 0.0000 37.7194
#
#
#
# Elastic Compliance Matrix: (Units=1/GPa)
#
#
# Indices 1 2 3 4 5 6 
#
# 1 0.007561 -0.002310 -0.001553 0.000000 0.000000 0.000000
# 2 -0.002310 0.007286 -0.003755 0.000000 0.000000 0.000000
# 3 -0.001553 -0.003755 0.010318 0.000000 0.000000 0.000000
# 4 0.000000 0.000000 0.000000 0.013888 0.000000 0.000000
# 5 0.000000 0.000000 0.000000 0.000000 0.017550 0.000000
# 6 0.000000 0.000000 0.000000 0.000000 0.000000 0.026512
#
#
# Mechanical properties :
#
#
# Convention : Reuss Voigt Hill
#
# Bulk Modulus (GPa) = 100.70251 107.25533 103.97892
# Shear Modulus (GPa) = 49.18441 52.62983 50.90712
#
# Velocity S-wave (km/s) = 4.12354 4.26552 4.19513
# Velocity P-wave (km/s) = 7.58191 7.83191 7.70793
#
# Compressibility (1/GPa) = 0.00993024
#
# Stress axis : x y z
#
# Youngs Moduli (GPa) = 132.25549 137.25521 96.91895
#
# Poissons Ratio (x) = 0.31701 0.15048
# Poissons Ratio (y) = 0.30546 0.36393
# Poissons Ratio (z) = 0.20534 0.51540
#
# Static dielectric constant tensor:
#      x y z
#    x 2.277890 0.000000 0.000000 
#    y 0.000000 2.297620 0.000000 
#    z 0.000000 0.000000 2.601950 
# 
# From -- ./inp_files/5683.got.cif
#   From: 2010.05.17/outbox.cif.g08.bks.cpg/sg33_3_cif.got.tgz:5683.got - 2010.06.03 17:15:25.
