data_PCOD9346580
_publ_section_title
;
Structure prediction by ZEFSAII (Michael W. Deem and Ramdas Pophale) SiO2 
 PCOD9346580
Probable space group: P N A 21
;
_chemical_formula_sum "Si O2"
_cell_formula_units_Z 24
_cell_length_a 10.563377
_cell_length_b 5.265236
_cell_length_c 16.994772
_cell_angle_alpha 90.000000
_cell_angle_beta 90.000000
_cell_angle_gamma 90.000000
_cell_volume 945.226664
_symmetry_space_group_name_H-M "P N A 21"
_symmetry_group_IT_number 33
_symmetry_cell_setting 'orthorhombic'
loop_
_space_group_symop_operation_xyz
x,y,z
-x,-y,1/2+z
1/2-x,1/2+y,1/2+z
1/2+x,1/2-y,z
loop_
_atom_site_type_symbol
_atom_site_label
_atom_site_fract_x
_atom_site_fract_y
_atom_site_fract_z
Si Si1 0.322536 0.316663 0.200240
Si Si2 0.183275 0.235910 0.917952
Si Si3 0.754815 0.036536 0.576591
Si Si4 0.632889 0.875068 0.286332
Si Si5 0.056468 0.719589 0.861091
Si Si6 0.494386 0.685296 0.135058
O O1 0.229612 0.143872 0.151929
O O2 0.247309 0.562758 0.227684
O O3 0.366650 0.191840 0.279954
O O4 0.439237 0.400916 0.146138
O O5 0.299635 0.273326 0.856964
O O6 0.106633 0.498475 0.918453
O O7 0.089803 0.003878 0.889597
O O8 0.239398 0.134323 0.999261
O O9 0.620792 0.170247 0.592073
O O10 0.880338 0.206553 0.582608
O O11 0.528709 0.765727 0.225646
O O12 0.581260 0.128889 0.330856
#
# Coordination Sequence:
#
# PCOD9346580 Si02
#       6
#     4   4   4   4   4   4
#     4  11  24  46  77 111 147 203 268 325 391 476
#     4  11  29  45  72 110 159 203 258 324 399 466
#     4  12  28  46  77 115 160 209 262 333 402 474
#     4  11  22  47  77 106 151 202 266 313 395 465
#     4  11  24  46  71 106 147 203 255 320 385 470
#     4  12  25  48  80 114 156 210 273 331 394 483
#
# _framework density 25.390737000000001
#
# number of rings (size 3 to 8) (size 9 to 14) (size 15 to 20)
#    0.000    0.667    3.333    4.000    4.667    5.333 
#    0.000    0.000    0.000    0.000    0.000    0.000 
#    0.000    0.000    0.000    0.000    0.000    0.000 
#
# Total GULP energy -134154.330433 kJ/mol
# GULP energy per Si atom -5589.763768 kJ/mol
# Density = 2.533295 g / cm^3
# Si number density = 25.390737 Si / 1000 Ang^3
#
#
#
# Elastic Constant Matrix: (Units=GPa)
#
#
# Indices 1 2 3 4 5 6 
#
# 1 128.7074 23.9419 10.5484 0.0000 0.0000 0.0000
# 2 23.9419 90.3505 21.1031 0.0000 0.0000 0.0000
# 3 10.5484 21.1031 73.9695 0.0000 0.0000 0.0000
# 4 0.0000 0.0000 0.0000 38.8154 0.0000 0.0000
# 5 0.0000 0.0000 0.0000 0.0000 14.2929 0.0000
# 6 0.0000 0.0000 0.0000 0.0000 0.0000 25.9253
#
#
#
# Elastic Compliance Matrix: (Units=1/GPa)
#
#
# Indices 1 2 3 4 5 6 
#
# 1 0.008196 -0.002034 -0.000588 0.000000 0.000000 0.000000
# 2 -0.002034 0.012363 -0.003237 0.000000 0.000000 0.000000
# 3 -0.000588 -0.003237 0.014527 0.000000 0.000000 0.000000
# 4 0.000000 0.000000 0.000000 0.025763 0.000000 0.000000
# 5 0.000000 0.000000 0.000000 0.000000 0.069965 0.000000
# 6 0.000000 0.000000 0.000000 0.000000 0.000000 0.038572
#
#
# Mechanical properties :
#
#
# Convention : Reuss Voigt Hill
#
# Bulk Modulus (GPa) = 42.79701 44.91269 43.85485
# Shear Modulus (GPa) = 26.46981 31.63565 29.05273
#
# Velocity S-wave (km/s) = 3.23228 3.53363 3.38631
# Velocity P-wave (km/s) = 5.55177 5.86309 5.70955
#
# Compressibility (1/GPa) = 0.02336612
#
# Stress axis : x y z
#
# Youngs Moduli (GPa) = 122.00721 80.88521 68.83966
#
# Poissons Ratio (x) = 0.16456 0.04051
# Poissons Ratio (y) = 0.24822 0.22284
# Poissons Ratio (z) = 0.07179 0.26183
#
# Static dielectric constant tensor:
#      x y z
#    x 2.040960 0.000000 0.000000 
#    y 0.000000 2.076330 0.000000 
#    z 0.000000 0.000000 1.961270 
# 
# From -- ./inp_files/8595.got.cif
#   From: 2010.05.17/outbox.cif.g08.bks.cpg/sg33_5_cif.got.tgz:8595.got - 2010.06.03 17:15:25.
