data_PCOD9346025
_publ_section_title
;
Structure prediction by ZEFSAII (Michael W. Deem and Ramdas Pophale) SiO2 
 PCOD9346025
Probable space group: P N A 21
;
_chemical_formula_sum "Si O2"
_cell_formula_units_Z 32
_cell_length_a 15.233067
_cell_length_b 16.004125
_cell_length_c 5.604107
_cell_angle_alpha 90.000000
_cell_angle_beta 90.000000
_cell_angle_gamma 90.000000
_cell_volume 1366.235940
_symmetry_space_group_name_H-M "P N A 21"
_symmetry_group_IT_number 33
_symmetry_cell_setting 'orthorhombic'
loop_
_space_group_symop_operation_xyz
x,y,z
-x,-y,1/2+z
1/2-x,1/2+y,1/2+z
1/2+x,1/2-y,z
loop_
_atom_site_type_symbol
_atom_site_label
_atom_site_fract_x
_atom_site_fract_y
_atom_site_fract_z
Si Si1 0.469190 0.905026 0.674850
Si Si2 0.029167 0.594484 0.172954
Si Si3 0.471145 0.632663 0.761343
Si Si4 0.601130 0.527826 0.455153
Si Si5 0.789776 0.340009 0.621565
Si Si6 0.734927 0.113012 0.185135
Si Si7 0.794699 0.800985 0.602383
Si Si8 0.637235 0.662241 0.062249
O O1 0.504431 0.866143 0.428497
O O2 0.364911 0.911973 0.666519
O O3 0.508133 0.999621 0.683007
O O4 0.492565 0.865156 0.930095
O O5 0.133464 0.592664 0.139948
O O6 0.516974 0.567309 0.583535
O O7 0.415641 0.569934 0.929050
O O8 0.399201 0.693042 0.646922
O O9 0.556234 0.673865 0.879814
O O10 0.693028 0.549423 0.583685
O O11 0.608636 0.584562 0.221006
O O12 0.750599 0.333224 0.351510
O O13 0.842840 0.252925 0.663869
O O14 0.728071 0.347955 0.855027
O O15 0.736556 0.205525 0.069214
O O16 0.770900 0.132530 0.447964
#
# Coordination Sequence:
#
# PCOD9346025 Si02
#       8
#     4   4   4   4   4   4   4   4
#     4  10  23  41  66  94 125 164 223 259 321 395
#     4  10  23  42  64  95 125 167 215 267 322 389
#     4  11  25  40  68 102 132 182 228 283 339 420
#     4  11  22  43  66  95 138 172 226 276 344 397
#     4  11  24  45  65  96 136 173 214 283 336 388
#     4  10  24  42  65  95 129 177 215 279 334 402
#     4  11  26  42  66 101 132 170 231 268 336 409
#     4  10  23  43  64  92 137 169 220 273 336 396
#
# _framework density 23.422014999999998
#
# number of rings (size 3 to 8) (size 9 to 14) (size 15 to 20)
#    0.000    1.500    2.500    0.750    7.000    2.000 
#    0.000    0.000    0.000    0.000    0.000    0.000 
#    0.000    0.000    0.000    0.000    0.000    0.000 
#
# Total GULP energy -178528.920802 kJ/mol
# GULP energy per Si atom -5579.028775 kJ/mol
# Density = 2.336871 g / cm^3
# Si number density = 23.422015 Si / 1000 Ang^3
#
#
#
# Elastic Constant Matrix: (Units=GPa)
#
#
# Indices 1 2 3 4 5 6 
#
# 1 83.1558 -1.2612 31.9292 0.0000 0.0000 0.0000
# 2 -1.2612 37.3685 13.2798 0.0000 0.0000 0.0000
# 3 31.9292 13.2798 116.0923 0.0000 0.0000 0.0000
# 4 0.0000 0.0000 0.0000 11.3134 0.0000 0.0000
# 5 0.0000 0.0000 0.0000 0.0000 7.4259 0.0000
# 6 0.0000 0.0000 0.0000 0.0000 0.0000 28.3919
#
#
#
# Elastic Compliance Matrix: (Units=1/GPa)
#
#
# Indices 1 2 3 4 5 6 
#
# 1 0.013568 0.001860 -0.003944 0.000000 0.000000 0.000000
# 2 0.001860 0.028149 -0.003731 0.000000 0.000000 0.000000
# 3 -0.003944 -0.003731 0.010126 0.000000 0.000000 0.000000
# 4 0.000000 0.000000 0.000000 0.088391 0.000000 0.000000
# 5 0.000000 0.000000 0.000000 0.000000 0.134664 0.000000
# 6 0.000000 0.000000 0.000000 0.000000 0.000000 0.035221
#
#
# Mechanical properties :
#
#
# Convention : Reuss Voigt Hill
#
# Bulk Modulus (GPa) = 24.86897 36.05690 30.46294
# Shear Modulus (GPa) = 14.91843 22.27082 18.59462
#
# Velocity S-wave (km/s) = 2.52651 3.08693 2.82067
# Velocity P-wave (km/s) = 4.37628 5.30409 4.86237
#
# Compressibility (1/GPa) = 0.04021075
#
# Stress axis : x y z
#
# Youngs Moduli (GPa) = 73.70074 35.52483 98.76019
#
# Poissons Ratio (x) = -0.06607 0.38956
# Poissons Ratio (y) = -0.13706 0.36852
# Poissons Ratio (z) = 0.29071 0.13256
#
# Static dielectric constant tensor:
#      x y z
#    x 1.848570 0.000000 0.000000 
#    y 0.000000 1.975630 0.000000 
#    z 0.000000 0.000000 1.996790 
# 
# From -- ./inp_files/1056.got.cif
#   From: 2010.05.17/outbox.cif.g08.bks.cpg/sg33_1_cif.got.tgz:1056.got - 2010.06.03 17:15:25.
