data_PCOD9346488
_publ_section_title
;
Structure prediction by ZEFSAII (Michael W. Deem and Ramdas Pophale) SiO2 
 PCOD9346488
Probable space group: P N A 21
;
_chemical_formula_sum "Si O2"
_cell_formula_units_Z 32
_cell_length_a 13.618388
_cell_length_b 9.597443
_cell_length_c 11.495440
_cell_angle_alpha 90.000000
_cell_angle_beta 90.000000
_cell_angle_gamma 90.000000
_cell_volume 1502.473580
_symmetry_space_group_name_H-M "P N A 21"
_symmetry_group_IT_number 33
_symmetry_cell_setting 'orthorhombic'
loop_
_space_group_symop_operation_xyz
x,y,z
-x,-y,1/2+z
1/2-x,1/2+y,1/2+z
1/2+x,1/2-y,z
loop_
_atom_site_type_symbol
_atom_site_label
_atom_site_fract_x
_atom_site_fract_y
_atom_site_fract_z
Si Si1 0.173723 0.764538 0.600160
Si Si2 0.486452 0.827596 0.749789
Si Si3 0.553889 0.512085 0.484675
Si Si4 0.694705 0.000462 0.218915
Si Si5 0.441844 0.524322 0.732633
Si Si6 0.453715 0.797083 0.010704
Si Si7 0.150250 0.785933 0.126713
Si Si8 0.275050 0.984673 0.992625
O O1 0.123257 0.853675 0.496278
O O2 0.235297 0.881632 0.666819
O O3 0.235772 0.634168 0.553231
O O4 0.086366 0.704115 0.681638
O O5 0.417836 0.949007 0.701358
O O6 0.420015 0.687243 0.741448
O O7 0.501358 0.844827 0.887850
O O8 0.494682 0.517651 0.606705
O O9 0.504123 0.512543 0.355685
O O10 0.596833 0.354866 0.490586
O O11 0.711185 0.993958 0.356455
O O12 0.710466 0.848588 0.164459
O O13 0.357151 0.408981 0.722299
O O14 0.373117 0.910525 0.042403
O O15 0.541230 0.769370 0.099585
O O16 0.191371 0.871109 0.017105
#
# Coordination Sequence:
#
# PCOD9346488 Si02
#       8
#     4   4   4   4   4   4   4   4
#     4  11  21  37  59  86 120 160 200 250 305 365
#     4   9  19  37  59  83 115 156 201 251 305 361
#     4   9  18  34  58  85 116 155 198 245 299 358
#     4  11  23  38  58  86 119 157 204 256 309 368
#     4   9  18  34  58  85 116 155 198 245 299 358
#     4   9  19  37  59  83 115 156 201 251 305 361
#     4  11  21  37  59  86 120 160 200 250 305 365
#     4  11  23  38  58  86 119 157 204 256 309 368
#
# _framework density 21.298210999999998
#
# number of rings (size 3 to 8) (size 9 to 14) (size 15 to 20)
#    0.000    2.000    0.000    3.750    0.000    1.000 
#    0.000    3.750    0.000    9.000    0.000    0.000 
#    0.000    0.000    0.000    0.000    0.000    0.000 
#
# Total GULP energy -178195.676822 kJ/mol
# GULP energy per Si atom -5568.614901 kJ/mol
# Density = 2.124974 g / cm^3
# Si number density = 21.298211 Si / 1000 Ang^3
#
#
#
# Elastic Constant Matrix: (Units=GPa)
#
#
# Indices 1 2 3 4 5 6 
#
# 1 15.8508 7.8910 -5.7077 0.0000 0.0000 0.0000
# 2 7.8910 134.4755 17.7431 0.0000 0.0000 0.0000
# 3 -5.7077 17.7431 45.2386 0.0000 0.0000 0.0000
# 4 0.0000 0.0000 0.0000 25.7845 0.0000 0.0000
# 5 0.0000 0.0000 0.0000 0.0000 19.8217 0.0000
# 6 0.0000 0.0000 0.0000 0.0000 0.0000 32.2240
#
#
#
# Elastic Compliance Matrix: (Units=1/GPa)
#
#
# Indices 1 2 3 4 5 6 
#
# 1 0.069803 -0.005545 0.010982 0.000000 0.000000 0.000000
# 2 -0.005545 0.008283 -0.003948 0.000000 0.000000 0.000000
# 3 0.010982 -0.003948 0.025039 0.000000 0.000000 0.000000
# 4 0.000000 0.000000 0.000000 0.038783 0.000000 0.000000
# 5 0.000000 0.000000 0.000000 0.000000 0.050450 0.000000
# 6 0.000000 0.000000 0.000000 0.000000 0.000000 0.031033
#
#
# Mechanical properties :
#
#
# Convention : Reuss Voigt Hill
#
# Bulk Modulus (GPa) = 9.42491 26.15753 17.79122
# Shear Modulus (GPa) = 19.54805 27.27529 23.41167
#
# Velocity S-wave (km/s) = 3.03285 3.58248 3.31906
# Velocity P-wave (km/s) = 4.08645 5.42406 4.80206
#
# Compressibility (1/GPa) = 0.10610176
#
# Stress axis : x y z
#
# Youngs Moduli (GPa) = 14.32605 120.73505 39.93762
#
# Poissons Ratio (x) = 0.66947 -0.43858
# Poissons Ratio (y) = 0.07944 0.15768
# Poissons Ratio (z) = -0.15732 0.47668
#
# Static dielectric constant tensor:
#      x y z
#    x 1.834890 0.000000 0.000000 
#    y 0.000000 1.791710 0.000000 
#    z 0.000000 0.000000 1.787750 
# 
# From -- ./inp_files/6808.got.cif
#   From: 2010.05.17/outbox.cif.g08.bks.cpg/sg33_4_cif.got.tgz:6808.got - 2010.06.03 17:15:25.
