data_PCOD9346421
_publ_section_title
;
Structure prediction by ZEFSAII (Michael W. Deem and Ramdas Pophale) SiO2 
 PCOD9346421
Probable space group: P N A 21
;
_chemical_formula_sum "Si O2"
_cell_formula_units_Z 20
_cell_length_a 11.242586
_cell_length_b 6.080504
_cell_length_c 12.118990
_cell_angle_alpha 90.000000
_cell_angle_beta 90.000000
_cell_angle_gamma 90.000000
_cell_volume 828.461296
_symmetry_space_group_name_H-M "P N A 21"
_symmetry_group_IT_number 33
_symmetry_cell_setting 'orthorhombic'
loop_
_space_group_symop_operation_xyz
x,y,z
-x,-y,1/2+z
1/2-x,1/2+y,1/2+z
1/2+x,1/2-y,z
loop_
_atom_site_type_symbol
_atom_site_label
_atom_site_fract_x
_atom_site_fract_y
_atom_site_fract_z
Si Si1 0.900374 0.552695 0.688200
Si Si2 0.120523 0.447609 0.574232
Si Si3 0.735657 0.171416 0.981738
Si Si4 0.427544 0.642137 0.878276
Si Si5 0.430753 0.717613 0.284639
O O1 0.809777 0.544472 0.589026
O O2 0.025527 0.616786 0.627971
O O3 0.943344 0.332596 0.751005
O O4 0.863178 0.726064 0.780275
O O5 0.227496 0.584258 0.522113
O O6 0.144760 0.282429 0.676277
O O7 0.054581 0.311299 0.478292
O O8 0.847886 0.048534 0.930327
O O9 0.634380 0.178326 0.889071
O O10 0.541405 0.529673 0.821416
#
# Coordination Sequence:
#
# PCOD9346421 Si02
#       5
#     4   4   4   4   4
#     4  10  25  47  69 106 147 179 245 291 366 426
#     4  10  27  45  70 108 139 195 241 291 366 429
#     4  12  24  45  76 108 141 187 245 293 358 438
#     4  12  25  46  74 101 146 193 234 302 357 424
#     4  10  27  47  71 105 145 188 235 303 361 421
#
# _framework density 24.141138000000002
#
# number of rings (size 3 to 8) (size 9 to 14) (size 15 to 20)
#    1.200    0.000    0.000    4.800    5.600    8.000 
#    0.000    0.000    0.000    0.000    0.000    0.000 
#    0.000    0.000    0.000    0.000    0.000    0.000 
#
# Total GULP energy -111648.013308 kJ/mol
# GULP energy per Si atom -5582.400665 kJ/mol
# Density = 2.408619 g / cm^3
# Si number density = 24.141138 Si / 1000 Ang^3
#
#
#
# Elastic Constant Matrix: (Units=GPa)
#
#
# Indices 1 2 3 4 5 6 
#
# 1 41.3585 38.4828 48.8777 0.0000 0.0000 0.0000
# 2 38.4828 69.9235 83.1749 0.0000 0.0000 0.0000
# 3 48.8777 83.1749 212.6372 0.0000 0.0000 0.0000
# 4 0.0000 0.0000 0.0000 55.3473 0.0000 0.0000
# 5 0.0000 0.0000 0.0000 0.0000 32.3316 0.0000
# 6 0.0000 0.0000 0.0000 0.0000 0.0000 24.7144
#
#
#
# Elastic Compliance Matrix: (Units=1/GPa)
#
#
# Indices 1 2 3 4 5 6 
#
# 1 0.049765 -0.025773 -0.001358 0.000000 0.000000 0.000000
# 2 -0.025773 0.040094 -0.009759 0.000000 0.000000 0.000000
# 3 -0.001358 -0.009759 0.008832 0.000000 0.000000 0.000000
# 4 0.000000 0.000000 0.000000 0.018068 0.000000 0.000000
# 5 0.000000 0.000000 0.000000 0.000000 0.030930 0.000000
# 6 0.000000 0.000000 0.000000 0.000000 0.000000 0.040462
#
#
# Mechanical properties :
#
#
# Convention : Reuss Voigt Hill
#
# Bulk Modulus (GPa) = 40.14240 73.88777 57.01508
# Shear Modulus (GPa) = 18.50253 32.70424 25.60339
#
# Velocity S-wave (km/s) = 2.77145 3.68463 3.26017
# Velocity P-wave (km/s) = 5.18706 6.98391 6.15145
#
# Compressibility (1/GPa) = 0.02491132
#
# Stress axis : x y z
#
# Youngs Moduli (GPa) = 20.09462 24.94142 113.22290
#
# Poissons Ratio (x) = 0.64282 0.15372
# Poissons Ratio (y) = 0.51790 1.10491
# Poissons Ratio (z) = 0.02728 0.24340
#
# Static dielectric constant tensor:
#      x y z
#    x 1.924660 0.000000 0.000000 
#    y 0.000000 1.912090 0.000000 
#    z 0.000000 0.000000 1.890550 
# 
# From -- ./inp_files/6614.got.cif
#   From: 2010.05.17/outbox.cif.g08.bks.cpg/sg33_4_cif.got.tgz:6614.got - 2010.06.03 17:15:25.
