data_PCOD9346379
_publ_section_title
;
Structure prediction by ZEFSAII (Michael W. Deem and Ramdas Pophale) SiO2 
 PCOD9346379
Probable space group: P N A 21
;
_chemical_formula_sum "Si O2"
_cell_formula_units_Z 20
_cell_length_a 17.773125
_cell_length_b 5.606320
_cell_length_c 7.492892
_cell_angle_alpha 90.000000
_cell_angle_beta 90.000000
_cell_angle_gamma 90.000000
_cell_volume 746.605442
_symmetry_space_group_name_H-M "P N A 21"
_symmetry_group_IT_number 33
_symmetry_cell_setting 'orthorhombic'
loop_
_space_group_symop_operation_xyz
x,y,z
-x,-y,1/2+z
1/2-x,1/2+y,1/2+z
1/2+x,1/2-y,z
loop_
_atom_site_type_symbol
_atom_site_label
_atom_site_fract_x
_atom_site_fract_y
_atom_site_fract_z
Si Si1 0.649589 0.846911 0.854230
Si Si2 0.500000 0.863659 0.320072
Si Si3 0.149589 0.346910 0.285918
Si Si4 0.082054 0.000000 0.570073
Si Si5 0.737256 0.500000 0.070073
O O1 0.632082 0.624289 0.721180
O O2 0.708077 0.006327 0.741470
O O3 0.570877 0.977183 0.872844
O O4 0.685334 0.728880 0.029551
O O5 0.470311 0.696620 0.161801
O O6 0.529691 0.696621 0.478341
O O7 0.570877 0.022824 0.267302
O O8 0.132084 0.124290 0.418970
O O9 0.208077 0.506329 0.398676
O O10 0.185334 0.228880 0.110596
#
# Coordination Sequence:
#
# PCOD9346379 Si02
#       5
#     4   4   4   4   4
#     4  11  25  50  82 120 162 213 265 337 400 493
#     4  12  26  50  76 114 160 210 276 330 396 484
#     4  11  25  50  82 120 162 213 265 337 400 493
#     4  12  26  45  80 113 156 210 274 324 401 480
#     4  10  24  53  82 121 164 208 264 334 419 482
#
# _framework density 26.78791
#
# number of rings (size 3 to 8) (size 9 to 14) (size 15 to 20)
#    0.000    0.800    4.000    1.200    0.000   11.200 
#    0.000    0.000    0.000    2.400    0.000    0.000 
#    0.000    0.000    0.000    0.000    0.000    0.000 
#
# Total GULP energy -112443.354215 kJ/mol
# GULP energy per Si atom -5622.167711 kJ/mol
# Density = 2.672694 g / cm^3
# Si number density = 26.787910 Si / 1000 Ang^3
#
#
#
# Elastic Constant Matrix: (Units=GPa)
#
#
# Indices 1 2 3 4 5 6 
#
# 1 240.2409 109.8041 83.9065 0.0000 0.0000 0.0000
# 2 109.8041 146.7102 87.2312 0.0000 0.0000 0.0000
# 3 83.9065 87.2312 148.7822 0.0000 0.0000 0.0000
# 4 0.0000 0.0000 0.0000 68.4478 0.0000 0.0000
# 5 0.0000 0.0000 0.0000 0.0000 45.6956 0.0000
# 6 0.0000 0.0000 0.0000 0.0000 0.0000 39.9521
#
#
#
# Elastic Compliance Matrix: (Units=1/GPa)
#
#
# Indices 1 2 3 4 5 6 
#
# 1 0.006473 -0.004105 -0.001244 0.000000 0.000000 0.000000
# 2 -0.004105 0.013068 -0.005346 0.000000 0.000000 0.000000
# 3 -0.001244 -0.005346 0.010557 0.000000 0.000000 0.000000
# 4 0.000000 0.000000 0.000000 0.014610 0.000000 0.000000
# 5 0.000000 0.000000 0.000000 0.000000 0.021884 0.000000
# 6 0.000000 0.000000 0.000000 0.000000 0.000000 0.025030
#
#
# Mechanical properties :
#
#
# Convention : Reuss Voigt Hill
#
# Bulk Modulus (GPa) = 114.84559 121.95743 118.40151
# Shear Modulus (GPa) = 43.13516 47.80520 45.47018
#
# Velocity S-wave (km/s) = 4.01714 4.22901 4.12444
# Velocity P-wave (km/s) = 8.03006 8.33498 8.18394
#
# Compressibility (1/GPa) = 0.00870734
#
# Stress axis : x y z
#
# Youngs Moduli (GPa) = 154.48198 76.52496 94.72285
#
# Poissons Ratio (x) = 0.31417 0.11780
# Poissons Ratio (y) = 0.63421 0.50642
# Poissons Ratio (z) = 0.19212 0.40913
#
# Static dielectric constant tensor:
#      x y z
#    x 2.008390 0.000000 0.000000 
#    y 0.000000 2.101040 0.000000 
#    z 0.000000 0.000000 2.121990 
# 
# From -- ./inp_files/4555.got.cif
#   From: 2010.05.17/outbox.cif.g08.bks.cpg/sg33_3_cif.got.tgz:4555.got - 2010.06.03 17:15:25.
