data_PCOD9346671
_publ_section_title
;
Structure prediction by ZEFSAII (Michael W. Deem and Ramdas Pophale) SiO2 
 PCOD9346671
Probable space group: P N A 21
;
_chemical_formula_sum "Si O2"
_cell_formula_units_Z 32
_cell_length_a 13.048455
_cell_length_b 6.153151
_cell_length_c 15.640206
_cell_angle_alpha 90.000000
_cell_angle_beta 90.000000
_cell_angle_gamma 90.000000
_cell_volume 1255.738281
_symmetry_space_group_name_H-M "P N A 21"
_symmetry_group_IT_number 33
_symmetry_cell_setting 'orthorhombic'
loop_
_space_group_symop_operation_xyz
x,y,z
-x,-y,1/2+z
1/2-x,1/2+y,1/2+z
1/2+x,1/2-y,z
loop_
_atom_site_type_symbol
_atom_site_label
_atom_site_fract_x
_atom_site_fract_y
_atom_site_fract_z
Si Si1 0.845278 0.208958 0.116330
Si Si2 0.358225 0.633404 0.653033
Si Si3 0.556392 0.317654 0.662683
Si Si4 0.433446 0.058792 0.283026
Si Si5 0.173207 0.812822 0.934211
Si Si6 0.981826 0.140759 0.946940
Si Si7 0.137443 0.213532 0.341170
Si Si8 0.555663 0.982406 0.041457
O O1 0.747245 0.360869 0.098028
O O2 0.902998 0.322552 0.194762
O O3 0.841412 0.961763 0.152913
O O4 0.911991 0.156301 0.032603
O O5 0.449645 0.457827 0.659520
O O6 0.315990 0.655114 0.748894
O O7 0.408129 0.848694 0.612510
O O8 0.564554 0.191130 0.752690
O O9 0.535415 0.160808 0.581406
O O10 0.360983 0.160242 0.354703
O O11 0.545340 0.134039 0.311029
O O12 0.290548 0.842074 0.907835
O O13 0.151448 0.667613 0.016993
O O14 0.089056 0.003961 0.944624
O O15 0.022394 0.387486 0.955955
O O16 0.910177 0.006706 0.882118
#
# Coordination Sequence:
#
# PCOD9346671 Si02
#       8
#     4   4   4   4   4   4   4   4
#     4  12  23  47  74 106 147 202 256 322 394 467
#     4  12  25  44  76 109 149 197 260 320 385 483
#     4  12  23  46  76 106 150 201 257 325 387 479
#     4  11  24  45  74 107 152 203 261 321 396 469
#     4  11  25  45  72 112 153 203 260 327 391 477
#     4  11  24  46  75 106 155 198 248 323 388 466
#     4  11  23  47  69 111 158 197 259 320 390 472
#     4  12  23  48  72 109 152 201 257 318 399 473
#
# _framework density 25.483015999999999
#
# number of rings (size 3 to 8) (size 9 to 14) (size 15 to 20)
#    0.000    0.500    7.500    0.750    1.750    1.000 
#    2.250    3.750    0.000    0.000    0.000    0.000 
#    0.000    0.000    0.000    0.000    0.000    0.000 
#
# Total GULP energy -178413.007611 kJ/mol
# GULP energy per Si atom -5575.406488 kJ/mol
# Density = 2.542502 g / cm^3
# Si number density = 25.483016 Si / 1000 Ang^3
#
#
#
# Elastic Constant Matrix: (Units=GPa)
#
#
# Indices 1 2 3 4 5 6 
#
# 1 94.8154 19.9533 30.7008 0.0000 0.0000 0.0000
# 2 19.9533 86.7884 28.3981 0.0000 0.0000 0.0000
# 3 30.7008 28.3981 85.4369 0.0000 0.0000 0.0000
# 4 0.0000 0.0000 0.0000 51.6688 0.0000 0.0000
# 5 0.0000 0.0000 0.0000 0.0000 51.5562 0.0000
# 6 0.0000 0.0000 0.0000 0.0000 0.0000 13.4968
#
#
#
# Elastic Compliance Matrix: (Units=1/GPa)
#
#
# Indices 1 2 3 4 5 6 
#
# 1 0.012113 -0.001527 -0.003845 0.000000 0.000000 0.000000
# 2 -0.001527 0.013121 -0.003813 0.000000 0.000000 0.000000
# 3 -0.003845 -0.003813 0.014354 0.000000 0.000000 0.000000
# 4 0.000000 0.000000 0.000000 0.019354 0.000000 0.000000
# 5 0.000000 0.000000 0.000000 0.000000 0.019396 0.000000
# 6 0.000000 0.000000 0.000000 0.000000 0.000000 0.074091
#
#
# Mechanical properties :
#
#
# Convention : Reuss Voigt Hill
#
# Bulk Modulus (GPa) = 47.12887 47.23834 47.18360
# Shear Modulus (GPa) = 28.11022 35.87694 31.99358
#
# Velocity S-wave (km/s) = 3.32489 3.75624 3.54713
# Velocity P-wave (km/s) = 5.76838 6.11473 5.94408
#
# Compressibility (1/GPa) = 0.02121842
#
# Stress axis : x y z
#
# Youngs Moduli (GPa) = 82.55471 76.21489 69.66915
#
# Poissons Ratio (x) = 0.11636 0.26790
# Poissons Ratio (y) = 0.12604 0.26562
# Poissons Ratio (z) = 0.31745 0.29057
#
# Static dielectric constant tensor:
#      x y z
#    x 2.136540 0.000000 0.000000 
#    y 0.000000 2.142750 0.000000 
#    z 0.000000 0.000000 2.084530 
# 
# From -- ./inp_files/8771.got.cif
#   From: 2010.05.17/outbox.cif.g08.bks.cpg/sg33_5_cif.got.tgz:8771.got - 2010.06.03 17:15:25.
