data_PCOD9346154
_publ_section_title
;
Structure prediction by ZEFSAII (Michael W. Deem and Ramdas Pophale) SiO2 
 PCOD9346154
Probable space group: P N A 21
;
_chemical_formula_sum "Si O2"
_cell_formula_units_Z 24
_cell_length_a 11.777397
_cell_length_b 11.431007
_cell_length_c 8.590993
_cell_angle_alpha 90.000000
_cell_angle_beta 90.000000
_cell_angle_gamma 90.000000
_cell_volume 1156.583975
_symmetry_space_group_name_H-M "P N A 21"
_symmetry_group_IT_number 33
_symmetry_cell_setting 'orthorhombic'
loop_
_space_group_symop_operation_xyz
x,y,z
-x,-y,1/2+z
1/2-x,1/2+y,1/2+z
1/2+x,1/2-y,z
loop_
_atom_site_type_symbol
_atom_site_label
_atom_site_fract_x
_atom_site_fract_y
_atom_site_fract_z
Si Si1 0.563097 0.612033 0.102770
Si Si2 0.404368 0.145907 0.723001
Si Si3 0.920811 0.530689 0.996788
Si Si4 0.807654 0.970157 0.088770
Si Si5 0.259468 0.557268 0.743729
Si Si6 0.229792 0.825501 0.824312
O O1 0.571501 0.716600 0.228323
O O2 0.433274 0.581472 0.070348
O O3 0.629403 0.497186 0.161629
O O4 0.631402 0.662681 0.954235
O O5 0.441104 0.074865 0.876257
O O6 0.272582 0.119151 0.685256
O O7 0.472466 0.091573 0.576574
O O8 0.844222 0.623964 0.903080
O O9 0.844421 0.483531 0.138093
O O10 0.805757 0.088796 0.185948
O O11 0.757265 0.991133 0.918481
O O12 0.253409 0.696132 0.764547
#
# Coordination Sequence:
#
# PCOD9346154 Si02
#       6
#     4   4   4   4   4   4
#     4  11  24  42  70 102 139 182 229 299 349 419
#     4  11  23  43  67  99 137 184 233 294 349 424
#     4  10  24  43  67 100 132 185 238 280 365 418
#     4  11  23  43  67  99 135 185 234 283 359 414
#     4  11  23  44  68  99 136 181 229 296 353 420
#     4  10  23  45  69  99 141 179 233 292 353 423
#
# _framework density 20.750762000000002
#
# number of rings (size 3 to 8) (size 9 to 14) (size 15 to 20)
#    0.000    1.333    1.667    3.000    4.667    0.000 
#    3.000    3.333    0.000    0.000    0.000    0.000 
#    0.000    0.000    0.000    0.000    0.000    0.000 
#
# Total GULP energy -134225.141541 kJ/mol
# GULP energy per Si atom -5592.714231 kJ/mol
# Density = 2.070353 g / cm^3
# Si number density = 20.750762 Si / 1000 Ang^3
#
#
#
# Elastic Constant Matrix: (Units=GPa)
#
#
# Indices 1 2 3 4 5 6 
#
# 1 95.9716 53.5554 22.1847 0.0000 0.0000 0.0000
# 2 53.5554 137.8406 40.7037 0.0000 0.0000 0.0000
# 3 22.1847 40.7037 54.1410 0.0000 0.0000 0.0000
# 4 0.0000 0.0000 0.0000 33.8989 0.0000 0.0000
# 5 0.0000 0.0000 0.0000 0.0000 13.8245 0.0000
# 6 0.0000 0.0000 0.0000 0.0000 0.0000 12.0851
#
#
#
# Elastic Compliance Matrix: (Units=1/GPa)
#
#
# Indices 1 2 3 4 5 6 
#
# 1 0.013477 -0.004634 -0.002038 0.000000 0.000000 0.000000
# 2 -0.004634 0.010919 -0.006310 0.000000 0.000000 0.000000
# 3 -0.002038 -0.006310 0.024049 0.000000 0.000000 0.000000
# 4 0.000000 0.000000 0.000000 0.029499 0.000000 0.000000
# 5 0.000000 0.000000 0.000000 0.000000 0.072336 0.000000
# 6 0.000000 0.000000 0.000000 0.000000 0.000000 0.082747
#
#
# Mechanical properties :
#
#
# Convention : Reuss Voigt Hill
#
# Bulk Modulus (GPa) = 44.48348 57.87121 51.17734
# Shear Modulus (GPa) = 18.76282 23.39564 21.07923
#
# Velocity S-wave (km/s) = 3.01025 3.36141 3.19067
# Velocity P-wave (km/s) = 5.79359 6.55856 6.18791
#
# Compressibility (1/GPa) = 0.02248026
#
# Stress axis : x y z
#
# Youngs Moduli (GPa) = 74.20028 91.58678 41.58151
#
# Poissons Ratio (x) = 0.42445 0.08475
# Poissons Ratio (y) = 0.34387 0.26237
# Poissons Ratio (z) = 0.15123 0.57789
#
# Static dielectric constant tensor:
#      x y z
#    x 1.742860 0.000000 0.000000 
#    y 0.000000 1.730270 0.000000 
#    z 0.000000 0.000000 1.733430 
# 
# From -- ./inp_files/3775.got.cif
#   From: 2010.05.17/outbox.cif.g08.bks.cpg/sg33_2_cif.got.tgz:3775.got - 2010.06.03 17:15:25.
