data_PCOD9346468
_publ_section_title
;
Structure prediction by ZEFSAII (Michael W. Deem and Ramdas Pophale) SiO2 
 PCOD9346468
Probable space group: P N A 21
;
_chemical_formula_sum "Si O2"
_cell_formula_units_Z 28
_cell_length_a 13.536262
_cell_length_b 8.520386
_cell_length_c 10.516286
_cell_angle_alpha 90.000000
_cell_angle_beta 90.000000
_cell_angle_gamma 90.000000
_cell_volume 1212.887193
_symmetry_space_group_name_H-M "P N A 21"
_symmetry_group_IT_number 33
_symmetry_cell_setting 'orthorhombic'
loop_
_space_group_symop_operation_xyz
x,y,z
-x,-y,1/2+z
1/2-x,1/2+y,1/2+z
1/2+x,1/2-y,z
loop_
_atom_site_type_symbol
_atom_site_label
_atom_site_fract_x
_atom_site_fract_y
_atom_site_fract_z
Si Si1 0.627746 0.683294 0.322000
Si Si2 0.245689 0.901518 0.745557
Si Si3 0.164575 0.106217 0.171876
Si Si4 0.652451 0.294686 0.762300
Si Si5 0.392857 0.110286 0.584162
Si Si6 0.521632 0.194319 0.998183
Si Si7 0.266663 0.835824 0.013069
O O1 0.627827 0.498262 0.291038
O O2 0.739436 0.742902 0.312708
O O3 0.578049 0.772323 0.199276
O O4 0.582293 0.733892 0.455346
O O5 0.245420 0.722986 0.703205
O O6 0.151947 0.014921 0.763529
O O7 0.312187 0.992604 0.644556
O O8 0.305580 0.890102 0.878171
O O9 0.210338 0.980952 0.076140
O O10 0.076267 0.203628 0.106549
O O11 0.582276 0.222056 0.867374
O O12 0.657271 0.233594 0.616630
O O13 0.324170 0.212464 0.490233
O O14 0.473962 0.990395 0.531413
#
# Coordination Sequence:
#
# PCOD9346468 Si02
#       7
#     4   4   4   4   4   4   4
#     4   9  21  41  53  86 122 145 201 239 288 349
#     4   9  16  34  57  79 115 148 183 237 296 335
#     4   9  19  35  58  82 117 151 187 256 285 334
#     4   9  20  36  57  88 107 156 195 232 297 353
#     4   8  20  35  56  83 115 152 189 241 286 337
#     4  11  19  40  62  79 123 154 192 246 292 348
#     4   9  17  33  55  85 117 142 193 239 286 344
#
# _framework density 23.085411000000001
#
# number of rings (size 3 to 8) (size 9 to 14) (size 15 to 20)
#    0.000    3.429    1.429    0.000    4.000    0.000 
#    7.714    5.714    0.000    0.000    0.000    0.000 
#    0.000    0.000    0.000    0.000    0.000    0.000 
#
# Total GULP energy -156025.015020 kJ/mol
# GULP energy per Si atom -5572.321965 kJ/mol
# Density = 2.303287 g / cm^3
# Si number density = 23.085411 Si / 1000 Ang^3
#
#
#
# Elastic Constant Matrix: (Units=GPa)
#
#
# Indices 1 2 3 4 5 6 
#
# 1 25.4819 -1.2369 5.8036 0.0000 0.0000 0.0000
# 2 -1.2369 128.8478 17.9761 0.0000 0.0000 0.0000
# 3 5.8036 17.9761 29.5993 0.0000 0.0000 0.0000
# 4 0.0000 0.0000 0.0000 19.5515 0.0000 0.0000
# 5 0.0000 0.0000 0.0000 0.0000 24.7813 0.0000
# 6 0.0000 0.0000 0.0000 0.0000 0.0000 6.3915
#
#
#
# Elastic Compliance Matrix: (Units=1/GPa)
#
#
# Indices 1 2 3 4 5 6 
#
# 1 0.041405 0.001672 -0.009134 0.000000 0.000000 0.000000
# 2 0.001672 0.008547 -0.005519 0.000000 0.000000 0.000000
# 3 -0.009134 -0.005519 0.038927 0.000000 0.000000 0.000000
# 4 0.000000 0.000000 0.000000 0.051147 0.000000 0.000000
# 5 0.000000 0.000000 0.000000 0.000000 0.040353 0.000000
# 6 0.000000 0.000000 0.000000 0.000000 0.000000 0.156457
#
#
# Mechanical properties :
#
#
# Convention : Reuss Voigt Hill
#
# Bulk Modulus (GPa) = 15.89368 25.44607 20.66988
# Shear Modulus (GPa) = 13.02865 20.90394 16.96629
#
# Velocity S-wave (km/s) = 2.37822 3.01242 2.71391
# Velocity P-wave (km/s) = 3.80012 4.81104 4.33515
#
# Compressibility (1/GPa) = 0.06291808
#
# Stress axis : x y z
#
# Youngs Moduli (GPa) = 24.15179 116.99940 25.68918
#
# Poissons Ratio (x) = -0.19559 0.23463
# Poissons Ratio (y) = -0.04037 0.14177
# Poissons Ratio (z) = 0.22059 0.64566
#
# Static dielectric constant tensor:
#      x y z
#    x 1.951490 0.000000 0.000000 
#    y 0.000000 1.923640 0.000000 
#    z 0.000000 0.000000 1.896020 
# 
# From -- ./inp_files/6987.got.cif
#   From: 2010.05.17/outbox.cif.g08.bks.cpg/sg33_4_cif.got.tgz:6987.got - 2010.06.03 17:15:25.
