data_PCOD9346104
_publ_section_title
;
Structure prediction by ZEFSAII (Michael W. Deem and Ramdas Pophale) SiO2 
 PCOD9346104
Probable space group: P N A 21
;
_chemical_formula_sum "Si O2"
_cell_formula_units_Z 32
_cell_length_a 11.333407
_cell_length_b 7.918103
_cell_length_c 15.996491
_cell_angle_alpha 90.000000
_cell_angle_beta 90.000000
_cell_angle_gamma 90.000000
_cell_volume 1435.510449
_symmetry_space_group_name_H-M "P N A 21"
_symmetry_group_IT_number 33
_symmetry_cell_setting 'orthorhombic'
loop_
_space_group_symop_operation_xyz
x,y,z
-x,-y,1/2+z
1/2-x,1/2+y,1/2+z
1/2+x,1/2-y,z
loop_
_atom_site_type_symbol
_atom_site_label
_atom_site_fract_x
_atom_site_fract_y
_atom_site_fract_z
Si Si1 0.196563 0.426616 0.414540
Si Si2 0.421761 0.475127 0.138967
Si Si3 0.952237 0.553516 0.380414
Si Si4 0.632608 0.425715 0.353427
Si Si5 0.109042 0.086359 0.807903
Si Si6 0.254956 0.916493 0.494139
Si Si7 0.841890 0.379294 0.223461
Si Si8 0.810612 0.949181 0.572903
O O1 0.141485 0.242424 0.407375
O O2 0.275043 0.488176 0.336669
O O3 0.281426 0.436723 0.493608
O O4 0.083766 0.547826 0.414443
O O5 0.408575 0.758359 0.358510
O O6 0.396808 0.615691 0.209039
O O7 0.330524 0.495018 0.063319
O O8 0.557485 0.472527 0.108555
O O9 0.869250 0.489031 0.456229
O O10 0.933562 0.452736 0.292599
O O11 0.502617 0.468607 0.326320
O O12 0.678152 0.582377 0.408863
O O13 0.721129 0.383316 0.277918
O O14 0.110516 0.796946 0.685532
O O15 0.296968 0.741019 0.535284
O O16 0.793250 0.475358 0.141118
#
# Coordination Sequence:
#
# PCOD9346104 Si02
#       8
#     4   4   4   4   4   4   4   4
#     4  12  26  43  70 106 138 189 235 283 358 423
#     4  11  23  43  70 104 135 185 233 292 358 421
#     4  11  26  44  70 104 141 185 241 290 355 426
#     4  11  23  45  69 101 138 181 236 288 348 414
#     4  12  24  43  72 101 141 182 235 295 351 421
#     4  10  24  41  67  98 136 182 229 289 350 418
#     4  10  23  43  71  96 135 183 230 292 346 419
#     4  11  23  42  71 100 138 181 235 287 354 420
#
# _framework density 22.291720999999999
#
# number of rings (size 3 to 8) (size 9 to 14) (size 15 to 20)
#    0.000    1.000    3.750    2.250    7.000    1.000 
#    0.000    1.250    0.000    0.000    0.000    0.000 
#    0.000    0.000    0.000    0.000    0.000    0.000 
#
# Total GULP energy -178599.117594 kJ/mol
# GULP energy per Si atom -5581.222425 kJ/mol
# Density = 2.224098 g / cm^3
# Si number density = 22.291721 Si / 1000 Ang^3
#
#
#
# Elastic Constant Matrix: (Units=GPa)
#
#
# Indices 1 2 3 4 5 6 
#
# 1 123.9731 12.2935 45.4347 0.0000 0.0000 0.0000
# 2 12.2935 57.7523 21.7475 0.0000 0.0000 0.0000
# 3 45.4347 21.7475 111.4238 0.0000 0.0000 0.0000
# 4 0.0000 0.0000 0.0000 33.9051 0.0000 0.0000
# 5 0.0000 0.0000 0.0000 0.0000 42.8810 0.0000
# 6 0.0000 0.0000 0.0000 0.0000 0.0000 11.7356
#
#
#
# Elastic Compliance Matrix: (Units=1/GPa)
#
#
# Indices 1 2 3 4 5 6 
#
# 1 0.009503 -0.000608 -0.003756 0.000000 0.000000 0.000000
# 2 -0.000608 0.018728 -0.003407 0.000000 0.000000 0.000000
# 3 -0.003756 -0.003407 0.011171 0.000000 0.000000 0.000000
# 4 0.000000 0.000000 0.000000 0.029494 0.000000 0.000000
# 5 0.000000 0.000000 0.000000 0.000000 0.023320 0.000000
# 6 0.000000 0.000000 0.000000 0.000000 0.000000 0.085211
#
#
# Mechanical properties :
#
#
# Convention : Reuss Voigt Hill
#
# Bulk Modulus (GPa) = 41.91342 50.23339 46.07340
# Shear Modulus (GPa) = 24.88494 31.94924 28.41709
#
# Velocity S-wave (km/s) = 3.34478 3.78991 3.57428
# Velocity P-wave (km/s) = 5.81032 6.46024 6.14388
#
# Compressibility (1/GPa) = 0.02385871
#
# Stress axis : x y z
#
# Youngs Moduli (GPa) = 105.22712 53.39640 89.51390
#
# Poissons Ratio (x) = 0.03249 0.33625
# Poissons Ratio (y) = 0.06402 0.30499
# Poissons Ratio (z) = 0.39527 0.18193
#
# Static dielectric constant tensor:
#      x y z
#    x 1.812550 0.000000 0.000000 
#    y 0.000000 1.871520 0.000000 
#    z 0.000000 0.000000 1.853730 
# 
# From -- ./inp_files/7928.got.cif
#   From: 2010.05.17/outbox.cif.g08.bks.cpg/sg33_4_cif.got.tgz:7928.got - 2010.06.03 17:15:25.
