data_PCOD9346876
_publ_section_title
;
Structure prediction by ZEFSAII (Michael W. Deem and Ramdas Pophale) SiO2 
 PCOD9346876
Probable space group: P N A 21
;
_chemical_formula_sum "Si O2"
_cell_formula_units_Z 20
_cell_length_a 8.127576
_cell_length_b 15.985405
_cell_length_c 5.978999
_cell_angle_alpha 90.000000
_cell_angle_beta 90.000000
_cell_angle_gamma 90.000000
_cell_volume 776.807060
_symmetry_space_group_name_H-M "P N A 21"
_symmetry_group_IT_number 33
_symmetry_cell_setting 'orthorhombic'
loop_
_space_group_symop_operation_xyz
x,y,z
-x,-y,1/2+z
1/2-x,1/2+y,1/2+z
1/2+x,1/2-y,z
loop_
_atom_site_type_symbol
_atom_site_label
_atom_site_fract_x
_atom_site_fract_y
_atom_site_fract_z
Si Si1 0.570930 0.904485 0.016000
Si Si2 0.860256 0.725651 0.793491
Si Si3 0.280645 0.675809 0.392441
Si Si4 0.749036 0.993293 0.668546
Si Si5 0.562426 0.654866 0.062734
O O1 0.641034 0.843512 0.206416
O O2 0.423126 0.961884 0.102176
O O3 0.498218 0.846752 0.813949
O O4 0.716075 0.963327 0.922325
O O5 0.772469 0.744722 0.559206
O O6 0.733648 0.696539 0.985187
O O7 0.944985 0.812839 0.863031
O O8 0.277162 0.588773 0.524743
O O9 0.457166 0.683962 0.273623
O O10 0.890406 0.059507 0.612257
#
# Coordination Sequence:
#
# PCOD9346876 Si02
#       5
#     4   4   4   4   4
#     4  11  25  52  78 118 157 211 267 322 401 474
#     4  11  27  51  73 117 162 207 271 318 395 480
#     4  12  26  48  84 111 165 209 259 334 392 468
#     4  11  25  48  78 117 161 203 266 326 399 470
#     4  11  27  47  79 115 161 204 269 326 391 476
#
# _framework density 25.746418999999999
#
# number of rings (size 3 to 8) (size 9 to 14) (size 15 to 20)
#    0.000    0.800    2.000    3.600    5.600    6.400 
#    3.600    4.000    0.000    0.000    0.000    0.000 
#    0.000    0.000    0.000    0.000    0.000    0.000 
#
# Total GULP energy -111879.474268 kJ/mol
# GULP energy per Si atom -5593.973713 kJ/mol
# Density = 2.568782 g / cm^3
# Si number density = 25.746419 Si / 1000 Ang^3
#
#
#
# Elastic Constant Matrix: (Units=GPa)
#
#
# Indices 1 2 3 4 5 6 
#
# 1 121.9125 55.1915 48.1429 0.0000 0.0000 0.0000
# 2 55.1915 128.3357 59.7348 0.0000 0.0000 0.0000
# 3 48.1429 59.7348 97.9879 0.0000 0.0000 0.0000
# 4 0.0000 0.0000 0.0000 41.4236 0.0000 0.0000
# 5 0.0000 0.0000 0.0000 0.0000 48.9947 0.0000
# 6 0.0000 0.0000 0.0000 0.0000 0.0000 65.0124
#
#
#
# Elastic Compliance Matrix: (Units=1/GPa)
#
#
# Indices 1 2 3 4 5 6 
#
# 1 0.010990 -0.003090 -0.003516 0.000000 0.000000 0.000000
# 2 -0.003090 0.011748 -0.005643 0.000000 0.000000 0.000000
# 3 -0.003516 -0.005643 0.015373 0.000000 0.000000 0.000000
# 4 0.000000 0.000000 0.000000 0.024141 0.000000 0.000000
# 5 0.000000 0.000000 0.000000 0.000000 0.020410 0.000000
# 6 0.000000 0.000000 0.000000 0.000000 0.000000 0.015382
#
#
# Mechanical properties :
#
#
# Convention : Reuss Voigt Hill
#
# Bulk Modulus (GPa) = 73.46306 74.93051 74.19679
# Shear Modulus (GPa) = 39.34560 43.43061 41.38810
#
# Velocity S-wave (km/s) = 3.91346 4.11160 4.01375
# Velocity P-wave (km/s) = 7.00110 7.19074 7.09656
#
# Compressibility (1/GPa) = 0.01361228
#
# Stress axis : x y z
#
# Youngs Moduli (GPa) = 90.99366 85.12362 65.04867
#
# Poissons Ratio (x) = 0.26301 0.22870
# Poissons Ratio (y) = 0.28114 0.36710
# Poissons Ratio (z) = 0.31992 0.48039
#
# Static dielectric constant tensor:
#      x y z
#    x 2.036550 0.000000 0.000000 
#    y 0.000000 2.007470 0.000000 
#    z 0.000000 0.000000 2.066110 
# 
# From -- ./inp_files/361.got.cif
#   From: 2010.05.17/outbox.cif.g08.bks.cpg/sg33_1_cif.got.tgz:361.got - 2010.06.03 17:15:25.
