data_PCOD9346057
_publ_section_title
;
Structure prediction by ZEFSAII (Michael W. Deem and Ramdas Pophale) SiO2 
 PCOD9346057
Probable space group: P N A 21
;
_chemical_formula_sum "Si O2"
_cell_formula_units_Z 32
_cell_length_a 11.276369
_cell_length_b 11.269495
_cell_length_c 10.670715
_cell_angle_alpha 90.000000
_cell_angle_beta 90.000000
_cell_angle_gamma 90.000000
_cell_volume 1356.023621
_symmetry_space_group_name_H-M "P N A 21"
_symmetry_group_IT_number 33
_symmetry_cell_setting 'orthorhombic'
loop_
_space_group_symop_operation_xyz
x,y,z
-x,-y,1/2+z
1/2-x,1/2+y,1/2+z
1/2+x,1/2-y,z
loop_
_atom_site_type_symbol
_atom_site_label
_atom_site_fract_x
_atom_site_fract_y
_atom_site_fract_z
Si Si1 0.276760 0.863299 0.976030
Si Si2 0.658583 0.563742 0.708639
Si Si3 0.100080 0.680713 0.383703
Si Si4 0.956213 0.059084 0.847082
Si Si5 0.988832 0.737820 0.632485
Si Si6 0.252265 0.582546 0.981361
Si Si7 0.002644 0.551964 0.852852
Si Si8 0.673739 0.408894 0.035232
O O1 0.217865 0.898229 0.840335
O O2 0.413560 0.898327 0.959468
O O3 0.258749 0.724818 0.001793
O O4 0.220066 0.960409 0.070801
O O5 0.539989 0.486829 0.736764
O O6 0.605424 0.680677 0.645958
O O7 0.736861 0.489636 0.611816
O O8 0.099222 0.811181 0.325976
O O9 0.226530 0.646549 0.443851
O O10 0.005056 0.679193 0.497818
O O11 0.050179 0.572476 0.303657
O O12 0.052635 0.074681 0.958133
O O13 0.861670 0.964689 0.896779
O O14 0.867958 0.814294 0.637943
O O15 0.994461 0.644430 0.741243
O O16 0.133487 0.550113 0.907723
#
# Coordination Sequence:
#
# PCOD9346057 Si02
#       8
#     4   4   4   4   4   4   4   4
#     4  10  24  46  68 107 155 186 253 315 365 464
#     4  11  23  44  73 105 142 209 237 303 389 449
#     4  10  23  43  68 102 146 187 247 310 362 448
#     4  10  23  42  67  98 143 192 250 299 372 451
#     4  11  22  41  75 103 141 196 244 292 392 443
#     4  12  24  43  77 108 151 197 250 316 377 445
#     4  11  26  42  70 111 145 187 253 321 355 447
#     4   9  21  43  68  96 145 190 238 300 372 447
#
# _framework density 23.598407999999999
#
# number of rings (size 3 to 8) (size 9 to 14) (size 15 to 20)
#    0.000    1.500    3.750    0.750    8.750    1.000 
#    4.500    3.750    0.000    0.000    0.000    0.000 
#    0.000    0.000    0.000    0.000    0.000    0.000 
#
# Total GULP energy -179010.514892 kJ/mol
# GULP energy per Si atom -5594.078590 kJ/mol
# Density = 2.354470 g / cm^3
# Si number density = 23.598408 Si / 1000 Ang^3
#
#
#
# Elastic Constant Matrix: (Units=GPa)
#
#
# Indices 1 2 3 4 5 6 
#
# 1 129.6804 62.9795 19.4389 0.0000 0.0000 0.0000
# 2 62.9795 171.9191 43.0093 0.0000 0.0000 0.0000
# 3 19.4389 43.0093 62.2763 0.0000 0.0000 0.0000
# 4 0.0000 0.0000 0.0000 47.8597 0.0000 0.0000
# 5 0.0000 0.0000 0.0000 0.0000 31.4069 0.0000
# 6 0.0000 0.0000 0.0000 0.0000 0.0000 34.2777
#
#
#
# Elastic Compliance Matrix: (Units=1/GPa)
#
#
# Indices 1 2 3 4 5 6 
#
# 1 0.009403 -0.003277 -0.000672 0.000000 0.000000 0.000000
# 2 -0.003277 0.008173 -0.004622 0.000000 0.000000 0.000000
# 3 -0.000672 -0.004622 0.019459 0.000000 0.000000 0.000000
# 4 0.000000 0.000000 0.000000 0.020894 0.000000 0.000000
# 5 0.000000 0.000000 0.000000 0.000000 0.031840 0.000000
# 6 0.000000 0.000000 0.000000 0.000000 0.000000 0.029173
#
#
# Mechanical properties :
#
#
# Convention : Reuss Voigt Hill
#
# Bulk Modulus (GPa) = 50.26538 68.30346 59.28442
# Shear Modulus (GPa) = 35.03445 38.60543 36.81994
#
# Velocity S-wave (km/s) = 3.85724 4.04906 3.95431
# Velocity P-wave (km/s) = 6.41750 7.13209 6.78421
#
# Compressibility (1/GPa) = 0.01989441
#
# Stress axis : x y z
#
# Youngs Moduli (GPa) = 106.34566 122.35030 51.38937
#
# Poissons Ratio (x) = 0.40089 0.03455
# Poissons Ratio (y) = 0.34845 0.23752
# Poissons Ratio (z) = 0.07150 0.56549
#
# Static dielectric constant tensor:
#      x y z
#    x 1.878200 0.000000 0.000000 
#    y 0.000000 1.970510 0.000000 
#    z 0.000000 0.000000 1.958370 
# 
# From -- ./inp_files/6446.got.cif
#   From: 2010.05.17/outbox.cif.g08.bks.cpg/sg33_4_cif.got.tgz:6446.got - 2010.06.03 17:15:25.
