data_PCOD9346054
_publ_section_title
;
Structure prediction by ZEFSAII (Michael W. Deem and Ramdas Pophale) SiO2 
 PCOD9346054
Probable space group: P N A 21
;
_chemical_formula_sum "Si O2"
_cell_formula_units_Z 32
_cell_length_a 8.432020
_cell_length_b 11.799312
_cell_length_c 15.422464
_cell_angle_alpha 90.000000
_cell_angle_beta 90.000000
_cell_angle_gamma 90.000000
_cell_volume 1534.412325
_symmetry_space_group_name_H-M "P N A 21"
_symmetry_group_IT_number 33
_symmetry_cell_setting 'orthorhombic'
loop_
_space_group_symop_operation_xyz
x,y,z
-x,-y,1/2+z
1/2-x,1/2+y,1/2+z
1/2+x,1/2-y,z
loop_
_atom_site_type_symbol
_atom_site_label
_atom_site_fract_x
_atom_site_fract_y
_atom_site_fract_z
Si Si1 0.397833 0.583919 0.467670
Si Si2 0.340678 0.403599 0.332298
Si Si3 0.731738 0.699447 0.425039
Si Si4 0.367083 0.732752 0.752843
Si Si5 0.899277 0.594454 0.590292
Si Si6 0.753433 0.455921 0.139512
Si Si7 0.276582 0.094589 0.701018
Si Si8 0.862032 0.670588 0.232888
O O1 0.385971 0.461636 0.422518
O O2 0.556062 0.649722 0.437737
O O3 0.254170 0.665755 0.436720
O O4 0.385328 0.569921 0.571283
O O5 0.481008 0.334803 0.285831
O O6 0.198565 0.313054 0.328873
O O7 0.293579 0.509793 0.272344
O O8 0.835171 0.647348 0.502809
O O9 0.800493 0.669133 0.331371
O O10 0.386033 0.815254 0.669460
O O11 0.251469 0.634273 0.717598
O O12 0.799607 0.483314 0.616555
O O13 0.082513 0.560588 0.588315
O O14 0.758916 0.580157 0.179313
O O15 0.167543 0.204465 0.695540
O O16 0.453988 0.134904 0.727601
#
# Coordination Sequence:
#
# PCOD9346054 Si02
#       8
#     4   4   4   4   4   4   4   4
#     4  12  26  41  66 104 137 180 228 289 342 407
#     4  11  25  44  68 101 135 178 231 287 343 414
#     4  12  24  41  69 104 135 174 232 291 337 401
#     4  11  22  43  70  96 134 178 233 281 346 406
#     4  10  23  42  67 101 131 174 230 289 331 404
#     4  11  24  42  68  99 137 183 222 282 342 411
#     4  10  24  41  68  99 136 179 220 280 350 411
#     4  11  24  44  66 102 139 180 224 281 355 414
#
# _framework density 20.854887999999999
#
# number of rings (size 3 to 8) (size 9 to 14) (size 15 to 20)
#    0.000    1.000    3.750    2.250    7.000    0.000 
#    0.000    5.000    0.000    0.000    0.000    0.000 
#    0.000    0.000    0.000    0.000    0.000    0.000 
#
# Total GULP energy -178875.976107 kJ/mol
# GULP energy per Si atom -5589.874253 kJ/mol
# Density = 2.080742 g / cm^3
# Si number density = 20.854888 Si / 1000 Ang^3
#
#
#
# Elastic Constant Matrix: (Units=GPa)
#
#
# Indices 1 2 3 4 5 6 
#
# 1 53.8579 44.5509 17.6813 0.0000 0.0000 0.0000
# 2 44.5509 154.6566 38.6005 0.0000 0.0000 0.0000
# 3 17.6813 38.6005 62.3005 0.0000 0.0000 0.0000
# 4 0.0000 0.0000 0.0000 39.3791 0.0000 0.0000
# 5 0.0000 0.0000 0.0000 0.0000 22.5857 0.0000
# 6 0.0000 0.0000 0.0000 0.0000 0.0000 38.4829
#
#
#
# Elastic Compliance Matrix: (Units=1/GPa)
#
#
# Indices 1 2 3 4 5 6 
#
# 1 0.024871 -0.006391 -0.003099 0.000000 0.000000 0.000000
# 2 -0.006391 0.009291 -0.003943 0.000000 0.000000 0.000000
# 3 -0.003099 -0.003943 0.019374 0.000000 0.000000 0.000000
# 4 0.000000 0.000000 0.000000 0.025394 0.000000 0.000000
# 5 0.000000 0.000000 0.000000 0.000000 0.044276 0.000000
# 6 0.000000 0.000000 0.000000 0.000000 0.000000 0.025986
#
#
# Mechanical properties :
#
#
# Convention : Reuss Voigt Hill
#
# Bulk Modulus (GPa) = 37.49445 52.49782 44.99614
# Shear Modulus (GPa) = 27.03475 31.42169 29.22822
#
# Velocity S-wave (km/s) = 3.60436 3.88581 3.74773
# Velocity P-wave (km/s) = 5.94472 6.73500 6.35216
#
# Compressibility (1/GPa) = 0.02667061
#
# Stress axis : x y z
#
# Youngs Moduli (GPa) = 40.20682 107.63048 51.61667
#
# Poissons Ratio (x) = 0.68788 0.15995
# Poissons Ratio (y) = 0.25697 0.20351
# Poissons Ratio (z) = 0.12459 0.42436
#
# Static dielectric constant tensor:
#      x y z
#    x 1.797250 0.000000 0.000000 
#    y 0.000000 1.737840 0.000000 
#    z 0.000000 0.000000 1.730650 
# 
# From -- ./inp_files/7620.got.cif
#   From: 2010.05.17/outbox.cif.g08.bks.cpg/sg33_4_cif.got.tgz:7620.got - 2010.06.03 17:15:25.
