data_PCOD9346494
_publ_section_title
;
Structure prediction by ZEFSAII (Michael W. Deem and Ramdas Pophale) SiO2 
 PCOD9346494
Probable space group: P N A 21
;
_chemical_formula_sum "Si O2"
_cell_formula_units_Z 32
_cell_length_a 10.958669
_cell_length_b 5.492787
_cell_length_c 20.870198
_cell_angle_alpha 90.000000
_cell_angle_beta 90.000000
_cell_angle_gamma 90.000000
_cell_volume 1256.253073
_symmetry_space_group_name_H-M "P N A 21"
_symmetry_group_IT_number 33
_symmetry_cell_setting 'orthorhombic'
loop_
_space_group_symop_operation_xyz
x,y,z
-x,-y,1/2+z
1/2-x,1/2+y,1/2+z
1/2+x,1/2-y,z
loop_
_atom_site_type_symbol
_atom_site_label
_atom_site_fract_x
_atom_site_fract_y
_atom_site_fract_z
Si Si1 0.844877 0.307932 0.923500
Si Si2 0.462143 0.573998 0.581902
Si Si3 0.998819 0.643265 0.294930
Si Si4 0.270068 0.144310 0.263601
Si Si5 0.857618 0.042627 0.354015
Si Si6 0.542861 0.306629 0.460587
Si Si7 0.643007 0.742126 0.188497
Si Si8 0.772914 0.137927 0.121239
O O1 0.706283 0.345798 0.901168
O O2 0.928821 0.323617 0.860245
O O3 0.890073 0.545413 0.963839
O O4 0.865829 0.037653 0.951125
O O5 0.466941 0.384559 0.523481
O O6 0.444368 0.422369 0.646786
O O7 0.344853 0.753698 0.583502
O O8 0.598189 0.683662 0.587609
O O9 0.895823 0.440149 0.294574
O O10 0.064842 0.567820 0.228417
O O11 0.924034 0.901081 0.295414
O O12 0.239592 0.326004 0.320933
O O13 0.281091 0.245368 0.192109
O O14 0.190754 0.909715 0.249328
O O15 0.950348 0.179981 0.400822
O O16 0.741196 0.858553 0.140679
#
# Coordination Sequence:
#
# PCOD9346494 Si02
#       8
#     4   4   4   4   4   4   4   4
#     4  11  26  45  73 102 147 191 253 307 386 457
#     4  11  27  47  75 104 151 202 268 321 398 471
#     4  11  22  41  66 104 144 189 244 314 390 469
#     4  11  21  39  68 100 144 186 241 313 388 463
#     4  11  25  41  68 101 147 190 248 312 386 465
#     4  11  28  48  71 107 142 206 251 317 380 462
#     4  11  24  41  72 108 147 195 254 322 401 465
#     4  11  25  46  73 110 146 201 259 332 397 476
#
# _framework density 25.472574000000002
#
# number of rings (size 3 to 8) (size 9 to 14) (size 15 to 20)
#    0.000    1.000    1.250    4.500    8.750    4.000 
#    0.000    0.000    0.000    0.000    0.000    0.000 
#    0.000    0.000    0.000    0.000    0.000    0.000 
#
# Total GULP energy -178661.127162 kJ/mol
# GULP energy per Si atom -5583.160224 kJ/mol
# Density = 2.541460 g / cm^3
# Si number density = 25.472574 Si / 1000 Ang^3
#
#
#
# Elastic Constant Matrix: (Units=GPa)
#
#
# Indices 1 2 3 4 5 6 
#
# 1 94.5232 15.1022 16.8206 0.0000 0.0000 0.0000
# 2 15.1022 83.2251 17.7031 0.0000 0.0000 0.0000
# 3 16.8206 17.7031 76.3061 0.0000 0.0000 0.0000
# 4 0.0000 0.0000 0.0000 40.9960 0.0000 0.0000
# 5 0.0000 0.0000 0.0000 0.0000 15.1703 0.0000
# 6 0.0000 0.0000 0.0000 0.0000 0.0000 26.7069
#
#
#
# Elastic Compliance Matrix: (Units=1/GPa)
#
#
# Indices 1 2 3 4 5 6 
#
# 1 0.011207 -0.001586 -0.002102 0.000000 0.000000 0.000000
# 2 -0.001586 0.012864 -0.002635 0.000000 0.000000 0.000000
# 3 -0.002102 -0.002635 0.014180 0.000000 0.000000 0.000000
# 4 0.000000 0.000000 0.000000 0.024393 0.000000 0.000000
# 5 0.000000 0.000000 0.000000 0.000000 0.065918 0.000000
# 6 0.000000 0.000000 0.000000 0.000000 0.000000 0.037444
#
#
# Mechanical properties :
#
#
# Convention : Reuss Voigt Hill
#
# Bulk Modulus (GPa) = 39.05694 39.25624 39.15659
# Shear Modulus (GPa) = 26.71127 30.20320 28.45724
#
# Velocity S-wave (km/s) = 3.24177 3.44716 3.34604
# Velocity P-wave (km/s) = 5.42017 5.59361 5.50758
#
# Compressibility (1/GPa) = 0.02560365
#
# Stress axis : x y z
#
# Youngs Moduli (GPa) = 89.22998 77.73677 70.52278
#
# Poissons Ratio (x) = 0.12332 0.14826
# Poissons Ratio (y) = 0.14156 0.18581
# Poissons Ratio (z) = 0.18759 0.20482
#
# Static dielectric constant tensor:
#      x y z
#    x 2.051910 0.000000 0.000000 
#    y 0.000000 2.350430 0.000000 
#    z 0.000000 0.000000 1.939650 
# 
# From -- ./inp_files/9089.got.cif
#   From: 2010.05.17/outbox.cif.g08.bks.cpg/sg33_5_cif.got.tgz:9089.got - 2010.06.03 17:15:25.
