data_PCOD9346041
_publ_section_title
;
Structure prediction by ZEFSAII (Michael W. Deem and Ramdas Pophale) SiO2 
 PCOD9346041
Probable space group: P N A 21
;
_chemical_formula_sum "Si O2"
_cell_formula_units_Z 24
_cell_length_a 12.371868
_cell_length_b 14.705462
_cell_length_c 6.442729
_cell_angle_alpha 90.000000
_cell_angle_beta 90.000000
_cell_angle_gamma 90.000000
_cell_volume 1172.151682
_symmetry_space_group_name_H-M "P N A 21"
_symmetry_group_IT_number 33
_symmetry_cell_setting 'orthorhombic'
loop_
_space_group_symop_operation_xyz
x,y,z
-x,-y,1/2+z
1/2-x,1/2+y,1/2+z
1/2+x,1/2-y,z
loop_
_atom_site_type_symbol
_atom_site_label
_atom_site_fract_x
_atom_site_fract_y
_atom_site_fract_z
Si Si1 0.198566 0.340431 0.768410
Si Si2 0.844527 0.485300 0.562288
Si Si3 0.879158 0.916045 0.942350
Si Si4 0.938649 0.115214 0.774638
Si Si5 0.948888 0.615256 0.884871
Si Si6 0.582491 0.279186 0.090530
O O1 0.324579 0.340808 0.713957
O O2 0.124389 0.343311 0.566428
O O3 0.174073 0.432833 0.897743
O O4 0.165302 0.259018 0.920014
O O5 0.730317 0.433905 0.570827
O O6 0.884205 0.532558 0.774324
O O7 0.939955 0.421835 0.478083
O O8 0.862209 0.844746 0.757817
O O9 0.916029 0.011340 0.840575
O O10 0.975179 0.882852 0.090262
O O11 0.989341 0.166663 0.970978
O O12 0.965016 0.692396 0.712002
#
# Coordination Sequence:
#
# PCOD9346041 Si02
#       6
#     4   4   4   4   4   4
#     4  10  24  44  67 101 135 176 226 286 338 403
#     4  10  23  41  72  98 130 179 225 277 341 406
#     4  11  24  43  69  99 133 182 226 281 344 406
#     4  11  24  45  70  99 135 178 232 282 341 408
#     4  11  22  45  69 101 136 174 228 280 341 404
#     4  11  25  44  65 102 135 179 227 280 345 399
#
# _framework density 20.475166999999999
#
# number of rings (size 3 to 8) (size 9 to 14) (size 15 to 20)
#    0.000    1.333    3.333    1.000    4.667    1.333 
#    9.000    0.000    0.000    0.000    0.000    0.000 
#    0.000    0.000    0.000    0.000    0.000    0.000 
#
# Total GULP energy -134251.351951 kJ/mol
# GULP energy per Si atom -5593.806331 kJ/mol
# Density = 2.042856 g / cm^3
# Si number density = 20.475167 Si / 1000 Ang^3
#
#
#
# Elastic Constant Matrix: (Units=GPa)
#
#
# Indices 1 2 3 4 5 6 
#
# 1 141.1228 55.3046 54.8919 0.0000 0.0000 0.0000
# 2 55.3046 96.9337 42.1675 0.0000 0.0000 0.0000
# 3 54.8919 42.1675 96.7021 0.0000 0.0000 0.0000
# 4 0.0000 0.0000 0.0000 38.1548 0.0000 0.0000
# 5 0.0000 0.0000 0.0000 0.0000 26.2266 0.0000
# 6 0.0000 0.0000 0.0000 0.0000 0.0000 6.1560
#
#
#
# Elastic Compliance Matrix: (Units=1/GPa)
#
#
# Indices 1 2 3 4 5 6 
#
# 1 0.010263 -0.004099 -0.004038 0.000000 0.000000 0.000000
# 2 -0.004099 0.014368 -0.003939 0.000000 0.000000 0.000000
# 3 -0.004038 -0.003939 0.014351 0.000000 0.000000 0.000000
# 4 0.000000 0.000000 0.000000 0.026209 0.000000 0.000000
# 5 0.000000 0.000000 0.000000 0.000000 0.038129 0.000000
# 6 0.000000 0.000000 0.000000 0.000000 0.000000 0.162444
#
#
# Mechanical properties :
#
#
# Convention : Reuss Voigt Hill
#
# Bulk Modulus (GPa) = 67.42909 71.05407 69.24158
# Shear Modulus (GPa) = 16.95723 26.26712 21.61217
#
# Velocity S-wave (km/s) = 2.88094 3.58561 3.25242
# Velocity P-wave (km/s) = 6.63853 7.20556 6.92785
#
# Compressibility (1/GPa) = 0.01483039
#
# Stress axis : x y z
#
# Youngs Moduli (GPa) = 97.43640 69.59799 69.68181
#
# Poissons Ratio (x) = 0.28526 0.28141
# Poissons Ratio (y) = 0.39937 0.27446
# Poissons Ratio (z) = 0.39349 0.27413
#
# Static dielectric constant tensor:
#      x y z
#    x 1.685840 0.000000 0.000000 
#    y 0.000000 1.737780 0.000000 
#    z 0.000000 0.000000 1.702650 
# 
# From -- ./inp_files/785.got.cif
#   From: 2010.05.17/outbox.cif.g08.bks.cpg/sg33_1_cif.got.tgz:785.got - 2010.06.03 17:15:25.
