data_PCOD9346312
_publ_section_title
;
Structure prediction by ZEFSAII (Michael W. Deem and Ramdas Pophale) SiO2 
 PCOD9346312
Probable space group: P N A 21
;
_chemical_formula_sum "Si O2"
_cell_formula_units_Z 12
_cell_length_a 9.116128
_cell_length_b 4.932459
_cell_length_c 9.115248
_cell_angle_alpha 90.000000
_cell_angle_beta 90.000000
_cell_angle_gamma 90.000000
_cell_volume 409.866466
_symmetry_space_group_name_H-M "P N A 21"
_symmetry_group_IT_number 33
_symmetry_cell_setting 'orthorhombic'
loop_
_space_group_symop_operation_xyz
x,y,z
-x,-y,1/2+z
1/2-x,1/2+y,1/2+z
1/2+x,1/2-y,z
loop_
_atom_site_type_symbol
_atom_site_label
_atom_site_fract_x
_atom_site_fract_y
_atom_site_fract_z
Si Si1 0.578978 0.306019 0.237830
Si Si2 0.627032 0.971098 0.967315
Si Si3 0.182985 0.121548 0.724353
O O1 0.492699 0.590846 0.220219
O O2 0.493425 0.188521 0.377028
O O3 0.741410 0.173418 0.251063
O O4 0.541026 0.164525 0.082034
O O5 0.714474 0.172632 0.856191
O O6 0.741097 0.804959 0.070207
#
# Coordination Sequence:
#
# PCOD9346312 Si02
#       3
#     4   4   4
#     4  10  24  44  75 103 143 196 249 303 370 440
#     4  10  24  44  73 106 144 193 249 306 365 444
#     4  10  24  44  74 105 147 189 250 311 363 448
#
# _framework density 29.277826999999998
#
# number of rings (size 3 to 8) (size 9 to 14) (size 15 to 20)
#    2.000    0.000    0.000    2.000    0.000   13.333 
#    0.000    0.000    0.000    0.000    0.000    0.000 
#    0.000    0.000    0.000    0.000    0.000    0.000 
#
# Total GULP energy -67011.366926 kJ/mol
# GULP energy per Si atom -5584.280577 kJ/mol
# Density = 2.921119 g / cm^3
# Si number density = 29.277827 Si / 1000 Ang^3
#
#
#
# Elastic Constant Matrix: (Units=GPa)
#
#
# Indices 1 2 3 4 5 6 
#
# 1 176.7312 6.7420 43.6206 0.0000 0.0000 0.0000
# 2 6.7420 65.8262 16.3369 0.0000 0.0000 0.0000
# 3 43.6206 16.3369 184.0253 0.0000 0.0000 0.0000
# 4 0.0000 0.0000 0.0000 43.3124 0.0000 0.0000
# 5 0.0000 0.0000 0.0000 0.0000 59.3221 0.0000
# 6 0.0000 0.0000 0.0000 0.0000 0.0000 38.4620
#
#
#
# Elastic Compliance Matrix: (Units=1/GPa)
#
#
# Indices 1 2 3 4 5 6 
#
# 1 0.006015 -0.000268 -0.001402 0.000000 0.000000 0.000000
# 2 -0.000268 0.015546 -0.001317 0.000000 0.000000 0.000000
# 3 -0.001402 -0.001317 0.005883 0.000000 0.000000 0.000000
# 4 0.000000 0.000000 0.000000 0.023088 0.000000 0.000000
# 5 0.000000 0.000000 0.000000 0.000000 0.016857 0.000000
# 6 0.000000 0.000000 0.000000 0.000000 0.000000 0.026000
#
#
# Mechanical properties :
#
#
# Convention : Reuss Voigt Hill
#
# Bulk Modulus (GPa) = 46.57556 62.22020 54.39788
# Shear Modulus (GPa) = 46.94034 52.21150 49.57592
#
# Velocity S-wave (km/s) = 4.00843 4.22751 4.11943
# Velocity P-wave (km/s) = 6.11278 6.71766 6.42234
#
# Compressibility (1/GPa) = 0.02147049
#
# Stress axis : x y z
#
# Youngs Moduli (GPa) = 166.26365 64.32637 169.97541
#
# Poissons Ratio (x) = 0.01725 0.23828
# Poissons Ratio (y) = 0.04458 0.22378
# Poissons Ratio (z) = 0.23308 0.08469
#
# Static dielectric constant tensor:
#      x y z
#    x 2.492880 0.000000 0.000000 
#    y 0.000000 2.323160 0.000000 
#    z 0.000000 0.000000 2.403670 
# 
# From -- ./inp_files/2886.got.cif
#   From: 2010.05.17/outbox.cif.g08.bks.cpg/sg33_2_cif.got.tgz:2886.got - 2010.06.03 17:15:25.
