data_PCOD9346123
_publ_section_title
;
Structure prediction by ZEFSAII (Michael W. Deem and Ramdas Pophale) SiO2 
 PCOD9346123
Probable space group: P N A 21
;
_chemical_formula_sum "Si O2"
_cell_formula_units_Z 32
_cell_length_a 16.213701
_cell_length_b 7.990653
_cell_length_c 11.892462
_cell_angle_alpha 90.000000
_cell_angle_beta 90.000000
_cell_angle_gamma 90.000000
_cell_volume 1540.764288
_symmetry_space_group_name_H-M "P N A 21"
_symmetry_group_IT_number 33
_symmetry_cell_setting 'orthorhombic'
loop_
_space_group_symop_operation_xyz
x,y,z
-x,-y,1/2+z
1/2-x,1/2+y,1/2+z
1/2+x,1/2-y,z
loop_
_atom_site_type_symbol
_atom_site_label
_atom_site_fract_x
_atom_site_fract_y
_atom_site_fract_z
Si Si1 0.256445 0.042572 0.992800
Si Si2 0.697782 0.575876 0.527008
Si Si3 0.178103 0.977201 0.776225
Si Si4 0.881576 0.970288 0.657867
Si Si5 0.232870 0.604725 0.810337
Si Si6 0.021864 0.774346 0.524569
Si Si7 0.984760 0.813921 0.273798
Si Si8 0.893312 0.544169 0.133196
O O1 0.237179 0.068576 0.863403
O O2 0.272030 0.231246 0.036327
O O3 0.178384 0.967596 0.058170
O O4 0.334978 0.929769 0.024168
O O5 0.707135 0.496042 0.649301
O O6 0.745408 0.479868 0.428972
O O7 0.599048 0.597783 0.510057
O O8 0.188936 0.784186 0.811647
O O9 0.085018 0.042621 0.787621
O O10 0.819823 0.880007 0.744557
O O11 0.948335 0.856601 0.594509
O O12 0.930952 0.108320 0.727820
O O13 0.171938 0.493202 0.733362
O O14 0.995507 0.731616 0.396896
O O15 0.054257 0.617481 0.596519
O O16 0.950219 0.689292 0.179396
#
# Coordination Sequence:
#
# PCOD9346123 Si02
#       8
#     4   4   4   4   4   4   4   4
#     4  10  23  44  65  94 137 172 225 283 330 412
#     4  11  22  44  67  96 136 178 218 285 342 401
#     4  12  23  42  69  97 130 185 226 280 348 403
#     4  11  21  42  67  97 133 175 223 282 345 399
#     4  11  23  42  70 100 131 178 231 277 339 419
#     4  11  22  45  66  96 142 175 221 289 345 403
#     4  12  24  42  70 100 137 184 221 287 352 408
#     4  10  24  47  64  96 140 175 223 281 337 409
#
# _framework density 20.768913000000001
#
# number of rings (size 3 to 8) (size 9 to 14) (size 15 to 20)
#    0.000    1.000    7.500    0.750    1.750    0.000 
#    6.750    0.000    0.000    0.000    0.000    0.000 
#    0.000    0.000    0.000    0.000    0.000    0.000 
#
# Total GULP energy -178671.340889 kJ/mol
# GULP energy per Si atom -5583.479403 kJ/mol
# Density = 2.072164 g / cm^3
# Si number density = 20.768913 Si / 1000 Ang^3
#
#
#
# Elastic Constant Matrix: (Units=GPa)
#
#
# Indices 1 2 3 4 5 6 
#
# 1 79.6209 30.7872 37.1803 0.0000 0.0000 0.0000
# 2 30.7872 45.6504 19.9809 0.0000 0.0000 0.0000
# 3 37.1803 19.9809 132.8547 0.0000 0.0000 0.0000
# 4 0.0000 0.0000 0.0000 35.6845 0.0000 0.0000
# 5 0.0000 0.0000 0.0000 0.0000 31.9468 0.0000
# 6 0.0000 0.0000 0.0000 0.0000 0.0000 21.9155
#
#
#
# Elastic Compliance Matrix: (Units=1/GPa)
#
#
# Indices 1 2 3 4 5 6 
#
# 1 0.018406 -0.010875 -0.003516 0.000000 0.000000 0.000000
# 2 -0.010875 0.029874 -0.001450 0.000000 0.000000 0.000000
# 3 -0.003516 -0.001450 0.008729 0.000000 0.000000 0.000000
# 4 0.000000 0.000000 0.000000 0.028023 0.000000 0.000000
# 5 0.000000 0.000000 0.000000 0.000000 0.031302 0.000000
# 6 0.000000 0.000000 0.000000 0.000000 0.000000 0.045630
#
#
# Mechanical properties :
#
#
# Convention : Reuss Voigt Hill
#
# Bulk Modulus (GPa) = 39.47965 48.22476 43.85221
# Shear Modulus (GPa) = 24.74183 29.25452 26.99817
#
# Velocity S-wave (km/s) = 3.45525 3.75717 3.60937
# Velocity P-wave (km/s) = 5.91343 6.48782 6.20727
#
# Compressibility (1/GPa) = 0.02532951
#
# Stress axis : x y z
#
# Youngs Moduli (GPa) = 54.32999 33.47390 114.56203
#
# Poissons Ratio (x) = 0.36401 0.40275
# Poissons Ratio (y) = 0.59081 0.16607
# Poissons Ratio (z) = 0.19100 0.04853
#
# Static dielectric constant tensor:
#      x y z
#    x 1.750120 0.000000 0.000000 
#    y 0.000000 1.766150 0.000000 
#    z 0.000000 0.000000 1.783640 
# 
# From -- ./inp_files/6806.got.cif
#   From: 2010.05.17/outbox.cif.g08.bks.cpg/sg33_4_cif.got.tgz:6806.got - 2010.06.03 17:15:25.
