data_PCOD9346073
_publ_section_title
;
Structure prediction by ZEFSAII (Michael W. Deem and Ramdas Pophale) SiO2 
 PCOD9346073
Probable space group: P N A 21
;
_chemical_formula_sum "Si O2"
_cell_formula_units_Z 32
_cell_length_a 21.727329
_cell_length_b 10.334829
_cell_length_c 5.869012
_cell_angle_alpha 90.000000
_cell_angle_beta 90.000000
_cell_angle_gamma 90.000000
_cell_volume 1317.876256
_symmetry_space_group_name_H-M "P N A 21"
_symmetry_group_IT_number 33
_symmetry_cell_setting 'orthorhombic'
loop_
_space_group_symop_operation_xyz
x,y,z
-x,-y,1/2+z
1/2-x,1/2+y,1/2+z
1/2+x,1/2-y,z
loop_
_atom_site_type_symbol
_atom_site_label
_atom_site_fract_x
_atom_site_fract_y
_atom_site_fract_z
Si Si1 0.359204 0.349332 0.602450
Si Si2 0.588896 0.479247 0.489101
Si Si3 0.524986 0.685086 0.795458
Si Si4 0.850082 0.799480 0.390951
Si Si5 0.646260 0.048265 0.614116
Si Si6 0.737859 0.504657 0.820230
Si Si7 0.072364 0.367160 0.226095
Si Si8 0.835427 0.425343 0.532545
O O1 0.366580 0.460300 0.794056
O O2 0.426264 0.319218 0.498997
O O3 0.313941 0.394077 0.396699
O O4 0.335787 0.208210 0.671017
O O5 0.556651 0.605087 0.595805
O O6 0.534143 0.394584 0.383893
O O7 0.618095 0.392698 0.696621
O O8 0.498024 0.822434 0.711805
O O9 0.834657 0.664088 0.278032
O O10 0.890314 0.753167 0.606583
O O11 0.788097 0.875809 0.438868
O O12 0.697713 0.046220 0.424256
O O13 0.585321 0.099692 0.490627
O O14 0.650477 0.919164 0.762649
O O15 0.764857 0.477065 0.568494
O O16 0.104303 0.490566 0.107991
#
# Coordination Sequence:
#
# PCOD9346073 Si02
#       8
#     4   4   4   4   4   4   4   4
#     4  12  27  44  68 107 143 186 242 300 370 447
#     4  12  24  42  70 104 141 182 233 309 358 447
#     4  12  23  42  70 101 138 175 237 293 368 434
#     4  11  22  41  68  98 131 174 236 288 364 426
#     4  10  23  42  72  89 138 181 230 287 353 432
#     4  11  24  42  68 101 136 182 235 297 358 434
#     4  10  23  45  68 100 133 189 233 296 361 445
#     4  10  26  48  64 102 140 187 242 292 368 447
#
# _framework density 24.281490000000002
#
# number of rings (size 3 to 8) (size 9 to 14) (size 15 to 20)
#    0.000    1.000    3.750    2.250    1.750    5.000 
#    6.750    0.000    0.000    0.000    0.000    0.000 
#    0.000    0.000    0.000    0.000    0.000    0.000 
#
# Total GULP energy -178281.097449 kJ/mol
# GULP energy per Si atom -5571.284295 kJ/mol
# Density = 2.422622 g / cm^3
# Si number density = 24.281490 Si / 1000 Ang^3
#
#
#
# Elastic Constant Matrix: (Units=GPa)
#
#
# Indices 1 2 3 4 5 6 
#
# 1 70.5317 10.2418 26.8808 0.0000 0.0000 0.0000
# 2 10.2418 70.3623 11.3262 0.0000 0.0000 0.0000
# 3 26.8808 11.3262 65.0093 0.0000 0.0000 0.0000
# 4 0.0000 0.0000 0.0000 35.6620 0.0000 0.0000
# 5 0.0000 0.0000 0.0000 0.0000 36.7079 0.0000
# 6 0.0000 0.0000 0.0000 0.0000 0.0000 34.1505
#
#
#
# Elastic Compliance Matrix: (Units=1/GPa)
#
#
# Indices 1 2 3 4 5 6 
#
# 1 0.016959 -0.001378 -0.006772 0.000000 0.000000 0.000000
# 2 -0.001378 0.014734 -0.001997 0.000000 0.000000 0.000000
# 3 -0.006772 -0.001997 0.018531 0.000000 0.000000 0.000000
# 4 0.000000 0.000000 0.000000 0.028041 0.000000 0.000000
# 5 0.000000 0.000000 0.000000 0.000000 0.027242 0.000000
# 6 0.000000 0.000000 0.000000 0.000000 0.000000 0.029282
#
#
# Mechanical properties :
#
#
# Convention : Reuss Voigt Hill
#
# Bulk Modulus (GPa) = 33.41303 33.64454 33.52878
# Shear Modulus (GPa) = 30.29178 31.80105 31.04642
#
# Velocity S-wave (km/s) = 3.53586 3.62288 3.57964
# Velocity P-wave (km/s) = 5.51909 5.60236 5.56088
#
# Compressibility (1/GPa) = 0.02992845
#
# Stress axis : x y z
#
# Youngs Moduli (GPa) = 58.96498 67.86897 53.96465
#
# Poissons Ratio (x) = 0.09355 0.36547
# Poissons Ratio (y) = 0.08128 0.10777
# Poissons Ratio (z) = 0.39933 0.13554
#
# Static dielectric constant tensor:
#      x y z
#    x 1.935010 0.000000 0.000000 
#    y 0.000000 2.008740 0.000000 
#    z 0.000000 0.000000 2.195540 
# 
# From -- ./inp_files/2059.got.cif
#   From: 2010.05.17/outbox.cif.g08.bks.cpg/sg33_2_cif.got.tgz:2059.got - 2010.06.03 17:15:25.
