data_PCOD9346167
_publ_section_title
;
Structure prediction by ZEFSAII (Michael W. Deem and Ramdas Pophale) SiO2 
 PCOD9346167
Probable space group: P N A 21
;
_chemical_formula_sum "Si O2"
_cell_formula_units_Z 28
_cell_length_a 9.634049
_cell_length_b 6.915287
_cell_length_c 17.064759
_cell_angle_alpha 90.000000
_cell_angle_beta 90.000000
_cell_angle_gamma 90.000000
_cell_volume 1136.892023
_symmetry_space_group_name_H-M "P N A 21"
_symmetry_group_IT_number 33
_symmetry_cell_setting 'orthorhombic'
loop_
_space_group_symop_operation_xyz
x,y,z
-x,-y,1/2+z
1/2-x,1/2+y,1/2+z
1/2+x,1/2-y,z
loop_
_atom_site_type_symbol
_atom_site_label
_atom_site_fract_x
_atom_site_fract_y
_atom_site_fract_z
Si Si1 0.680567 0.006111 0.892480
Si Si2 0.360283 0.981274 0.680041
Si Si3 0.581808 0.701181 0.636339
Si Si4 0.210473 0.100003 0.836886
Si Si5 0.282801 0.171265 0.000419
Si Si6 0.416749 0.366451 0.581836
Si Si7 0.524183 0.329147 0.407839
O O1 0.677475 0.173241 0.827875
O O2 0.551716 0.867645 0.886556
O O3 0.700221 0.133350 0.972812
O O4 0.818056 0.874242 0.886817
O O5 0.293767 0.032673 0.762626
O O6 0.373789 0.168499 0.624050
O O7 0.504165 0.864890 0.684275
O O8 0.244491 0.832200 0.647617
O O9 0.579549 0.766909 0.545514
O O10 0.505449 0.496579 0.642125
O O11 0.305366 0.086039 0.914439
O O12 0.070492 0.989930 0.862999
O O13 0.494181 0.663540 0.002498
O O14 0.207486 0.003521 0.050139
#
# Coordination Sequence:
#
# PCOD9346167 Si02
#       7
#     4   4   4   4   4   4   4
#     4  10  23  45  74 110 145 186 260 314 365 443
#     4  12  29  47  78 112 154 204 243 324 388 446
#     4  12  25  48  73 113 155 192 260 309 377 455
#     4   9  25  48  69 107 153 195 250 313 371 448
#     4   9  21  49  72 105 154 197 251 315 353 458
#     4  11  24  43  74 109 144 202 249 304 377 447
#     4  11  23  42  76 106 141 200 251 303 385 435
#
# _framework density 24.628550000000001
#
# number of rings (size 3 to 8) (size 9 to 14) (size 15 to 20)
#    0.857    0.571    2.857    0.857    2.000    5.714 
#    0.000    1.429    0.000    0.000    0.000    0.000 
#    0.000    0.000    0.000    0.000    0.000    0.000 
#
# Total GULP energy -156550.904946 kJ/mol
# GULP energy per Si atom -5591.103748 kJ/mol
# Density = 2.457249 g / cm^3
# Si number density = 24.628550 Si / 1000 Ang^3
#
#
#
# Elastic Constant Matrix: (Units=GPa)
#
#
# Indices 1 2 3 4 5 6 
#
# 1 96.3507 61.2418 -6.6292 0.0000 0.0000 0.0000
# 2 61.2418 121.0208 8.8548 0.0000 0.0000 0.0000
# 3 -6.6292 8.8548 42.4879 0.0000 0.0000 0.0000
# 4 0.0000 0.0000 0.0000 23.2588 0.0000 0.0000
# 5 0.0000 0.0000 0.0000 0.0000 14.3331 0.0000
# 6 0.0000 0.0000 0.0000 0.0000 0.0000 35.9897
#
#
#
# Elastic Compliance Matrix: (Units=1/GPa)
#
#
# Indices 1 2 3 4 5 6 
#
# 1 0.016023 -0.008420 0.004255 0.000000 0.000000 0.000000
# 2 -0.008420 0.012815 -0.003985 0.000000 0.000000 0.000000
# 3 0.004255 -0.003985 0.025030 0.000000 0.000000 0.000000
# 4 0.000000 0.000000 0.000000 0.042994 0.000000 0.000000
# 5 0.000000 0.000000 0.000000 0.000000 0.069769 0.000000
# 6 0.000000 0.000000 0.000000 0.000000 0.000000 0.027786
#
#
# Mechanical properties :
#
#
# Convention : Reuss Voigt Hill
#
# Bulk Modulus (GPa) = 26.61700 42.97713 34.79706
# Shear Modulus (GPa) = 22.39741 27.80911 25.10326
#
# Velocity S-wave (km/s) = 3.01891 3.36392 3.19607
# Velocity P-wave (km/s) = 4.79402 5.70753 5.27060
#
# Compressibility (1/GPa) = 0.03756998
#
# Stress axis : x y z
#
# Youngs Moduli (GPa) = 62.40943 78.03145 39.95142
#
# Poissons Ratio (x) = 0.65701 -0.16998
# Poissons Ratio (y) = 0.52547 0.15919
# Poissons Ratio (z) = -0.26554 0.31092
#
# Static dielectric constant tensor:
#      x y z
#    x 1.929100 0.000000 0.000000 
#    y 0.000000 2.053090 0.000000 
#    z 0.000000 0.000000 2.038080 
# 
# From -- ./inp_files/9251.got.cif
#   From: 2010.05.17/outbox.cif.g08.bks.cpg/sg33_5_cif.got.tgz:9251.got - 2010.06.03 17:15:25.
