data_PCOD9346962
_publ_section_title
;
Structure prediction by ZEFSAII (Michael W. Deem and Ramdas Pophale) SiO2 
 PCOD9346962
Probable space group: P N A 21
;
_chemical_formula_sum "Si O2"
_cell_formula_units_Z 28
_cell_length_a 10.150596
_cell_length_b 10.614211
_cell_length_c 9.714467
_cell_angle_alpha 90.000000
_cell_angle_beta 90.000000
_cell_angle_gamma 90.000000
_cell_volume 1046.642190
_symmetry_space_group_name_H-M "P N A 21"
_symmetry_group_IT_number 33
_symmetry_cell_setting 'orthorhombic'
loop_
_space_group_symop_operation_xyz
x,y,z
-x,-y,1/2+z
1/2-x,1/2+y,1/2+z
1/2+x,1/2-y,z
loop_
_atom_site_type_symbol
_atom_site_label
_atom_site_fract_x
_atom_site_fract_y
_atom_site_fract_z
Si Si1 0.220096 0.994651 0.943770
Si Si2 1.000000 0.546521 0.530376
Si Si3 0.779904 0.994650 0.116984
Si Si4 0.380841 0.264065 0.210615
Si Si5 0.141622 0.134472 0.353090
Si Si6 0.141621 0.865528 0.207665
Si Si7 0.380841 0.735936 0.350137
O O1 0.164746 0.137304 0.969813
O O2 0.197472 0.000000 0.780377
O O3 0.375398 0.974756 0.969050
O O4 0.832605 0.000000 0.780378
O O5 0.064802 0.636927 0.643299
O O6 0.875398 0.474756 0.591703
O O7 0.935197 0.636925 0.417452
O O8 0.835255 0.137303 0.090941
O O9 0.849908 0.899683 0.013699
O O10 0.255839 0.228858 0.304156
O O11 0.503274 0.316419 0.297483
O O12 0.849909 0.100315 0.547056
O O13 0.255838 0.771141 0.256597
O O14 0.003274 0.816420 0.263271
#
# Coordination Sequence:
#
# PCOD9346962 Si02
#       7
#     4   4   4   4   4   4   4
#     4  12  29  50  80 123 167 214 277 344 417 493
#     4  12  24  50  78 116 160 222 260 342 412 482
#     4  12  29  50  80 123 167 214 277 344 417 493
#     4  12  26  52  86 119 167 216 281 347 406 505
#     4  12  27  53  87 120 164 224 276 341 425 492
#     4  12  27  53  87 120 164 224 276 341 425 492
#     4  12  26  52  86 119 167 216 281 347 406 505
#
# _framework density 26.752217000000002
#
# number of rings (size 3 to 8) (size 9 to 14) (size 15 to 20)
#    0.000    0.000    5.714    3.429    4.000    4.571 
#    5.143    0.000    0.000    0.000    0.000    0.000 
#    0.000    0.000    0.000    0.000    0.000    0.000 
#
# Total GULP energy -157141.155335 kJ/mol
# GULP energy per Si atom -5612.184119 kJ/mol
# Density = 2.669133 g / cm^3
# Si number density = 26.752217 Si / 1000 Ang^3
#
#
#
# Elastic Constant Matrix: (Units=GPa)
#
#
# Indices 1 2 3 4 5 6 
#
# 1 253.7437 49.8613 74.8638 0.0000 0.0000 0.0000
# 2 49.8613 64.9750 33.4938 0.0000 0.0000 0.0000
# 3 74.8638 33.4938 148.6394 0.0000 0.0000 0.0000
# 4 0.0000 0.0000 0.0000 47.7064 0.0000 0.0000
# 5 0.0000 0.0000 0.0000 0.0000 45.6698 0.0000
# 6 0.0000 0.0000 0.0000 0.0000 0.0000 61.6589
#
#
#
# Elastic Compliance Matrix: (Units=1/GPa)
#
#
# Indices 1 2 3 4 5 6 
#
# 1 0.005074 -0.002915 -0.001899 0.000000 0.000000 0.000000
# 2 -0.002915 0.019088 -0.002833 0.000000 0.000000 0.000000
# 3 -0.001899 -0.002833 0.008322 0.000000 0.000000 0.000000
# 4 0.000000 0.000000 0.000000 0.020962 0.000000 0.000000
# 5 0.000000 0.000000 0.000000 0.000000 0.021896 0.000000
# 6 0.000000 0.000000 0.000000 0.000000 0.000000 0.016218
#
#
# Mechanical properties :
#
#
# Convention : Reuss Voigt Hill
#
# Bulk Modulus (GPa) = 58.17068 87.08843 72.62955
# Shear Modulus (GPa) = 44.41129 51.61630 48.01379
#
# Velocity S-wave (km/s) = 4.07885 4.39728 4.24106
# Velocity P-wave (km/s) = 6.63130 7.64237 7.15472
#
# Compressibility (1/GPa) = 0.01719079
#
# Stress axis : x y z
#
# Youngs Moduli (GPa) = 197.08427 52.38937 120.15792
#
# Poissons Ratio (x) = 0.15271 0.22815
# Poissons Ratio (y) = 0.57449 0.34041
# Poissons Ratio (z) = 0.37421 0.14842
#
# Static dielectric constant tensor:
#      x y z
#    x 2.003510 0.000000 0.000000 
#    y 0.000000 2.345510 0.000000 
#    z 0.000000 0.000000 2.147280 
# 
# From -- ./inp_files/5851.got.cif
#   From: 2010.05.17/outbox.cif.g08.bks.cpg/sg33_3_cif.got.tgz:5851.got - 2010.06.03 17:15:25.
