data_PCOD9346702
_publ_section_title
;
Structure prediction by ZEFSAII (Michael W. Deem and Ramdas Pophale) SiO2 
 PCOD9346702
Probable space group: P N A 21
;
_chemical_formula_sum "Si O2"
_cell_formula_units_Z 16
_cell_length_a 17.061713
_cell_length_b 6.751658
_cell_length_c 6.660395
_cell_angle_alpha 90.000000
_cell_angle_beta 90.000000
_cell_angle_gamma 90.000000
_cell_volume 767.243210
_symmetry_space_group_name_H-M "P N A 21"
_symmetry_group_IT_number 33
_symmetry_cell_setting 'orthorhombic'
loop_
_space_group_symop_operation_xyz
x,y,z
-x,-y,1/2+z
1/2-x,1/2+y,1/2+z
1/2+x,1/2-y,z
loop_
_atom_site_type_symbol
_atom_site_label
_atom_site_fract_x
_atom_site_fract_y
_atom_site_fract_z
Si Si1 0.807780 0.944445 0.805690
Si Si2 0.347232 0.884173 0.114191
Si Si3 0.418677 0.565060 0.419077
Si Si4 0.085651 0.787263 0.569678
O O1 0.865153 0.934421 0.615211
O O2 0.722388 0.003215 0.729368
O O3 0.812377 0.739599 0.928180
O O4 0.841442 0.113285 0.954030
O O5 0.387164 0.727500 0.262321
O O6 0.408084 0.052557 0.047916
O O7 0.414106 0.357387 0.300982
O O8 0.507064 0.620064 0.476952
#
# Coordination Sequence:
#
# PCOD9346702 Si02
#       4
#     4   4   4   4
#     4  11  24  46  65  98 134 175 219 272 329 392
#     4  11  26  41  69  98 129 178 220 270 330 393
#     4  11  24  42  67  98 135 175 220 275 327 386
#     4  11  24  43  67  98 136 174 221 275 326 389
#
# _framework density 20.853884000000001
#
# number of rings (size 3 to 8) (size 9 to 14) (size 15 to 20)
#    0.000    1.000    2.500    3.000    3.500    8.000 
#    0.000    0.000    0.000    0.000    0.000    0.000 
#    0.000    0.000    0.000    0.000    0.000    0.000 
#
# Total GULP energy -89547.761825 kJ/mol
# GULP energy per Si atom -5596.735114 kJ/mol
# Density = 2.080642 g / cm^3
# Si number density = 20.853884 Si / 1000 Ang^3
#
#
#
# Elastic Constant Matrix: (Units=GPa)
#
#
# Indices 1 2 3 4 5 6 
#
# 1 53.8105 -12.4555 7.7220 0.0000 0.0000 0.0000
# 2 -12.4555 88.4753 26.8021 0.0000 0.0000 0.0000
# 3 7.7220 26.8021 95.8967 0.0000 0.0000 0.0000
# 4 0.0000 0.0000 0.0000 17.3638 0.0000 0.0000
# 5 0.0000 0.0000 0.0000 0.0000 42.7760 0.0000
# 6 0.0000 0.0000 0.0000 0.0000 0.0000 24.4223
#
#
#
# Elastic Compliance Matrix: (Units=1/GPa)
#
#
# Indices 1 2 3 4 5 6 
#
# 1 0.019782 0.003570 -0.002591 0.000000 0.000000 0.000000
# 2 0.003570 0.012992 -0.003919 0.000000 0.000000 0.000000
# 3 -0.002591 -0.003919 0.011732 0.000000 0.000000 0.000000
# 4 0.000000 0.000000 0.000000 0.057591 0.000000 0.000000
# 5 0.000000 0.000000 0.000000 0.000000 0.023378 0.000000
# 6 0.000000 0.000000 0.000000 0.000000 0.000000 0.040946
#
#
# Mechanical properties :
#
#
# Convention : Reuss Voigt Hill
#
# Bulk Modulus (GPa) = 25.88895 31.36885 28.62890
# Shear Modulus (GPa) = 27.00146 31.32002 29.16074
#
# Velocity S-wave (km/s) = 3.60223 3.87961 3.74349
# Velocity P-wave (km/s) = 5.45369 5.92819 5.69588
#
# Compressibility (1/GPa) = 0.03862652
#
# Stress axis : x y z
#
# Youngs Moduli (GPa) = 50.55166 76.96922 85.23908
#
# Poissons Ratio (x) = -0.27475 0.22082
# Poissons Ratio (y) = -0.18045 0.33402
# Poissons Ratio (z) = 0.13096 0.30161
#
# Static dielectric constant tensor:
#      x y z
#    x 1.721400 0.000000 0.000000 
#    y 0.000000 1.732030 0.000000 
#    z 0.000000 0.000000 1.731910 
# 
# From -- ./inp_files/1577.got.cif
#   From: 2010.05.17/outbox.cif.g08.bks.cpg/sg33_1_cif.got.tgz:1577.got - 2010.06.03 17:15:25.
