data_PCOD9346279
_publ_section_title
;
Structure prediction by ZEFSAII (Michael W. Deem and Ramdas Pophale) SiO2 
 PCOD9346279
Probable space group: P N A 21
;
_chemical_formula_sum "Si O2"
_cell_formula_units_Z 28
_cell_length_a 5.128477
_cell_length_b 16.469748
_cell_length_c 13.136489
_cell_angle_alpha 90.000000
_cell_angle_beta 90.000000
_cell_angle_gamma 90.000000
_cell_volume 1109.569915
_symmetry_space_group_name_H-M "P N A 21"
_symmetry_group_IT_number 33
_symmetry_cell_setting 'orthorhombic'
loop_
_space_group_symop_operation_xyz
x,y,z
-x,-y,1/2+z
1/2-x,1/2+y,1/2+z
1/2+x,1/2-y,z
loop_
_atom_site_type_symbol
_atom_site_label
_atom_site_fract_x
_atom_site_fract_y
_atom_site_fract_z
Si Si1 0.711970 0.703838 0.930780
Si Si2 0.197711 0.175240 0.106553
Si Si3 0.487601 0.514347 0.412018
Si Si4 0.376956 0.402285 0.608005
Si Si5 0.694961 0.141766 0.031209
Si Si6 0.898606 0.394724 0.296203
Si Si7 0.116603 0.552281 0.229828
O O1 0.407175 0.720621 0.910142
O O2 0.874418 0.636141 0.870356
O O3 0.700920 0.679087 0.048283
O O4 0.395382 0.120537 0.042424
O O5 0.160459 0.259659 0.045912
O O6 0.311989 0.177861 0.219872
O O7 0.920593 0.132380 0.115683
O O8 0.391665 0.467920 0.514566
O O9 0.673957 0.590776 0.441564
O O10 0.673008 0.448383 0.351454
O O11 0.259016 0.548698 0.339592
O O12 0.662493 0.411206 0.656490
O O13 0.159161 0.409778 0.695819
O O14 0.036365 0.458390 0.220203
#
# Coordination Sequence:
#
# PCOD9346279 Si02
#       7
#     4   4   4   4   4   4   4
#     4  12  28  47  76 104 156 207 257 318 399 474
#     4  10  24  43  70 108 153 200 253 310 418 462
#     4  12  26  47  77 118 157 205 270 326 411 482
#     4  12  26  49  75 111 156 201 261 334 386 471
#     4  10  24  44  71 103 155 201 243 325 395 479
#     4  12  26  45  75 123 152 199 257 333 403 494
#     4  12  26  45  78 113 149 203 261 324 400 472
#
# _framework density 25.235001
#
# number of rings (size 3 to 8) (size 9 to 14) (size 15 to 20)
#    0.000    0.571    2.857    4.286    8.000    0.000 
#    0.000    0.000   18.857    0.000    0.000    0.000 
#    0.000    0.000    0.000    0.000    0.000    0.000 
#
# Total GULP energy -155971.657614 kJ/mol
# GULP energy per Si atom -5570.416343 kJ/mol
# Density = 2.517757 g / cm^3
# Si number density = 25.235001 Si / 1000 Ang^3
#
#
#
# Elastic Constant Matrix: (Units=GPa)
#
#
# Indices 1 2 3 4 5 6 
#
# 1 156.0658 18.5184 13.6982 0.0000 0.0000 0.0000
# 2 18.5184 72.5331 33.5702 0.0000 0.0000 0.0000
# 3 13.6982 33.5702 61.2098 0.0000 0.0000 0.0000
# 4 0.0000 0.0000 0.0000 -253.8483 0.0000 0.0000
# 5 0.0000 0.0000 0.0000 0.0000 60.1228 0.0000
# 6 0.0000 0.0000 0.0000 0.0000 0.0000 76.5017
#
#
#
# Elastic Compliance Matrix: (Units=1/GPa)
#
#
# Indices 1 2 3 4 5 6 
#
# 1 0.006633 -0.001349 -0.000745 0.000000 0.000000 0.000000
# 2 -0.001349 0.018751 -0.009982 0.000000 0.000000 0.000000
# 3 -0.000745 -0.009982 0.021979 0.000000 0.000000 0.000000
# 4 0.000000 0.000000 0.000000 -0.003939 0.000000 0.000000
# 5 0.000000 0.000000 0.000000 0.000000 0.016633 0.000000
# 6 0.000000 0.000000 0.000000 0.000000 0.000000 0.013072
#
#
# Mechanical properties :
#
#
# Convention : Reuss Voigt Hill
#
# Bulk Modulus (GPa) = 43.08212 46.82026 44.95119
# Shear Modulus (GPa) = 47.61181 -8.50997 19.55092
#
# Velocity S-wave (km/s) = 4.34837 -1.83837 2.78646
# Velocity P-wave (km/s) = 6.50542 3.75338 5.31076
#
# Compressibility (1/GPa) = 0.02321149
#
# Stress axis : x y z
#
# Youngs Moduli (GPa) = 150.76227 53.32998 45.49887
#
# Poissons Ratio (x) = 0.07193 0.03388
# Poissons Ratio (y) = 0.20335 0.45418
# Poissons Ratio (z) = 0.11226 0.53235
#
# Static dielectric constant tensor:
#      x y z
#    x 2.083760 0.000000 0.000000 
#    y 0.000000 4.384220 0.000000 
#    z 0.000000 0.000000 2.040420 
# 
# From -- ./inp_files/5479.got.cif
#   From: 2010.05.17/outbox.cif.g08.bks.cpg/sg33_3_cif.got.tgz:5479.got - 2010.06.03 17:15:25.
