data_PCOD9346950
_publ_section_title
;
Structure prediction by ZEFSAII (Michael W. Deem and Ramdas Pophale) SiO2 
 PCOD9346950
Probable space group: P N A 21
;
_chemical_formula_sum "Si O2"
_cell_formula_units_Z 24
_cell_length_a 8.136729
_cell_length_b 9.658150
_cell_length_c 13.270426
_cell_angle_alpha 90.000000
_cell_angle_beta 90.000000
_cell_angle_gamma 90.000000
_cell_volume 1042.866369
_symmetry_space_group_name_H-M "P N A 21"
_symmetry_group_IT_number 33
_symmetry_cell_setting 'orthorhombic'
loop_
_space_group_symop_operation_xyz
x,y,z
-x,-y,1/2+z
1/2-x,1/2+y,1/2+z
1/2+x,1/2-y,z
loop_
_atom_site_type_symbol
_atom_site_label
_atom_site_fract_x
_atom_site_fract_y
_atom_site_fract_z
Si Si1 0.652106 0.427130 0.837790
Si Si2 0.016629 0.665564 0.260841
Si Si3 0.155043 0.591238 0.826869
Si Si4 0.183144 0.675842 0.049026
Si Si5 0.995465 0.838754 0.738891
Si Si6 0.542120 0.530542 0.049407
O O1 0.833815 0.367173 0.835997
O O2 0.541591 0.322360 0.772521
O O3 0.648459 0.575314 0.783754
O O4 0.574707 0.450171 0.946060
O O5 0.870474 0.566930 0.296901
O O6 0.082317 0.633930 0.148949
O O7 0.107734 0.628126 0.941772
O O8 0.342666 0.634301 0.812020
O O9 0.047740 0.680752 0.748003
O O10 0.364311 0.607453 0.052360
O O11 0.174593 0.843745 0.054140
O O12 0.951032 0.913627 0.635274
#
# Coordination Sequence:
#
# PCOD9346950 Si02
#       6
#     4   4   4   4   4   4
#     4  12  25  47  71 109 143 186 242 303 354 433
#     4  12  27  46  76 106 148 188 243 303 366 430
#     4  12  27  46  76 106 148 188 243 303 366 430
#     4  12  24  45  75 104 140 194 238 286 372 431
#     4  12  25  47  71 109 143 186 242 303 354 433
#     4  12  28  45  79 104 150 190 248 294 372 435
#
# _framework density 23.013494000000001
#
# number of rings (size 3 to 8) (size 9 to 14) (size 15 to 20)
#    0.000    0.000    6.667    2.000    4.667    2.667 
#    0.000    0.000    0.000    0.000    0.000    0.000 
#    0.000    0.000    0.000    0.000    0.000    0.000 
#
# Total GULP energy -134312.147810 kJ/mol
# GULP energy per Si atom -5596.339492 kJ/mol
# Density = 2.296111 g / cm^3
# Si number density = 23.013494 Si / 1000 Ang^3
#
#
#
# Elastic Constant Matrix: (Units=GPa)
#
#
# Indices 1 2 3 4 5 6 
#
# 1 68.9456 13.4495 -15.3333 0.0000 0.0000 0.0000
# 2 13.4495 76.4731 41.1945 0.0000 0.0000 0.0000
# 3 -15.3333 41.1945 129.0343 0.0000 0.0000 0.0000
# 4 0.0000 0.0000 0.0000 35.1914 0.0000 0.0000
# 5 0.0000 0.0000 0.0000 0.0000 23.1158 0.0000
# 6 0.0000 0.0000 0.0000 0.0000 0.0000 33.5779
#
#
#
# Elastic Compliance Matrix: (Units=1/GPa)
#
#
# Indices 1 2 3 4 5 6 
#
# 1 0.016179 -0.004687 0.003419 0.000000 0.000000 0.000000
# 2 -0.004687 0.017150 -0.006032 0.000000 0.000000 0.000000
# 3 0.003419 -0.006032 0.010082 0.000000 0.000000 0.000000
# 4 0.000000 0.000000 0.000000 0.028416 0.000000 0.000000
# 5 0.000000 0.000000 0.000000 0.000000 0.043260 0.000000
# 6 0.000000 0.000000 0.000000 0.000000 0.000000 0.029782
#
#
# Mechanical properties :
#
#
# Convention : Reuss Voigt Hill
#
# Bulk Modulus (GPa) = 34.70988 39.23050 36.97019
# Shear Modulus (GPa) = 29.57296 34.05318 31.81307
#
# Velocity S-wave (km/s) = 3.58862 3.85087 3.72205
# Velocity P-wave (km/s) = 5.68208 6.07091 5.87971
#
# Compressibility (1/GPa) = 0.02881024
#
# Stress axis : x y z
#
# Youngs Moduli (GPa) = 61.80889 58.30803 99.18701
#
# Poissons Ratio (x) = 0.27330 -0.33911
# Poissons Ratio (y) = 0.28971 0.59832
# Poissons Ratio (z) = -0.21132 0.35173
#
# Static dielectric constant tensor:
#      x y z
#    x 1.865880 0.000000 0.000000 
#    y 0.000000 1.801970 0.000000 
#    z 0.000000 0.000000 1.867230 
# 
# From -- ./inp_files/5756.got.cif
#   From: 2010.05.17/outbox.cif.g08.bks.cpg/sg33_3_cif.got.tgz:5756.got - 2010.06.03 17:15:25.
