data_PCOD9346004
_publ_section_title
;
Structure prediction by ZEFSAII (Michael W. Deem and Ramdas Pophale) SiO2 
 PCOD9346004
Probable space group: P N A 21
;
_chemical_formula_sum "Si O2"
_cell_formula_units_Z 20
_cell_length_a 17.108492
_cell_length_b 6.343710
_cell_length_c 8.059390
_cell_angle_alpha 90.000000
_cell_angle_beta 90.000000
_cell_angle_gamma 90.000000
_cell_volume 874.696169
_symmetry_space_group_name_H-M "P N A 21"
_symmetry_group_IT_number 33
_symmetry_cell_setting 'orthorhombic'
loop_
_space_group_symop_operation_xyz
x,y,z
-x,-y,1/2+z
1/2-x,1/2+y,1/2+z
1/2+x,1/2-y,z
loop_
_atom_site_type_symbol
_atom_site_label
_atom_site_fract_x
_atom_site_fract_y
_atom_site_fract_z
Si Si1 0.837186 0.460824 0.208830
Si Si2 0.600016 0.587117 0.933054
Si Si3 0.464319 0.816722 0.371374
Si Si4 0.102699 0.562473 0.182952
Si Si5 0.755569 0.322129 0.876142
O O1 0.878904 0.274776 0.309299
O O2 0.907103 0.633297 0.214636
O O3 0.768105 0.589711 0.306856
O O4 0.806170 0.355484 0.042043
O O5 0.528892 0.433803 0.890781
O O6 0.675775 0.439709 0.919918
O O7 0.591132 0.704352 0.106418
O O8 0.543683 0.941321 0.336726
O O9 0.424268 0.901124 0.541198
O O10 0.192852 0.555785 0.237125
#
# Coordination Sequence:
#
# PCOD9346004 Si02
#       5
#     4   4   4   4   4
#     4  10  23  40  65  96 133 173 230 274 346 400
#     4  10  24  41  65  97 134 176 222 277 338 405
#     4  10  24  43  65 100 135 176 225 282 343 413
#     4  11  23  42  67  97 136 179 226 283 342 408
#     4  11  22  40  66  98 132 180 221 282 333 416
#
# _framework density 22.865082999999998
#
# number of rings (size 3 to 8) (size 9 to 14) (size 15 to 20)
#    0.000    1.600    2.000    1.200    8.400    4.800 
#    0.000    0.000    0.000    0.000    0.000    0.000 
#    0.000    0.000    0.000    0.000    0.000    0.000 
#
# Total GULP energy -111492.997093 kJ/mol
# GULP energy per Si atom -5574.649855 kJ/mol
# Density = 2.281304 g / cm^3
# Si number density = 22.865083 Si / 1000 Ang^3
#
#
#
# Elastic Constant Matrix: (Units=GPa)
#
#
# Indices 1 2 3 4 5 6 
#
# 1 51.2712 6.3571 8.3847 0.0000 0.0000 0.0000
# 2 6.3571 87.7220 28.6454 0.0000 0.0000 0.0000
# 3 8.3847 28.6454 74.9371 0.0000 0.0000 0.0000
# 4 0.0000 0.0000 0.0000 24.9970 0.0000 0.0000
# 5 0.0000 0.0000 0.0000 0.0000 40.4344 0.0000
# 6 0.0000 0.0000 0.0000 0.0000 0.0000 21.2392
#
#
#
# Elastic Compliance Matrix: (Units=1/GPa)
#
#
# Indices 1 2 3 4 5 6 
#
# 1 0.019919 -0.000818 -0.001916 0.000000 0.000000 0.000000
# 2 -0.000818 0.013059 -0.004900 0.000000 0.000000 0.000000
# 3 -0.001916 -0.004900 0.015432 0.000000 0.000000 0.000000
# 4 0.000000 0.000000 0.000000 0.040005 0.000000 0.000000
# 5 0.000000 0.000000 0.000000 0.000000 0.024731 0.000000
# 6 0.000000 0.000000 0.000000 0.000000 0.000000 0.047083
#
#
# Mechanical properties :
#
#
# Convention : Reuss Voigt Hill
#
# Bulk Modulus (GPa) = 30.17374 33.41165 31.79270
# Shear Modulus (GPa) = 26.80317 28.70365 27.75341
#
# Velocity S-wave (km/s) = 3.42750 3.54693 3.48773
# Velocity P-wave (km/s) = 5.37483 5.60523 5.49123
#
# Compressibility (1/GPa) = 0.03314140
#
# Stress axis : x y z
#
# Youngs Moduli (GPa) = 50.20366 76.57469 64.79965
#
# Poissons Ratio (x) = 0.06262 0.12416
# Poissons Ratio (y) = 0.04106 0.31755
# Poissons Ratio (z) = 0.09620 0.37525
#
# Static dielectric constant tensor:
#      x y z
#    x 1.932710 0.000000 0.000000 
#    y 0.000000 1.904830 0.000000 
#    z 0.000000 0.000000 1.897450 
# 
# From -- ./inp_files/4543.got.cif
#   From: 2010.05.17/outbox.cif.g08.bks.cpg/sg33_3_cif.got.tgz:4543.got - 2010.06.03 17:15:25.
