data_PCOD9346840
_publ_section_title
;
Structure prediction by ZEFSAII (Michael W. Deem and Ramdas Pophale) SiO2 
 PCOD9346840
Probable space group: P N A 21
;
_chemical_formula_sum "Si O2"
_cell_formula_units_Z 28
_cell_length_a 16.563456
_cell_length_b 14.112265
_cell_length_c 4.985313
_cell_angle_alpha 90.000000
_cell_angle_beta 90.000000
_cell_angle_gamma 90.000000
_cell_volume 1165.306347
_symmetry_space_group_name_H-M "P N A 21"
_symmetry_group_IT_number 33
_symmetry_cell_setting 'orthorhombic'
loop_
_space_group_symop_operation_xyz
x,y,z
-x,-y,1/2+z
1/2-x,1/2+y,1/2+z
1/2+x,1/2-y,z
loop_
_atom_site_type_symbol
_atom_site_label
_atom_site_fract_x
_atom_site_fract_y
_atom_site_fract_z
Si Si1 0.431688 0.748325 0.173070
Si Si2 0.549985 0.030592 0.574906
Si Si3 0.273430 0.627626 0.217537
Si Si4 0.553270 0.586969 0.094903
Si Si5 0.886908 0.028900 0.044265
Si Si6 0.831623 0.370900 0.220452
Si Si7 0.541799 0.703339 0.655631
O O1 0.435616 0.857707 0.097378
O O2 0.461949 0.732947 0.478636
O O3 0.345324 0.700333 0.147296
O O4 0.498036 0.696128 0.972029
O O5 0.520889 0.999572 0.281025
O O6 0.628361 0.972267 0.663556
O O7 0.307260 0.523407 0.150397
O O8 0.197937 0.643037 0.021435
O O9 0.241522 0.643287 0.515691
O O10 0.467348 0.533152 0.126422
O O11 0.596042 0.608160 0.806615
O O12 0.613506 0.502535 0.217574
O O13 0.924078 0.136563 0.887071
O O14 0.900989 0.294061 0.166443
#
# Coordination Sequence:
#
# PCOD9346840 Si02
#       7
#     4   4   4   4   4   4   4
#     4  11  25  45  76 109 138 187 252 305 352 440
#     4  12  26  47  80 104 140 186 257 306 354 419
#     4  12  29  43  67 107 156 190 234 294 390 439
#     4   9  20  39  74  97 129 179 242 303 339 418
#     4   9  21  41  65  97 142 181 231 286 366 435
#     4  12  27  45  69 105 150 192 237 310 359 441
#     4   9  22  44  75  97 133 187 255 290 356 414
#
# _framework density 24.028017999999999
#
# number of rings (size 3 to 8) (size 9 to 14) (size 15 to 20)
#    0.857    0.571    1.429    2.571    6.000    4.571 
#    0.000    0.000    0.000    0.000    0.000    0.000 
#    0.000    0.000    0.000    0.000    0.000    0.000 
#
# Total GULP energy -156291.533457 kJ/mol
# GULP energy per Si atom -5581.840481 kJ/mol
# Density = 2.397333 g / cm^3
# Si number density = 24.028018 Si / 1000 Ang^3
#
#
#
# Elastic Constant Matrix: (Units=GPa)
#
#
# Indices 1 2 3 4 5 6 
#
# 1 66.0242 31.9265 5.8833 0.0000 0.0000 0.0000
# 2 31.9265 150.9869 -9.1198 0.0000 0.0000 0.0000
# 3 5.8833 -9.1198 117.2641 0.0000 0.0000 0.0000
# 4 0.0000 0.0000 0.0000 38.3656 0.0000 0.0000
# 5 0.0000 0.0000 0.0000 0.0000 49.4354 0.0000
# 6 0.0000 0.0000 0.0000 0.0000 0.0000 40.6540
#
#
#
# Elastic Compliance Matrix: (Units=1/GPa)
#
#
# Indices 1 2 3 4 5 6 
#
# 1 0.017021 -0.003668 -0.001139 0.000000 0.000000 0.000000
# 2 -0.003668 0.007445 0.000763 0.000000 0.000000 0.000000
# 3 -0.001139 0.000763 0.008644 0.000000 0.000000 0.000000
# 4 0.000000 0.000000 0.000000 0.026065 0.000000 0.000000
# 5 0.000000 0.000000 0.000000 0.000000 0.020228 0.000000
# 6 0.000000 0.000000 0.000000 0.000000 0.000000 0.024598
#
#
# Mechanical properties :
#
#
# Convention : Reuss Voigt Hill
#
# Bulk Modulus (GPa) = 39.96514 43.51726 41.74120
# Shear Modulus (GPa) = 41.51774 46.06334 43.79054
#
# Velocity S-wave (km/s) = 4.16130 4.38318 4.27368
# Velocity P-wave (km/s) = 6.30534 6.61565 6.46236
#
# Compressibility (1/GPa) = 0.02502180
#
# Stress axis : x y z
#
# Youngs Moduli (GPa) = 58.75040 134.32233 115.68370
#
# Poissons Ratio (x) = 0.49269 0.13179
# Poissons Ratio (y) = 0.21550 -0.08827
# Poissons Ratio (z) = 0.06693 -0.10249
#
# Static dielectric constant tensor:
#      x y z
#    x 1.854130 0.000000 0.000000 
#    y 0.000000 1.969200 0.000000 
#    z 0.000000 0.000000 1.989130 
# 
# From -- ./inp_files/1387.got.cif
#   From: 2010.05.17/outbox.cif.g08.bks.cpg/sg33_1_cif.got.tgz:1387.got - 2010.06.03 17:15:25.
