data_PCOD9346260
_publ_section_title
;
Structure prediction by ZEFSAII (Michael W. Deem and Ramdas Pophale) SiO2 
 PCOD9346260
Probable space group: P N A 21
;
_chemical_formula_sum "Si O2"
_cell_formula_units_Z 32
_cell_length_a 13.764218
_cell_length_b 10.431542
_cell_length_c 9.833576
_cell_angle_alpha 90.000000
_cell_angle_beta 90.000000
_cell_angle_gamma 90.000000
_cell_volume 1411.924688
_symmetry_space_group_name_H-M "P N A 21"
_symmetry_group_IT_number 33
_symmetry_cell_setting 'orthorhombic'
loop_
_space_group_symop_operation_xyz
x,y,z
-x,-y,1/2+z
1/2-x,1/2+y,1/2+z
1/2+x,1/2-y,z
loop_
_atom_site_type_symbol
_atom_site_label
_atom_site_fract_x
_atom_site_fract_y
_atom_site_fract_z
Si Si1 0.468400 0.550094 0.250000
Si Si2 0.171990 0.310973 0.211170
Si Si3 0.804243 0.334077 0.413514
Si Si4 0.967873 0.438306 0.226500
Si Si5 0.896032 0.291580 0.984438
Si Si6 0.070472 0.131247 0.040922
Si Si7 0.410121 0.192751 0.694404
Si Si8 0.196282 0.979969 0.563073
O O1 0.441031 0.538421 0.410018
O O2 0.521990 0.432614 0.174227
O O3 0.535013 0.672303 0.218239
O O4 0.368998 0.558604 0.166622
O O5 0.254522 0.276007 0.321753
O O6 0.167483 0.193973 0.101617
O O7 0.204622 0.438734 0.133815
O O8 0.061778 0.345329 0.254565
O O9 0.894757 0.410053 0.349316
O O10 0.842465 0.293580 0.562471
O O11 0.717289 0.435603 0.432918
O O12 0.899990 0.397289 0.099501
O O13 0.010820 0.577987 0.194476
O O14 0.851522 0.155674 0.027296
O O15 0.011125 0.254159 0.983509
O O16 0.856166 0.330203 0.838778
#
# Coordination Sequence:
#
# PCOD9346260 Si02
#       8
#     4   4   4   4   4   4   4   4
#     4  10  24  42  72 100 139 183 233 293 351 424
#     4  11  25  46  72 101 142 189 234 294 365 423
#     4  12  27  43  72 106 137 188 243 289 354 435
#     4  11  23  48  72  98 143 188 231 290 369 415
#     4   9  21  45  68  91 136 184 221 289 355 418
#     4   9  22  41  71  97 132 184 225 282 357 417
#     4  11  24  42  68 106 139 179 235 294 353 424
#     4  11  24  47  67 101 142 183 238 295 356 428
#
# _framework density 22.664100000000001
#
# number of rings (size 3 to 8) (size 9 to 14) (size 15 to 20)
#    0.000    1.500    2.500    0.750   12.250    1.000 
#    0.000    0.000    0.000    0.000    0.000    0.000 
#    0.000    0.000    0.000    0.000    0.000    0.000 
#
# Total GULP energy -178321.672596 kJ/mol
# GULP energy per Si atom -5572.552269 kJ/mol
# Density = 2.261252 g / cm^3
# Si number density = 22.664100 Si / 1000 Ang^3
#
#
#
# Elastic Constant Matrix: (Units=GPa)
#
#
# Indices 1 2 3 4 5 6 
#
# 1 51.9255 -12.9628 15.6807 0.0000 0.0000 0.0000
# 2 -12.9628 40.3891 6.2445 0.0000 0.0000 0.0000
# 3 15.6807 6.2445 128.4845 0.0000 0.0000 0.0000
# 4 0.0000 0.0000 0.0000 26.3394 0.0000 0.0000
# 5 0.0000 0.0000 0.0000 0.0000 36.9125 0.0000
# 6 0.0000 0.0000 0.0000 0.0000 0.0000 33.2573
#
#
#
# Elastic Compliance Matrix: (Units=1/GPa)
#
#
# Indices 1 2 3 4 5 6 
#
# 1 0.022069 0.007556 -0.003061 0.000000 0.000000 0.000000
# 2 0.007556 0.027534 -0.002260 0.000000 0.000000 0.000000
# 3 -0.003061 -0.002260 0.008266 0.000000 0.000000 0.000000
# 4 0.000000 0.000000 0.000000 0.037966 0.000000 0.000000
# 5 0.000000 0.000000 0.000000 0.000000 0.027091 0.000000
# 6 0.000000 0.000000 0.000000 0.000000 0.000000 0.030069
#
#
# Mechanical properties :
#
#
# Convention : Reuss Voigt Hill
#
# Bulk Modulus (GPa) = 16.04118 26.52488 21.28303
# Shear Modulus (GPa) = 29.53263 33.42428 31.47846
#
# Velocity S-wave (km/s) = 3.61371 3.84444 3.73085
# Velocity P-wave (km/s) = 4.95025 5.60670 5.28867
#
# Compressibility (1/GPa) = 0.06233957
#
# Stress axis : x y z
#
# Youngs Moduli (GPa) = 45.31252 36.31904 120.97135
#
# Poissons Ratio (x) = -0.27443 0.37025
# Poissons Ratio (y) = -0.34239 0.27344
# Poissons Ratio (z) = 0.13868 0.08209
#
# Static dielectric constant tensor:
#      x y z
#    x 1.914850 0.000000 0.000000 
#    y 0.000000 1.830110 0.000000 
#    z 0.000000 0.000000 1.926130 
# 
# From -- ./inp_files/4386.got.cif
#   From: 2010.05.17/outbox.cif.g08.bks.cpg/sg33_3_cif.got.tgz:4386.got - 2010.06.03 17:15:25.
