data_PCOD9346683
_publ_section_title
;
Structure prediction by ZEFSAII (Michael W. Deem and Ramdas Pophale) SiO2 
 PCOD9346683
Probable space group: P N A 21
;
_chemical_formula_sum "Si O2"
_cell_formula_units_Z 20
_cell_length_a 11.306337
_cell_length_b 15.691094
_cell_length_c 5.079775
_cell_angle_alpha 90.000000
_cell_angle_beta 90.000000
_cell_angle_gamma 90.000000
_cell_volume 901.196770
_symmetry_space_group_name_H-M "P N A 21"
_symmetry_group_IT_number 33
_symmetry_cell_setting 'orthorhombic'
loop_
_space_group_symop_operation_xyz
x,y,z
-x,-y,1/2+z
1/2-x,1/2+y,1/2+z
1/2+x,1/2-y,z
loop_
_atom_site_type_symbol
_atom_site_label
_atom_site_fract_x
_atom_site_fract_y
_atom_site_fract_z
Si Si1 0.065983 0.531628 0.788650
Si Si2 0.299660 0.670612 0.296329
Si Si3 0.673385 0.484071 0.441151
Si Si4 0.991538 0.134196 0.116843
Si Si5 0.348150 0.214650 0.316962
O O1 0.202146 0.501523 0.799819
O O2 0.072679 0.631092 0.869305
O O3 0.009351 0.518614 0.504803
O O4 0.432885 0.683901 0.396175
O O5 0.215193 0.694594 0.538489
O O6 0.297688 0.571302 0.203356
O O7 0.251711 0.719546 0.041459
O O8 0.604137 0.569998 0.498258
O O9 0.586221 0.423292 0.274218
O O10 0.925226 0.201484 0.297166
#
# Coordination Sequence:
#
# PCOD9346683 Si02
#       5
#     4   4   4   4   4
#     4  11  24  48  73 102 152 198 242 297 371 453
#     4  11  23  48  68 103 157 187 241 319 362 451
#     4  11  25  46  78 109 150 195 255 310 378 449
#     4  12  25  47  79 114 147 200 252 324 385 444
#     4  11  27  45  72 108 152 196 248 310 378 451
#
# _framework density 22.192710000000002
#
# number of rings (size 3 to 8) (size 9 to 14) (size 15 to 20)
#    0.000    0.800    6.000    2.400    2.800    1.600 
#    3.600    2.000    0.000    0.000    0.000    0.000 
#    0.000    0.000    0.000    0.000    0.000    0.000 
#
# Total GULP energy -111919.291271 kJ/mol
# GULP energy per Si atom -5595.964564 kJ/mol
# Density = 2.214220 g / cm^3
# Si number density = 22.192710 Si / 1000 Ang^3
#
#
#
# Elastic Constant Matrix: (Units=GPa)
#
#
# Indices 1 2 3 4 5 6 
#
# 1 142.0649 65.9414 41.2110 0.0000 0.0000 0.0000
# 2 65.9414 75.7333 19.6038 0.0000 0.0000 0.0000
# 3 41.2110 19.6038 111.9381 0.0000 0.0000 0.0000
# 4 0.0000 0.0000 0.0000 28.8384 0.0000 0.0000
# 5 0.0000 0.0000 0.0000 0.0000 33.5357 0.0000
# 6 0.0000 0.0000 0.0000 0.0000 0.0000 11.3195
#
#
#
# Elastic Compliance Matrix: (Units=1/GPa)
#
#
# Indices 1 2 3 4 5 6 
#
# 1 0.012627 -0.010256 -0.002853 0.000000 0.000000 0.000000
# 2 -0.010256 0.022161 -0.000105 0.000000 0.000000 0.000000
# 3 -0.002853 -0.000105 0.010002 0.000000 0.000000 0.000000
# 4 0.000000 0.000000 0.000000 0.034676 0.000000 0.000000
# 5 0.000000 0.000000 0.000000 0.000000 0.029819 0.000000
# 6 0.000000 0.000000 0.000000 0.000000 0.000000 0.088343
#
#
# Mechanical properties :
#
#
# Convention : Reuss Voigt Hill
#
# Bulk Modulus (GPa) = 54.45794 64.80539 59.63167
# Shear Modulus (GPa) = 21.72236 28.27072 24.99654
#
# Velocity S-wave (km/s) = 3.13198 3.57301 3.35974
# Velocity P-wave (km/s) = 6.13767 6.80342 6.47910
#
# Compressibility (1/GPa) = 0.01836279
#
# Stress axis : x y z
#
# Youngs Moduli (GPa) = 79.19539 45.12341 99.97840
#
# Poissons Ratio (x) = 0.46279 0.28520
# Poissons Ratio (y) = 0.81223 0.01053
# Poissons Ratio (z) = 0.22591 0.00475
#
# Static dielectric constant tensor:
#      x y z
#    x 1.804500 0.000000 0.000000 
#    y 0.000000 1.798160 0.000000 
#    z 0.000000 0.000000 1.862510 
# 
# From -- ./inp_files/384.got.cif
#   From: 2010.05.17/outbox.cif.g08.bks.cpg/sg33_1_cif.got.tgz:384.got - 2010.06.03 17:15:25.
