data_PCOD9346958
_publ_section_title
;
Structure prediction by ZEFSAII (Michael W. Deem and Ramdas Pophale) SiO2 
 PCOD9346958
Probable space group: P N A 21
;
_chemical_formula_sum "Si O2"
_cell_formula_units_Z 28
_cell_length_a 18.407097
_cell_length_b 5.025593
_cell_length_c 11.871879
_cell_angle_alpha 90.000000
_cell_angle_beta 90.000000
_cell_angle_gamma 90.000000
_cell_volume 1098.226899
_symmetry_space_group_name_H-M "P N A 21"
_symmetry_group_IT_number 33
_symmetry_cell_setting 'orthorhombic'
loop_
_space_group_symop_operation_xyz
x,y,z
-x,-y,1/2+z
1/2-x,1/2+y,1/2+z
1/2+x,1/2-y,z
loop_
_atom_site_type_symbol
_atom_site_label
_atom_site_fract_x
_atom_site_fract_y
_atom_site_fract_z
Si Si1 0.003994 0.004873 0.944790
Si Si2 0.851216 0.545248 0.716779
Si Si3 0.351217 0.545238 0.331055
Si Si4 0.265813 0.249995 0.523917
Si Si5 0.159843 0.948716 0.357053
Si Si6 0.840158 0.448726 0.190780
Si Si7 0.003995 0.495164 0.103046
O O1 0.921990 0.035886 0.902953
O O2 0.062360 0.999657 0.844857
O O3 0.024455 0.250034 0.023909
O O4 0.009093 0.750034 0.023927
O O5 0.815236 0.434300 0.603730
O O6 0.836801 0.847965 0.751266
O O7 0.937639 0.499660 0.702979
O O8 0.825024 0.349848 0.816611
O O9 0.315237 0.434291 0.444104
O O10 0.336801 0.847953 0.296565
O O11 0.325026 0.349836 0.231224
O O12 0.213985 0.062785 0.449409
O O13 0.213984 0.437205 0.598423
O O14 0.921991 0.464126 0.144880
#
# Coordination Sequence:
#
# PCOD9346958 Si02
#       7
#     4   4   4   4   4   4   4
#     4  12  24  48  78 105 143 194 246 310 370 427
#     4  12  27  48  75 109 147 195 248 304 370 440
#     4  12  27  48  75 109 147 195 248 304 370 440
#     4  12  28  48  76 108 160 196 248 302 376 454
#     4  12  27  48  75 109 147 195 248 304 370 440
#     4  12  27  48  75 109 147 195 248 304 370 440
#     4  12  24  48  78 105 143 194 246 310 370 427
#
# _framework density 25.495640000000002
#
# number of rings (size 3 to 8) (size 9 to 14) (size 15 to 20)
#    0.000    0.000    2.857    6.857    0.000    2.286 
#    0.000    0.000    0.000    0.000    0.000    0.000 
#    0.000    0.000    0.000    0.000    0.000    0.000 
#
# Total GULP energy -157484.937206 kJ/mol
# GULP energy per Si atom -5624.462043 kJ/mol
# Density = 2.543761 g / cm^3
# Si number density = 25.495640 Si / 1000 Ang^3
#
#
#
# Elastic Constant Matrix: (Units=GPa)
#
#
# Indices 1 2 3 4 5 6 
#
# 1 117.7068 -7.4105 12.4575 0.0000 0.0000 0.0000
# 2 -7.4105 131.6159 20.1488 0.0000 0.0000 0.0000
# 3 12.4575 20.1488 68.6628 0.0000 0.0000 0.0000
# 4 0.0000 0.0000 0.0000 34.6850 0.0000 0.0000
# 5 0.0000 0.0000 0.0000 0.0000 68.8793 0.0000
# 6 0.0000 0.0000 0.0000 0.0000 0.0000 37.1707
#
#
#
# Elastic Compliance Matrix: (Units=1/GPa)
#
#
# Indices 1 2 3 4 5 6 
#
# 1 0.008736 0.000769 -0.001811 0.000000 0.000000 0.000000
# 2 0.000769 0.008023 -0.002494 0.000000 0.000000 0.000000
# 3 -0.001811 -0.002494 0.015624 0.000000 0.000000 0.000000
# 4 0.000000 0.000000 0.000000 0.028831 0.000000 0.000000
# 5 0.000000 0.000000 0.000000 0.000000 0.014518 0.000000
# 6 0.000000 0.000000 0.000000 0.000000 0.000000 0.026903
#
#
# Mechanical properties :
#
#
# Convention : Reuss Voigt Hill
#
# Bulk Modulus (GPa) = 39.50674 40.93078 40.21876
# Shear Modulus (GPa) = 42.32160 47.66631 44.99395
#
# Velocity S-wave (km/s) = 4.07867 4.32856 4.20547
# Velocity P-wave (km/s) = 6.14084 6.40865 6.27617
#
# Compressibility (1/GPa) = 0.02531214
#
# Stress axis : x y z
#
# Youngs Moduli (GPa) = 114.47246 124.64264 64.00316
#
# Poissons Ratio (x) = -0.09585 0.11588
# Poissons Ratio (y) = -0.08803 0.15961
# Poissons Ratio (z) = 0.20726 0.31084
#
# Static dielectric constant tensor:
#      x y z
#    x 1.978090 0.000000 0.000000 
#    y 0.000000 1.911700 0.000000 
#    z 0.000000 0.000000 1.986850 
# 
# From -- ./inp_files/7146.got.cif
#   From: 2010.05.17/outbox.cif.g08.bks.cpg/sg33_4_cif.got.tgz:7146.got - 2010.06.03 17:15:25.
