data_PCOD9346592
_publ_section_title
;
Structure prediction by ZEFSAII (Michael W. Deem and Ramdas Pophale) SiO2 
 PCOD9346592
Probable space group: P N A 21
;
_chemical_formula_sum "Si O2"
_cell_formula_units_Z 16
_cell_length_a 15.271727
_cell_length_b 5.051987
_cell_length_c 8.464461
_cell_angle_alpha 90.000000
_cell_angle_beta 90.000000
_cell_angle_gamma 90.000000
_cell_volume 653.054888
_symmetry_space_group_name_H-M "P N A 21"
_symmetry_group_IT_number 33
_symmetry_cell_setting 'orthorhombic'
loop_
_space_group_symop_operation_xyz
x,y,z
-x,-y,1/2+z
1/2-x,1/2+y,1/2+z
1/2+x,1/2-y,z
loop_
_atom_site_type_symbol
_atom_site_label
_atom_site_fract_x
_atom_site_fract_y
_atom_site_fract_z
Si Si1 0.940192 0.331208 0.758170
Si Si2 0.512321 0.356886 0.446151
Si Si3 0.816965 0.964019 0.360189
Si Si4 0.769102 0.445455 0.545789
O O1 0.010018 0.227367 0.628587
O O2 0.854221 0.402838 0.658249
O O3 0.972937 0.592037 0.845917
O O4 0.926129 0.090836 0.880927
O O5 0.414970 0.471363 0.414801
O O6 0.790440 0.676689 0.423204
O O7 0.755638 0.176523 0.449622
O O8 0.804792 0.999923 0.174293
#
# Coordination Sequence:
#
# PCOD9346592 Si02
#       4
#     4   4   4   4
#     4  11  23  41  63  91 123 159 203 253 302 360
#     4  11  23  41  63  91 123 159 203 253 302 360
#     4  11  24  43  63  91 125 161 204 253 302 362
#     4  11  24  43  63  91 125 161 204 253 302 362
#
# _framework density 24.500240000000002
#
# number of rings (size 3 to 8) (size 9 to 14) (size 15 to 20)
#    0.000    1.000    0.000    9.000    0.000    6.000 
#    0.000    0.000    0.000    0.000    0.000    0.000 
#    0.000    0.000    0.000    0.000    0.000    0.000 
#
# Total GULP energy -89703.798340 kJ/mol
# GULP energy per Si atom -5606.487396 kJ/mol
# Density = 2.444448 g / cm^3
# Si number density = 24.500240 Si / 1000 Ang^3
#
#
#
# Elastic Constant Matrix: (Units=GPa)
#
#
# Indices 1 2 3 4 5 6 
#
# 1 39.8635 -0.7553 13.3625 0.0000 0.0000 0.0000
# 2 -0.7553 129.3756 22.4690 0.0000 0.0000 0.0000
# 3 13.3625 22.4690 98.3654 0.0000 0.0000 0.0000
# 4 0.0000 0.0000 0.0000 60.3029 0.0000 0.0000
# 5 0.0000 0.0000 0.0000 0.0000 33.3027 0.0000
# 6 0.0000 0.0000 0.0000 0.0000 0.0000 4.7305
#
#
#
# Elastic Compliance Matrix: (Units=1/GPa)
#
#
# Indices 1 2 3 4 5 6 
#
# 1 0.026363 0.000808 -0.003766 0.000000 0.000000 0.000000
# 2 0.000808 0.008073 -0.001954 0.000000 0.000000 0.000000
# 3 -0.003766 -0.001954 0.011124 0.000000 0.000000 0.000000
# 4 0.000000 0.000000 0.000000 0.016583 0.000000 0.000000
# 5 0.000000 0.000000 0.000000 0.000000 0.030028 0.000000
# 6 0.000000 0.000000 0.000000 0.000000 0.000000 0.211394
#
#
# Mechanical properties :
#
#
# Convention : Reuss Voigt Hill
#
# Bulk Modulus (GPa) = 27.98215 37.52856 32.75536
# Shear Modulus (GPa) = 15.37034 35.16910 25.26972
#
# Velocity S-wave (km/s) = 2.50742 3.79286 3.21504
# Velocity P-wave (km/s) = 4.45296 5.87638 5.21348
#
# Compressibility (1/GPa) = 0.03573707
#
# Stress axis : x y z
#
# Youngs Moduli (GPa) = 37.93158 123.86212 89.89508
#
# Poissons Ratio (x) = -0.10007 0.33853
# Poissons Ratio (y) = -0.03065 0.17565
# Poissons Ratio (z) = 0.14285 0.24202
#
# Static dielectric constant tensor:
#      x y z
#    x 2.055040 0.000000 0.000000 
#    y 0.000000 1.872780 0.000000 
#    z 0.000000 0.000000 1.934640 
# 
# From -- ./inp_files/1199.got.cif
#   From: 2010.05.17/outbox.cif.g08.bks.cpg/sg33_1_cif.got.tgz:1199.got - 2010.06.03 17:15:25.
