data_PCOD9346710
_publ_section_title
;
Structure prediction by ZEFSAII (Michael W. Deem and Ramdas Pophale) SiO2 
 PCOD9346710
Probable space group: P N A 21
;
_chemical_formula_sum "Si O2"
_cell_formula_units_Z 32
_cell_length_a 11.711027
_cell_length_b 13.585683
_cell_length_c 8.679389
_cell_angle_alpha 90.000000
_cell_angle_beta 90.000000
_cell_angle_gamma 90.000000
_cell_volume 1380.910756
_symmetry_space_group_name_H-M "P N A 21"
_symmetry_group_IT_number 33
_symmetry_cell_setting 'orthorhombic'
loop_
_space_group_symop_operation_xyz
x,y,z
-x,-y,1/2+z
1/2-x,1/2+y,1/2+z
1/2+x,1/2-y,z
loop_
_atom_site_type_symbol
_atom_site_label
_atom_site_fract_x
_atom_site_fract_y
_atom_site_fract_z
Si Si1 0.387593 0.407975 0.881940
Si Si2 0.303636 0.814674 0.516220
Si Si3 0.160769 0.109699 0.407229
Si Si4 0.153371 0.483124 0.505985
Si Si5 0.888468 0.903382 0.574313
Si Si6 0.971388 0.196542 0.595728
Si Si7 0.273934 0.306693 0.356807
Si Si8 0.511800 0.098764 0.780028
O O1 0.316919 0.311634 0.928273
O O2 0.303539 0.497499 0.929011
O O3 0.418840 0.385261 0.708022
O O4 0.502332 0.430467 0.974216
O O5 0.359552 0.708519 0.533511
O O6 0.258685 0.845232 0.686661
O O7 0.396355 0.871417 0.411925
O O8 0.082688 0.095397 0.255244
O O9 0.250993 0.189933 0.355903
O O10 0.096126 0.157993 0.549377
O O11 0.273269 0.536143 0.542577
O O12 0.187470 0.371514 0.459616
O O13 0.072866 0.472587 0.655468
O O14 0.089287 0.541972 0.369606
O O15 0.895869 0.190788 0.440755
O O16 0.975719 0.301989 0.683586
#
# Coordination Sequence:
#
# PCOD9346710 Si02
#       8
#     4   4   4   4   4   4   4   4
#     4  12  24  44  74 107 145 193 250 314 378 455
#     4  11  25  47  71 105 148 195 248 311 390 455
#     4  11  24  43  68 102 142 190 244 303 379 443
#     4  12  26  47  75 111 150 196 256 312 388 462
#     4  11  25  45  72 104 144 194 247 314 375 456
#     4  12  25  45  75 108 151 196 254 316 386 458
#     4  11  25  45  69 104 147 195 251 312 373 462
#     4  12  26  48  76 111 155 203 252 322 393 475
#
# _framework density 23.173112
#
# number of rings (size 3 to 8) (size 9 to 14) (size 15 to 20)
#    0.000    0.500    2.500    6.000    0.000    6.000 
#    2.250    0.000    0.000    0.000    0.000    0.000 
#    0.000    0.000    0.000    0.000    0.000    0.000 
#
# Total GULP energy -178638.843797 kJ/mol
# GULP energy per Si atom -5582.463869 kJ/mol
# Density = 2.312037 g / cm^3
# Si number density = 23.173112 Si / 1000 Ang^3
#
#
#
# Elastic Constant Matrix: (Units=GPa)
#
#
# Indices 1 2 3 4 5 6 
#
# 1 76.8252 21.5933 29.2091 0.0000 0.0000 0.0000
# 2 21.5933 73.0210 9.6274 0.0000 0.0000 0.0000
# 3 29.2091 9.6274 73.5376 0.0000 0.0000 0.0000
# 4 0.0000 0.0000 0.0000 39.6117 0.0000 0.0000
# 5 0.0000 0.0000 0.0000 0.0000 43.5618 0.0000
# 6 0.0000 0.0000 0.0000 0.0000 0.0000 27.3638
#
#
#
# Elastic Compliance Matrix: (Units=1/GPa)
#
#
# Indices 1 2 3 4 5 6 
#
# 1 0.016441 -0.004071 -0.005997 0.000000 0.000000 0.000000
# 2 -0.004071 0.014943 -0.000339 0.000000 0.000000 0.000000
# 3 -0.005997 -0.000339 0.016025 0.000000 0.000000 0.000000
# 4 0.000000 0.000000 0.000000 0.025245 0.000000 0.000000
# 5 0.000000 0.000000 0.000000 0.000000 0.022956 0.000000
# 6 0.000000 0.000000 0.000000 0.000000 0.000000 0.036545
#
#
# Mechanical properties :
#
#
# Convention : Reuss Voigt Hill
#
# Bulk Modulus (GPa) = 37.60272 38.24924 37.92598
# Shear Modulus (GPa) = 30.89562 32.97106 31.93334
#
# Velocity S-wave (km/s) = 3.65533 3.77611 3.71622
# Velocity P-wave (km/s) = 5.83759 5.96270 5.90047
#
# Compressibility (1/GPa) = 0.02659382
#
# Stress axis : x y z
#
# Youngs Moduli (GPa) = 60.82340 66.91956 62.40226
#
# Poissons Ratio (x) = 0.27244 0.37425
# Poissons Ratio (y) = 0.24762 0.02117
# Poissons Ratio (z) = 0.36478 0.02271
#
# Static dielectric constant tensor:
#      x y z
#    x 1.849530 0.000000 0.000000 
#    y 0.000000 1.959950 0.000000 
#    z 0.000000 0.000000 1.940040 
# 
# From -- ./inp_files/3938.got.cif
#   From: 2010.05.17/outbox.cif.g08.bks.cpg/sg33_2_cif.got.tgz:3938.got - 2010.06.03 17:15:25.
