data_PCOD9346945
_publ_section_title
;
Structure prediction by ZEFSAII (Michael W. Deem and Ramdas Pophale) SiO2 
 PCOD9346945
Probable space group: P N A 21
;
_chemical_formula_sum "Si O2"
_cell_formula_units_Z 24
_cell_length_a 33.596798
_cell_length_b 4.861883
_cell_length_c 5.556194
_cell_angle_alpha 90.000000
_cell_angle_beta 90.000000
_cell_angle_gamma 90.000000
_cell_volume 907.569292
_symmetry_space_group_name_H-M "P N A 21"
_symmetry_group_IT_number 33
_symmetry_cell_setting 'orthorhombic'
loop_
_space_group_symop_operation_xyz
x,y,z
-x,-y,1/2+z
1/2-x,1/2+y,1/2+z
1/2+x,1/2-y,z
loop_
_atom_site_type_symbol
_atom_site_label
_atom_site_fract_x
_atom_site_fract_y
_atom_site_fract_z
Si Si1 0.635502 0.393928 0.238900
Si Si2 0.880016 0.393705 0.030025
Si Si3 0.298286 0.254762 0.264133
Si Si4 0.072211 0.952049 0.889341
Si Si5 0.784167 0.736278 0.543915
Si Si6 0.021700 0.472585 0.007307
O O1 0.632848 0.711203 0.304141
O O2 0.681475 0.309623 0.233049
O O3 0.613887 0.199894 0.434367
O O4 0.611092 0.388270 0.991416
O O5 0.841088 0.360055 0.195402
O O6 0.915530 0.229999 0.158662
O O7 0.261264 0.187956 0.093264
O O8 0.297938 0.577573 0.318140
O O9 0.286552 0.087268 0.502331
O O10 0.054351 0.710361 0.056621
O O11 0.039961 0.193489 0.894707
O O12 0.996639 0.582871 0.773543
#
# Coordination Sequence:
#
# PCOD9346945 Si02
#       6
#     4   4   4   4   4   4
#     4  12  26  45  74 110 151 200 256 318 387 454
#     4  12  26  45  74 110 151 200 256 318 387 454
#     4  12  24  43  66 100 148 197 258 317 377 448
#     4  12  28  50  80 114 159 196 259 322 386 494
#     4  12  24  43  66 100 148 197 258 317 377 448
#     4  12  30  54  84 120 159 208 259 326 414 496
#
# _framework density 26.444264
#
# number of rings (size 3 to 8) (size 9 to 14) (size 15 to 20)
#    0.000    0.000    1.667    8.000    9.333    0.000 
#    0.000    0.000    0.000    0.000    0.000    0.000 
#    0.000    0.000    0.000    0.000    0.000    0.000 
#
# Total GULP energy -134262.809108 kJ/mol
# GULP energy per Si atom -5594.283713 kJ/mol
# Density = 2.638408 g / cm^3
# Si number density = 26.444264 Si / 1000 Ang^3
#
#
#
# Elastic Constant Matrix: (Units=GPa)
#
#
# Indices 1 2 3 4 5 6 
#
# 1 50.5024 33.4454 24.1748 0.0000 0.0000 0.0000
# 2 33.4454 114.5174 6.5266 0.0000 0.0000 0.0000
# 3 24.1748 6.5266 84.0603 0.0000 0.0000 0.0000
# 4 0.0000 0.0000 0.0000 49.6729 0.0000 0.0000
# 5 0.0000 0.0000 0.0000 0.0000 32.1718 0.0000
# 6 0.0000 0.0000 0.0000 0.0000 0.0000 48.1387
#
#
#
# Elastic Compliance Matrix: (Units=1/GPa)
#
#
# Indices 1 2 3 4 5 6 
#
# 1 0.028728 -0.007955 -0.007644 0.000000 0.000000 0.000000
# 2 -0.007955 0.010974 0.001436 0.000000 0.000000 0.000000
# 3 -0.007644 0.001436 0.013983 0.000000 0.000000 0.000000
# 4 0.000000 0.000000 0.000000 0.020132 0.000000 0.000000
# 5 0.000000 0.000000 0.000000 0.000000 0.031083 0.000000
# 6 0.000000 0.000000 0.000000 0.000000 0.000000 0.020773
#
#
# Mechanical properties :
#
#
# Convention : Reuss Voigt Hill
#
# Bulk Modulus (GPa) = 39.43441 41.93040 40.68241
# Shear Modulus (GPa) = 30.77823 38.32556 34.55189
#
# Velocity S-wave (km/s) = 3.41528 3.81109 3.61860
# Velocity P-wave (km/s) = 5.52240 5.93771 5.73382
#
# Compressibility (1/GPa) = 0.02535856
#
# Stress axis : x y z
#
# Youngs Moduli (GPa) = 34.80901 91.12736 71.51450
#
# Poissons Ratio (x) = 0.72488 0.54668
# Poissons Ratio (y) = 0.27689 -0.10267
# Poissons Ratio (z) = 0.26609 -0.13082
#
# Static dielectric constant tensor:
#      x y z
#    x 2.162690 0.000000 0.000000 
#    y 0.000000 1.966140 0.000000 
#    z 0.000000 0.000000 2.185050 
# 
# From -- ./inp_files/2497.got.cif
#   From: 2010.05.17/outbox.cif.g08.bks.cpg/sg33_2_cif.got.tgz:2497.got - 2010.06.03 17:15:25.
