data_PCOD9346148
_publ_section_title
;
Structure prediction by ZEFSAII (Michael W. Deem and Ramdas Pophale) SiO2 
 PCOD9346148
Probable space group: P N A 21
;
_chemical_formula_sum "Si O2"
_cell_formula_units_Z 32
_cell_length_a 14.194665
_cell_length_b 8.897094
_cell_length_c 11.264507
_cell_angle_alpha 90.000000
_cell_angle_beta 90.000000
_cell_angle_gamma 90.000000
_cell_volume 1422.608881
_symmetry_space_group_name_H-M "P N A 21"
_symmetry_group_IT_number 33
_symmetry_cell_setting 'orthorhombic'
loop_
_space_group_symop_operation_xyz
x,y,z
-x,-y,1/2+z
1/2-x,1/2+y,1/2+z
1/2+x,1/2-y,z
loop_
_atom_site_type_symbol
_atom_site_label
_atom_site_fract_x
_atom_site_fract_y
_atom_site_fract_z
Si Si1 0.466550 0.446093 0.797630
Si Si2 0.498128 0.216542 0.263095
Si Si3 0.690340 0.125925 0.154836
Si Si4 0.057705 0.703766 0.498873
Si Si5 0.593760 0.941505 0.973237
Si Si6 0.668588 0.386964 0.739749
Si Si7 0.269655 0.610655 0.495627
Si Si8 0.178151 0.817500 0.118219
O O1 0.474155 0.624138 0.821699
O O2 0.558201 0.403519 0.718284
O O3 0.373887 0.401586 0.725094
O O4 0.466686 0.342473 0.914220
O O5 0.594052 0.122628 0.232404
O O6 0.453911 0.250703 0.135141
O O7 0.423113 0.126991 0.343341
O O8 0.703383 0.295663 0.112801
O O9 0.774755 0.043500 0.221545
O O10 0.679498 0.040108 0.027075
O O11 0.161748 0.647482 0.472053
O O12 0.990949 0.559283 0.485034
O O13 0.603969 0.800135 0.061876
O O14 0.729112 0.268761 0.664467
O O15 0.675716 0.343137 0.877788
O O16 0.291032 0.438087 0.521329
#
# Coordination Sequence:
#
# PCOD9346148 Si02
#       8
#     4   4   4   4   4   4   4   4
#     4  12  25  46  70 101 144 188 244 294 361 433
#     4  11  23  44  70 103 143 190 238 303 355 436
#     4  10  23  45  66 105 143 184 241 294 362 427
#     4  11  26  43  73 106 141 194 238 300 371 426
#     4  10  24  43  69  98 142 182 237 288 358 425
#     4  11  24  45  70  99 147 188 233 301 354 435
#     4  12  23  45  68 102 144 180 239 300 361 425
#     4  11  26  45  70 108 136 190 238 300 356 443
#
# _framework density 22.493883
#
# number of rings (size 3 to 8) (size 9 to 14) (size 15 to 20)
#    0.000    1.000    2.500    3.750    7.000    1.000 
#    0.000    2.500    0.000    0.000    0.000    0.000 
#    0.000    0.000    0.000    0.000    0.000    0.000 
#
# Total GULP energy -178747.754527 kJ/mol
# GULP energy per Si atom -5585.867329 kJ/mol
# Density = 2.244269 g / cm^3
# Si number density = 22.493883 Si / 1000 Ang^3
#
#
#
# Elastic Constant Matrix: (Units=GPa)
#
#
# Indices 1 2 3 4 5 6 
#
# 1 52.7335 8.2774 10.0258 0.0000 0.0000 0.0000
# 2 8.2774 108.5028 39.4708 0.0000 0.0000 0.0000
# 3 10.0258 39.4708 86.3849 0.0000 0.0000 0.0000
# 4 0.0000 0.0000 0.0000 36.2793 0.0000 0.0000
# 5 0.0000 0.0000 0.0000 0.0000 29.7749 0.0000
# 6 0.0000 0.0000 0.0000 0.0000 0.0000 25.1922
#
#
#
# Elastic Compliance Matrix: (Units=1/GPa)
#
#
# Indices 1 2 3 4 5 6 
#
# 1 0.019448 -0.000795 -0.001894 0.000000 0.000000 0.000000
# 2 -0.000795 0.011086 -0.004973 0.000000 0.000000 0.000000
# 3 -0.001894 -0.004973 0.014068 0.000000 0.000000 0.000000
# 4 0.000000 0.000000 0.000000 0.027564 0.000000 0.000000
# 5 0.000000 0.000000 0.000000 0.000000 0.033585 0.000000
# 6 0.000000 0.000000 0.000000 0.000000 0.000000 0.039695
#
#
# Mechanical properties :
#
#
# Convention : Reuss Voigt Hill
#
# Bulk Modulus (GPa) = 34.15455 40.35213 37.25334
# Shear Modulus (GPa) = 29.32035 30.90574 30.11305
#
# Velocity S-wave (km/s) = 3.61429 3.71072 3.66282
# Velocity P-wave (km/s) = 5.71265 6.02805 5.87247
#
# Compressibility (1/GPa) = 0.02927868
#
# Stress axis : x y z
#
# Youngs Moduli (GPa) = 51.41890 90.20294 71.08198
#
# Poissons Ratio (x) = 0.07168 0.13463
# Poissons Ratio (y) = 0.04086 0.35351
# Poissons Ratio (z) = 0.09739 0.44860
#
# Static dielectric constant tensor:
#      x y z
#    x 1.842640 0.000000 0.000000 
#    y 0.000000 1.850750 0.000000 
#    z 0.000000 0.000000 1.847550 
# 
# From -- ./inp_files/6817.got.cif
#   From: 2010.05.17/outbox.cif.g08.bks.cpg/sg33_4_cif.got.tgz:6817.got - 2010.06.03 17:15:25.
