data_PCOD9346358
_publ_section_title
;
Structure prediction by ZEFSAII (Michael W. Deem and Ramdas Pophale) SiO2 
 PCOD9346358
Probable space group: P N A 21
;
_chemical_formula_sum "Si O2"
_cell_formula_units_Z 32
_cell_length_a 9.973488
_cell_length_b 8.005184
_cell_length_c 15.008439
_cell_angle_alpha 90.000000
_cell_angle_beta 90.000000
_cell_angle_gamma 90.000000
_cell_volume 1198.267865
_symmetry_space_group_name_H-M "P N A 21"
_symmetry_group_IT_number 33
_symmetry_cell_setting 'orthorhombic'
loop_
_space_group_symop_operation_xyz
x,y,z
-x,-y,1/2+z
1/2-x,1/2+y,1/2+z
1/2+x,1/2-y,z
loop_
_atom_site_type_symbol
_atom_site_label
_atom_site_fract_x
_atom_site_fract_y
_atom_site_fract_z
Si Si1 0.488437 0.337306 0.600520
Si Si2 0.646977 0.321383 0.781878
Si Si3 0.146120 0.596605 0.814557
Si Si4 0.857656 0.610942 0.442742
Si Si5 0.903950 0.089172 0.410465
Si Si6 0.390945 0.015194 0.697305
Si Si7 0.835927 0.399949 0.999772
Si Si8 0.684725 0.353149 0.160435
O O1 0.597342 0.319156 0.680448
O O2 0.499090 0.356397 0.493300
O O3 0.425232 0.518919 0.624233
O O4 0.409172 0.165516 0.625580
O O5 0.660122 0.144118 0.833428
O O6 0.560152 0.414582 0.858366
O O7 0.789893 0.407603 0.770712
O O8 0.170282 0.579918 0.924353
O O9 0.103645 0.793420 0.825650
O O10 0.284880 0.607297 0.761323
O O11 0.017339 0.538616 0.755187
O O12 0.748480 0.731673 0.480711
O O13 0.010628 0.618905 0.473037
O O14 0.757471 0.041748 0.454629
O O15 0.340869 0.844163 0.651854
O O16 0.816809 0.411567 0.105329
#
# Coordination Sequence:
#
# PCOD9346358 Si02
#       8
#     4   4   4   4   4   4   4   4
#     4  11  26  48  76 110 151 205 255 320 389 470
#     4  11  23  48  72 100 154 193 255 317 386 457
#     4  12  24  43  75 104 148 196 249 315 387 450
#     4  11  24  44  76 104 146 201 248 319 388 464
#     4  10  24  47  69 112 150 194 259 324 374 472
#     4  12  26  47  74 112 147 201 260 318 388 477
#     4  10  26  48  71 108 154 193 260 316 390 465
#     4  11  27  45  77 106 150 199 256 315 392 457
#
# _framework density 26.705214000000002
#
# number of rings (size 3 to 8) (size 9 to 14) (size 15 to 20)
#    0.000    1.000    2.500    3.000    5.250    2.000 
#    4.500    0.000    0.000    0.000    0.000    0.000 
#    0.000    0.000    0.000    0.000    0.000    0.000 
#
# Total GULP energy -178355.110552 kJ/mol
# GULP energy per Si atom -5573.597205 kJ/mol
# Density = 2.664443 g / cm^3
# Si number density = 26.705214 Si / 1000 Ang^3
#
#
#
# Elastic Constant Matrix: (Units=GPa)
#
#
# Indices 1 2 3 4 5 6 
#
# 1 64.4430 2.9091 32.7785 0.0000 0.0000 0.0000
# 2 2.9091 61.7449 21.0125 0.0000 0.0000 0.0000
# 3 32.7785 21.0125 94.3960 0.0000 0.0000 0.0000
# 4 0.0000 0.0000 0.0000 47.8954 0.0000 0.0000
# 5 0.0000 0.0000 0.0000 0.0000 38.4669 0.0000
# 6 0.0000 0.0000 0.0000 0.0000 0.0000 21.8908
#
#
#
# Elastic Compliance Matrix: (Units=1/GPa)
#
#
# Indices 1 2 3 4 5 6 
#
# 1 0.018967 0.001458 -0.006911 0.000000 0.000000 0.000000
# 2 0.001458 0.017635 -0.004432 0.000000 0.000000 0.000000
# 3 -0.006911 -0.004432 0.013980 0.000000 0.000000 0.000000
# 4 0.000000 0.000000 0.000000 0.020879 0.000000 0.000000
# 5 0.000000 0.000000 0.000000 0.000000 0.025996 0.000000
# 6 0.000000 0.000000 0.000000 0.000000 0.000000 0.045681
#
#
# Mechanical properties :
#
#
# Convention : Reuss Voigt Hill
#
# Bulk Modulus (GPa) = 32.45382 37.10935 34.78158
# Shear Modulus (GPa) = 28.87196 32.57621 30.72408
#
# Velocity S-wave (km/s) = 3.29163 3.49642 3.39557
# Velocity P-wave (km/s) = 5.15998 5.49782 5.33158
#
# Compressibility (1/GPa) = 0.03081302
#
# Stress axis : x y z
#
# Youngs Moduli (GPa) = 52.72362 56.70479 71.53122
#
# Poissons Ratio (x) = -0.08269 0.49433
# Poissons Ratio (y) = -0.07688 0.31702
# Poissons Ratio (z) = 0.36436 0.25131
#
# Static dielectric constant tensor:
#      x y z
#    x 2.108400 0.000000 0.000000 
#    y 0.000000 2.303780 0.000000 
#    z 0.000000 0.000000 2.250250 
# 
# From -- ./inp_files/7960.got.cif
#   From: 2010.05.17/outbox.cif.g08.bks.cpg/sg33_4_cif.got.tgz:7960.got - 2010.06.03 17:15:25.
