data_PCOD9346107
_publ_section_title
;
Structure prediction by ZEFSAII (Michael W. Deem and Ramdas Pophale) SiO2 
 PCOD9346107
Probable space group: P N A 21
;
_chemical_formula_sum "Si O2"
_cell_formula_units_Z 28
_cell_length_a 18.337701
_cell_length_b 8.029660
_cell_length_c 8.199081
_cell_angle_alpha 90.000000
_cell_angle_beta 90.000000
_cell_angle_gamma 90.000000
_cell_volume 1207.277816
_symmetry_space_group_name_H-M "P N A 21"
_symmetry_group_IT_number 33
_symmetry_cell_setting 'orthorhombic'
loop_
_space_group_symop_operation_xyz
x,y,z
-x,-y,1/2+z
1/2-x,1/2+y,1/2+z
1/2+x,1/2-y,z
loop_
_atom_site_type_symbol
_atom_site_label
_atom_site_fract_x
_atom_site_fract_y
_atom_site_fract_z
Si Si1 0.891540 0.918085 0.456870
Si Si2 0.137990 0.713380 0.056397
Si Si3 0.475353 0.220389 0.060417
Si Si4 0.193025 0.238711 0.645631
Si Si5 0.662932 0.879341 0.720972
Si Si6 0.178158 0.231573 0.284311
Si Si7 0.435024 0.992520 0.789343
O O1 0.975863 0.856662 0.468569
O O2 0.847703 0.843095 0.301336
O O3 0.857506 0.857341 0.629231
O O4 0.882496 0.114815 0.468711
O O5 0.218405 0.725171 0.138569
O O6 0.076655 0.657292 0.182258
O O7 0.138512 0.583527 0.907056
O O8 0.392049 0.234756 0.116764
O O9 0.518047 0.157745 0.218964
O O10 0.471373 0.054997 0.951476
O O11 0.175900 0.437357 0.647493
O O12 0.166994 0.165455 0.469624
O O13 0.737043 0.778890 0.745886
O O14 0.145660 0.415943 0.292695
#
# Coordination Sequence:
#
# PCOD9346107 Si02
#       7
#     4   4   4   4   4   4   4
#     4  11  25  47  68 107 146 182 243 300 361 438
#     4  11  26  42  70 104 145 182 236 303 363 434
#     4  11  24  43  76  98 141 196 238 299 365 451
#     4  11  23  44  71 102 137 188 233 300 354 431
#     4  11  22  45  70 103 135 190 241 295 364 432
#     4  10  23  43  72 105 139 182 244 293 359 437
#     4  11  23  44  71 105 141 192 237 296 368 439
#
# _framework density 23.192672999999999
#
# number of rings (size 3 to 8) (size 9 to 14) (size 15 to 20)
#    0.000    1.143    2.857    3.429    6.000    1.143 
#    2.571    0.000    0.000    0.000    0.000    0.000 
#    0.000    0.000    0.000    0.000    0.000    0.000 
#
# Total GULP energy -156226.786448 kJ/mol
# GULP energy per Si atom -5579.528087 kJ/mol
# Density = 2.313989 g / cm^3
# Si number density = 23.192673 Si / 1000 Ang^3
#
#
#
# Elastic Constant Matrix: (Units=GPa)
#
#
# Indices 1 2 3 4 5 6 
#
# 1 68.3286 11.1302 14.1127 0.0000 0.0000 0.0000
# 2 11.1302 53.7487 10.9108 0.0000 0.0000 0.0000
# 3 14.1127 10.9108 79.2355 0.0000 0.0000 0.0000
# 4 0.0000 0.0000 0.0000 27.0925 0.0000 0.0000
# 5 0.0000 0.0000 0.0000 0.0000 24.2630 0.0000
# 6 0.0000 0.0000 0.0000 0.0000 0.0000 29.6542
#
#
#
# Elastic Compliance Matrix: (Units=1/GPa)
#
#
# Indices 1 2 3 4 5 6 
#
# 1 0.015576 -0.002739 -0.002397 0.000000 0.000000 0.000000
# 2 -0.002739 0.019622 -0.002214 0.000000 0.000000 0.000000
# 3 -0.002397 -0.002214 0.013352 0.000000 0.000000 0.000000
# 4 0.000000 0.000000 0.000000 0.036911 0.000000 0.000000
# 5 0.000000 0.000000 0.000000 0.000000 0.041215 0.000000
# 6 0.000000 0.000000 0.000000 0.000000 0.000000 0.033722
#
#
# Mechanical properties :
#
#
# Convention : Reuss Voigt Hill
#
# Bulk Modulus (GPa) = 29.54194 30.40227 29.97210
# Shear Modulus (GPa) = 26.82662 27.21255 27.01958
#
# Velocity S-wave (km/s) = 3.40470 3.42910 3.41692
# Velocity P-wave (km/s) = 5.31236 5.36799 5.34025
#
# Compressibility (1/GPa) = 0.03385018
#
# Stress axis : x y z
#
# Youngs Moduli (GPa) = 64.19955 50.96392 74.89263
#
# Poissons Ratio (x) = 0.13959 0.17953
# Poissons Ratio (y) = 0.17584 0.16582
# Poissons Ratio (z) = 0.15390 0.11284
#
# Static dielectric constant tensor:
#      x y z
#    x 1.937040 0.000000 0.000000 
#    y 0.000000 1.881340 0.000000 
#    z 0.000000 0.000000 1.958740 
# 
# From -- ./inp_files/4745.got.cif
#   From: 2010.05.17/outbox.cif.g08.bks.cpg/sg33_3_cif.got.tgz:4745.got - 2010.06.03 17:15:25.
