data_PCOD9346453
_publ_section_title
;
Structure prediction by ZEFSAII (Michael W. Deem and Ramdas Pophale) SiO2 
 PCOD9346453
Probable space group: P N A 21
;
_chemical_formula_sum "Si O2"
_cell_formula_units_Z 16
_cell_length_a 11.256355
_cell_length_b 7.483014
_cell_length_c 7.523429
_cell_angle_alpha 90.000000
_cell_angle_beta 90.000000
_cell_angle_gamma 90.000000
_cell_volume 633.709424
_symmetry_space_group_name_H-M "P N A 21"
_symmetry_group_IT_number 33
_symmetry_cell_setting 'orthorhombic'
loop_
_space_group_symop_operation_xyz
x,y,z
-x,-y,1/2+z
1/2-x,1/2+y,1/2+z
1/2+x,1/2-y,z
loop_
_atom_site_type_symbol
_atom_site_label
_atom_site_fract_x
_atom_site_fract_y
_atom_site_fract_z
Si Si1 0.685996 0.525285 0.156430
Si Si2 0.533685 0.623992 0.490118
Si Si3 0.085129 0.598991 0.788753
Si Si4 0.410946 0.761194 0.094547
O O1 0.600476 0.617172 0.301656
O O2 0.605708 0.426167 0.011499
O O3 0.771959 0.398649 0.273338
O O4 0.779060 0.658548 0.065797
O O5 0.550982 0.796438 0.610092
O O6 0.593132 0.452051 0.592840
O O7 0.056984 0.387738 0.764442
O O8 0.008518 0.685267 0.945075
#
# Coordination Sequence:
#
# PCOD9346453 Si02
#       4
#     4   4   4   4
#     4  10  28  46  74 114 146 201 251 308 375 458
#     4  12  24  50  76 108 154 201 247 313 378 443
#     4  10  26  49  76 108 153 200 251 308 377 448
#     4  10  26  49  74 114 149 204 249 311 378 445
#
# _framework density 25.248166999999999
#
# number of rings (size 3 to 8) (size 9 to 14) (size 15 to 20)
#    1.500    0.000    2.500    0.000    7.000    4.000 
#    9.000    0.000    0.000    0.000    0.000    0.000 
#    0.000    0.000    0.000    0.000    0.000    0.000 
#
# Total GULP energy -89208.579715 kJ/mol
# GULP energy per Si atom -5575.536232 kJ/mol
# Density = 2.519070 g / cm^3
# Si number density = 25.248167 Si / 1000 Ang^3
#
#
#
# Elastic Constant Matrix: (Units=GPa)
#
#
# Indices 1 2 3 4 5 6 
#
# 1 171.4787 8.8427 34.0967 0.0000 0.0000 0.0000
# 2 8.8427 65.6567 -3.8101 0.0000 0.0000 0.0000
# 3 34.0967 -3.8101 106.4220 0.0000 0.0000 0.0000
# 4 0.0000 0.0000 0.0000 42.3181 0.0000 0.0000
# 5 0.0000 0.0000 0.0000 0.0000 45.0034 0.0000
# 6 0.0000 0.0000 0.0000 0.0000 0.0000 141.7183
#
#
#
# Elastic Compliance Matrix: (Units=1/GPa)
#
#
# Indices 1 2 3 4 5 6 
#
# 1 0.006289 -0.000966 -0.002050 0.000000 0.000000 0.000000
# 2 -0.000966 0.015411 0.000861 0.000000 0.000000 0.000000
# 3 -0.002050 0.000861 0.010084 0.000000 0.000000 0.000000
# 4 0.000000 0.000000 0.000000 0.023631 0.000000 0.000000
# 5 0.000000 0.000000 0.000000 0.000000 0.022221 0.000000
# 6 0.000000 0.000000 0.000000 0.000000 0.000000 0.007056
#
#
# Mechanical properties :
#
#
# Convention : Reuss Voigt Hill
#
# Bulk Modulus (GPa) = 36.39628 46.86842 41.63235
# Shear Modulus (GPa) = 50.93826 66.10318 58.52072
#
# Velocity S-wave (km/s) = 4.49654 5.12233 4.81960
# Velocity P-wave (km/s) = 6.43468 7.32036 6.89176
#
# Compressibility (1/GPa) = 0.02747534
#
# Stress axis : x y z
#
# Youngs Moduli (GPa) = 159.00878 64.88954 99.16665
#
# Poissons Ratio (x) = 0.06268 0.20324
# Poissons Ratio (y) = 0.15359 -0.08540
# Poissons Ratio (z) = 0.32589 -0.05588
#
# Static dielectric constant tensor:
#      x y z
#    x 2.050130 0.000000 0.000000 
#    y 0.000000 1.989750 0.000000 
#    z 0.000000 0.000000 2.075840 
# 
# From -- ./inp_files/3630.got.cif
#   From: 2010.05.17/outbox.cif.g08.bks.cpg/sg33_2_cif.got.tgz:3630.got - 2010.06.03 17:15:25.
