data_PCOD9346693
_publ_section_title
;
Structure prediction by ZEFSAII (Michael W. Deem and Ramdas Pophale) SiO2 
 PCOD9346693
Probable space group: P N A 21
;
_chemical_formula_sum "Si O2"
_cell_formula_units_Z 20
_cell_length_a 6.802670
_cell_length_b 20.795526
_cell_length_c 6.122739
_cell_angle_alpha 90.000000
_cell_angle_beta 90.000000
_cell_angle_gamma 90.000000
_cell_volume 866.153890
_symmetry_space_group_name_H-M "P N A 21"
_symmetry_group_IT_number 33
_symmetry_cell_setting 'orthorhombic'
loop_
_space_group_symop_operation_xyz
x,y,z
-x,-y,1/2+z
1/2-x,1/2+y,1/2+z
1/2+x,1/2-y,z
loop_
_atom_site_type_symbol
_atom_site_label
_atom_site_fract_x
_atom_site_fract_y
_atom_site_fract_z
Si Si1 0.101760 0.598779 0.870520
Si Si2 0.966691 0.805986 0.886678
Si Si3 0.345093 0.822529 0.124754
Si Si4 0.402036 0.486596 0.892175
Si Si5 0.736539 0.146408 0.048280
O O1 0.276141 0.650808 0.857732
O O2 0.208791 0.531046 0.870002
O O3 0.933633 0.613760 0.693244
O O4 0.981180 0.615703 0.088630
O O5 0.100233 0.813406 0.675057
O O6 0.118887 0.833858 0.064458
O O7 0.913911 0.735255 0.969316
O O8 0.360625 0.805857 0.375594
O O9 0.504144 0.494849 0.642868
O O10 0.345127 0.413110 0.932825
#
# Coordination Sequence:
#
# PCOD9346693 Si02
#       5
#     4   4   4   4   4
#     4  11  26  47  75 110 154 201 263 325 395 474
#     4  11  23  51  67 111 152 196 269 317 397 466
#     4  11  25  45  75 106 153 207 259 333 390 474
#     4  12  28  51  83 118 163 210 264 331 403 484
#     4  11  28  46  78 115 154 212 265 328 403 476
#
# _framework density 23.090585000000001
#
# number of rings (size 3 to 8) (size 9 to 14) (size 15 to 20)
#    0.000    0.800    4.000    1.200    8.400    4.800 
#    0.000    0.000    0.000    0.000    0.000    0.000 
#    0.000    0.000    0.000    0.000    0.000    0.000 
#
# Total GULP energy -111446.757312 kJ/mol
# GULP energy per Si atom -5572.337866 kJ/mol
# Density = 2.303803 g / cm^3
# Si number density = 23.090585 Si / 1000 Ang^3
#
#
#
# Elastic Constant Matrix: (Units=GPa)
#
#
# Indices 1 2 3 4 5 6 
#
# 1 111.4676 22.5462 56.6055 0.0000 0.0000 0.0000
# 2 22.5462 95.2763 50.6391 0.0000 0.0000 0.0000
# 3 56.6055 50.6391 142.3232 0.0000 0.0000 0.0000
# 4 0.0000 0.0000 0.0000 29.8882 0.0000 0.0000
# 5 0.0000 0.0000 0.0000 0.0000 -2.3179 0.0000
# 6 0.0000 0.0000 0.0000 0.0000 0.0000 50.4605
#
#
#
# Elastic Compliance Matrix: (Units=1/GPa)
#
#
# Indices 1 2 3 4 5 6 
#
# 1 0.011251 -0.000350 -0.004350 0.000000 0.000000 0.000000
# 2 -0.000350 0.012954 -0.004470 0.000000 0.000000 0.000000
# 3 -0.004350 -0.004470 0.010347 0.000000 0.000000 0.000000
# 4 0.000000 0.000000 0.000000 0.033458 0.000000 0.000000
# 5 0.000000 0.000000 0.000000 0.000000 -0.431433 0.000000
# 6 0.000000 0.000000 0.000000 0.000000 0.000000 0.019817
#
#
# Mechanical properties :
#
#
# Convention : Reuss Voigt Hill
#
# Bulk Modulus (GPa) = 61.68438 67.62764 64.65601
# Shear Modulus (GPa) = -15.63185 30.22458 7.29636
#
# Velocity S-wave (km/s) = -2.60471 3.62188 1.77954
# Velocity P-wave (km/s) = 4.21024 6.84414 5.68191
#
# Compressibility (1/GPa) = 0.01621156
#
# Stress axis : x y z
#
# Youngs Moduli (GPa) = 88.87929 77.19362 96.64757
#
# Poissons Ratio (x) = 0.02704 0.42044
# Poissons Ratio (y) = 0.03114 0.43200
# Poissons Ratio (z) = 0.38665 0.34505
#
# Static dielectric constant tensor:
#      x y z
#    x 1.845390 0.000000 0.000000 
#    y 0.000000 1.878060 0.000000 
#    z 0.000000 0.000000 2.008410 
# 
# From -- ./inp_files/150.got.cif
#   From: 2010.05.17/outbox.cif.g08.bks.cpg/sg33_1_cif.got.tgz:150.got - 2010.06.03 17:15:25.
