data_PCOD9346239
_publ_section_title
;
Structure prediction by ZEFSAII (Michael W. Deem and Ramdas Pophale) SiO2 
 PCOD9346239
Probable space group: P N A 21
;
_chemical_formula_sum "Si O2"
_cell_formula_units_Z 32
_cell_length_a 8.282825
_cell_length_b 4.606557
_cell_length_c 29.731168
_cell_angle_alpha 90.000000
_cell_angle_beta 90.000000
_cell_angle_gamma 90.000000
_cell_volume 1134.401797
_symmetry_space_group_name_H-M "P N A 21"
_symmetry_group_IT_number 33
_symmetry_cell_setting 'orthorhombic'
loop_
_space_group_symop_operation_xyz
x,y,z
-x,-y,1/2+z
1/2-x,1/2+y,1/2+z
1/2+x,1/2-y,z
loop_
_atom_site_type_symbol
_atom_site_label
_atom_site_fract_x
_atom_site_fract_y
_atom_site_fract_z
Si Si1 0.709541 0.077399 0.610880
Si Si2 0.956954 0.529972 0.428479
Si Si3 0.533516 0.533168 0.863133
Si Si4 0.669353 0.532324 0.488203
Si Si5 0.010975 0.999115 0.170958
Si Si6 0.446796 0.081837 0.545597
Si Si7 0.505511 0.003610 0.236323
Si Si8 0.766603 0.886828 0.798733
O O1 0.832872 0.906377 0.642503
O O2 0.615541 0.322272 0.640214
O O3 0.573147 0.931150 0.579513
O O4 0.831945 0.227237 0.576582
O O5 0.797285 0.403880 0.452360
O O6 0.029318 0.270726 0.399202
O O7 0.072678 0.710406 0.463055
O O8 0.903247 0.769315 0.392359
O O9 0.664653 0.691261 0.832901
O O10 0.393163 0.438989 0.828970
O O11 0.549760 0.301955 0.512617
O O12 0.812334 0.625997 0.522840
O O13 0.066047 0.771934 0.209238
O O14 0.945832 0.272186 0.198079
O O15 0.359383 0.930371 0.269669
O O16 0.636028 0.175098 0.265536
#
# Coordination Sequence:
#
# PCOD9346239 Si02
#       8
#     4   4   4   4   4   4   4   4
#     4   9  20  41  69  99 140 184 232 292 355 428
#     4  12  26  45  73 103 139 188 241 301 361 429
#     4  11  25  44  67  98 137 184 235 292 363 428
#     4  11  24  43  74 105 144 186 244 302 361 432
#     4  11  22  41  67  98 135 180 233 288 351 425
#     4   9  21  46  71 105 142 188 238 297 367 430
#     4  11  24  40  66  98 133 180 231 288 352 416
#     4  10  24  42  65  96 138 180 230 292 352 424
#
# _framework density 28.208703
#
# number of rings (size 3 to 8) (size 9 to 14) (size 15 to 20)
#    0.000    1.500    0.000    3.750    0.000   10.000 
#    0.000   18.750    0.000    0.000    0.000    0.000 
#    0.000    0.000    0.000    0.000    0.000    0.000 
#
# Total GULP energy -179438.687596 kJ/mol
# GULP energy per Si atom -5607.458987 kJ/mol
# Density = 2.814450 g / cm^3
# Si number density = 28.208703 Si / 1000 Ang^3
#
#
#
# Elastic Constant Matrix: (Units=GPa)
#
#
# Indices 1 2 3 4 5 6 
#
# 1 167.5533 19.7311 100.6991 0.0000 0.0000 0.0000
# 2 19.7311 79.1559 54.8321 0.0000 0.0000 0.0000
# 3 100.6991 54.8321 148.6045 0.0000 0.0000 0.0000
# 4 0.0000 0.0000 0.0000 20.5162 0.0000 0.0000
# 5 0.0000 0.0000 0.0000 0.0000 97.8631 0.0000
# 6 0.0000 0.0000 0.0000 0.0000 0.0000 -496.3195
#
#
#
# Elastic Compliance Matrix: (Units=1/GPa)
#
#
# Indices 1 2 3 4 5 6 
#
# 1 0.010620 0.003140 -0.008355 0.000000 0.000000 0.000000
# 2 0.003140 0.017900 -0.008733 0.000000 0.000000 0.000000
# 3 -0.008355 -0.008733 0.015613 0.000000 0.000000 0.000000
# 4 0.000000 0.000000 0.000000 0.048742 0.000000 0.000000
# 5 0.000000 0.000000 0.000000 0.000000 0.010218 0.000000
# 6 0.000000 0.000000 0.000000 0.000000 0.000000 -0.002015
#
#
# Mechanical properties :
#
#
# Convention : Reuss Voigt Hill
#
# Bulk Modulus (GPa) = 61.58396 82.87092 72.22744
# Shear Modulus (GPa) = 37.20635 -60.91795 -11.85580
#
# Velocity S-wave (km/s) = 3.63570 -4.65213 -2.05232
# Velocity P-wave (km/s) = 6.28517 0.76493 4.47708
#
# Compressibility (1/GPa) = 0.01623800
#
# Stress axis : x y z
#
# Youngs Moduli (GPa) = 94.16349 55.86682 64.04859
#
# Poissons Ratio (x) = -0.17545 0.53513
# Poissons Ratio (y) = -0.29572 0.55932
# Poissons Ratio (z) = 0.78675 0.48787
#
# Static dielectric constant tensor:
#      x y z
#    x 2.106120 0.000000 0.000000 
#    y 0.000000 2.084150 0.000000 
#    z 0.000000 0.000000 2.274910 
# 
# From -- ./inp_files/9391.got.cif
#   From: 2010.05.17/outbox.cif.g08.bks.cpg/sg33_5_cif.got.tgz:9391.got - 2010.06.03 17:15:25.
