data_PCOD9346205
_publ_section_title
;
Structure prediction by ZEFSAII (Michael W. Deem and Ramdas Pophale) SiO2 
 PCOD9346205
Probable space group: P N A 21
;
_chemical_formula_sum "Si O2"
_cell_formula_units_Z 32
_cell_length_a 15.188211
_cell_length_b 7.593354
_cell_length_c 11.386910
_cell_angle_alpha 90.000000
_cell_angle_beta 90.000000
_cell_angle_gamma 90.000000
_cell_volume 1313.246213
_symmetry_space_group_name_H-M "P N A 21"
_symmetry_group_IT_number 33
_symmetry_cell_setting 'orthorhombic'
loop_
_space_group_symop_operation_xyz
x,y,z
-x,-y,1/2+z
1/2-x,1/2+y,1/2+z
1/2+x,1/2-y,z
loop_
_atom_site_type_symbol
_atom_site_label
_atom_site_fract_x
_atom_site_fract_y
_atom_site_fract_z
Si Si1 0.575977 0.441508 0.113830
Si Si2 0.737413 0.137372 0.654067
Si Si3 0.701760 0.714249 0.394119
Si Si4 0.216231 0.398136 0.411804
Si Si5 0.930889 0.572670 0.280615
Si Si6 0.668609 0.892636 0.952311
Si Si7 0.995624 0.073049 0.862413
Si Si8 0.108891 0.446867 0.175168
O O1 0.670681 0.536015 0.130553
O O2 0.523710 0.468182 0.239063
O O3 0.594602 0.233663 0.104923
O O4 0.529348 0.499150 0.990250
O O5 0.760404 0.257201 0.765138
O O6 0.695017 0.207526 0.532686
O O7 0.656187 0.026681 0.707470
O O8 0.758074 0.544600 0.429941
O O9 0.599442 0.663570 0.390216
O O10 0.716761 0.900483 0.455785
O O11 0.305822 0.290976 0.390390
O O12 0.157252 0.393304 0.296703
O O13 0.922891 0.454206 0.395706
O O14 0.937023 0.774256 0.321988
O O15 0.016698 0.529785 0.209415
O O16 0.654191 0.910707 0.090536
#
# Coordination Sequence:
#
# PCOD9346205 Si02
#       8
#     4   4   4   4   4   4   4   4
#     4  11  26  50  79 114 158 206 268 332 404 484
#     4  10  25  45  72 105 150 200 255 324 389 474
#     4  10  23  48  72 104 153 199 254 336 386 464
#     4  12  24  42  76 105 142 208 256 305 396 463
#     4  11  25  46  72 104 155 196 251 328 394 456
#     4  11  26  48  71 107 154 198 258 319 393 475
#     4  11  24  49  78 114 158 207 263 342 398 475
#     4  12  25  46  72 111 152 202 257 322 394 477
#
# _framework density 24.367099
#
# number of rings (size 3 to 8) (size 9 to 14) (size 15 to 20)
#    0.000    1.000    2.500    3.750    7.000    3.000 
#    2.250    0.000    0.000    0.000    0.000    0.000 
#    0.000    0.000    0.000    0.000    0.000    0.000 
#
# Total GULP energy -178406.421123 kJ/mol
# GULP energy per Si atom -5575.200660 kJ/mol
# Density = 2.431164 g / cm^3
# Si number density = 24.367099 Si / 1000 Ang^3
#
#
#
# Elastic Constant Matrix: (Units=GPa)
#
#
# Indices 1 2 3 4 5 6 
#
# 1 114.1548 15.1915 68.0674 0.0000 0.0000 0.0000
# 2 15.1915 68.3613 19.1161 0.0000 0.0000 0.0000
# 3 68.0674 19.1161 145.3845 0.0000 0.0000 0.0000
# 4 0.0000 0.0000 0.0000 39.7036 0.0000 0.0000
# 5 0.0000 0.0000 0.0000 0.0000 49.7333 0.0000
# 6 0.0000 0.0000 0.0000 0.0000 0.0000 29.8007
#
#
#
# Elastic Compliance Matrix: (Units=1/GPa)
#
#
# Indices 1 2 3 4 5 6 
#
# 1 0.012241 -0.001160 -0.005578 0.000000 0.000000 0.000000
# 2 -0.001160 0.015297 -0.001468 0.000000 0.000000 0.000000
# 3 -0.005578 -0.001468 0.009683 0.000000 0.000000 0.000000
# 4 0.000000 0.000000 0.000000 0.025187 0.000000 0.000000
# 5 0.000000 0.000000 0.000000 0.000000 0.020107 0.000000
# 6 0.000000 0.000000 0.000000 0.000000 0.000000 0.033556
#
#
# Mechanical properties :
#
#
# Convention : Reuss Voigt Hill
#
# Bulk Modulus (GPa) = 48.06110 59.18339 53.62225
# Shear Modulus (GPa) = 35.86300 38.88256 37.37278
#
# Velocity S-wave (km/s) = 3.84054 3.99895 3.92055
# Velocity P-wave (km/s) = 6.27956 6.75745 6.52289
#
# Compressibility (1/GPa) = 0.02080685
#
# Stress axis : x y z
#
# Youngs Moduli (GPa) = 81.69476 65.37437 103.27289
#
# Poissons Ratio (x) = 0.07585 0.57610
# Poissons Ratio (y) = 0.09479 0.15161
# Poissons Ratio (z) = 0.45573 0.09597
#
# Static dielectric constant tensor:
#      x y z
#    x 1.955210 0.000000 0.000000 
#    y 0.000000 2.063240 0.000000 
#    z 0.000000 0.000000 2.078620 
# 
# From -- ./inp_files/6809.got.cif
#   From: 2010.05.17/outbox.cif.g08.bks.cpg/sg33_4_cif.got.tgz:6809.got - 2010.06.03 17:15:25.
