data_PCOD9346382
_publ_section_title
;
Structure prediction by ZEFSAII (Michael W. Deem and Ramdas Pophale) SiO2 
 PCOD9346382
Probable space group: P N A 21
;
_chemical_formula_sum "Si O2"
_cell_formula_units_Z 28
_cell_length_a 26.374755
_cell_length_b 5.114183
_cell_length_c 8.152686
_cell_angle_alpha 90.000000
_cell_angle_beta 90.000000
_cell_angle_gamma 90.000000
_cell_volume 1099.677690
_symmetry_space_group_name_H-M "P N A 21"
_symmetry_group_IT_number 33
_symmetry_cell_setting 'orthorhombic'
loop_
_space_group_symop_operation_xyz
x,y,z
-x,-y,1/2+z
1/2-x,1/2+y,1/2+z
1/2+x,1/2-y,z
loop_
_atom_site_type_symbol
_atom_site_label
_atom_site_fract_x
_atom_site_fract_y
_atom_site_fract_z
Si Si1 0.093478 0.534588 0.039750
Si Si2 0.508227 0.246276 0.606851
Si Si3 0.203156 0.306391 0.477099
Si Si4 0.247811 0.281617 0.835149
Si Si5 0.436427 0.117908 0.878481
Si Si6 0.355675 0.524291 0.417718
Si Si7 0.610922 0.493835 0.564362
O O1 0.080998 0.438059 0.225081
O O2 0.042063 0.698560 0.995747
O O3 0.106429 0.271867 0.942347
O O4 0.134883 0.766595 0.026503
O O5 0.483982 0.255571 0.786285
O O6 0.550688 0.463937 0.590570
O O7 0.543128 0.009689 0.543386
O O8 0.228433 0.355669 0.654514
O O9 0.214586 0.535626 0.350092
O O10 0.227625 0.035627 0.415261
O O11 0.143973 0.253972 0.511345
O O12 0.198520 0.163797 0.929228
O O13 0.390049 0.305674 0.916564
O O14 0.363454 0.418234 0.232736
#
# Coordination Sequence:
#
# PCOD9346382 Si02
#       7
#     4   4   4   4   4   4   4
#     4  10  26  42  70 102 141 190 237 294 349 438
#     4  10  25  42  65 100 148 185 238 288 358 418
#     4  11  26  48  75 108 145 186 245 297 378 422
#     4  11  25  48  75 106 142 192 233 311 361 442
#     4  10  26  40  68 102 143 192 237 293 354 423
#     4  11  25  48  72 101 142 188 242 294 373 419
#     4  11  27  42  73 103 145 191 240 301 355 442
#
# _framework density 25.462007
#
# number of rings (size 3 to 8) (size 9 to 14) (size 15 to 20)
#    0.857    0.571    0.000    2.571   12.000    5.714 
#    0.000    0.000    0.000    0.000    0.000    0.000 
#    0.000    0.000    0.000    0.000    0.000    0.000 
#
# Total GULP energy -156258.687851 kJ/mol
# GULP energy per Si atom -5580.667423 kJ/mol
# Density = 2.540405 g / cm^3
# Si number density = 25.462007 Si / 1000 Ang^3
#
#
#
# Elastic Constant Matrix: (Units=GPa)
#
#
# Indices 1 2 3 4 5 6 
#
# 1 100.5407 31.6759 49.0713 0.0000 0.0000 0.0000
# 2 31.6759 82.5643 7.2001 0.0000 0.0000 0.0000
# 3 49.0713 7.2001 37.7607 0.0000 0.0000 0.0000
# 4 0.0000 0.0000 0.0000 31.3718 0.0000 0.0000
# 5 0.0000 0.0000 0.0000 0.0000 27.7275 0.0000
# 6 0.0000 0.0000 0.0000 0.0000 0.0000 41.2111
#
#
#
# Elastic Compliance Matrix: (Units=1/GPa)
#
#
# Indices 1 2 3 4 5 6 
#
# 1 0.032642 -0.008973 -0.040708 0.000000 0.000000 0.000000
# 2 -0.008973 0.014783 0.008842 0.000000 0.000000 0.000000
# 3 -0.040708 0.008842 0.077698 0.000000 0.000000 0.000000
# 4 0.000000 0.000000 0.000000 0.031876 0.000000 0.000000
# 5 0.000000 0.000000 0.000000 0.000000 0.036065 0.000000
# 6 0.000000 0.000000 0.000000 0.000000 0.000000 0.024265
#
#
# Mechanical properties :
#
#
# Convention : Reuss Voigt Hill
#
# Bulk Modulus (GPa) = 23.01770 44.08447 33.55109
# Shear Modulus (GPa) = 15.94946 28.92331 22.43638
#
# Velocity S-wave (km/s) = 2.50552 3.37403 2.97167
# Velocity P-wave (km/s) = 4.17490 5.70352 4.99800
#
# Compressibility (1/GPa) = 0.04344482
#
# Stress axis : x y z
#
# Youngs Moduli (GPa) = 30.63547 67.64422 12.87027
#
# Poissons Ratio (x) = 0.60698 0.52393
# Poissons Ratio (y) = 0.27489 -0.11380
# Poissons Ratio (z) = 1.24712 -0.59811
#
# Static dielectric constant tensor:
#      x y z
#    x 2.086020 0.000000 0.000000 
#    y 0.000000 2.078150 0.000000 
#    z 0.000000 0.000000 2.008290 
# 
# From -- ./inp_files/5159.got.cif
#   From: 2010.05.17/outbox.cif.g08.bks.cpg/sg33_3_cif.got.tgz:5159.got - 2010.06.03 17:15:25.
