data_PCOD9346462
_publ_section_title
;
Structure prediction by ZEFSAII (Michael W. Deem and Ramdas Pophale) SiO2 
 PCOD9346462
Probable space group: P N A 21
;
_chemical_formula_sum "Si O2"
_cell_formula_units_Z 32
_cell_length_a 14.407527
_cell_length_b 5.378217
_cell_length_c 16.768858
_cell_angle_alpha 90.000000
_cell_angle_beta 90.000000
_cell_angle_gamma 90.000000
_cell_volume 1299.365257
_symmetry_space_group_name_H-M "P N A 21"
_symmetry_group_IT_number 33
_symmetry_cell_setting 'orthorhombic'
loop_
_space_group_symop_operation_xyz
x,y,z
-x,-y,1/2+z
1/2-x,1/2+y,1/2+z
1/2+x,1/2-y,z
loop_
_atom_site_type_symbol
_atom_site_label
_atom_site_fract_x
_atom_site_fract_y
_atom_site_fract_z
Si Si1 0.264953 0.875541 0.447310
Si Si2 0.995247 0.414690 0.780395
Si Si3 0.297519 0.587330 0.599185
Si Si4 0.584595 0.770262 0.911112
Si Si5 0.583633 0.947978 0.616944
Si Si6 0.673900 0.907712 0.181474
Si Si7 0.566728 0.458433 0.514727
Si Si8 0.833337 0.907418 0.297135
O O1 0.281236 0.641219 0.505990
O O2 0.283007 0.785064 0.357371
O O3 0.349661 0.061874 0.465391
O O4 0.165440 0.996862 0.468775
O O5 0.012612 0.561453 0.861362
O O6 0.033603 0.551139 0.701660
O O7 0.060803 0.175595 0.784292
O O8 0.889328 0.374003 0.759399
O O9 0.193050 0.573109 0.632483
O O10 0.343120 0.330797 0.626048
O O11 0.342848 0.831865 0.637595
O O12 0.521266 0.573281 0.956827
O O13 0.656018 0.658582 0.846467
O O14 0.554819 0.706455 0.566707
O O15 0.569721 0.205112 0.567380
O O16 0.778289 0.918486 0.215306
#
# Coordination Sequence:
#
# PCOD9346462 Si02
#       8
#     4   4   4   4   4   4   4   4
#     4  10  27  47  75 107 148 200 242 312 367 455
#     4  11  28  46  74 111 149 199 246 313 373 451
#     4  11  25  49  74 109 145 194 250 303 369 437
#     4  11  28  48  76 111 154 197 256 305 386 447
#     4  11  25  50  73 110 151 192 248 311 369 438
#     4  12  28  46  80 106 149 195 250 301 374 442
#     4  11  28  47  80 106 152 194 249 307 374 444
#     4  11  27  47  76 104 156 189 253 304 378 442
#
# _framework density 24.627409
#
# number of rings (size 3 to 8) (size 9 to 14) (size 15 to 20)
#    0.000    1.000    1.250    2.250   19.250    0.000 
#    0.000    0.000    0.000    0.000    0.000    0.000 
#    0.000    0.000    0.000    0.000    0.000    0.000 
#
# Total GULP energy -179225.223639 kJ/mol
# GULP energy per Si atom -5600.788239 kJ/mol
# Density = 2.457136 g / cm^3
# Si number density = 24.627409 Si / 1000 Ang^3
#
#
#
# Elastic Constant Matrix: (Units=GPa)
#
#
# Indices 1 2 3 4 5 6 
#
# 1 78.6405 17.5168 4.5639 0.0000 0.0000 0.0000
# 2 17.5168 143.0642 29.1807 0.0000 0.0000 0.0000
# 3 4.5639 29.1807 46.7427 0.0000 0.0000 0.0000
# 4 0.0000 0.0000 0.0000 40.1547 0.0000 0.0000
# 5 0.0000 0.0000 0.0000 0.0000 42.0872 0.0000
# 6 0.0000 0.0000 0.0000 0.0000 0.0000 28.0016
#
#
#
# Elastic Compliance Matrix: (Units=1/GPa)
#
#
# Indices 1 2 3 4 5 6 
#
# 1 0.013077 -0.001536 -0.000318 0.000000 0.000000 0.000000
# 2 -0.001536 0.008190 -0.004963 0.000000 0.000000 0.000000
# 3 -0.000318 -0.004963 0.024523 0.000000 0.000000 0.000000
# 4 0.000000 0.000000 0.000000 0.024904 0.000000 0.000000
# 5 0.000000 0.000000 0.000000 0.000000 0.023760 0.000000
# 6 0.000000 0.000000 0.000000 0.000000 0.000000 0.035712
#
#
# Mechanical properties :
#
#
# Convention : Reuss Voigt Hill
#
# Bulk Modulus (GPa) = 31.09842 41.21892 36.15867
# Shear Modulus (GPa) = 32.35847 36.52777 34.44312
#
# Velocity S-wave (km/s) = 3.62874 3.85543 3.74380
# Velocity P-wave (km/s) = 5.49654 6.04917 5.77947
#
# Compressibility (1/GPa) = 0.03215597
#
# Stress axis : x y z
#
# Youngs Moduli (GPa) = 76.47161 122.09582 40.77788
#
# Poissons Ratio (x) = 0.18758 0.01295
# Poissons Ratio (y) = 0.11748 0.20238
# Poissons Ratio (z) = 0.02429 0.60597
#
# Static dielectric constant tensor:
#      x y z
#    x 1.959640 0.000000 0.000000 
#    y 0.000000 1.965780 0.000000 
#    z 0.000000 0.000000 1.956760 
# 
# From -- ./inp_files/8806.got.cif
#   From: 2010.05.17/outbox.cif.g08.bks.cpg/sg33_5_cif.got.tgz:8806.got - 2010.06.03 17:15:25.
