data_PCOD9346596
_publ_section_title
;
Structure prediction by ZEFSAII (Michael W. Deem and Ramdas Pophale) SiO2 
 PCOD9346596
Probable space group: P N A 21
;
_chemical_formula_sum "Si O2"
_cell_formula_units_Z 20
_cell_length_a 15.996905
_cell_length_b 11.467011
_cell_length_c 4.790668
_cell_angle_alpha 90.000000
_cell_angle_beta 90.000000
_cell_angle_gamma 90.000000
_cell_volume 878.784260
_symmetry_space_group_name_H-M "P N A 21"
_symmetry_group_IT_number 33
_symmetry_cell_setting 'orthorhombic'
loop_
_space_group_symop_operation_xyz
x,y,z
-x,-y,1/2+z
1/2-x,1/2+y,1/2+z
1/2+x,1/2-y,z
loop_
_atom_site_type_symbol
_atom_site_label
_atom_site_fract_x
_atom_site_fract_y
_atom_site_fract_z
Si Si1 0.391841 0.376725 0.897680
Si Si2 0.349745 0.225459 0.404936
Si Si3 0.010338 0.575489 0.214711
Si Si4 0.666773 0.367657 0.519774
Si Si5 0.430923 0.703324 0.511866
O O1 0.367705 0.341425 0.586007
O O2 0.346660 0.495626 0.973189
O O3 0.491504 0.382455 0.946036
O O4 0.366139 0.266860 0.091072
O O5 0.414984 0.134281 0.538316
O O6 0.257184 0.177683 0.437828
O O7 0.039364 0.491029 0.467425
O O8 0.958265 0.672916 0.384059
O O9 0.648593 0.339196 0.839707
O O10 0.595335 0.302909 0.333303
#
# Coordination Sequence:
#
# PCOD9346596 Si02
#       5
#     4   4   4   4   4
#     4  11  23  44  65  90 131 166 205 267 319 372
#     4  11  25  42  62  97 130 161 212 267 315 375
#     4  11  23  42  67  92 130 175 213 259 316 382
#     4  12  24  41  67  95 125 167 211 264 321 371
#     4  11  23  41  65  96 124 165 221 255 307 392
#
# _framework density 22.758713
#
# number of rings (size 3 to 8) (size 9 to 14) (size 15 to 20)
#    0.000    0.800    0.000    9.600    0.000    4.800 
#    0.000    2.000    0.000    0.000    0.000    0.000 
#    0.000    0.000    0.000    0.000    0.000    0.000 
#
# Total GULP energy -111911.242331 kJ/mol
# GULP energy per Si atom -5595.562117 kJ/mol
# Density = 2.270691 g / cm^3
# Si number density = 22.758713 Si / 1000 Ang^3
#
#
#
# Elastic Constant Matrix: (Units=GPa)
#
#
# Indices 1 2 3 4 5 6 
#
# 1 86.5164 24.8256 2.3931 0.0000 0.0000 0.0000
# 2 24.8256 60.1161 -5.8816 0.0000 0.0000 0.0000
# 3 2.3931 -5.8816 68.4992 0.0000 0.0000 0.0000
# 4 0.0000 0.0000 0.0000 42.1856 0.0000 0.0000
# 5 0.0000 0.0000 0.0000 0.0000 36.3454 0.0000
# 6 0.0000 0.0000 0.0000 0.0000 0.0000 11.7865
#
#
#
# Elastic Compliance Matrix: (Units=1/GPa)
#
#
# Indices 1 2 3 4 5 6 
#
# 1 0.013171 -0.005531 -0.000935 0.000000 0.000000 0.000000
# 2 -0.005531 0.019098 0.001833 0.000000 0.000000 0.000000
# 3 -0.000935 0.001833 0.014789 0.000000 0.000000 0.000000
# 4 0.000000 0.000000 0.000000 0.023705 0.000000 0.000000
# 5 0.000000 0.000000 0.000000 0.000000 0.027514 0.000000
# 6 0.000000 0.000000 0.000000 0.000000 0.000000 0.084843
#
#
# Mechanical properties :
#
#
# Convention : Reuss Voigt Hill
#
# Bulk Modulus (GPa) = 26.46035 28.64512 27.55273
# Shear Modulus (GPa) = 24.39233 30.98313 27.68773
#
# Velocity S-wave (km/s) = 3.27736 3.69368 3.49173
# Velocity P-wave (km/s) = 5.09638 5.55021 5.32813
#
# Compressibility (1/GPa) = 0.03779240
#
# Stress axis : x y z
#
# Youngs Moduli (GPa) = 75.92202 52.36204 67.61888
#
# Poissons Ratio (x) = 0.28960 0.06323
# Poissons Ratio (y) = 0.41991 -0.12395
# Poissons Ratio (z) = 0.07099 -0.09598
#
# Static dielectric constant tensor:
#      x y z
#    x 1.821490 0.000000 0.000000 
#    y 0.000000 1.879760 0.000000 
#    z 0.000000 0.000000 1.791910 
# 
# From -- ./inp_files/1279.got.cif
#   From: 2010.05.17/outbox.cif.g08.bks.cpg/sg33_1_cif.got.tgz:1279.got - 2010.06.03 17:15:25.
