data_PCOD9346393
_publ_section_title
;
Structure prediction by ZEFSAII (Michael W. Deem and Ramdas Pophale) SiO2 
 PCOD9346393
Probable space group: P N A 21
;
_chemical_formula_sum "Si O2"
_cell_formula_units_Z 32
_cell_length_a 8.343717
_cell_length_b 15.000590
_cell_length_c 11.607661
_cell_angle_alpha 90.000000
_cell_angle_beta 90.000000
_cell_angle_gamma 90.000000
_cell_volume 1452.822718
_symmetry_space_group_name_H-M "P N A 21"
_symmetry_group_IT_number 33
_symmetry_cell_setting 'orthorhombic'
loop_
_space_group_symop_operation_xyz
x,y,z
-x,-y,1/2+z
1/2-x,1/2+y,1/2+z
1/2+x,1/2-y,z
loop_
_atom_site_type_symbol
_atom_site_label
_atom_site_fract_x
_atom_site_fract_y
_atom_site_fract_z
Si Si1 0.725892 0.546754 0.858730
Si Si2 0.722245 0.737799 0.384906
Si Si3 0.606758 0.824173 0.613516
Si Si4 0.843020 0.573393 0.495594
Si Si5 0.430763 0.636817 0.279421
Si Si6 0.547170 0.626779 0.657105
Si Si7 0.826577 0.040933 0.622761
Si Si8 0.400298 0.043802 0.295580
O O1 0.636559 0.453306 0.834848
O O2 0.618807 0.615080 0.784968
O O3 0.907315 0.541851 0.810770
O O4 0.725295 0.563673 0.994463
O O5 0.711190 0.797160 0.501342
O O6 0.843530 0.657176 0.408709
O O7 0.555580 0.688388 0.361184
O O8 0.780148 0.796788 0.277668
O O9 0.500345 0.907453 0.569636
O O10 0.514977 0.730821 0.636031
O O11 0.653534 0.861761 0.739795
O O12 0.691752 0.591941 0.575912
O O13 0.836354 0.483608 0.422540
O O14 0.536078 0.607139 0.170504
O O15 0.407338 0.557565 0.628591
O O16 0.680461 0.030724 0.712404
#
# Coordination Sequence:
#
# PCOD9346393 Si02
#       8
#     4   4   4   4   4   4   4   4
#     4  11  24  44  67 100 147 181 234 292 364 422
#     4  11  21  39  68  97 135 176 238 282 339 410
#     4  11  23  40  71 104 133 178 237 297 334 419
#     4  11  21  39  63 100 135 173 225 292 342 409
#     4  11  23  41  68  99 134 182 230 295 338 423
#     4  10  25  43  72 100 134 184 245 284 347 417
#     4  11  25  43  66 100 144 183 229 295 365 415
#     4  12  24  39  67 102 140 177 232 285 363 411
#
# _framework density 22.026085999999999
#
# number of rings (size 3 to 8) (size 9 to 14) (size 15 to 20)
#    0.000    1.000    3.750    3.750    5.250    0.000 
#    0.000    1.250    5.500    0.000    0.000    0.000 
#    0.000    0.000    0.000    0.000    0.000    0.000 
#
# Total GULP energy -178511.565872 kJ/mol
# GULP energy per Si atom -5578.486434 kJ/mol
# Density = 2.197595 g / cm^3
# Si number density = 22.026086 Si / 1000 Ang^3
#
#
#
# Elastic Constant Matrix: (Units=GPa)
#
#
# Indices 1 2 3 4 5 6 
#
# 1 48.0438 16.7893 20.2661 0.0000 0.0000 0.0000
# 2 16.7893 76.3820 40.3367 0.0000 0.0000 0.0000
# 3 20.2661 40.3367 112.1450 0.0000 0.0000 0.0000
# 4 0.0000 0.0000 0.0000 44.9231 0.0000 0.0000
# 5 0.0000 0.0000 0.0000 0.0000 31.0532 0.0000
# 6 0.0000 0.0000 0.0000 0.0000 0.0000 24.0350
#
#
#
# Elastic Compliance Matrix: (Units=1/GPa)
#
#
# Indices 1 2 3 4 5 6 
#
# 1 0.023298 -0.003577 -0.002924 0.000000 0.000000 0.000000
# 2 -0.003577 0.016711 -0.005364 0.000000 0.000000 0.000000
# 3 -0.002924 -0.005364 0.011375 0.000000 0.000000 0.000000
# 4 0.000000 0.000000 0.000000 0.022260 0.000000 0.000000
# 5 0.000000 0.000000 0.000000 0.000000 0.032203 0.000000
# 6 0.000000 0.000000 0.000000 0.000000 0.000000 0.041606
#
#
# Mechanical properties :
#
#
# Convention : Reuss Voigt Hill
#
# Bulk Modulus (GPa) = 36.16153 43.48390 39.82272
# Shear Modulus (GPa) = 27.71611 30.61417 29.16514
#
# Velocity S-wave (km/s) = 3.55114 3.73219 3.64279
# Velocity P-wave (km/s) = 5.76779 6.19332 5.98434
#
# Compressibility (1/GPa) = 0.02765369
#
# Stress axis : x y z
#
# Youngs Moduli (GPa) = 42.92286 59.84010 87.91352
#
# Poissons Ratio (x) = 0.21405 0.25702
# Poissons Ratio (y) = 0.15354 0.47160
# Poissons Ratio (z) = 0.12549 0.32100
#
# Static dielectric constant tensor:
#      x y z
#    x 1.941820 0.000000 0.000000 
#    y 0.000000 1.813710 0.000000 
#    z 0.000000 0.000000 1.841850 
# 
# From -- ./inp_files/6031.got.cif
#   From: 2010.05.17/outbox.cif.g08.bks.cpg/sg33_4_cif.got.tgz:6031.got - 2010.06.03 17:15:25.
