data_PCOD9346161
_publ_section_title
;
Structure prediction by ZEFSAII (Michael W. Deem and Ramdas Pophale) SiO2 
 PCOD9346161
Probable space group: P N A 21
;
_chemical_formula_sum "Si O2"
_cell_formula_units_Z 28
_cell_length_a 10.251826
_cell_length_b 8.519847
_cell_length_c 13.349134
_cell_angle_alpha 90.000000
_cell_angle_beta 90.000000
_cell_angle_gamma 90.000000
_cell_volume 1165.966613
_symmetry_space_group_name_H-M "P N A 21"
_symmetry_group_IT_number 33
_symmetry_cell_setting 'orthorhombic'
loop_
_space_group_symop_operation_xyz
x,y,z
-x,-y,1/2+z
1/2-x,1/2+y,1/2+z
1/2+x,1/2-y,z
loop_
_atom_site_type_symbol
_atom_site_label
_atom_site_fract_x
_atom_site_fract_y
_atom_site_fract_z
Si Si1 0.477386 0.921540 0.492090
Si Si2 0.893085 0.647873 0.873400
Si Si3 0.027853 0.238876 0.197341
Si Si4 0.715365 0.807925 0.026427
Si Si5 0.292502 0.461921 0.205286
Si Si6 0.086479 0.241191 0.799986
Si Si7 0.832680 0.098540 0.697991
O O1 0.460077 0.859158 0.603226
O O2 0.423200 0.798463 0.412965
O O3 0.606123 0.986851 0.435970
O O4 0.403043 0.088138 0.488521
O O5 0.016274 0.714611 0.812117
O O6 0.825110 0.622586 0.762810
O O7 0.820846 0.772557 0.942010
O O8 0.890216 0.160926 0.160160
O O9 0.121443 0.081834 0.204485
O O10 0.671319 0.649811 0.081861
O O11 0.768686 0.913656 0.117490
O O12 0.355464 0.568417 0.291331
O O13 0.189431 0.360251 0.744850
O O14 0.943011 0.214816 0.748890
#
# Coordination Sequence:
#
# PCOD9346161 Si02
#       7
#     4   4   4   4   4   4   4
#     4  12  26  42  76 104 142 194 254 307 386 448
#     4  12  26  45  70 106 144 194 247 315 378 456
#     4  11  26  45  72 105 148 190 254 313 370 458
#     4  11  25  44  72 101 146 191 248 304 390 448
#     4  10  24  46  68 104 148 182 248 309 373 454
#     4  10  23  45  72 105 146 196 246 304 373 452
#     4  10  24  47  74 105 152 197 245 316 372 456
#
# _framework density 24.014410000000002
#
# number of rings (size 3 to 8) (size 9 to 14) (size 15 to 20)
#    0.000    1.143    1.429    3.429    8.000    5.714 
#    0.000    0.000    0.000    0.000    0.000    0.000 
#    0.000    0.000    0.000    0.000    0.000    0.000 
#
# Total GULP energy -155963.419797 kJ/mol
# GULP energy per Si atom -5570.122136 kJ/mol
# Density = 2.395975 g / cm^3
# Si number density = 24.014410 Si / 1000 Ang^3
#
#
#
# Elastic Constant Matrix: (Units=GPa)
#
#
# Indices 1 2 3 4 5 6 
#
# 1 22.9068 10.9103 28.7631 0.0000 0.0000 0.0000
# 2 10.9103 98.1535 76.3246 0.0000 0.0000 0.0000
# 3 28.7631 76.3246 163.4752 0.0000 0.0000 0.0000
# 4 0.0000 0.0000 0.0000 1278.8734 0.0000 0.0000
# 5 0.0000 0.0000 0.0000 0.0000 24.4180 0.0000
# 6 0.0000 0.0000 0.0000 0.0000 0.0000 23.5238
#
#
#
# Elastic Compliance Matrix: (Units=1/GPa)
#
#
# Indices 1 2 3 4 5 6 
#
# 1 0.056355 0.002271 -0.010976 0.000000 0.000000 0.000000
# 2 0.002271 0.016087 -0.007910 0.000000 0.000000 0.000000
# 3 -0.010976 -0.007910 0.011741 0.000000 0.000000 0.000000
# 4 0.000000 0.000000 0.000000 0.000782 0.000000 0.000000
# 5 0.000000 0.000000 0.000000 0.000000 0.040953 0.000000
# 6 0.000000 0.000000 0.000000 0.000000 0.000000 0.042510
#
#
# Mechanical properties :
#
#
# Convention : Reuss Voigt Hill
#
# Bulk Modulus (GPa) = 19.62600 57.39238 38.50919
# Shear Modulus (GPa) = 22.86823 276.59888 149.73356
#
# Velocity S-wave (km/s) = 3.08924 10.74386 7.90487
# Velocity P-wave (km/s) = 4.57328 13.33635 9.96928
#
# Compressibility (1/GPa) = 0.05095282
#
# Stress axis : x y z
#
# Youngs Moduli (GPa) = 17.74458 62.16292 85.16834
#
# Poissons Ratio (x) = -0.14114 0.93478
# Poissons Ratio (y) = -0.04029 0.67370
# Poissons Ratio (z) = 0.19476 0.49172
#
# Static dielectric constant tensor:
#      x y z
#    x 2.512920 0.000000 0.000000 
#    y 0.000000 2.024380 0.000000 
#    z 0.000000 0.000000 1.982240 
# 
# From -- ./inp_files/6351.got.cif
#   From: 2010.05.17/outbox.cif.g08.bks.cpg/sg33_4_cif.got.tgz:6351.got - 2010.06.03 17:15:25.
