data_PCOD9346930
_publ_section_title
;
Structure prediction by ZEFSAII (Michael W. Deem and Ramdas Pophale) SiO2 
 PCOD9346930
Probable space group: P N A 21
;
_chemical_formula_sum "Si O2"
_cell_formula_units_Z 24
_cell_length_a 9.411857
_cell_length_b 19.760366
_cell_length_c 5.136660
_cell_angle_alpha 90.000000
_cell_angle_beta 90.000000
_cell_angle_gamma 90.000000
_cell_volume 955.324960
_symmetry_space_group_name_H-M "P N A 21"
_symmetry_group_IT_number 33
_symmetry_cell_setting 'orthorhombic'
loop_
_space_group_symop_operation_xyz
x,y,z
-x,-y,1/2+z
1/2-x,1/2+y,1/2+z
1/2+x,1/2-y,z
loop_
_atom_site_type_symbol
_atom_site_label
_atom_site_fract_x
_atom_site_fract_y
_atom_site_fract_z
Si Si1 0.300999 0.075351 0.563150
Si Si2 0.197341 0.490858 0.569735
Si Si3 0.665408 0.232168 0.157968
Si Si4 0.463336 0.413826 0.532830
Si Si5 0.557426 0.155990 0.656939
Si Si6 0.944260 0.167599 0.037917
O O1 0.389672 0.143149 0.617756
O O2 0.131500 0.081691 0.559125
O O3 0.347282 0.043045 0.290910
O O4 0.335074 0.022648 0.792275
O O5 0.367967 0.478794 0.596627
O O6 0.128152 0.417466 0.608404
O O7 0.597300 0.181965 0.942324
O O8 0.832809 0.225375 0.115879
O O9 0.601245 0.304901 0.091846
O O10 0.618046 0.207737 0.442587
O O11 0.422526 0.356857 0.745815
O O12 0.418360 0.391918 0.243705
#
# Coordination Sequence:
#
# PCOD9346930 Si02
#       6
#     4   4   4   4   4   4
#     4  12  26  40  71 102 133 178 220 266 324 402
#     4  12  22  46  65 100 137 176 222 264 332 384
#     4  12  26  46  71  97 131 175 221 276 333 389
#     4  12  25  45  69  99 138 171 220 276 327 391
#     4  12  25  45  69  99 138 171 220 276 327 391
#     4  12  26  46  71  97 131 175 221 276 333 389
#
# _framework density 25.122339
#
# number of rings (size 3 to 8) (size 9 to 14) (size 15 to 20)
#    0.000    0.000    3.333    7.000    4.667    0.000 
#    0.000    0.000    0.000    0.000    0.000    0.000 
#    0.000    0.000    0.000    0.000    0.000    0.000 
#
# Total GULP energy -134677.810909 kJ/mol
# GULP energy per Si atom -5611.575455 kJ/mol
# Density = 2.506516 g / cm^3
# Si number density = 25.122339 Si / 1000 Ang^3
#
#
#
# Elastic Constant Matrix: (Units=GPa)
#
#
# Indices 1 2 3 4 5 6 
#
# 1 100.7667 -12.8204 16.8234 0.0000 0.0000 0.0000
# 2 -12.8204 30.1820 10.6633 0.0000 0.0000 0.0000
# 3 16.8234 10.6633 60.8675 0.0000 0.0000 0.0000
# 4 0.0000 0.0000 0.0000 31.0341 0.0000 0.0000
# 5 0.0000 0.0000 0.0000 0.0000 15.2273 0.0000
# 6 0.0000 0.0000 0.0000 0.0000 0.0000 51.4770
#
#
#
# Elastic Compliance Matrix: (Units=1/GPa)
#
#
# Indices 1 2 3 4 5 6 
#
# 1 0.011450 0.006376 -0.004282 0.000000 0.000000 0.000000
# 2 0.006376 0.038869 -0.008572 0.000000 0.000000 0.000000
# 3 -0.004282 -0.008572 0.019114 0.000000 0.000000 0.000000
# 4 0.000000 0.000000 0.000000 0.032223 0.000000 0.000000
# 5 0.000000 0.000000 0.000000 0.000000 0.065672 0.000000
# 6 0.000000 0.000000 0.000000 0.000000 0.000000 0.019426
#
#
# Mechanical properties :
#
#
# Convention : Reuss Voigt Hill
#
# Bulk Modulus (GPa) = 17.70565 24.57206 21.13886
# Shear Modulus (GPa) = 22.87964 31.35765 27.11865
#
# Velocity S-wave (km/s) = 3.02110 3.53682 3.28908
# Velocity P-wave (km/s) = 4.38549 5.14597 4.78087
#
# Compressibility (1/GPa) = 0.05647914
#
# Stress axis : x y z
#
# Youngs Moduli (GPa) = 87.33598 25.72725 52.31692
#
# Poissons Ratio (x) = -0.16405 0.22401
# Poissons Ratio (y) = -0.55689 0.44845
# Poissons Ratio (z) = 0.37395 0.22053
#
# Static dielectric constant tensor:
#      x y z
#    x 2.049970 0.000000 0.000000 
#    y 0.000000 1.940630 0.000000 
#    z 0.000000 0.000000 1.896910 
# 
# From -- ./inp_files/448.got.cif
#   From: 2010.05.17/outbox.cif.g08.bks.cpg/sg33_1_cif.got.tgz:448.got - 2010.06.03 17:15:25.
