data_PCOD9346113
_publ_section_title
;
Structure prediction by ZEFSAII (Michael W. Deem and Ramdas Pophale) SiO2 
 PCOD9346113
Probable space group: P N A 21
;
_chemical_formula_sum "Si O2"
_cell_formula_units_Z 32
_cell_length_a 7.183973
_cell_length_b 19.204818
_cell_length_c 8.709942
_cell_angle_alpha 90.000000
_cell_angle_beta 90.000000
_cell_angle_gamma 90.000000
_cell_volume 1201.683645
_symmetry_space_group_name_H-M "P N A 21"
_symmetry_group_IT_number 33
_symmetry_cell_setting 'orthorhombic'
loop_
_space_group_symop_operation_xyz
x,y,z
-x,-y,1/2+z
1/2-x,1/2+y,1/2+z
1/2+x,1/2-y,z
loop_
_atom_site_type_symbol
_atom_site_label
_atom_site_fract_x
_atom_site_fract_y
_atom_site_fract_z
Si Si1 0.211904 0.335242 0.007180
Si Si2 0.980576 0.796698 0.284833
Si Si3 0.468113 0.827321 0.046093
Si Si4 0.699736 0.872779 0.518550
Si Si5 0.092431 0.127497 0.489521
Si Si6 0.120143 0.480334 0.636416
Si Si7 0.663363 0.273642 0.275173
Si Si8 0.740543 0.517627 0.488266
O O1 0.164884 0.282043 0.140040
O O2 0.010719 0.363526 0.959125
O O3 0.337660 0.293930 0.888616
O O4 0.325768 0.406066 0.036241
O O5 0.961974 0.723547 0.193786
O O6 0.833070 0.836285 0.394936
O O7 0.004153 0.848636 0.143204
O O8 0.688213 0.843372 0.002866
O O9 0.373642 0.902275 0.069122
O O10 0.366976 0.780956 0.917030
O O11 0.711929 0.831695 0.681704
O O12 0.722743 0.955225 0.551323
O O13 0.017239 0.169108 0.342154
O O14 0.097204 0.045437 0.483472
O O15 0.179636 0.480949 0.813984
O O16 0.901690 0.498493 0.610460
#
# Coordination Sequence:
#
# PCOD9346113 Si02
#       8
#     4   4   4   4   4   4   4   4
#     4  11  28  45  80 114 152 197 267 317 392 473
#     4  11  28  47  77 114 153 204 255 330 394 463
#     4  10  25  44  77 115 155 204 267 324 400 469
#     4  11  26  47  81 110 155 205 262 320 396 472
#     4  10  23  47  74 106 160 205 255 321 397 470
#     4  10  23  43  77 111 151 205 259 318 388 476
#     4  11  24  43  74 114 148 200 254 319 386 464
#     4  10  23  44  74 110 152 198 257 319 387 473
#
# _framework density 26.629304999999999
#
# number of rings (size 3 to 8) (size 9 to 14) (size 15 to 20)
#    0.000    1.500    1.250    0.750   19.250    1.000 
#    2.250    0.000    0.000    0.000    0.000    0.000 
#    0.000    0.000    0.000    0.000    0.000    0.000 
#
# Total GULP energy -178611.923007 kJ/mol
# GULP energy per Si atom -5581.622594 kJ/mol
# Density = 2.656870 g / cm^3
# Si number density = 26.629305 Si / 1000 Ang^3
#
#
#
# Elastic Constant Matrix: (Units=GPa)
#
#
# Indices 1 2 3 4 5 6 
#
# 1 86.2061 32.0975 24.1410 0.0000 0.0000 0.0000
# 2 32.0975 230.4844 54.2624 0.0000 0.0000 0.0000
# 3 24.1410 54.2624 132.2777 0.0000 0.0000 0.0000
# 4 0.0000 0.0000 0.0000 1.0782 0.0000 0.0000
# 5 0.0000 0.0000 0.0000 0.0000 35.8856 0.0000
# 6 0.0000 0.0000 0.0000 0.0000 0.0000 0.7668
#
#
#
# Elastic Compliance Matrix: (Units=1/GPa)
#
#
# Indices 1 2 3 4 5 6 
#
# 1 0.012589 -0.001342 -0.001747 0.000000 0.000000 0.000000
# 2 -0.001342 0.004946 -0.001784 0.000000 0.000000 0.000000
# 3 -0.001747 -0.001784 0.008610 0.000000 0.000000 0.000000
# 4 0.000000 0.000000 0.000000 0.927500 0.000000 0.000000
# 5 0.000000 0.000000 0.000000 0.000000 0.027866 0.000000
# 6 0.000000 0.000000 0.000000 0.000000 0.000000 1.304175
#
#
# Mechanical properties :
#
#
# Convention : Reuss Voigt Hill
#
# Bulk Modulus (GPa) = 60.97768 74.44108 67.70938
# Shear Modulus (GPa) = 2.17306 30.11061 16.14184
#
# Velocity S-wave (km/s) = 0.90433 3.36628 2.46472
# Velocity P-wave (km/s) = 4.90294 6.56692 5.79497
#
# Compressibility (1/GPa) = 0.01639944
#
# Stress axis : x y z
#
# Youngs Moduli (GPa) = 79.43461 202.20325 116.13786
#
# Poissons Ratio (x) = 0.27132 0.20290
# Poissons Ratio (y) = 0.10659 0.20717
# Poissons Ratio (z) = 0.13878 0.36070
#
# Static dielectric constant tensor:
#      x y z
#    x 2.218150 0.000000 0.000000 
#    y 0.000000 2.176650 0.000000 
#    z 0.000000 0.000000 2.123810 
# 
# From -- ./inp_files/4063.got.cif
#   From: 2010.05.17/outbox.cif.g08.bks.cpg/sg33_3_cif.got.tgz:4063.got - 2010.06.03 17:15:25.
