data_PCOD9346911
_publ_section_title
;
Structure prediction by ZEFSAII (Michael W. Deem and Ramdas Pophale) SiO2 
 PCOD9346911
Probable space group: P N A 21
;
_chemical_formula_sum "Si O2"
_cell_formula_units_Z 20
_cell_length_a 10.602860
_cell_length_b 9.478353
_cell_length_c 8.617653
_cell_angle_alpha 90.000000
_cell_angle_beta 90.000000
_cell_angle_gamma 90.000000
_cell_volume 866.053874
_symmetry_space_group_name_H-M "P N A 21"
_symmetry_group_IT_number 33
_symmetry_cell_setting 'orthorhombic'
loop_
_space_group_symop_operation_xyz
x,y,z
-x,-y,1/2+z
1/2-x,1/2+y,1/2+z
1/2+x,1/2-y,z
loop_
_atom_site_type_symbol
_atom_site_label
_atom_site_fract_x
_atom_site_fract_y
_atom_site_fract_z
Si Si1 0.577307 0.934721 0.902160
Si Si2 0.801549 0.896223 0.143160
Si Si3 0.073896 0.806140 0.654448
Si Si4 0.656734 0.086417 0.594526
Si Si5 0.190279 0.151009 0.000525
O O1 0.563179 0.783381 0.814019
O O2 0.618690 0.042103 0.767789
O O3 0.679400 0.933601 0.040434
O O4 0.445274 0.977161 0.976753
O O5 0.850491 0.752184 0.067423
O O6 0.780027 0.849849 0.319533
O O7 0.895251 0.027819 0.159715
O O8 0.199694 0.740226 0.580495
O O9 0.945634 0.793661 0.554896
O O10 0.788770 0.010510 0.559213
#
# Coordination Sequence:
#
# PCOD9346911 Si02
#       5
#     4   4   4   4   4
#     4  11  27  48  76 111 154 204 253 326 390 469
#     4  12  27  45  80 110 150 201 261 315 394 460
#     4  11  29  49  78 111 161 196 268 319 389 465
#     4  11  27  45  76 104 154 196 257 307 398 452
#     4  11  28  49  74 112 153 205 253 327 381 470
#
# _framework density 23.093250999999999
#
# number of rings (size 3 to 8) (size 9 to 14) (size 15 to 20)
#    0.000    0.800    0.000    3.600   28.000    0.000 
#    0.000    0.000    0.000    0.000    0.000    0.000 
#    0.000    0.000    0.000    0.000    0.000    0.000 
#
# Total GULP energy -111849.358233 kJ/mol
# GULP energy per Si atom -5592.467912 kJ/mol
# Density = 2.304069 g / cm^3
# Si number density = 23.093251 Si / 1000 Ang^3
#
#
#
# Elastic Constant Matrix: (Units=GPa)
#
#
# Indices 1 2 3 4 5 6 
#
# 1 99.6527 28.4156 23.6943 0.0000 0.0000 0.0000
# 2 28.4156 130.7500 -7.6152 0.0000 0.0000 0.0000
# 3 23.6943 -7.6152 63.5697 0.0000 0.0000 0.0000
# 4 0.0000 0.0000 0.0000 27.4485 0.0000 0.0000
# 5 0.0000 0.0000 0.0000 0.0000 37.5333 0.0000
# 6 0.0000 0.0000 0.0000 0.0000 0.0000 14.6912
#
#
#
# Elastic Compliance Matrix: (Units=1/GPa)
#
#
# Indices 1 2 3 4 5 6 
#
# 1 0.012005 -0.002890 -0.004821 0.000000 0.000000 0.000000
# 2 -0.002890 0.008398 0.002083 0.000000 0.000000 0.000000
# 3 -0.004821 0.002083 0.017777 0.000000 0.000000 0.000000
# 4 0.000000 0.000000 0.000000 0.036432 0.000000 0.000000
# 5 0.000000 0.000000 0.000000 0.000000 0.026643 0.000000
# 6 0.000000 0.000000 0.000000 0.000000 0.000000 0.068068
#
#
# Mechanical properties :
#
#
# Convention : Reuss Voigt Hill
#
# Bulk Modulus (GPa) = 37.14063 42.55131 39.84597
# Shear Modulus (GPa) = 26.37790 32.56645 29.47217
#
# Velocity S-wave (km/s) = 3.38336 3.75936 3.57630
# Velocity P-wave (km/s) = 5.60184 6.10815 5.86047
#
# Compressibility (1/GPa) = 0.02692469
#
# Stress axis : x y z
#
# Youngs Moduli (GPa) = 83.29773 119.08240 56.25187
#
# Poissons Ratio (x) = 0.34413 0.27118
# Poissons Ratio (y) = 0.24072 -0.11718
# Poissons Ratio (z) = 0.40157 -0.24806
#
# Static dielectric constant tensor:
#      x y z
#    x 1.827960 0.000000 0.000000 
#    y 0.000000 1.973430 0.000000 
#    z 0.000000 0.000000 1.846430 
# 
# From -- ./inp_files/2936.got.cif
#   From: 2010.05.17/outbox.cif.g08.bks.cpg/sg33_2_cif.got.tgz:2936.got - 2010.06.03 17:15:25.
