data_PCOD9346803
_publ_section_title
;
Structure prediction by ZEFSAII (Michael W. Deem and Ramdas Pophale) SiO2 
 PCOD9346803
Probable space group: P N A 21
;
_chemical_formula_sum "Si O2"
_cell_formula_units_Z 20
_cell_length_a 8.339811
_cell_length_b 10.669597
_cell_length_c 9.676387
_cell_angle_alpha 90.000000
_cell_angle_beta 90.000000
_cell_angle_gamma 90.000000
_cell_volume 861.028356
_symmetry_space_group_name_H-M "P N A 21"
_symmetry_group_IT_number 33
_symmetry_cell_setting 'orthorhombic'
loop_
_space_group_symop_operation_xyz
x,y,z
-x,-y,1/2+z
1/2-x,1/2+y,1/2+z
1/2+x,1/2-y,z
loop_
_atom_site_type_symbol
_atom_site_label
_atom_site_fract_x
_atom_site_fract_y
_atom_site_fract_z
Si Si1 0.056536 0.510016 0.360310
Si Si2 0.991661 0.740424 0.753350
Si Si3 0.467753 0.376076 0.521210
Si Si4 0.730712 0.383496 0.086774
Si Si5 0.663554 0.900171 0.073122
O O1 0.170076 0.603054 0.446109
O O2 0.062715 0.557325 0.205524
O O3 0.110606 0.363511 0.339015
O O4 0.896541 0.491018 0.450036
O O5 0.149868 0.664103 0.707698
O O6 0.911255 0.784953 0.611154
O O7 0.012145 0.860641 0.853492
O O8 0.352399 0.480701 0.585151
O O9 0.392501 0.241377 0.551513
O O10 0.645147 0.400533 0.581461
#
# Coordination Sequence:
#
# PCOD9346803 Si02
#       5
#     4   4   4   4   4
#     4  11  24  49  75 112 150 200 253 321 381 467
#     4  11  25  49  75 111 154 199 257 326 389 457
#     4  11  26  48  79 109 153 206 249 324 388 464
#     4  12  26  45  78 106 150 204 256 310 395 458
#     4  11  25  49  79 112 157 197 259 315 395 454
#
# _framework density 23.228041000000001
#
# number of rings (size 3 to 8) (size 9 to 14) (size 15 to 20)
#    0.000    0.800    2.000    6.000    5.600    1.600 
#    0.000    0.000    0.000    0.000    0.000    0.000 
#    0.000    0.000    0.000    0.000    0.000    0.000 
#
# Total GULP energy -111499.144127 kJ/mol
# GULP energy per Si atom -5574.957206 kJ/mol
# Density = 2.317517 g / cm^3
# Si number density = 23.228041 Si / 1000 Ang^3
#
#
#
# Elastic Constant Matrix: (Units=GPa)
#
#
# Indices 1 2 3 4 5 6 
#
# 1 98.2726 31.9847 19.2654 0.0000 0.0000 0.0000
# 2 31.9847 75.1753 30.3840 0.0000 0.0000 0.0000
# 3 19.2654 30.3840 82.3067 0.0000 0.0000 0.0000
# 4 0.0000 0.0000 0.0000 49.0147 0.0000 0.0000
# 5 0.0000 0.0000 0.0000 0.0000 23.1076 0.0000
# 6 0.0000 0.0000 0.0000 0.0000 0.0000 41.3789
#
#
#
# Elastic Compliance Matrix: (Units=1/GPa)
#
#
# Indices 1 2 3 4 5 6 
#
# 1 0.011892 -0.004625 -0.001076 0.000000 0.000000 0.000000
# 2 -0.004625 0.017434 -0.005353 0.000000 0.000000 0.000000
# 3 -0.001076 -0.005353 0.014378 0.000000 0.000000 0.000000
# 4 0.000000 0.000000 0.000000 0.020402 0.000000 0.000000
# 5 0.000000 0.000000 0.000000 0.000000 0.043276 0.000000
# 6 0.000000 0.000000 0.000000 0.000000 0.000000 0.024167
#
#
# Mechanical properties :
#
#
# Convention : Reuss Voigt Hill
#
# Bulk Modulus (GPa) = 46.30717 46.55810 46.43264
# Shear Modulus (GPa) = 31.08397 34.30828 32.69613
#
# Velocity S-wave (km/s) = 3.66212 3.84737 3.75589
# Velocity P-wave (km/s) = 6.15310 6.31061 6.23235
#
# Compressibility (1/GPa) = 0.02159493
#
# Stress axis : x y z
#
# Youngs Moduli (GPa) = 84.09044 57.36081 69.55179
#
# Poissons Ratio (x) = 0.26527 0.07486
# Poissons Ratio (y) = 0.38889 0.37232
# Poissons Ratio (z) = 0.09051 0.30706
#
# Static dielectric constant tensor:
#      x y z
#    x 1.966410 0.000000 0.000000 
#    y 0.000000 1.871170 0.000000 
#    z 0.000000 0.000000 1.966420 
# 
# From -- ./inp_files/3019.got.cif
#   From: 2010.05.17/outbox.cif.g08.bks.cpg/sg33_2_cif.got.tgz:3019.got - 2010.06.03 17:15:25.
