data_PCOD9346510
_publ_section_title
;
Structure prediction by ZEFSAII (Michael W. Deem and Ramdas Pophale) SiO2 
 PCOD9346510
Probable space group: P N A 21
;
_chemical_formula_sum "Si O2"
_cell_formula_units_Z 24
_cell_length_a 5.101732
_cell_length_b 15.464665
_cell_length_c 11.767412
_cell_angle_alpha 90.000000
_cell_angle_beta 90.000000
_cell_angle_gamma 90.000000
_cell_volume 928.408519
_symmetry_space_group_name_H-M "P N A 21"
_symmetry_group_IT_number 33
_symmetry_cell_setting 'orthorhombic'
loop_
_space_group_symop_operation_xyz
x,y,z
-x,-y,1/2+z
1/2-x,1/2+y,1/2+z
1/2+x,1/2-y,z
loop_
_atom_site_type_symbol
_atom_site_label
_atom_site_fract_x
_atom_site_fract_y
_atom_site_fract_z
Si Si1 0.911835 0.015426 0.102500
Si Si2 0.507624 0.836370 0.832302
Si Si3 0.988048 0.859128 0.973347
Si Si4 0.933960 0.218023 0.104617
Si Si5 0.633518 0.695041 0.231112
Si Si6 0.593285 0.020447 0.730685
O O1 0.862302 0.117404 0.108491
O O2 0.219442 0.001329 0.124272
O O3 0.708831 0.971065 0.191750
O O4 0.879344 0.956291 0.993216
O O5 0.226298 0.858486 0.885414
O O6 0.503802 0.771214 0.723429
O O7 0.733475 0.809690 0.922934
O O8 0.608502 0.929160 0.791828
O O9 0.095241 0.824041 0.094533
O O10 0.710408 0.271871 0.043816
O O11 0.345952 0.730770 0.258790
O O12 0.766677 0.606510 0.278588
#
# Coordination Sequence:
#
# PCOD9346510 Si02
#       6
#     4   4   4   4   4   4
#     4  11  21  43  61  91 134 188 216 255 337 438
#     4  12  23  39  62 104 128 169 214 293 326 388
#     4  11  25  39  63  92 144 166 210 275 354 384
#     4  12  22  37  63  98 129 166 228 272 328 407
#     4  11  23  42  62  92 122 176 215 273 319 414
#     4  11  22  40  67  87 127 175 233 254 336 405
#
# _framework density 25.850686
#
# number of rings (size 3 to 8) (size 9 to 14) (size 15 to 20)
#    0.000    0.667    3.333    7.000    0.000    4.000 
#    0.000    0.000    0.000    6.000    0.000    0.000 
#    0.000    0.000    0.000    0.000    0.000    0.000 
#
# Total GULP energy -133931.353449 kJ/mol
# GULP energy per Si atom -5580.473060 kJ/mol
# Density = 2.579185 g / cm^3
# Si number density = 25.850686 Si / 1000 Ang^3
#
#
#
# Elastic Constant Matrix: (Units=GPa)
#
#
# Indices 1 2 3 4 5 6 
#
# 1 97.1746 -15.0615 -4.8724 0.0000 0.0000 0.0000
# 2 -15.0615 161.4251 24.5874 0.0000 0.0000 0.0000
# 3 -4.8724 24.5874 54.6594 0.0000 0.0000 0.0000
# 4 0.0000 0.0000 0.0000 116.7094 0.0000 0.0000
# 5 0.0000 0.0000 0.0000 0.0000 16.4210 0.0000
# 6 0.0000 0.0000 0.0000 0.0000 0.0000 21.5126
#
#
#
# Elastic Compliance Matrix: (Units=1/GPa)
#
#
# Indices 1 2 3 4 5 6 
#
# 1 0.010456 0.000895 0.000529 0.000000 0.000000 0.000000
# 2 0.000895 0.006727 -0.002946 0.000000 0.000000 0.000000
# 3 0.000529 -0.002946 0.019668 0.000000 0.000000 0.000000
# 4 0.000000 0.000000 0.000000 0.008568 0.000000 0.000000
# 5 0.000000 0.000000 0.000000 0.000000 0.060898 0.000000
# 6 0.000000 0.000000 0.000000 0.000000 0.000000 0.046484
#
#
# Mechanical properties :
#
#
# Convention : Reuss Voigt Hill
#
# Bulk Modulus (GPa) = 29.57964 35.84069 32.71016
# Shear Modulus (GPa) = 29.91974 51.50230 40.71102
#
# Velocity S-wave (km/s) = 3.40576 4.46836 3.97275
# Velocity P-wave (km/s) = 5.18969 6.36524 5.80729
#
# Compressibility (1/GPa) = 0.03380704
#
# Stress axis : x y z
#
# Youngs Moduli (GPa) = 95.63872 148.65278 50.84493
#
# Poissons Ratio (x) = -0.13303 -0.02692
# Poissons Ratio (y) = -0.08559 0.14980
# Poissons Ratio (z) = -0.05064 0.43797
#
# Static dielectric constant tensor:
#      x y z
#    x 2.233820 0.000000 0.000000 
#    y 0.000000 2.008860 0.000000 
#    z 0.000000 0.000000 2.091720 
# 
# From -- ./inp_files/7399.got.cif
#   From: 2010.05.17/outbox.cif.g08.bks.cpg/sg33_4_cif.got.tgz:7399.got - 2010.06.03 17:15:25.
