data_PCOD9346418
_publ_section_title
;
Structure prediction by ZEFSAII (Michael W. Deem and Ramdas Pophale) SiO2 
 PCOD9346418
Probable space group: P N A 21
;
_chemical_formula_sum "Si O2"
_cell_formula_units_Z 32
_cell_length_a 12.337097
_cell_length_b 6.278730
_cell_length_c 18.033765
_cell_angle_alpha 90.000000
_cell_angle_beta 90.000000
_cell_angle_gamma 90.000000
_cell_volume 1396.918900
_symmetry_space_group_name_H-M "P N A 21"
_symmetry_group_IT_number 33
_symmetry_cell_setting 'orthorhombic'
loop_
_space_group_symop_operation_xyz
x,y,z
-x,-y,1/2+z
1/2-x,1/2+y,1/2+z
1/2+x,1/2-y,z
loop_
_atom_site_type_symbol
_atom_site_label
_atom_site_fract_x
_atom_site_fract_y
_atom_site_fract_z
Si Si1 0.877863 0.907485 0.430110
Si Si2 0.351125 0.894519 0.562015
Si Si3 0.933250 0.029979 0.201038
Si Si4 0.789316 0.398295 0.165341
Si Si5 0.734029 0.245658 0.790501
Si Si6 0.439318 0.815470 0.075722
Si Si7 0.212103 0.201568 0.454362
Si Si8 0.586592 0.532248 0.334184
O O1 0.891889 0.789265 0.507196
O O2 0.827401 0.748367 0.368648
O O3 0.991906 0.959644 0.393924
O O4 0.797423 0.107471 0.441007
O O5 0.295888 0.768899 0.630606
O O6 0.451483 0.047069 0.580640
O O7 0.264650 0.032501 0.513086
O O8 0.830371 0.921207 0.243353
O O9 0.956282 0.887664 0.128963
O O10 0.030888 0.041522 0.258628
O O11 0.896262 0.262431 0.180659
O O12 0.764403 0.537059 0.237967
O O13 0.830497 0.566732 0.105033
O O14 0.859624 0.261606 0.814109
O O15 0.401325 0.771110 0.992428
O O16 0.178902 0.104529 0.374985
#
# Coordination Sequence:
#
# PCOD9346418 Si02
#       8
#     4   4   4   4   4   4   4   4
#     4  11  26  48  72 107 145 188 250 298 365 442
#     4  12  26  44  77 103 144 196 240 302 367 434
#     4  10  25  48  69 104 143 186 241 297 364 436
#     4  11  25  47  69 105 142 186 244 303 357 433
#     4  10  25  46  69 101 140 186 239 299 359 428
#     4  11  26  44  73 106 143 187 243 297 369 428
#     4  12  25  48  70 109 145 189 243 305 362 438
#     4  11  26  45  73  99 142 188 234 293 359 433
#
# _framework density 22.907558000000002
#
# number of rings (size 3 to 8) (size 9 to 14) (size 15 to 20)
#    0.000    1.000    3.750    0.750   10.500    2.000 
#    4.500    0.000    0.000    0.000    0.000    0.000 
#    0.000    0.000    0.000    0.000    0.000    0.000 
#
# Total GULP energy -178702.847995 kJ/mol
# GULP energy per Si atom -5584.464000 kJ/mol
# Density = 2.285542 g / cm^3
# Si number density = 22.907558 Si / 1000 Ang^3
#
#
#
# Elastic Constant Matrix: (Units=GPa)
#
#
# Indices 1 2 3 4 5 6 
#
# 1 69.4991 29.5524 37.1322 0.0000 0.0000 0.0000
# 2 29.5524 70.8071 37.4312 0.0000 0.0000 0.0000
# 3 37.1322 37.4312 100.9095 0.0000 0.0000 0.0000
# 4 0.0000 0.0000 0.0000 30.9831 0.0000 0.0000
# 5 0.0000 0.0000 0.0000 0.0000 18.3986 0.0000
# 6 0.0000 0.0000 0.0000 0.0000 0.0000 24.2765
#
#
#
# Elastic Compliance Matrix: (Units=1/GPa)
#
#
# Indices 1 2 3 4 5 6 
#
# 1 0.019432 -0.005386 -0.005152 0.000000 0.000000 0.000000
# 2 -0.005386 0.019061 -0.005088 0.000000 0.000000 0.000000
# 3 -0.005152 -0.005088 0.013693 0.000000 0.000000 0.000000
# 4 0.000000 0.000000 0.000000 0.032276 0.000000 0.000000
# 5 0.000000 0.000000 0.000000 0.000000 0.054352 0.000000
# 6 0.000000 0.000000 0.000000 0.000000 0.000000 0.041192
#
#
# Mechanical properties :
#
#
# Convention : Reuss Voigt Hill
#
# Bulk Modulus (GPa) = 47.77445 49.93859 48.85652
# Shear Modulus (GPa) = 22.91084 23.87165 23.39124
#
# Velocity S-wave (km/s) = 3.16593 3.23164 3.19896
# Velocity P-wave (km/s) = 5.85361 5.98097 5.91764
#
# Compressibility (1/GPa) = 0.02093169
#
# Stress axis : x y z
#
# Youngs Moduli (GPa) = 51.46165 52.46356 73.02843
#
# Poissons Ratio (x) = 0.28259 0.37627
# Poissons Ratio (y) = 0.27719 0.37159
# Poissons Ratio (z) = 0.26515 0.26695
#
# Static dielectric constant tensor:
#      x y z
#    x 1.879720 0.000000 0.000000 
#    y 0.000000 1.892130 0.000000 
#    z 0.000000 0.000000 1.881580 
# 
# From -- ./inp_files/9141.got.cif
#   From: 2010.05.17/outbox.cif.g08.bks.cpg/sg33_5_cif.got.tgz:9141.got - 2010.06.03 17:15:25.
