data_PCOD9346701
_publ_section_title
;
Structure prediction by ZEFSAII (Michael W. Deem and Ramdas Pophale) SiO2 
 PCOD9346701
Probable space group: P N A 21
;
_chemical_formula_sum "Si O2"
_cell_formula_units_Z 24
_cell_length_a 9.126875
_cell_length_b 19.582858
_cell_length_c 4.975326
_cell_angle_alpha 90.000000
_cell_angle_beta 90.000000
_cell_angle_gamma 90.000000
_cell_volume 889.241494
_symmetry_space_group_name_H-M "P N A 21"
_symmetry_group_IT_number 33
_symmetry_cell_setting 'orthorhombic'
loop_
_space_group_symop_operation_xyz
x,y,z
-x,-y,1/2+z
1/2-x,1/2+y,1/2+z
1/2+x,1/2-y,z
loop_
_atom_site_type_symbol
_atom_site_label
_atom_site_fract_x
_atom_site_fract_y
_atom_site_fract_z
Si Si1 0.406076 0.479256 0.370150
Si Si2 0.605736 0.766972 0.701719
Si Si3 0.625178 0.287721 0.549712
Si Si4 0.420268 0.029287 0.794509
Si Si5 0.901307 0.649609 0.364770
Si Si6 0.102537 0.848878 0.242895
O O1 0.493839 0.519500 0.604975
O O2 0.248840 0.512977 0.313320
O O3 0.384080 0.404235 0.494723
O O4 0.542451 0.717323 0.933531
O O5 0.752589 0.798009 0.826890
O O6 0.477528 0.819288 0.626813
O O7 0.620587 0.722059 0.435968
O O8 0.642340 0.212458 0.669155
O O9 0.581461 0.345861 0.759840
O O10 0.472050 0.105809 0.723981
O O11 0.502563 0.981773 0.581688
O O12 0.744539 0.615253 0.402413
#
# Coordination Sequence:
#
# PCOD9346701 Si02
#       6
#     4   4   4   4   4   4
#     4  12  30  51  76 114 155 209 265 330 399 466
#     4  11  24  41  74 109 147 193 247 312 392 464
#     4  11  24  42  71 109 148 194 244 315 393 463
#     4  12  28  50  81 112 150 213 273 320 389 475
#     4  11  25  44  73 109 147 196 261 320 383 473
#     4  11  25  46  71 105 151 199 248 323 390 467
#
# _framework density 26.989291999999999
#
# number of rings (size 3 to 8) (size 9 to 14) (size 15 to 20)
#    0.000    0.667    5.000    1.000    7.000    1.333 
#    0.000    0.000    0.000    0.000    0.000    0.000 
#    0.000    0.000    0.000    0.000    0.000    0.000 
#
# Total GULP energy -133652.829024 kJ/mol
# GULP energy per Si atom -5568.867876 kJ/mol
# Density = 2.692786 g / cm^3
# Si number density = 26.989292 Si / 1000 Ang^3
#
#
#
# Elastic Constant Matrix: (Units=GPa)
#
#
# Indices 1 2 3 4 5 6 
#
# 1 209.9079 38.0359 84.2551 0.0000 0.0000 0.0000
# 2 38.0359 57.4415 52.2037 0.0000 0.0000 0.0000
# 3 84.2551 52.2037 127.6483 0.0000 0.0000 0.0000
# 4 0.0000 0.0000 0.0000 -32.2154 0.0000 0.0000
# 5 0.0000 0.0000 0.0000 0.0000 67.7520 0.0000
# 6 0.0000 0.0000 0.0000 0.0000 0.0000 0.2913
#
#
#
# Elastic Compliance Matrix: (Units=1/GPa)
#
#
# Indices 1 2 3 4 5 6 
#
# 1 0.006496 -0.000644 -0.004024 0.000000 0.000000 0.000000
# 2 -0.000644 0.027771 -0.010932 0.000000 0.000000 0.000000
# 3 -0.004024 -0.010932 0.014961 0.000000 0.000000 0.000000
# 4 0.000000 0.000000 0.000000 -0.031041 0.000000 0.000000
# 5 0.000000 0.000000 0.000000 0.000000 0.014760 0.000000
# 6 0.000000 0.000000 0.000000 0.000000 0.000000 3.432919
#
#
# Mechanical properties :
#
#
# Convention : Reuss Voigt Hill
#
# Bulk Modulus (GPa) = 55.47273 82.66524 69.06899
# Shear Modulus (GPa) = 1.42732 21.86578 11.64655
#
# Velocity S-wave (km/s) = 0.72801 2.84943 2.07957
# Velocity P-wave (km/s) = 4.61572 6.44368 5.60473
#
# Compressibility (1/GPa) = 0.01802687
#
# Stress axis : x y z
#
# Youngs Moduli (GPa) = 153.93992 36.00897 66.83943
#
# Poissons Ratio (x) = 0.02319 0.26899
# Poissons Ratio (y) = 0.09915 0.73070
# Poissons Ratio (z) = 0.61951 0.39366
#
# Static dielectric constant tensor:
#      x y z
#    x 2.184540 0.000000 0.000000 
#    y 0.000000 3.440020 0.000000 
#    z 0.000000 0.000000 2.453250 
# 
# From -- ./inp_files/442.got.cif
#   From: 2010.05.17/outbox.cif.g08.bks.cpg/sg33_1_cif.got.tgz:442.got - 2010.06.03 17:15:25.
