data_PCOD9346072
_publ_section_title
;
Structure prediction by ZEFSAII (Michael W. Deem and Ramdas Pophale) SiO2 
 PCOD9346072
Probable space group: P N A 21
;
_chemical_formula_sum "Si O2"
_cell_formula_units_Z 32
_cell_length_a 9.243935
_cell_length_b 14.060399
_cell_length_c 10.588939
_cell_angle_alpha 90.000000
_cell_angle_beta 90.000000
_cell_angle_gamma 90.000000
_cell_volume 1376.280557
_symmetry_space_group_name_H-M "P N A 21"
_symmetry_group_IT_number 33
_symmetry_cell_setting 'orthorhombic'
loop_
_space_group_symop_operation_xyz
x,y,z
-x,-y,1/2+z
1/2-x,1/2+y,1/2+z
1/2+x,1/2-y,z
loop_
_atom_site_type_symbol
_atom_site_label
_atom_site_fract_x
_atom_site_fract_y
_atom_site_fract_z
Si Si1 0.666675 0.532170 0.319210
Si Si2 0.500772 0.180136 0.915301
Si Si3 0.618087 0.880190 0.902746
Si Si4 0.633901 0.915525 0.191953
Si Si5 0.201837 0.279196 0.705643
Si Si6 0.865909 0.069241 0.277876
Si Si7 0.700804 0.669191 0.537944
Si Si8 0.682464 0.194424 0.428410
O O1 0.799720 0.459059 0.320922
O O2 0.712359 0.624802 0.239670
O O3 0.523312 0.475727 0.283179
O O4 0.642688 0.579418 0.457153
O O5 0.462251 0.092323 0.821488
O O6 0.587413 0.244991 0.814189
O O7 0.367227 0.235533 0.976629
O O8 0.626120 0.163668 0.018642
O O9 0.463720 0.838190 0.857085
O O10 0.734646 0.793423 0.904570
O O11 0.593763 0.927175 0.043576
O O12 0.695074 0.809060 0.192198
O O13 0.756652 0.990619 0.224999
O O14 0.129358 0.295871 0.571984
O O15 0.802075 0.112316 0.407199
O O16 0.851505 0.156130 0.179536
#
# Coordination Sequence:
#
# PCOD9346072 Si02
#       8
#     4   4   4   4   4   4   4   4
#     4  11  24  45  71  99 145 181 243 299 353 429
#     4  11  21  43  73  96 136 178 237 291 357 412
#     4  11  24  44  70  99 143 180 238 292 352 432
#     4  11  22  40  73 100 139 180 231 296 350 429
#     4  10  23  42  72 106 131 183 241 289 351 426
#     4  12  28  44  69 104 150 188 238 298 374 427
#     4  11  26  45  70 107 139 186 244 299 358 433
#     4  11  26  43  70 103 141 190 234 286 371 426
#
# _framework density 23.251075
#
# number of rings (size 3 to 8) (size 9 to 14) (size 15 to 20)
#    0.000    1.000    5.000    1.500    5.250    3.000 
#    0.000    1.250    0.000    0.000    0.000    0.000 
#    0.000    0.000    0.000    0.000    0.000    0.000 
#
# Total GULP energy -178555.492374 kJ/mol
# GULP energy per Si atom -5579.859137 kJ/mol
# Density = 2.319815 g / cm^3
# Si number density = 23.251075 Si / 1000 Ang^3
#
#
#
# Elastic Constant Matrix: (Units=GPa)
#
#
# Indices 1 2 3 4 5 6 
#
# 1 103.7192 35.5795 2.6415 0.0000 0.0000 0.0000
# 2 35.5795 93.2844 12.0331 0.0000 0.0000 0.0000
# 3 2.6415 12.0331 35.8331 0.0000 0.0000 0.0000
# 4 0.0000 0.0000 0.0000 30.7763 0.0000 0.0000
# 5 0.0000 0.0000 0.0000 0.0000 16.4213 0.0000
# 6 0.0000 0.0000 0.0000 0.0000 0.0000 41.4488
#
#
#
# Elastic Compliance Matrix: (Units=1/GPa)
#
#
# Indices 1 2 3 4 5 6 
#
# 1 0.011106 -0.004317 0.000631 0.000000 0.000000 0.000000
# 2 -0.004317 0.012884 -0.004008 0.000000 0.000000 0.000000
# 3 0.000631 -0.004008 0.029207 0.000000 0.000000 0.000000
# 4 0.000000 0.000000 0.000000 0.032493 0.000000 0.000000
# 5 0.000000 0.000000 0.000000 0.000000 0.060897 0.000000
# 6 0.000000 0.000000 0.000000 0.000000 0.000000 0.024126
#
#
# Mechanical properties :
#
#
# Convention : Reuss Voigt Hill
#
# Bulk Modulus (GPa) = 26.44970 37.03831 31.74401
# Shear Modulus (GPa) = 25.16309 29.90144 27.53227
#
# Velocity S-wave (km/s) = 3.29330 3.59001 3.44485
# Velocity P-wave (km/s) = 5.08542 5.75747 5.43185
#
# Compressibility (1/GPa) = 0.03780761
#
# Stress axis : x y z
#
# Youngs Moduli (GPa) = 90.03817 77.61761 34.23876
#
# Poissons Ratio (x) = 0.33511 -0.02161
# Poissons Ratio (y) = 0.38874 0.13724
# Poissons Ratio (z) = -0.05683 0.31111
#
# Static dielectric constant tensor:
#      x y z
#    x 1.909950 0.000000 0.000000 
#    y 0.000000 1.861360 0.000000 
#    z 0.000000 0.000000 1.963890 
# 
# From -- ./inp_files/6011.got.cif
#   From: 2010.05.17/outbox.cif.g08.bks.cpg/sg33_4_cif.got.tgz:6011.got - 2010.06.03 17:15:25.
