data_PCOD9346496
_publ_section_title
;
Structure prediction by ZEFSAII (Michael W. Deem and Ramdas Pophale) SiO2 
 PCOD9346496
Probable space group: P N A 21
;
_chemical_formula_sum "Si O2"
_cell_formula_units_Z 28
_cell_length_a 9.249044
_cell_length_b 14.461952
_cell_length_c 8.046864
_cell_angle_alpha 90.000000
_cell_angle_beta 90.000000
_cell_angle_gamma 90.000000
_cell_volume 1076.342336
_symmetry_space_group_name_H-M "P N A 21"
_symmetry_group_IT_number 33
_symmetry_cell_setting 'orthorhombic'
loop_
_space_group_symop_operation_xyz
x,y,z
-x,-y,1/2+z
1/2-x,1/2+y,1/2+z
1/2+x,1/2-y,z
loop_
_atom_site_type_symbol
_atom_site_label
_atom_site_fract_x
_atom_site_fract_y
_atom_site_fract_z
Si Si1 0.915064 0.236045 0.605500
Si Si2 0.423384 0.012698 0.128133
Si Si3 0.967656 0.114062 0.133062
Si Si4 0.723291 0.591881 0.352625
Si Si5 0.830368 0.801604 0.872105
Si Si6 0.504958 0.810129 0.453565
Si Si7 0.676814 0.091105 0.309795
O O1 0.834343 0.150733 0.696084
O O2 0.058393 0.194637 0.524956
O O3 0.824460 0.288774 0.461787
O O4 0.952431 0.301670 0.760148
O O5 0.588492 0.023328 0.188126
O O6 0.329282 0.987697 0.287900
O O7 0.401220 0.111738 0.042616
O O8 0.379477 0.939581 0.989233
O O9 0.116584 0.124100 0.235182
O O10 0.846099 0.089111 0.269457
O O11 0.907795 0.058407 0.971497
O O12 0.961880 0.214768 0.045040
O O13 0.835983 0.660443 0.447413
O O14 0.859507 0.699453 0.794630
#
# Coordination Sequence:
#
# PCOD9346496 Si02
#       7
#     4   4   4   4   4   4   4
#     4  11  23  38  63  99 134 172 228 272 345 403
#     4  12  21  38  64  98 140 160 233 300 355 388
#     4  11  22  37  60  97 134 174 221 274 356 410
#     4  11  21  40  62 101 132 173 218 298 346 411
#     4  12  21  39  62  97 131 174 224 282 330 414
#     4  11  22  37  63 100 135 171 225 291 346 410
#     4  12  22  37  62 102 126 172 223 293 340 406
#
# _framework density 26.014026999999999
#
# number of rings (size 3 to 8) (size 9 to 14) (size 15 to 20)
#    0.000    0.571    8.571    0.000    0.000    0.000 
#    0.000    0.000    0.000    0.000   44.571    0.000 
#    0.000    0.000    0.000    0.000    0.000    0.000 
#
# Total GULP energy -156445.909935 kJ/mol
# GULP energy per Si atom -5587.353926 kJ/mol
# Density = 2.595482 g / cm^3
# Si number density = 26.014027 Si / 1000 Ang^3
#
#
#
# Elastic Constant Matrix: (Units=GPa)
#
#
# Indices 1 2 3 4 5 6 
#
# 1 103.6753 22.2442 29.4509 0.0000 0.0000 0.0000
# 2 22.2442 30.1829 2.4015 0.0000 0.0000 0.0000
# 3 29.4509 2.4015 105.5182 0.0000 0.0000 0.0000
# 4 0.0000 0.0000 0.0000 53.6333 0.0000 0.0000
# 5 0.0000 0.0000 0.0000 0.0000 51.1443 0.0000
# 6 0.0000 0.0000 0.0000 0.0000 0.0000 35.7409
#
#
#
# Elastic Compliance Matrix: (Units=1/GPa)
#
#
# Indices 1 2 3 4 5 6 
#
# 1 0.012499 -0.008950 -0.003285 0.000000 0.000000 0.000000
# 2 -0.008950 0.039600 0.001597 0.000000 0.000000 0.000000
# 3 -0.003285 0.001597 0.010358 0.000000 0.000000 0.000000
# 4 0.000000 0.000000 0.000000 0.018645 0.000000 0.000000
# 5 0.000000 0.000000 0.000000 0.000000 0.019553 0.000000
# 6 0.000000 0.000000 0.000000 0.000000 0.000000 0.027979
#
#
# Mechanical properties :
#
#
# Convention : Reuss Voigt Hill
#
# Bulk Modulus (GPa) = 24.28336 38.61884 31.45110
# Shear Modulus (GPa) = 30.55547 40.45568 35.50557
#
# Velocity S-wave (km/s) = 3.43093 3.94782 3.69841
# Velocity P-wave (km/s) = 5.00500 5.97143 5.50944
#
# Compressibility (1/GPa) = 0.04118047
#
# Stress axis : x y z
#
# Youngs Moduli (GPa) = 80.00694 25.25227 96.54819
#
# Poissons Ratio (x) = 0.22601 0.31715
# Poissons Ratio (y) = 0.71607 -0.15416
# Poissons Ratio (z) = 0.26281 -0.04032
#
# Static dielectric constant tensor:
#      x y z
#    x 2.037080 0.000000 0.000000 
#    y 0.000000 2.032310 0.000000 
#    z 0.000000 0.000000 2.139100 
# 
# From -- ./inp_files/3345.got.cif
#   From: 2010.05.17/outbox.cif.g08.bks.cpg/sg33_2_cif.got.tgz:3345.got - 2010.06.03 17:15:25.
