data_PCOD9346105
_publ_section_title
;
Structure prediction by ZEFSAII (Michael W. Deem and Ramdas Pophale) SiO2 
 PCOD9346105
Probable space group: P N A 21
;
_chemical_formula_sum "Si O2"
_cell_formula_units_Z 28
_cell_length_a 11.147090
_cell_length_b 12.084500
_cell_length_c 9.638482
_cell_angle_alpha 90.000000
_cell_angle_beta 90.000000
_cell_angle_gamma 90.000000
_cell_volume 1298.371083
_symmetry_space_group_name_H-M "P N A 21"
_symmetry_group_IT_number 33
_symmetry_cell_setting 'orthorhombic'
loop_
_space_group_symop_operation_xyz
x,y,z
-x,-y,1/2+z
1/2-x,1/2+y,1/2+z
1/2+x,1/2-y,z
loop_
_atom_site_type_symbol
_atom_site_label
_atom_site_fract_x
_atom_site_fract_y
_atom_site_fract_z
Si Si1 0.231277 0.464322 0.782580
Si Si2 0.141525 0.464006 0.261339
Si Si3 0.183154 0.798176 0.640970
Si Si4 0.428690 0.164249 0.378795
Si Si5 0.965134 0.141938 0.905795
Si Si6 0.988376 0.671178 0.180152
Si Si7 0.214795 0.084193 0.999078
O O1 0.147799 0.549041 0.870718
O O2 0.345755 0.424661 0.867556
O O3 0.146285 0.366470 0.721637
O O4 0.282477 0.524749 0.646710
O O5 0.244302 0.409855 0.168627
O O6 0.189678 0.522301 0.401207
O O7 0.050029 0.366124 0.297527
O O8 0.065391 0.559137 0.189157
O O9 0.152862 0.747343 0.790802
O O10 0.058916 0.815439 0.560882
O O11 0.251708 0.710645 0.540526
O O12 0.475836 0.209464 0.525770
O O13 0.974785 0.239453 0.794055
O O14 0.090463 0.078930 0.915995
#
# Coordination Sequence:
#
# PCOD9346105 Si02
#       7
#     4   4   4   4   4   4   4
#     4  10  24  44  67  98 141 180 237 290 357 427
#     4  11  23  44  70  96 141 182 228 288 359 421
#     4  11  24  44  69 102 138 180 238 285 355 426
#     4  10  23  43  71  99 131 184 234 286 351 429
#     4  12  25  42  68 101 139 181 231 293 351 421
#     4  11  23  42  72 102 135 182 236 289 358 423
#     4  11  24  45  65 102 137 183 230 293 351 429
#
# _framework density 21.565481999999999
#
# number of rings (size 3 to 8) (size 9 to 14) (size 15 to 20)
#    0.000    1.143    2.857    2.571    4.000    1.143 
#    0.000    0.000    0.000    0.000    0.000    0.000 
#    0.000    0.000    0.000    0.000    0.000    0.000 
#
# Total GULP energy -156370.367445 kJ/mol
# GULP energy per Si atom -5584.655980 kJ/mol
# Density = 2.151640 g / cm^3
# Si number density = 21.565482 Si / 1000 Ang^3
#
#
#
# Elastic Constant Matrix: (Units=GPa)
#
#
# Indices 1 2 3 4 5 6 
#
# 1 74.8266 2.7381 1.5680 0.0000 0.0000 0.0000
# 2 2.7381 16.0212 4.7328 0.0000 0.0000 0.0000
# 3 1.5680 4.7328 50.3966 0.0000 0.0000 0.0000
# 4 0.0000 0.0000 0.0000 21.1927 0.0000 0.0000
# 5 0.0000 0.0000 0.0000 0.0000 34.7905 0.0000
# 6 0.0000 0.0000 0.0000 0.0000 0.0000 14.8750
#
#
#
# Elastic Compliance Matrix: (Units=1/GPa)
#
#
# Indices 1 2 3 4 5 6 
#
# 1 0.013450 -0.002237 -0.000208 0.000000 0.000000 0.000000
# 2 -0.002237 0.064571 -0.005994 0.000000 0.000000 0.000000
# 3 -0.000208 -0.005994 0.020412 0.000000 0.000000 0.000000
# 4 0.000000 0.000000 0.000000 0.047186 0.000000 0.000000
# 5 0.000000 0.000000 0.000000 0.000000 0.028744 0.000000
# 6 0.000000 0.000000 0.000000 0.000000 0.000000 0.067227
#
#
# Mechanical properties :
#
#
# Convention : Reuss Voigt Hill
#
# Bulk Modulus (GPa) = 12.26190 17.70244 14.98217
# Shear Modulus (GPa) = 17.50372 22.98533 20.24452
#
# Velocity S-wave (km/s) = 2.85205 3.26826 3.06722
# Velocity P-wave (km/s) = 4.06741 4.74010 4.41658
#
# Compressibility (1/GPa) = 0.08155343
#
# Stress axis : x y z
#
# Youngs Moduli (GPa) = 74.34687 15.48694 48.99074
#
# Poissons Ratio (x) = 0.03465 0.01021
# Poissons Ratio (y) = 0.16633 0.29366
# Poissons Ratio (z) = 0.01549 0.09283
#
# Static dielectric constant tensor:
#      x y z
#    x 1.755340 0.000000 0.000000 
#    y 0.000000 1.809000 0.000000 
#    z 0.000000 0.000000 1.822170 
# 
# From -- ./inp_files/3824.got.cif
#   From: 2010.05.17/outbox.cif.g08.bks.cpg/sg33_2_cif.got.tgz:3824.got - 2010.06.03 17:15:25.
