data_PCOD9346518
_publ_section_title
;
Structure prediction by ZEFSAII (Michael W. Deem and Ramdas Pophale) SiO2 
 PCOD9346518
Probable space group: P N A 21
;
_chemical_formula_sum "Si O2"
_cell_formula_units_Z 20
_cell_length_a 8.969528
_cell_length_b 17.078440
_cell_length_c 5.631621
_cell_angle_alpha 90.000000
_cell_angle_beta 90.000000
_cell_angle_gamma 90.000000
_cell_volume 862.682936
_symmetry_space_group_name_H-M "P N A 21"
_symmetry_group_IT_number 33
_symmetry_cell_setting 'orthorhombic'
loop_
_space_group_symop_operation_xyz
x,y,z
-x,-y,1/2+z
1/2-x,1/2+y,1/2+z
1/2+x,1/2-y,z
loop_
_atom_site_type_symbol
_atom_site_label
_atom_site_fract_x
_atom_site_fract_y
_atom_site_fract_z
Si Si1 0.337415 0.541231 0.642990
Si Si2 0.582755 0.325307 0.814971
Si Si3 0.246223 0.324913 0.018985
Si Si4 0.909198 0.115471 0.416070
Si Si5 0.585012 0.010539 0.933861
O O1 0.324809 0.602340 0.427661
O O2 0.503753 0.558708 0.733061
O O3 0.215957 0.548482 0.849757
O O4 0.329343 0.450631 0.570874
O O5 0.153214 0.403453 0.975942
O O6 0.660063 0.247725 0.909268
O O7 0.543946 0.337820 0.539838
O O8 0.411928 0.325525 0.908984
O O9 0.289118 0.327610 0.298338
O O10 0.484241 0.011841 0.691568
#
# Coordination Sequence:
#
# PCOD9346518 Si02
#       5
#     4   4   4   4   4
#     4  11  22  44  74 104 138 206 253 318 379 468
#     4  11  26  44  74 105 153 195 260 314 404 459
#     4  11  27  46  68 114 147 201 252 324 389 472
#     4  11  21  44  78 101 148 196 266 315 383 477
#     4  12  28  46  76 108 156 200 261 321 387 466
#
# _framework density 23.183489999999999
#
# number of rings (size 3 to 8) (size 9 to 14) (size 15 to 20)
#    0.000    0.800    4.000    2.400    5.600    4.800 
#    0.000    0.000    0.000    0.000    0.000    0.000 
#    0.000    0.000    0.000    0.000    0.000    0.000 
#
# Total GULP energy -111552.207212 kJ/mol
# GULP energy per Si atom -5577.610361 kJ/mol
# Density = 2.313072 g / cm^3
# Si number density = 23.183490 Si / 1000 Ang^3
#
#
#
# Elastic Constant Matrix: (Units=GPa)
#
#
# Indices 1 2 3 4 5 6 
#
# 1 97.6764 56.8800 40.5639 0.0000 0.0000 0.0000
# 2 56.8800 121.9886 51.6285 0.0000 0.0000 0.0000
# 3 40.5639 51.6285 105.2794 0.0000 0.0000 0.0000
# 4 0.0000 0.0000 0.0000 15.2233 0.0000 0.0000
# 5 0.0000 0.0000 0.0000 0.0000 60.9541 0.0000
# 6 0.0000 0.0000 0.0000 0.0000 0.0000 27.0530
#
#
#
# Elastic Compliance Matrix: (Units=1/GPa)
#
#
# Indices 1 2 3 4 5 6 
#
# 1 0.014729 -0.005635 -0.002911 0.000000 0.000000 0.000000
# 2 -0.005635 0.012501 -0.003959 0.000000 0.000000 0.000000
# 3 -0.002911 -0.003959 0.012562 0.000000 0.000000 0.000000
# 4 0.000000 0.000000 0.000000 0.065689 0.000000 0.000000
# 5 0.000000 0.000000 0.000000 0.000000 0.016406 0.000000
# 6 0.000000 0.000000 0.000000 0.000000 0.000000 0.036965
#
#
# Mechanical properties :
#
#
# Convention : Reuss Voigt Hill
#
# Bulk Modulus (GPa) = 67.66079 69.23212 68.44646
# Shear Modulus (GPa) = 26.48477 32.37089 29.42783
#
# Velocity S-wave (km/s) = 3.38360 3.74075 3.56665
# Velocity P-wave (km/s) = 6.67183 6.97030 6.82270
#
# Compressibility (1/GPa) = 0.01477961
#
# Stress axis : x y z
#
# Youngs Moduli (GPa) = 67.89511 79.99585 79.60709
#
# Poissons Ratio (x) = 0.45081 0.23176
# Poissons Ratio (y) = 0.38262 0.31516
# Poissons Ratio (z) = 0.19766 0.31670
#
# Static dielectric constant tensor:
#      x y z
#    x 1.879230 0.000000 0.000000 
#    y 0.000000 1.827730 0.000000 
#    z 0.000000 0.000000 2.256560 
# 
# From -- ./inp_files/367.got.cif
#   From: 2010.05.17/outbox.cif.g08.bks.cpg/sg33_1_cif.got.tgz:367.got - 2010.06.03 17:15:25.
