data_PCOD9346184
_publ_section_title
;
Structure prediction by ZEFSAII (Michael W. Deem and Ramdas Pophale) SiO2 
 PCOD9346184
Probable space group: P N A 21
;
_chemical_formula_sum "Si O2"
_cell_formula_units_Z 32
_cell_length_a 9.207304
_cell_length_b 5.196021
_cell_length_c 23.663229
_cell_angle_alpha 90.000000
_cell_angle_beta 90.000000
_cell_angle_gamma 90.000000
_cell_volume 1132.080701
_symmetry_space_group_name_H-M "P N A 21"
_symmetry_group_IT_number 33
_symmetry_cell_setting 'orthorhombic'
loop_
_space_group_symop_operation_xyz
x,y,z
-x,-y,1/2+z
1/2-x,1/2+y,1/2+z
1/2+x,1/2-y,z
loop_
_atom_site_type_symbol
_atom_site_label
_atom_site_fract_x
_atom_site_fract_y
_atom_site_fract_z
Si Si1 0.095567 0.602385 0.973760
Si Si2 0.181808 0.450466 0.640119
Si Si3 0.904968 0.259874 0.861228
Si Si4 0.472566 0.437253 0.571925
Si Si5 0.338978 0.254217 0.742655
Si Si6 0.415401 0.263604 0.349828
Si Si7 0.664802 0.779585 0.489625
Si Si8 0.035568 0.747622 0.727682
O O1 0.147976 0.701722 0.912210
O O2 0.173190 0.337615 0.991869
O O3 0.120942 0.814642 0.020401
O O4 0.922291 0.549353 0.982197
O O5 0.336458 0.516605 0.611474
O O6 0.068808 0.285022 0.602916
O O7 0.216444 0.281862 0.696076
O O8 0.114266 0.705568 0.668184
O O9 0.798048 0.222168 0.808715
O O10 0.954527 0.553963 0.854180
O O11 0.863072 0.195645 0.924432
O O12 0.032967 0.056177 0.852415
O O13 0.583180 0.637159 0.541906
O O14 0.425456 0.992191 0.732447
O O15 0.445174 0.493800 0.731890
O O16 0.364156 0.236228 0.284576
#
# Coordination Sequence:
#
# PCOD9346184 Si02
#       8
#     4   4   4   4   4   4   4   4
#     4  11  25  45  73 108 146 192 253 310 381 442
#     4  12  26  48  74 106 152 196 258 302 380 448
#     4   9  19  41  73 108 145 187 239 305 373 437
#     4  12  26  50  72 104 146 202 246 314 366 458
#     4  10  23  46  74 109 147 192 244 305 371 441
#     4   9  19  41  73 108 145 187 239 305 373 437
#     4  11  25  45  73 108 146 192 253 310 381 442
#     4  10  23  46  74 109 147 192 244 305 371 441
#
# _framework density 28.266535000000001
#
# number of rings (size 3 to 8) (size 9 to 14) (size 15 to 20)
#    0.000    1.500    3.750    0.000    3.500    2.000 
#    4.500    0.000    2.750    0.000    0.000    0.000 
#    0.000    0.000    0.000    0.000    0.000    0.000 
#
# Total GULP energy -178904.396480 kJ/mol
# GULP energy per Si atom -5590.762390 kJ/mol
# Density = 2.820220 g / cm^3
# Si number density = 28.266535 Si / 1000 Ang^3
#
#
#
# Elastic Constant Matrix: (Units=GPa)
#
#
# Indices 1 2 3 4 5 6 
#
# 1 95.4236 34.4798 24.3119 0.0000 0.0000 0.0000
# 2 34.4798 117.9179 20.6393 0.0000 0.0000 0.0000
# 3 24.3119 20.6393 204.4763 0.0000 0.0000 0.0000
# 4 0.0000 0.0000 0.0000 37.0865 0.0000 0.0000
# 5 0.0000 0.0000 0.0000 0.0000 19.3636 0.0000
# 6 0.0000 0.0000 0.0000 0.0000 0.0000 2.3508
#
#
#
# Elastic Compliance Matrix: (Units=1/GPa)
#
#
# Indices 1 2 3 4 5 6 
#
# 1 0.011951 -0.003304 -0.001087 0.000000 0.000000 0.000000
# 2 -0.003304 0.009547 -0.000571 0.000000 0.000000 0.000000
# 3 -0.001087 -0.000571 0.005077 0.000000 0.000000 0.000000
# 4 0.000000 0.000000 0.000000 0.026964 0.000000 0.000000
# 5 0.000000 0.000000 0.000000 0.000000 0.051643 0.000000
# 6 0.000000 0.000000 0.000000 0.000000 0.000000 0.425393
#
#
# Mechanical properties :
#
#
# Convention : Reuss Voigt Hill
#
# Bulk Modulus (GPa) = 60.05993 64.07554 62.06773
# Shear Modulus (GPa) = 9.15669 34.31929 21.73799
#
# Velocity S-wave (km/s) = 1.80179 3.48822 2.77616
# Velocity P-wave (km/s) = 5.06186 6.24028 5.68171
#
# Compressibility (1/GPa) = 0.01665004
#
# Stress axis : x y z
#
# Youngs Moduli (GPa) = 83.67844 104.75037 196.94956
#
# Poissons Ratio (x) = 0.34610 0.21416
# Poissons Ratio (y) = 0.27648 0.11241
# Poissons Ratio (z) = 0.09099 0.05979
#
# Static dielectric constant tensor:
#      x y z
#    x 2.284690 0.000000 0.000000 
#    y 0.000000 2.272290 0.000000 
#    z 0.000000 0.000000 2.296170 
# 
# From -- ./inp_files/9294.got.cif
#   From: 2010.05.17/outbox.cif.g08.bks.cpg/sg33_5_cif.got.tgz:9294.got - 2010.06.03 17:15:25.
