data_PCOD9346452
_publ_section_title
;
Structure prediction by ZEFSAII (Michael W. Deem and Ramdas Pophale) SiO2 
 PCOD9346452
Probable space group: P N A 21
;
_chemical_formula_sum "Si O2"
_cell_formula_units_Z 16
_cell_length_a 11.322864
_cell_length_b 9.276502
_cell_length_c 5.116898
_cell_angle_alpha 90.000000
_cell_angle_beta 90.000000
_cell_angle_gamma 90.000000
_cell_volume 537.461418
_symmetry_space_group_name_H-M "P N A 21"
_symmetry_group_IT_number 33
_symmetry_cell_setting 'orthorhombic'
loop_
_space_group_symop_operation_xyz
x,y,z
-x,-y,1/2+z
1/2-x,1/2+y,1/2+z
1/2+x,1/2-y,z
loop_
_atom_site_type_symbol
_atom_site_label
_atom_site_fract_x
_atom_site_fract_y
_atom_site_fract_z
Si Si1 0.315969 0.535258 0.527040
Si Si2 0.836304 0.663336 0.777623
Si Si3 0.972762 0.209548 0.648335
Si Si4 0.417214 0.121512 0.174432
O O1 0.274097 0.447518 0.270775
O O2 0.323682 0.706388 0.566701
O O3 0.429975 0.456067 0.640035
O O4 0.187784 0.508128 0.661669
O O5 0.609449 0.785320 0.930792
O O6 0.950737 0.563683 0.713720
O O7 0.935893 0.275919 0.924258
O O8 0.101956 0.242595 0.520802
#
# Coordination Sequence:
#
# PCOD9346452 Si02
#       4
#     4   4   4   4
#     4  12  24  54  78 120 162 222 282 346 442 492
#     4  10  26  48  80 120 158 226 268 368 404 540
#     4  10  26  49  76 117 159 215 272 350 415 515
#     4  10  26  49  76 117 159 215 272 350 415 515
#
# _framework density 29.769575
#
# number of rings (size 3 to 8) (size 9 to 14) (size 15 to 20)
#    1.500    0.000    2.500    0.000    7.000    4.000 
#    0.000    0.000    0.000    0.000    0.000    0.000 
#    0.000    0.000    0.000    0.000    0.000    0.000 
#
# Total GULP energy -89126.573354 kJ/mol
# GULP energy per Si atom -5570.410835 kJ/mol
# Density = 2.970182 g / cm^3
# Si number density = 29.769575 Si / 1000 Ang^3
#
#
#
# Elastic Constant Matrix: (Units=GPa)
#
#
# Indices 1 2 3 4 5 6 
#
# 1 114.0982 52.1215 32.8267 0.0000 0.0000 0.0000
# 2 52.1215 160.2965 31.8580 0.0000 0.0000 0.0000
# 3 32.8267 31.8580 151.0633 0.0000 0.0000 0.0000
# 4 0.0000 0.0000 0.0000 21.6026 0.0000 0.0000
# 5 0.0000 0.0000 0.0000 0.0000 41.3211 0.0000
# 6 0.0000 0.0000 0.0000 0.0000 0.0000 61.2637
#
#
#
# Elastic Compliance Matrix: (Units=1/GPa)
#
#
# Indices 1 2 3 4 5 6 
#
# 1 0.010677 -0.003142 -0.001657 0.000000 0.000000 0.000000
# 2 -0.003142 0.007436 -0.000885 0.000000 0.000000 0.000000
# 3 -0.001657 -0.000885 0.007167 0.000000 0.000000 0.000000
# 4 0.000000 0.000000 0.000000 0.046291 0.000000 0.000000
# 5 0.000000 0.000000 0.000000 0.000000 0.024201 0.000000
# 6 0.000000 0.000000 0.000000 0.000000 0.000000 0.016323
#
#
# Mechanical properties :
#
#
# Convention : Reuss Voigt Hill
#
# Bulk Modulus (GPa) = 71.89403 73.23006 72.56205
# Shear Modulus (GPa) = 39.03199 45.41428 42.22313
#
# Velocity S-wave (km/s) = 3.62489 3.91004 3.77016
# Velocity P-wave (km/s) = 6.45929 6.71095 6.58632
#
# Compressibility (1/GPa) = 0.01390936
#
# Stress axis : x y z
#
# Youngs Moduli (GPa) = 93.66268 134.47896 139.53565
#
# Poissons Ratio (x) = 0.42256 0.23127
# Poissons Ratio (y) = 0.29430 0.12355
# Poissons Ratio (z) = 0.15524 0.11907
#
# Static dielectric constant tensor:
#      x y z
#    x 2.570880 0.000000 0.000000 
#    y 0.000000 2.555310 0.000000 
#    z 0.000000 0.000000 2.571760 
# 
# From -- ./inp_files/706.got.cif
#   From: 2010.05.17/outbox.cif.g08.bks.cpg/sg33_1_cif.got.tgz:706.got - 2010.06.03 17:15:25.
