data_PCOD9346040
_publ_section_title
;
Structure prediction by ZEFSAII (Michael W. Deem and Ramdas Pophale) SiO2 
 PCOD9346040
Probable space group: P N A 21
;
_chemical_formula_sum "Si O2"
_cell_formula_units_Z 20
_cell_length_a 16.676515
_cell_length_b 7.586365
_cell_length_c 7.123061
_cell_angle_alpha 90.000000
_cell_angle_beta 90.000000
_cell_angle_gamma 90.000000
_cell_volume 901.167863
_symmetry_space_group_name_H-M "P N A 21"
_symmetry_group_IT_number 33
_symmetry_cell_setting 'orthorhombic'
loop_
_space_group_symop_operation_xyz
x,y,z
-x,-y,1/2+z
1/2-x,1/2+y,1/2+z
1/2+x,1/2-y,z
loop_
_atom_site_type_symbol
_atom_site_label
_atom_site_fract_x
_atom_site_fract_y
_atom_site_fract_z
Si Si1 0.327294 0.835618 0.593620
Si Si2 0.961707 0.242075 0.759201
Si Si3 0.196026 0.602862 0.394752
Si Si4 0.087281 0.539723 0.757495
Si Si5 0.513663 0.344199 0.179082
O O1 0.270447 0.709590 0.474042
O O2 0.396317 0.726974 0.702980
O O3 0.281376 0.945857 0.753390
O O4 0.368531 0.961545 0.438630
O O5 0.867220 0.280883 0.772863
O O6 0.013551 0.411242 0.698998
O O7 0.986709 0.054296 0.676637
O O8 0.987411 0.217450 0.974718
O O9 0.147014 0.543149 0.580117
O O10 0.049208 0.732148 0.803184
#
# Coordination Sequence:
#
# PCOD9346040 Si02
#       5
#     4   4   4   4   4
#     4  11  26  45  69 103 145 191 231 297 371 421
#     4  10  23  41  72 103 130 182 239 287 349 426
#     4  11  26  45  69 103 145 191 231 297 371 421
#     4  10  24  48  70 100 142 182 238 298 346 430
#     4  10  23  41  72 103 130 182 239 287 349 426
#
# _framework density 22.193424
#
# number of rings (size 3 to 8) (size 9 to 14) (size 15 to 20)
#    0.000    1.600    2.000    0.000    8.400    8.000 
#    0.000    0.000    0.000    0.000    0.000    0.000 
#    0.000    0.000    0.000    0.000    0.000    0.000 
#
# Total GULP energy -111735.212725 kJ/mol
# GULP energy per Si atom -5586.760636 kJ/mol
# Density = 2.214291 g / cm^3
# Si number density = 22.193424 Si / 1000 Ang^3
#
#
#
# Elastic Constant Matrix: (Units=GPa)
#
#
# Indices 1 2 3 4 5 6 
#
# 1 65.4591 14.0883 16.2815 0.0000 0.0000 0.0000
# 2 14.0883 98.6839 24.4627 0.0000 0.0000 0.0000
# 3 16.2815 24.4627 58.3454 0.0000 0.0000 0.0000
# 4 0.0000 0.0000 0.0000 43.6695 0.0000 0.0000
# 5 0.0000 0.0000 0.0000 0.0000 34.3895 0.0000
# 6 0.0000 0.0000 0.0000 0.0000 0.0000 19.7472
#
#
#
# Elastic Compliance Matrix: (Units=1/GPa)
#
#
# Indices 1 2 3 4 5 6 
#
# 1 0.016578 -0.001361 -0.004055 0.000000 0.000000 0.000000
# 2 -0.001361 0.011421 -0.004408 0.000000 0.000000 0.000000
# 3 -0.004055 -0.004408 0.020119 0.000000 0.000000 0.000000
# 4 0.000000 0.000000 0.000000 0.022899 0.000000 0.000000
# 5 0.000000 0.000000 0.000000 0.000000 0.029079 0.000000
# 6 0.000000 0.000000 0.000000 0.000000 0.000000 0.050640
#
#
# Mechanical properties :
#
#
# Convention : Reuss Voigt Hill
#
# Bulk Modulus (GPa) = 35.12757 36.90592 36.01675
# Shear Modulus (GPa) = 27.79689 30.73829 29.26759
#
# Velocity S-wave (km/s) = 3.54288 3.72562 3.63540
# Velocity P-wave (km/s) = 5.70949 5.93062 5.82111
#
# Compressibility (1/GPa) = 0.02846767
#
# Stress axis : x y z
#
# Youngs Moduli (GPa) = 60.31929 87.56163 49.70343
#
# Poissons Ratio (x) = 0.11921 0.20157
# Poissons Ratio (y) = 0.08212 0.21911
# Poissons Ratio (z) = 0.24462 0.38601
#
# Static dielectric constant tensor:
#      x y z
#    x 1.824890 0.000000 0.000000 
#    y 0.000000 1.911660 0.000000 
#    z 0.000000 0.000000 1.858180 
# 
# From -- ./inp_files/4592.got.cif
#   From: 2010.05.17/outbox.cif.g08.bks.cpg/sg33_3_cif.got.tgz:4592.got - 2010.06.03 17:15:25.
