data_PCOD9346049
_publ_section_title
;
Structure prediction by ZEFSAII (Michael W. Deem and Ramdas Pophale) SiO2 
 PCOD9346049
Probable space group: P N A 21
;
_chemical_formula_sum "Si O2"
_cell_formula_units_Z 28
_cell_length_a 14.578838
_cell_length_b 14.152676
_cell_length_c 4.949242
_cell_angle_alpha 90.000000
_cell_angle_beta 90.000000
_cell_angle_gamma 90.000000
_cell_volume 1021.174977
_symmetry_space_group_name_H-M "P N A 21"
_symmetry_group_IT_number 33
_symmetry_cell_setting 'orthorhombic'
loop_
_space_group_symop_operation_xyz
x,y,z
-x,-y,1/2+z
1/2-x,1/2+y,1/2+z
1/2+x,1/2-y,z
loop_
_atom_site_type_symbol
_atom_site_label
_atom_site_fract_x
_atom_site_fract_y
_atom_site_fract_z
Si Si1 0.750000 0.959833 0.298910
Si Si2 0.408304 0.285794 0.421773
Si Si3 0.945092 0.533212 0.597742
Si Si4 0.250000 0.887611 0.244774
Si Si5 0.054908 0.966788 0.597742
Si Si6 0.091696 0.285794 0.421773
Si Si7 0.250000 0.220972 0.113302
O O1 0.842331 0.992069 0.143452
O O2 0.750000 0.848944 0.362008
O O3 0.657669 0.992069 0.143451
O O4 0.750000 0.010321 0.596264
O O5 0.340724 0.341049 0.617554
O O6 0.443075 0.358966 0.195211
O O7 0.500000 0.250000 0.560890
O O8 0.343119 0.208186 0.281582
O O9 0.943075 0.641034 0.695210
O O10 0.985681 0.518870 0.302693
O O11 0.340724 0.841048 0.117553
O O12 0.250000 0.833044 0.534478
O O13 0.014319 0.981130 0.302692
O O14 0.156881 0.208186 0.281581
#
# Coordination Sequence:
#
# PCOD9346049 Si02
#       7
#     4   4   4   4   4   4   4
#     4  10  24  46  69 104 144 189 243 301 361 437
#     4  10  23  42  64  98 136 177 236 294 349 432
#     4  11  26  45  71 106 141 190 237 294 365 432
#     4   9  23  41  64  99 135 180 233 298 355 429
#     4  11  26  45  71 106 141 190 237 294 365 432
#     4  10  23  42  64  98 136 177 236 294 349 432
#     4  11  23  43  69  97 135 189 232 297 366 422
#
# _framework density 27.419398000000001
#
# number of rings (size 3 to 8) (size 9 to 14) (size 15 to 20)
#    0.000    1.714    0.000    2.571   12.000    2.286 
#    0.000    0.000    0.000    0.000    0.000    0.000 
#    0.000    0.000    0.000    0.000    0.000    0.000 
#
# Total GULP energy -156986.765746 kJ/mol
# GULP energy per Si atom -5606.670205 kJ/mol
# Density = 2.735699 g / cm^3
# Si number density = 27.419398 Si / 1000 Ang^3
#
#
#
# Elastic Constant Matrix: (Units=GPa)
#
#
# Indices 1 2 3 4 5 6 
#
# 1 233.7181 35.6200 32.7084 0.0000 0.0000 0.0000
# 2 35.6200 95.0998 -2.9360 0.0000 0.0000 0.0000
# 3 32.7084 -2.9360 73.8489 0.0000 0.0000 0.0000
# 4 0.0000 0.0000 0.0000 30.5071 0.0000 0.0000
# 5 0.0000 0.0000 0.0000 0.0000 40.5277 0.0000
# 6 0.0000 0.0000 0.0000 0.0000 0.0000 46.8433
#
#
#
# Elastic Compliance Matrix: (Units=1/GPa)
#
#
# Indices 1 2 3 4 5 6 
#
# 1 0.004881 -0.001897 -0.002237 0.000000 0.000000 0.000000
# 2 -0.001897 0.011266 0.001288 0.000000 0.000000 0.000000
# 3 -0.002237 0.001288 0.014583 0.000000 0.000000 0.000000
# 4 0.000000 0.000000 0.000000 0.032779 0.000000 0.000000
# 5 0.000000 0.000000 0.000000 0.000000 0.024675 0.000000
# 6 0.000000 0.000000 0.000000 0.000000 0.000000 0.021348
#
#
# Mechanical properties :
#
#
# Convention : Reuss Voigt Hill
#
# Bulk Modulus (GPa) = 39.94043 59.27239 49.60641
# Shear Modulus (GPa) = 40.46301 46.06057 43.26179
#
# Velocity S-wave (km/s) = 3.84566 4.10305 3.97644
# Velocity P-wave (km/s) = 5.85806 6.64158 6.26209
#
# Compressibility (1/GPa) = 0.02503729
#
# Stress axis : x y z
#
# Youngs Moduli (GPa) = 204.88005 88.76540 68.57170
#
# Poissons Ratio (x) = 0.16841 0.15341
# Poissons Ratio (y) = 0.38870 -0.08833
# Poissons Ratio (z) = 0.45836 -0.11435
#
# Static dielectric constant tensor:
#      x y z
#    x 2.107410 0.000000 0.000000 
#    y 0.000000 2.136290 0.000000 
#    z 0.000000 0.000000 2.153960 
# 
# From -- ./inp_files/1438.got.cif
#   From: 2010.05.17/outbox.cif.g08.bks.cpg/sg33_1_cif.got.tgz:1438.got - 2010.06.03 17:15:25.
