data_PCOD9346847
_publ_section_title
;
Structure prediction by ZEFSAII (Michael W. Deem and Ramdas Pophale) SiO2 
 PCOD9346847
Probable space group: P N A 21
;
_chemical_formula_sum "Si O2"
_cell_formula_units_Z 24
_cell_length_a 18.109144
_cell_length_b 9.714450
_cell_length_c 5.747320
_cell_angle_alpha 90.000000
_cell_angle_beta 90.000000
_cell_angle_gamma 90.000000
_cell_volume 1011.070683
_symmetry_space_group_name_H-M "P N A 21"
_symmetry_group_IT_number 33
_symmetry_cell_setting 'orthorhombic'
loop_
_space_group_symop_operation_xyz
x,y,z
-x,-y,1/2+z
1/2-x,1/2+y,1/2+z
1/2+x,1/2-y,z
loop_
_atom_site_type_symbol
_atom_site_label
_atom_site_fract_x
_atom_site_fract_y
_atom_site_fract_z
Si Si1 0.793241 0.630450 0.169660
Si Si2 0.283715 0.162396 0.334853
Si Si3 0.401473 0.077997 0.691071
Si Si4 0.441012 0.853053 0.029947
Si Si5 0.152293 0.828734 0.466951
Si Si6 0.964194 0.955834 0.905484
O O1 0.772147 0.465281 0.153419
O O2 0.734516 0.677339 0.364845
O O3 0.775858 0.738655 0.958315
O O4 0.879529 0.655309 0.233588
O O5 0.330520 0.084391 0.530316
O O6 0.340880 0.272384 0.225461
O O7 0.481904 0.072883 0.577725
O O8 0.399342 0.221111 0.832434
O O9 0.395800 0.949842 0.858269
O O10 0.459749 0.706947 0.924786
O O11 0.116376 0.975993 0.434068
O O12 0.994540 0.995498 0.646881
#
# Coordination Sequence:
#
# PCOD9346847 Si02
#       6
#     4   4   4   4   4   4
#     4  11  26  44  72 110 142 201 251 314 396 466
#     4  11  25  48  74 108 150 197 252 324 392 468
#     4  11  25  46  74 108 148 193 252 320 382 452
#     4  12  25  47  76 112 146 201 261 311 388 476
#     4  11  25  50  72 104 157 195 246 328 385 450
#     4  12  28  49  78 116 155 207 260 327 391 466
#
# _framework density 23.737212
#
# number of rings (size 3 to 8) (size 9 to 14) (size 15 to 20)
#    0.000    0.667    3.333    3.000    7.000    2.667 
#    0.000    0.000    0.000    0.000    0.000    0.000 
#    0.000    0.000    0.000    0.000    0.000    0.000 
#
# Total GULP energy -133926.611514 kJ/mol
# GULP energy per Si atom -5580.275480 kJ/mol
# Density = 2.368319 g / cm^3
# Si number density = 23.737212 Si / 1000 Ang^3
#
#
#
# Elastic Constant Matrix: (Units=GPa)
#
#
# Indices 1 2 3 4 5 6 
#
# 1 87.2950 25.7574 7.2801 0.0000 0.0000 0.0000
# 2 25.7574 87.5063 19.2898 0.0000 0.0000 0.0000
# 3 7.2801 19.2898 47.6052 0.0000 0.0000 0.0000
# 4 0.0000 0.0000 0.0000 22.6795 0.0000 0.0000
# 5 0.0000 0.0000 0.0000 0.0000 22.3565 0.0000
# 6 0.0000 0.0000 0.0000 0.0000 0.0000 45.3273
#
#
#
# Elastic Compliance Matrix: (Units=1/GPa)
#
#
# Indices 1 2 3 4 5 6 
#
# 1 0.012554 -0.003593 -0.000464 0.000000 0.000000 0.000000
# 2 -0.003593 0.013577 -0.004952 0.000000 0.000000 0.000000
# 3 -0.000464 -0.004952 0.023084 0.000000 0.000000 0.000000
# 4 0.000000 0.000000 0.000000 0.044093 0.000000 0.000000
# 5 0.000000 0.000000 0.000000 0.000000 0.044730 0.000000
# 6 0.000000 0.000000 0.000000 0.000000 0.000000 0.022062
#
#
# Mechanical properties :
#
#
# Convention : Reuss Voigt Hill
#
# Bulk Modulus (GPa) = 32.05447 36.34011 34.19729
# Shear Modulus (GPa) = 26.52296 29.41128 27.96712
#
# Velocity S-wave (km/s) = 3.34632 3.52381 3.43621
# Velocity P-wave (km/s) = 5.33513 5.64791 5.49375
#
# Compressibility (1/GPa) = 0.03119690
#
# Stress axis : x y z
#
# Youngs Moduli (GPa) = 79.65413 73.65417 43.32078
#
# Poissons Ratio (x) = 0.26464 0.02010
# Poissons Ratio (y) = 0.28620 0.21452
# Poissons Ratio (z) = 0.03696 0.36473
#
# Static dielectric constant tensor:
#      x y z
#    x 1.969320 0.000000 0.000000 
#    y 0.000000 1.892970 0.000000 
#    z 0.000000 0.000000 1.970930 
# 
# From -- ./inp_files/1659.got.cif
#   From: 2010.05.17/outbox.cif.g08.bks.cpg/sg33_1_cif.got.tgz:1659.got - 2010.06.03 17:15:25.
