data_PCOD9346621
_publ_section_title
;
Structure prediction by ZEFSAII (Michael W. Deem and Ramdas Pophale) SiO2 
 PCOD9346621
Probable space group: P N A 21
;
_chemical_formula_sum "Si O2"
_cell_formula_units_Z 32
_cell_length_a 11.637636
_cell_length_b 5.230515
_cell_length_c 22.259162
_cell_angle_alpha 90.000000
_cell_angle_beta 90.000000
_cell_angle_gamma 90.000000
_cell_volume 1354.933659
_symmetry_space_group_name_H-M "P N A 21"
_symmetry_group_IT_number 33
_symmetry_cell_setting 'orthorhombic'
loop_
_space_group_symop_operation_xyz
x,y,z
-x,-y,1/2+z
1/2-x,1/2+y,1/2+z
1/2+x,1/2-y,z
loop_
_atom_site_type_symbol
_atom_site_label
_atom_site_fract_x
_atom_site_fract_y
_atom_site_fract_z
Si Si1 0.733628 0.777713 0.316250
Si Si2 0.959365 0.970177 0.857773
Si Si3 0.871556 0.703433 0.435168
Si Si4 0.858139 0.273825 0.270939
Si Si5 0.236354 0.587467 0.540252
Si Si6 0.443909 0.807596 0.961330
Si Si7 0.942758 0.192561 0.582770
Si Si8 0.447054 0.206930 0.135800
O O1 0.602091 0.688448 0.319230
O O2 0.775228 0.751337 0.385223
O O3 0.802867 0.547285 0.284895
O O4 0.766773 0.045194 0.285626
O O5 0.880337 0.801955 0.902165
O O6 0.036351 0.800107 0.814451
O O7 0.033970 0.098888 0.910503
O O8 0.825967 0.746092 0.502126
O O9 0.939714 0.438472 0.436637
O O10 0.904793 0.286843 0.203769
O O11 0.142253 0.508150 0.491260
O O12 0.309540 0.346268 0.565075
O O13 0.166618 0.714019 0.593991
O O14 0.483608 0.659039 0.021261
O O15 0.982608 0.454146 0.614600
O O16 0.975561 0.953837 0.624051
#
# Coordination Sequence:
#
# PCOD9346621 Si02
#       8
#     4   4   4   4   4   4   4   4
#     4  11  26  42  76 102 140 190 241 293 367 425
#     4  11  25  42  68 105 145 187 233 301 368 431
#     4  11  23  43  64 106 147 188 229 306 360 445
#     4  11  26  52  71 105 142 191 247 300 348 433
#     4  11  24  42  72 106 143 192 239 297 367 438
#     4  11  24  40  67 103 146 183 235 294 371 430
#     4  11  25  45  70 106 138 191 233 301 355 427
#     4  11  27  50  74 101 147 192 251 296 354 427
#
# _framework density 23.617393
#
# number of rings (size 3 to 8) (size 9 to 14) (size 15 to 20)
#    0.000    1.000    2.500    3.000    8.750    4.000 
#    0.000    3.750    0.000    0.000    0.000    0.000 
#    0.000    0.000    0.000    0.000    0.000    0.000 
#
# Total GULP energy -178902.146865 kJ/mol
# GULP energy per Si atom -5590.692090 kJ/mol
# Density = 2.356364 g / cm^3
# Si number density = 23.617393 Si / 1000 Ang^3
#
#
#
# Elastic Constant Matrix: (Units=GPa)
#
#
# Indices 1 2 3 4 5 6 
#
# 1 40.7995 -3.4490 -0.8710 0.0000 0.0000 0.0000
# 2 -3.4490 64.0954 18.1877 0.0000 0.0000 0.0000
# 3 -0.8710 18.1877 110.3566 0.0000 0.0000 0.0000
# 4 0.0000 0.0000 0.0000 30.0307 0.0000 0.0000
# 5 0.0000 0.0000 0.0000 0.0000 19.7488 0.0000
# 6 0.0000 0.0000 0.0000 0.0000 0.0000 28.6290
#
#
#
# Elastic Compliance Matrix: (Units=1/GPa)
#
#
# Indices 1 2 3 4 5 6 
#
# 1 0.024622 0.001332 -0.000025 0.000000 0.000000 0.000000
# 2 0.001332 0.016439 -0.002699 0.000000 0.000000 0.000000
# 3 -0.000025 -0.002699 0.009506 0.000000 0.000000 0.000000
# 4 0.000000 0.000000 0.000000 0.033299 0.000000 0.000000
# 5 0.000000 0.000000 0.000000 0.000000 0.050636 0.000000
# 6 0.000000 0.000000 0.000000 0.000000 0.000000 0.034930
#
#
# Mechanical properties :
#
#
# Convention : Reuss Voigt Hill
#
# Bulk Modulus (GPa) = 20.92764 26.99854 23.96309
# Shear Modulus (GPa) = 26.57535 29.10728 27.84131
#
# Velocity S-wave (km/s) = 3.35811 3.51444 3.43716
# Velocity P-wave (km/s) = 4.89042 5.28439 5.09122
#
# Compressibility (1/GPa) = 0.04778370
#
# Stress axis : x y z
#
# Youngs Moduli (GPa) = 40.61376 60.83001 105.19534
#
# Poissons Ratio (x) = -0.08103 0.00265
# Poissons Ratio (y) = -0.05410 0.28390
# Poissons Ratio (z) = 0.00102 0.16417
#
# Static dielectric constant tensor:
#      x y z
#    x 2.048710 0.000000 0.000000 
#    y 0.000000 2.065160 0.000000 
#    z 0.000000 0.000000 1.853860 
# 
# From -- ./inp_files/9098.got.cif
#   From: 2010.05.17/outbox.cif.g08.bks.cpg/sg33_5_cif.got.tgz:9098.got - 2010.06.03 17:15:25.
