data_PCOD9346727
_publ_section_title
;
Structure prediction by ZEFSAII (Michael W. Deem and Ramdas Pophale) SiO2 
 PCOD9346727
Probable space group: P N A 21
;
_chemical_formula_sum "Si O2"
_cell_formula_units_Z 24
_cell_length_a 20.202775
_cell_length_b 5.261550
_cell_length_c 8.511209
_cell_angle_alpha 90.000000
_cell_angle_beta 90.000000
_cell_angle_gamma 90.000000
_cell_volume 904.723735
_symmetry_space_group_name_H-M "P N A 21"
_symmetry_group_IT_number 33
_symmetry_cell_setting 'orthorhombic'
loop_
_space_group_symop_operation_xyz
x,y,z
-x,-y,1/2+z
1/2-x,1/2+y,1/2+z
1/2+x,1/2-y,z
loop_
_atom_site_type_symbol
_atom_site_label
_atom_site_fract_x
_atom_site_fract_y
_atom_site_fract_z
Si Si1 0.676090 0.721238 0.994180
Si Si2 0.440342 0.796836 0.152597
Si Si3 0.368082 0.307321 0.030574
Si Si4 0.109812 0.120031 0.223375
Si Si5 0.257132 0.916670 0.695098
Si Si6 0.948404 0.548625 0.496195
O O1 0.711092 0.626829 0.841679
O O2 0.627036 0.957002 0.969400
O O3 0.629889 0.509052 0.061733
O O4 0.726925 0.804804 0.130254
O O5 0.398207 0.541979 0.130887
O O6 0.464448 0.818789 0.332062
O O7 0.398248 0.042681 0.091620
O O8 0.502911 0.814655 0.034868
O O9 0.288219 0.299526 0.053751
O O10 0.389947 0.404571 0.856886
O O11 0.173136 0.300417 0.253653
O O12 0.049299 0.289849 0.160006
#
# Coordination Sequence:
#
# PCOD9346727 Si02
#       6
#     4   4   4   4   4   4
#     4  11  25  44  72 103 153 191 254 305 384 448
#     4  12  29  49  79 105 156 196 260 309 380 449
#     4  12  28  48  77 111 149 203 248 314 383 450
#     4  11  27  44  75 107 153 194 257 310 379 455
#     4  11  24  44  68 112 145 198 241 316 378 452
#     4  11  27  49  73 110 146 206 252 318 374 454
#
# _framework density 26.527435000000001
#
# number of rings (size 3 to 8) (size 9 to 14) (size 15 to 20)
#    0.000    0.667    3.333    2.000   14.000    0.000 
#    0.000    0.000    0.000    0.000    0.000    0.000 
#    0.000    0.000    0.000    0.000    0.000    0.000 
#
# Total GULP energy -134259.440176 kJ/mol
# GULP energy per Si atom -5594.143341 kJ/mol
# Density = 2.646706 g / cm^3
# Si number density = 26.527435 Si / 1000 Ang^3
#
#
#
# Elastic Constant Matrix: (Units=GPa)
#
#
# Indices 1 2 3 4 5 6 
#
# 1 59.3635 31.9648 0.6624 0.0000 0.0000 0.0000
# 2 31.9648 100.1541 20.8396 0.0000 0.0000 0.0000
# 3 0.6624 20.8396 121.7259 0.0000 0.0000 0.0000
# 4 0.0000 0.0000 0.0000 20.5096 0.0000 0.0000
# 5 0.0000 0.0000 0.0000 0.0000 39.3802 0.0000
# 6 0.0000 0.0000 0.0000 0.0000 0.0000 39.3322
#
#
#
# Elastic Compliance Matrix: (Units=1/GPa)
#
#
# Indices 1 2 3 4 5 6 
#
# 1 0.020468 -0.006750 0.001044 0.000000 0.000000 0.000000
# 2 -0.006750 0.012579 -0.002117 0.000000 0.000000 0.000000
# 3 0.001044 -0.002117 0.008572 0.000000 0.000000 0.000000
# 4 0.000000 0.000000 0.000000 0.048758 0.000000 0.000000
# 5 0.000000 0.000000 0.000000 0.000000 0.025393 0.000000
# 6 0.000000 0.000000 0.000000 0.000000 0.000000 0.025424
#
#
# Mechanical properties :
#
#
# Convention : Reuss Voigt Hill
#
# Bulk Modulus (GPa) = 38.49938 43.13082 40.81510
# Shear Modulus (GPa) = 30.21182 35.02952 32.62067
#
# Velocity S-wave (km/s) = 3.37841 3.63781 3.51051
# Velocity P-wave (km/s) = 5.45552 5.82573 5.64366
#
# Compressibility (1/GPa) = 0.02597444
#
# Stress axis : x y z
#
# Youngs Moduli (GPa) = 48.85622 79.49544 116.66018
#
# Poissons Ratio (x) = 0.53658 -0.12182
# Poissons Ratio (y) = 0.32977 0.24695
# Poissons Ratio (z) = -0.05102 0.16828
#
# Static dielectric constant tensor:
#      x y z
#    x 2.150950 0.000000 0.000000 
#    y 0.000000 2.163810 0.000000 
#    z 0.000000 0.000000 2.083880 
# 
# From -- ./inp_files/4631.got.cif
#   From: 2010.05.17/outbox.cif.g08.bks.cpg/sg33_3_cif.got.tgz:4631.got - 2010.06.03 17:15:25.
