data_PCOD9346960
_publ_section_title
;
Structure prediction by ZEFSAII (Michael W. Deem and Ramdas Pophale) SiO2 
 PCOD9346960
Probable space group: P N A 21
;
_chemical_formula_sum "Si O2"
_cell_formula_units_Z 20
_cell_length_a 7.617708
_cell_length_b 7.180014
_cell_length_c 13.651287
_cell_angle_alpha 90.000000
_cell_angle_beta 90.000000
_cell_angle_gamma 90.000000
_cell_volume 746.660556
_symmetry_space_group_name_H-M "P N A 21"
_symmetry_group_IT_number 33
_symmetry_cell_setting 'orthorhombic'
loop_
_space_group_symop_operation_xyz
x,y,z
-x,-y,1/2+z
1/2-x,1/2+y,1/2+z
1/2+x,1/2-y,z
loop_
_atom_site_type_symbol
_atom_site_label
_atom_site_fract_x
_atom_site_fract_y
_atom_site_fract_z
Si Si1 0.340283 0.101295 0.134760
Si Si2 0.159847 0.970564 0.514462
Si Si3 0.843541 0.526919 0.762277
Si Si4 0.558979 0.384812 0.311099
Si Si5 0.867492 0.229144 0.608744
O O1 0.315781 0.262096 0.054935
O O2 0.212259 0.095091 0.230175
O O3 0.533455 0.122495 0.178728
O O4 0.311047 0.894056 0.097291
O O5 0.103587 0.985112 0.402778
O O6 0.327481 0.099917 0.535819
O O7 0.006660 0.072801 0.576917
O O8 0.634970 0.558769 0.772696
O O9 0.921207 0.665396 0.846119
O O10 0.870669 0.317019 0.720032
#
# Coordination Sequence:
#
# PCOD9346960 Si02
#       5
#     4   4   4   4   4
#     4  12  27  53  82 113 169 228 270 349 437 498
#     4  12  28  50  78 123 162 218 283 349 418 513
#     4  12  24  49  82 116 164 220 275 345 431 499
#     4  12  26  50  79 120 165 214 281 350 414 506
#     4  12  25  50  81 114 160 222 273 343 430 494
#
# _framework density 26.785933
#
# number of rings (size 3 to 8) (size 9 to 14) (size 15 to 20)
#    0.000    0.000    6.000    3.600    0.000    0.000 
#    7.200    0.000    0.000    0.000    0.000    0.000 
#    0.000    0.000    0.000    0.000    0.000    0.000 
#
# Total GULP energy -111396.474307 kJ/mol
# GULP energy per Si atom -5569.823715 kJ/mol
# Density = 2.672497 g / cm^3
# Si number density = 26.785933 Si / 1000 Ang^3
#
#
#
# Elastic Constant Matrix: (Units=GPa)
#
#
# Indices 1 2 3 4 5 6 
#
# 1 88.6827 -3.7868 53.9832 0.0000 0.0000 0.0000
# 2 -3.7868 158.1990 63.6720 0.0000 0.0000 0.0000
# 3 53.9832 63.6720 142.4671 0.0000 0.0000 0.0000
# 4 0.0000 0.0000 0.0000 41.4793 0.0000 0.0000
# 5 0.0000 0.0000 0.0000 0.0000 35.9536 0.0000
# 6 0.0000 0.0000 0.0000 0.0000 0.0000 47.2924
#
#
#
# Elastic Compliance Matrix: (Units=1/GPa)
#
#
# Indices 1 2 3 4 5 6 
#
# 1 0.016071 0.003458 -0.007635 0.000000 0.000000 0.000000
# 2 0.003458 0.008451 -0.005087 0.000000 0.000000 0.000000
# 3 -0.007635 -0.005087 0.012186 0.000000 0.000000 0.000000
# 4 0.000000 0.000000 0.000000 0.024108 0.000000 0.000000
# 5 0.000000 0.000000 0.000000 0.000000 0.027814 0.000000
# 6 0.000000 0.000000 0.000000 0.000000 0.000000 0.021145
#
#
# Mechanical properties :
#
#
# Convention : Reuss Voigt Hill
#
# Bulk Modulus (GPa) = 55.00755 68.56506 61.78630
# Shear Modulus (GPa) = 37.21203 43.31039 40.26121
#
# Velocity S-wave (km/s) = 3.73129 4.02544 3.88115
# Velocity P-wave (km/s) = 6.25651 6.87449 6.57277
#
# Compressibility (1/GPa) = 0.01817932
#
# Stress axis : x y z
#
# Youngs Moduli (GPa) = 62.22218 118.32262 82.06226
#
# Poissons Ratio (x) = -0.40912 0.62655
# Poissons Ratio (y) = -0.21514 0.41748
# Poissons Ratio (z) = 0.47507 0.60195
#
# Static dielectric constant tensor:
#      x y z
#    x 2.319900 0.000000 0.000000 
#    y 0.000000 2.372010 0.000000 
#    z 0.000000 0.000000 2.159030 
# 
# From -- ./inp_files/7783.got.cif
#   From: 2010.05.17/outbox.cif.g08.bks.cpg/sg33_4_cif.got.tgz:7783.got - 2010.06.03 17:15:25.
