data_PCOD9346555
_publ_section_title
;
Structure prediction by ZEFSAII (Michael W. Deem and Ramdas Pophale) SiO2 
 PCOD9346555
Probable space group: P N A 21
;
_chemical_formula_sum "Si O2"
_cell_formula_units_Z 32
_cell_length_a 9.664640
_cell_length_b 10.872299
_cell_length_c 13.352332
_cell_angle_alpha 90.000000
_cell_angle_beta 90.000000
_cell_angle_gamma 90.000000
_cell_volume 1403.021064
_symmetry_space_group_name_H-M "P N A 21"
_symmetry_group_IT_number 33
_symmetry_cell_setting 'orthorhombic'
loop_
_space_group_symop_operation_xyz
x,y,z
-x,-y,1/2+z
1/2-x,1/2+y,1/2+z
1/2+x,1/2-y,z
loop_
_atom_site_type_symbol
_atom_site_label
_atom_site_fract_x
_atom_site_fract_y
_atom_site_fract_z
Si Si1 0.794759 0.980045 0.824340
Si Si2 0.415270 0.762806 0.909599
Si Si3 0.486454 0.542193 0.630359
Si Si4 0.968820 0.310252 0.044345
Si Si5 0.506722 0.048835 0.241996
Si Si6 0.837508 0.101741 0.456171
Si Si7 0.293525 0.567935 0.263927
Si Si8 0.264048 0.774130 0.410168
O O1 0.882533 0.961043 0.724056
O O2 0.826385 0.107769 0.879487
O O3 0.831081 0.862753 0.891075
O O4 0.633562 0.989210 0.796707
O O5 0.438541 0.832399 0.804099
O O6 0.318808 0.853115 0.973796
O O7 0.562275 0.720086 0.950469
O O8 0.534977 0.678549 0.601157
O O9 0.404119 0.485479 0.537996
O O10 0.617561 0.461909 0.666029
O O11 0.973300 0.412162 0.129479
O O12 0.835585 0.315771 0.973332
O O13 0.107531 0.312851 0.978549
O O14 0.631027 0.952216 0.245370
O O15 0.838930 0.032196 0.348760
O O16 0.315302 0.700592 0.312999
#
# Coordination Sequence:
#
# PCOD9346555 Si02
#       8
#     4   4   4   4   4   4   4   4
#     4  12  24  44  66 101 137 183 223 288 355 407
#     4  11  22  43  68  99 135 179 227 287 346 401
#     4  12  24  43  73 100 134 184 234 275 347 424
#     4  12  23  43  70 105 127 180 242 282 327 422
#     4  11  24  41  72 101 133 173 241 296 328 407
#     4  11  23  43  70 100 134 177 231 288 338 410
#     4  11  24  45  67 103 140 182 224 287 357 405
#     4  12  26  44  68  99 146 178 220 289 362 410
#
# _framework density 22.807926999999999
#
# number of rings (size 3 to 8) (size 9 to 14) (size 15 to 20)
#    0.000    0.500    5.000    3.750    1.750    1.000 
#    0.000    2.500    0.000    0.000    0.000    0.000 
#    0.000    0.000    0.000    0.000    0.000    0.000 
#
# Total GULP energy -179235.429912 kJ/mol
# GULP energy per Si atom -5601.107185 kJ/mol
# Density = 2.275602 g / cm^3
# Si number density = 22.807927 Si / 1000 Ang^3
#
#
#
# Elastic Constant Matrix: (Units=GPa)
#
#
# Indices 1 2 3 4 5 6 
#
# 1 89.1762 -2.3841 12.4843 0.0000 0.0000 0.0000
# 2 -2.3841 47.3120 6.2861 0.0000 0.0000 0.0000
# 3 12.4843 6.2861 59.2924 0.0000 0.0000 0.0000
# 4 0.0000 0.0000 0.0000 33.8787 0.0000 0.0000
# 5 0.0000 0.0000 0.0000 0.0000 23.8818 0.0000
# 6 0.0000 0.0000 0.0000 0.0000 0.0000 26.6419
#
#
#
# Elastic Compliance Matrix: (Units=1/GPa)
#
#
# Indices 1 2 3 4 5 6 
#
# 1 0.011594 0.000922 -0.002539 0.000000 0.000000 0.000000
# 2 0.000922 0.021512 -0.002475 0.000000 0.000000 0.000000
# 3 -0.002539 -0.002475 0.017662 0.000000 0.000000 0.000000
# 4 0.000000 0.000000 0.000000 0.029517 0.000000 0.000000
# 5 0.000000 0.000000 0.000000 0.000000 0.041873 0.000000
# 6 0.000000 0.000000 0.000000 0.000000 0.000000 0.037535
#
#
# Mechanical properties :
#
#
# Convention : Reuss Voigt Hill
#
# Bulk Modulus (GPa) = 23.48303 25.39479 24.43891
# Shear Modulus (GPa) = 27.46178 28.84010 28.15094
#
# Velocity S-wave (km/s) = 3.47370 3.55981 3.51702
# Velocity P-wave (km/s) = 5.13879 5.29666 5.21832
#
# Compressibility (1/GPa) = 0.04258395
#
# Stress axis : x y z
#
# Youngs Moduli (GPa) = 86.25285 46.48673 56.61721
#
# Poissons Ratio (x) = -0.04284 0.14374
# Poissons Ratio (y) = -0.07949 0.14011
# Poissons Ratio (z) = 0.21898 0.11504
#
# Static dielectric constant tensor:
#      x y z
#    x 1.840610 0.000000 0.000000 
#    y 0.000000 1.829020 0.000000 
#    z 0.000000 0.000000 1.808090 
# 
# From -- ./inp_files/7634.got.cif
#   From: 2010.05.17/outbox.cif.g08.bks.cpg/sg33_4_cif.got.tgz:7634.got - 2010.06.03 17:15:25.
