data_PCOD9346201
_publ_section_title
;
Structure prediction by ZEFSAII (Michael W. Deem and Ramdas Pophale) SiO2 
 PCOD9346201
Probable space group: P N A 21
;
_chemical_formula_sum "Si O2"
_cell_formula_units_Z 32
_cell_length_a 12.024669
_cell_length_b 13.517990
_cell_length_c 8.316520
_cell_angle_alpha 90.000000
_cell_angle_beta 90.000000
_cell_angle_gamma 90.000000
_cell_volume 1351.844964
_symmetry_space_group_name_H-M "P N A 21"
_symmetry_group_IT_number 33
_symmetry_cell_setting 'orthorhombic'
loop_
_space_group_symop_operation_xyz
x,y,z
-x,-y,1/2+z
1/2-x,1/2+y,1/2+z
1/2+x,1/2-y,z
loop_
_atom_site_type_symbol
_atom_site_label
_atom_site_fract_x
_atom_site_fract_y
_atom_site_fract_z
Si Si1 0.790235 0.852645 0.875000
Si Si2 0.699709 0.391190 0.881067
Si Si3 0.147001 0.464735 0.205220
Si Si4 0.522480 0.345494 0.126745
Si Si5 0.969719 0.564453 0.029021
Si Si6 0.298217 0.412857 0.952131
Si Si7 0.195502 0.282803 0.676104
Si Si8 0.388949 0.156410 0.094232
O O1 0.692268 0.833576 0.745896
O O2 0.915145 0.838858 0.799587
O O3 0.790439 0.969688 0.916726
O O4 0.764447 0.772375 0.014083
O O5 0.747852 0.489272 0.801238
O O6 0.643392 0.311770 0.766753
O O7 0.616533 0.404191 0.026821
O O8 0.807584 0.331593 0.942704
O O9 0.061344 0.425866 0.340963
O O10 0.196123 0.390096 0.074416
O O11 0.092170 0.554432 0.102297
O O12 0.488960 0.232512 0.089984
O O13 0.408169 0.394430 0.059965
O O14 0.901636 0.643914 0.125632
O O15 0.926073 0.455607 0.072808
O O16 0.277285 0.350406 0.787941
#
# Coordination Sequence:
#
# PCOD9346201 Si02
#       8
#     4   4   4   4   4   4   4   4
#     4  11  27  49  70 113 153 196 266 320 387 488
#     4  10  24  47  70 104 149 192 247 311 376 474
#     4  11  26  47  70 108 148 192 259 320 382 468
#     4  11  27  46  76 102 154 206 245 315 404 464
#     4  11  26  41  76 106 147 194 252 320 392 447
#     4  12  26  49  75 105 152 205 257 323 399 473
#     4  12  25  45  75 110 145 198 250 319 392 462
#     4  10  23  48  70 106 148 193 252 310 380 470
#
# _framework density 23.671351999999999
#
# number of rings (size 3 to 8) (size 9 to 14) (size 15 to 20)
#    0.000    1.000    3.750    0.750   10.500    0.000 
#    4.500    0.000    0.000    0.000    0.000    0.000 
#    0.000    0.000    0.000    0.000    0.000    0.000 
#
# Total GULP energy -178427.831613 kJ/mol
# GULP energy per Si atom -5575.869738 kJ/mol
# Density = 2.361747 g / cm^3
# Si number density = 23.671352 Si / 1000 Ang^3
#
#
#
# Elastic Constant Matrix: (Units=GPa)
#
#
# Indices 1 2 3 4 5 6 
#
# 1 91.5358 12.5809 33.2400 0.0000 0.0000 0.0000
# 2 12.5809 49.1930 6.2619 0.0000 0.0000 0.0000
# 3 33.2400 6.2619 98.6945 0.0000 0.0000 0.0000
# 4 0.0000 0.0000 0.0000 -458.1473 0.0000 0.0000
# 5 0.0000 0.0000 0.0000 0.0000 14.9780 0.0000
# 6 0.0000 0.0000 0.0000 0.0000 0.0000 36.3515
#
#
#
# Elastic Compliance Matrix: (Units=1/GPa)
#
#
# Indices 1 2 3 4 5 6 
#
# 1 0.012805 -0.002748 -0.004138 0.000000 0.000000 0.000000
# 2 -0.002748 0.021083 -0.000412 0.000000 0.000000 0.000000
# 3 -0.004138 -0.000412 0.011552 0.000000 0.000000 0.000000
# 4 0.000000 0.000000 0.000000 -0.002183 0.000000 0.000000
# 5 0.000000 0.000000 0.000000 0.000000 0.066765 0.000000
# 6 0.000000 0.000000 0.000000 0.000000 0.000000 0.027509
#
#
# Mechanical properties :
#
#
# Convention : Reuss Voigt Hill
#
# Bulk Modulus (GPa) = 32.42169 38.17655 35.29912
# Shear Modulus (GPa) = 30.78624 -68.87419 -19.04397
#
# Velocity S-wave (km/s) = 3.61025 -5.39992 -2.83948
# Velocity P-wave (km/s) = 5.57718 4.76615 2.04802
#
# Compressibility (1/GPa) = 0.03084355
#
# Stress axis : x y z
#
# Youngs Moduli (GPa) = 78.09331 47.43077 86.56343
#
# Poissons Ratio (x) = 0.13034 0.35823
# Poissons Ratio (y) = 0.21461 0.03568
# Poissons Ratio (z) = 0.32318 0.01955
#
# Static dielectric constant tensor:
#      x y z
#    x 2.202740 0.000000 0.000000 
#    y 0.000000 2.060340 0.000000 
#    z 0.000000 0.000000 2.059380 
# 
# From -- ./inp_files/3979.got.cif
#   From: 2010.05.17/outbox.cif.g08.bks.cpg/sg33_2_cif.got.tgz:3979.got - 2010.06.03 17:15:25.
