data_PCOD9346371
_publ_section_title
;
Structure prediction by ZEFSAII (Michael W. Deem and Ramdas Pophale) SiO2 
 PCOD9346371
Probable space group: P N A 21
;
_chemical_formula_sum "Si O2"
_cell_formula_units_Z 20
_cell_length_a 12.297294
_cell_length_b 12.651231
_cell_length_c 4.631537
_cell_angle_alpha 90.000000
_cell_angle_beta 90.000000
_cell_angle_gamma 90.000000
_cell_volume 720.555570
_symmetry_space_group_name_H-M "P N A 21"
_symmetry_group_IT_number 33
_symmetry_cell_setting 'orthorhombic'
loop_
_space_group_symop_operation_xyz
x,y,z
-x,-y,1/2+z
1/2-x,1/2+y,1/2+z
1/2+x,1/2-y,z
loop_
_atom_site_type_symbol
_atom_site_label
_atom_site_fract_x
_atom_site_fract_y
_atom_site_fract_z
Si Si1 0.565431 0.036122 0.678680
Si Si2 0.394384 0.409844 0.551836
Si Si3 0.717921 0.464221 0.497343
Si Si4 0.942226 0.859510 0.591456
Si Si5 0.305154 0.770971 0.218802
O O1 0.602471 0.152546 0.589282
O O2 0.533451 0.966833 0.404570
O O3 0.668016 0.991619 0.855094
O O4 0.465840 0.340001 0.320576
O O5 0.318006 0.465419 0.267751
O O6 0.501056 0.401882 0.801506
O O7 0.303812 0.338520 0.715599
O O8 0.627728 0.462340 0.225971
O O9 0.718074 0.342021 0.580869
O O10 0.859562 0.766806 0.519238
#
# Coordination Sequence:
#
# PCOD9346371 Si02
#       5
#     4   4   4   4   4
#     4  11  28  51  80 117 169 216 273 355 422 503
#     4   9  24  48  73 116 162 202 276 356 393 516
#     4   9  25  47  70 118 160 206 275 340 415 498
#     4  10  24  49  75 115 156 220 270 338 430 488
#     4  11  25  49  80 116 161 220 278 343 430 515
#
# _framework density 27.756360000000001
#
# number of rings (size 3 to 8) (size 9 to 14) (size 15 to 20)
#    1.200    0.800    0.000    0.000   11.200    0.000 
#    7.200    0.000    0.000    0.000    0.000    0.000 
#    0.000    0.000    0.000    0.000    0.000    0.000 
#
# Total GULP energy -111734.640608 kJ/mol
# GULP energy per Si atom -5586.732030 kJ/mol
# Density = 2.769319 g / cm^3
# Si number density = 27.756360 Si / 1000 Ang^3
#
#
#
# Elastic Constant Matrix: (Units=GPa)
#
#
# Indices 1 2 3 4 5 6 
#
# 1 172.8952 92.4254 64.9752 0.0000 0.0000 0.0000
# 2 92.4254 167.9294 49.4966 0.0000 0.0000 0.0000
# 3 64.9752 49.4966 182.7601 0.0000 0.0000 0.0000
# 4 0.0000 0.0000 0.0000 45.0150 0.0000 0.0000
# 5 0.0000 0.0000 0.0000 0.0000 66.5297 0.0000
# 6 0.0000 0.0000 0.0000 0.0000 0.0000 60.9365
#
#
#
# Elastic Compliance Matrix: (Units=1/GPa)
#
#
# Indices 1 2 3 4 5 6 
#
# 1 0.008806 -0.004264 -0.001976 0.000000 0.000000 0.000000
# 2 -0.004264 0.008536 -0.000796 0.000000 0.000000 0.000000
# 3 -0.001976 -0.000796 0.006390 0.000000 0.000000 0.000000
# 4 0.000000 0.000000 0.000000 0.022215 0.000000 0.000000
# 5 0.000000 0.000000 0.000000 0.000000 0.015031 0.000000
# 6 0.000000 0.000000 0.000000 0.000000 0.000000 0.016411
#
#
# Mechanical properties :
#
#
# Convention : Reuss Voigt Hill
#
# Bulk Modulus (GPa) = 103.51846 104.15323 103.83585
# Shear Modulus (GPa) = 52.80934 55.60874 54.20904
#
# Velocity S-wave (km/s) = 4.36662 4.48086 4.42411
# Velocity P-wave (km/s) = 7.92461 8.02349 7.97420
#
# Compressibility (1/GPa) = 0.00966011
#
# Stress axis : x y z
#
# Youngs Moduli (GPa) = 113.55961 117.14481 156.50325
#
# Poissons Ratio (x) = 0.49954 0.30922
# Poissons Ratio (y) = 0.48425 0.12456
# Poissons Ratio (z) = 0.22437 0.09323
#
# Static dielectric constant tensor:
#      x y z
#    x 2.182220 0.000000 0.000000 
#    y 0.000000 2.208480 0.000000 
#    z 0.000000 0.000000 2.250530 
# 
# From -- ./inp_files/813.got.cif
#   From: 2010.05.17/outbox.cif.g08.bks.cpg/sg33_1_cif.got.tgz:813.got - 2010.06.03 17:15:25.
