data_PCOD9346484
_publ_section_title
;
Structure prediction by ZEFSAII (Michael W. Deem and Ramdas Pophale) SiO2 
 PCOD9346484
Probable space group: P N A 21
;
_chemical_formula_sum "Si O2"
_cell_formula_units_Z 28
_cell_length_a 9.548760
_cell_length_b 20.587117
_cell_length_c 5.885361
_cell_angle_alpha 90.000000
_cell_angle_beta 90.000000
_cell_angle_gamma 90.000000
_cell_volume 1156.952736
_symmetry_space_group_name_H-M "P N A 21"
_symmetry_group_IT_number 33
_symmetry_cell_setting 'orthorhombic'
loop_
_space_group_symop_operation_xyz
x,y,z
-x,-y,1/2+z
1/2-x,1/2+y,1/2+z
1/2+x,1/2-y,z
loop_
_atom_site_type_symbol
_atom_site_label
_atom_site_fract_x
_atom_site_fract_y
_atom_site_fract_z
Si Si1 0.612947 0.892606 0.319230
Si Si2 0.588745 0.708356 0.999160
Si Si3 0.729514 0.774759 0.612009
Si Si4 0.120205 0.973920 0.368635
Si Si5 0.806648 0.009960 0.376625
Si Si6 0.846673 0.875418 0.949775
Si Si7 0.617657 0.191636 0.737973
O O1 0.652747 0.835053 0.491478
O O2 0.669781 0.963630 0.385901
O O3 0.449991 0.879129 0.276707
O O4 0.710363 0.877413 0.103919
O O5 0.508009 0.766883 0.125006
O O6 0.745063 0.694504 0.084478
O O7 0.618002 0.730031 0.741397
O O8 0.491424 0.647527 0.057923
O O9 0.824499 0.815300 0.783541
O O10 0.825966 0.729670 0.457491
O O11 0.182180 0.955904 0.622548
O O12 0.138414 0.052512 0.358002
O O13 0.183015 0.954653 0.121919
O O14 0.950719 0.966341 0.371813
#
# Coordination Sequence:
#
# PCOD9346484 Si02
#       7
#     4   4   4   4   4   4   4
#     4  11  21  35  55  80 108 143 180 229 277 327
#     4  12  23  36  50  77 110 146 188 223 269 332
#     4  12  20  34  56  72 112 146 178 222 274 332
#     4   9  18  33  55  84 110 138 181 234 286 331
#     4   9  18  33  55  84 110 138 181 234 286 331
#     4  11  21  35  55  80 108 143 180 229 277 327
#     4  12  23  36  50  77 110 146 188 223 269 332
#
# _framework density 24.201509000000001
#
# number of rings (size 3 to 8) (size 9 to 14) (size 15 to 20)
#    0.000    1.143    7.143    0.857    0.000    0.000 
#    0.000    0.000    0.000    0.000    3.714    0.000 
#    0.000    0.000    0.000    0.000    0.000    0.000 
#
# Total GULP energy -156191.157429 kJ/mol
# GULP energy per Si atom -5578.255622 kJ/mol
# Density = 2.414643 g / cm^3
# Si number density = 24.201509 Si / 1000 Ang^3
#
#
#
# Elastic Constant Matrix: (Units=GPa)
#
#
# Indices 1 2 3 4 5 6 
#
# 1 84.8869 1.4007 5.7515 0.0000 0.0000 0.0000
# 2 1.4007 41.0056 -2.3537 0.0000 0.0000 0.0000
# 3 5.7515 -2.3537 113.2287 0.0000 0.0000 0.0000
# 4 0.0000 0.0000 0.0000 28.2634 0.0000 0.0000
# 5 0.0000 0.0000 0.0000 0.0000 22.0961 0.0000
# 6 0.0000 0.0000 0.0000 0.0000 0.0000 36.1420
#
#
#
# Elastic Compliance Matrix: (Units=1/GPa)
#
#
# Indices 1 2 3 4 5 6 
#
# 1 0.011829 -0.000439 -0.000610 0.000000 0.000000 0.000000
# 2 -0.000439 0.024432 0.000530 0.000000 0.000000 0.000000
# 3 -0.000610 0.000530 0.008874 0.000000 0.000000 0.000000
# 4 0.000000 0.000000 0.000000 0.035381 0.000000 0.000000
# 5 0.000000 0.000000 0.000000 0.000000 0.045257 0.000000
# 6 0.000000 0.000000 0.000000 0.000000 0.000000 0.027669
#
#
# Mechanical properties :
#
#
# Convention : Reuss Voigt Hill
#
# Bulk Modulus (GPa) = 22.67717 27.63538 25.15627
# Shear Modulus (GPa) = 29.55453 32.92182 31.23818
#
# Velocity S-wave (km/s) = 3.49834 3.69225 3.59660
# Velocity P-wave (km/s) = 5.07034 5.44249 5.25970
#
# Compressibility (1/GPa) = 0.04409721
#
# Stress axis : x y z
#
# Youngs Moduli (GPa) = 84.53836 40.92930 112.69275
#
# Poissons Ratio (x) = 0.01797 0.06874
# Poissons Ratio (y) = 0.03712 -0.05975
# Poissons Ratio (z) = 0.05157 -0.02170
#
# Static dielectric constant tensor:
#      x y z
#    x 2.046230 0.000000 0.000000 
#    y 0.000000 1.931480 0.000000 
#    z 0.000000 0.000000 2.092670 
# 
# From -- ./inp_files/527.got.cif
#   From: 2010.05.17/outbox.cif.g08.bks.cpg/sg33_1_cif.got.tgz:527.got - 2010.06.03 17:15:25.
