data_PCOD9346366
_publ_section_title
;
Structure prediction by ZEFSAII (Michael W. Deem and Ramdas Pophale) SiO2 
 PCOD9346366
Probable space group: P N A 21
;
_chemical_formula_sum "Si O2"
_cell_formula_units_Z 24
_cell_length_a 18.712882
_cell_length_b 5.856490
_cell_length_c 9.747536
_cell_angle_alpha 90.000000
_cell_angle_beta 90.000000
_cell_angle_gamma 90.000000
_cell_volume 1068.250077
_symmetry_space_group_name_H-M "P N A 21"
_symmetry_group_IT_number 33
_symmetry_cell_setting 'orthorhombic'
loop_
_space_group_symop_operation_xyz
x,y,z
-x,-y,1/2+z
1/2-x,1/2+y,1/2+z
1/2+x,1/2-y,z
loop_
_atom_site_type_symbol
_atom_site_label
_atom_site_fract_x
_atom_site_fract_y
_atom_site_fract_z
Si Si1 0.305071 0.893979 0.315490
Si Si2 0.470610 0.051669 0.927531
Si Si3 0.900305 0.856460 0.532804
Si Si4 0.899439 0.832830 0.098998
Si Si5 0.635676 0.580588 0.318523
Si Si6 0.582318 0.720902 0.806444
O O1 0.338118 0.792519 0.457328
O O2 0.332785 0.737138 0.191772
O O3 0.220509 0.887550 0.313332
O O4 0.344792 0.135174 0.284557
O O5 0.410445 0.188055 0.841682
O O6 0.517387 0.893483 0.827764
O O7 0.527444 0.223663 0.994760
O O8 0.440191 0.893709 0.049614
O O9 0.886897 0.928016 0.688404
O O10 0.906124 0.092163 0.449657
O O11 0.935254 0.024423 0.195849
O O12 0.879202 0.946594 0.957614
#
# Coordination Sequence:
#
# PCOD9346366 Si02
#       6
#     4   4   4   4   4   4
#     4  10  26  48  72 103 152 197 243 311 365 442
#     4  11  26  47  74 113 150 197 250 313 364 451
#     4  10  26  48  73 110 150 193 249 305 372 438
#     4  11  26  45  74 104 150 195 249 304 374 433
#     4  12  28  44  79 110 145 199 254 300 380 438
#     4  10  24  48  74 102 155 193 245 305 371 434
#
# _framework density 22.466649
#
# number of rings (size 3 to 8) (size 9 to 14) (size 15 to 20)
#    0.000    1.333    0.000    2.000    7.000   21.333 
#    0.000    0.000    0.000    0.000    0.000    0.000 
#    0.000    0.000    0.000    0.000    0.000    0.000 
#
# Total GULP energy -134298.972068 kJ/mol
# GULP energy per Si atom -5595.790503 kJ/mol
# Density = 2.241551 g / cm^3
# Si number density = 22.466649 Si / 1000 Ang^3
#
#
#
# Elastic Constant Matrix: (Units=GPa)
#
#
# Indices 1 2 3 4 5 6 
#
# 1 160.2674 45.1087 17.7089 0.0000 0.0000 0.0000
# 2 45.1087 88.4801 14.2763 0.0000 0.0000 0.0000
# 3 17.7089 14.2763 124.3263 0.0000 0.0000 0.0000
# 4 0.0000 0.0000 0.0000 55.9296 0.0000 0.0000
# 5 0.0000 0.0000 0.0000 0.0000 21.2521 0.0000
# 6 0.0000 0.0000 0.0000 0.0000 0.0000 25.8698
#
#
#
# Elastic Compliance Matrix: (Units=1/GPa)
#
#
# Indices 1 2 3 4 5 6 
#
# 1 0.007333 -0.003637 -0.000627 0.000000 0.000000 0.000000
# 2 -0.003637 0.013319 -0.001011 0.000000 0.000000 0.000000
# 3 -0.000627 -0.001011 0.008249 0.000000 0.000000 0.000000
# 4 0.000000 0.000000 0.000000 0.017880 0.000000 0.000000
# 5 0.000000 0.000000 0.000000 0.000000 0.047054 0.000000
# 6 0.000000 0.000000 0.000000 0.000000 0.000000 0.038655
#
#
# Mechanical properties :
#
#
# Convention : Reuss Voigt Hill
#
# Bulk Modulus (GPa) = 54.49554 58.58461 56.54007
# Shear Modulus (GPa) = 33.52172 40.34229 36.93201
#
# Velocity S-wave (km/s) = 3.86692 4.24211 4.05885
# Velocity P-wave (km/s) = 6.65179 7.08003 6.86925
#
# Compressibility (1/GPa) = 0.01835013
#
# Stress axis : x y z
#
# Youngs Moduli (GPa) = 136.37865 75.07833 121.23020
#
# Poissons Ratio (x) = 0.27307 0.07599
# Poissons Ratio (y) = 0.49602 0.12261
# Poissons Ratio (z) = 0.08548 0.07593
#
# Static dielectric constant tensor:
#      x y z
#    x 1.836030 0.000000 0.000000 
#    y 0.000000 1.896800 0.000000 
#    z 0.000000 0.000000 1.829580 
# 
# From -- ./inp_files/4630.got.cif
#   From: 2010.05.17/outbox.cif.g08.bks.cpg/sg33_3_cif.got.tgz:4630.got - 2010.06.03 17:15:25.
