data_PCOD9346380
_publ_section_title
;
Structure prediction by ZEFSAII (Michael W. Deem and Ramdas Pophale) SiO2 
 PCOD9346380
Probable space group: P N A 21
;
_chemical_formula_sum "Si O2"
_cell_formula_units_Z 20
_cell_length_a 17.990014
_cell_length_b 4.913022
_cell_length_c 8.438279
_cell_angle_alpha 90.000000
_cell_angle_beta 90.000000
_cell_angle_gamma 90.000000
_cell_volume 745.820113
_symmetry_space_group_name_H-M "P N A 21"
_symmetry_group_IT_number 33
_symmetry_cell_setting 'orthorhombic'
loop_
_space_group_symop_operation_xyz
x,y,z
-x,-y,1/2+z
1/2-x,1/2+y,1/2+z
1/2+x,1/2-y,z
loop_
_atom_site_type_symbol
_atom_site_label
_atom_site_fract_x
_atom_site_fract_y
_atom_site_fract_z
Si Si1 0.844208 0.632439 0.396470
Si Si2 0.497476 0.015717 0.777109
Si Si3 0.637967 0.799954 0.437364
Si Si4 0.417047 0.486597 0.648030
Si Si5 0.717437 0.318625 0.574212
O O1 0.916769 0.498484 0.317665
O O2 0.686323 0.069971 0.466132
O O3 0.794820 0.440340 0.509075
O O4 0.792444 0.722850 0.253186
O O5 0.449308 0.127473 0.927809
O O6 0.476874 0.242650 0.642969
O O7 0.623251 0.384637 0.997476
O O8 0.642400 0.640265 0.269924
O O9 0.661887 0.576161 0.562101
O O10 0.458792 0.736226 0.731617
#
# Coordination Sequence:
#
# PCOD9346380 Si02
#       5
#     4   4   4   4   4
#     4  12  32  53  89 133 183 232 298 371 458 542
#     4  10  25  48  91 118 169 221 303 361 435 512
#     4  10  24  53  84 121 172 229 295 361 440 527
#     4  10  25  51  86 122 164 230 295 370 424 523
#     4  12  30  53  82 128 180 234 283 365 461 536
#
# _framework density 26.816117999999999
#
# number of rings (size 3 to 8) (size 9 to 14) (size 15 to 20)
#    1.200    0.000    2.000    0.000    8.400    9.600 
#    0.000    2.000    0.000    0.000    0.000    0.000 
#    0.000    0.000    0.000    0.000    0.000    0.000 
#
# Total GULP energy -112069.985985 kJ/mol
# GULP energy per Si atom -5603.499299 kJ/mol
# Density = 2.675508 g / cm^3
# Si number density = 26.816118 Si / 1000 Ang^3
#
#
#
# Elastic Constant Matrix: (Units=GPa)
#
#
# Indices 1 2 3 4 5 6 
#
# 1 223.9906 88.3809 101.2831 0.0000 0.0000 0.0000
# 2 88.3809 207.9046 77.6821 0.0000 0.0000 0.0000
# 3 101.2831 77.6821 142.8624 0.0000 0.0000 0.0000
# 4 0.0000 0.0000 0.0000 58.1739 0.0000 0.0000
# 5 0.0000 0.0000 0.0000 0.0000 39.3871 0.0000
# 6 0.0000 0.0000 0.0000 0.0000 0.0000 43.3845
#
#
#
# Elastic Compliance Matrix: (Units=1/GPa)
#
#
# Indices 1 2 3 4 5 6 
#
# 1 0.006873 -0.001382 -0.004121 0.000000 0.000000 0.000000
# 2 -0.001382 0.006314 -0.002454 0.000000 0.000000 0.000000
# 3 -0.004121 -0.002454 0.011256 0.000000 0.000000 0.000000
# 4 0.000000 0.000000 0.000000 0.017190 0.000000 0.000000
# 5 0.000000 0.000000 0.000000 0.000000 0.025389 0.000000
# 6 0.000000 0.000000 0.000000 0.000000 0.000000 0.023050
#
#
# Mechanical properties :
#
#
# Convention : Reuss Voigt Hill
#
# Bulk Modulus (GPa) = 117.24279 123.27219 120.25749
# Shear Modulus (GPa) = 45.94357 48.68319 47.31338
#
# Velocity S-wave (km/s) = 4.14367 4.26543 4.20499
# Velocity P-wave (km/s) = 8.16757 8.38616 8.27759
#
# Compressibility (1/GPa) = 0.00852931
#
# Stress axis : x y z
#
# Youngs Moduli (GPa) = 145.48870 158.37474 88.84260
#
# Poissons Ratio (x) = 0.21886 0.36616
# Poissons Ratio (y) = 0.20106 0.21799
# Poissons Ratio (z) = 0.59963 0.38859
#
# Static dielectric constant tensor:
#      x y z
#    x 2.100460 0.000000 0.000000 
#    y 0.000000 2.039830 0.000000 
#    z 0.000000 0.000000 2.182410 
# 
# From -- ./inp_files/4609.got.cif
#   From: 2010.05.17/outbox.cif.g08.bks.cpg/sg33_3_cif.got.tgz:4609.got - 2010.06.03 17:15:25.
