data_PCOD9346065
_publ_section_title
;
Structure prediction by ZEFSAII (Michael W. Deem and Ramdas Pophale) SiO2 
 PCOD9346065
Probable space group: P N A 21
;
_chemical_formula_sum "Si O2"
_cell_formula_units_Z 32
_cell_length_a 28.584460
_cell_length_b 6.470965
_cell_length_c 7.531590
_cell_angle_alpha 90.000000
_cell_angle_beta 90.000000
_cell_angle_gamma 90.000000
_cell_volume 1393.110974
_symmetry_space_group_name_H-M "P N A 21"
_symmetry_group_IT_number 33
_symmetry_cell_setting 'orthorhombic'
loop_
_space_group_symop_operation_xyz
x,y,z
-x,-y,1/2+z
1/2-x,1/2+y,1/2+z
1/2+x,1/2-y,z
loop_
_atom_site_type_symbol
_atom_site_label
_atom_site_fract_x
_atom_site_fract_y
_atom_site_fract_z
Si Si1 0.791543 0.281920 0.608630
Si Si2 0.545887 0.147149 0.785484
Si Si3 0.204643 0.416782 0.793417
Si Si4 0.375595 0.186423 0.174827
Si Si5 0.105970 0.664516 0.277599
Si Si6 0.436089 0.536800 0.602692
Si Si7 0.464368 0.830111 0.881665
Si Si8 0.152186 0.044333 0.934767
O O1 0.780498 0.461980 0.470312
O O2 0.748104 0.215012 0.725320
O O3 0.841580 0.338199 0.698686
O O4 0.802237 0.074120 0.498592
O O5 0.537674 0.229413 0.586625
O O6 0.588524 0.982608 0.756044
O O7 0.504147 0.000655 0.852906
O O8 0.551093 0.336741 0.923313
O O9 0.176370 0.581958 0.671751
O O10 0.165266 0.250428 0.838690
O O11 0.373240 0.381265 0.305603
O O12 0.390820 0.254181 0.977915
O O13 0.082870 0.443398 0.314758
O O14 0.070850 0.793874 0.149170
O O15 0.468079 0.634417 0.754322
O O16 0.380357 0.588732 0.603560
#
# Coordination Sequence:
#
# PCOD9346065 Si02
#       8
#     4   4   4   4   4   4   4   4
#     4  10  25  41  66  98 139 178 233 286 339 420
#     4  11  23  45  70 100 139 180 231 293 349 414
#     4  11  23  43  66  98 135 182 222 284 352 407
#     4  10  24  44  68 102 137 179 230 294 345 417
#     4  10  25  45  66 102 135 181 238 283 343 424
#     4  11  23  43  67  95 133 183 225 283 343 416
#     4  11  24  45  68 101 139 182 231 291 352 411
#     4  10  23  42  69  94 133 185 228 280 349 411
#
# _framework density 22.970174
#
# number of rings (size 3 to 8) (size 9 to 14) (size 15 to 20)
#    0.000    1.500    2.500    0.750    8.750    1.000 
#    9.000    0.000    0.000    0.000    0.000    0.000 
#    0.000    0.000    0.000    0.000    0.000    0.000 
#
# Total GULP energy -178571.429370 kJ/mol
# GULP energy per Si atom -5580.357168 kJ/mol
# Density = 2.291789 g / cm^3
# Si number density = 22.970174 Si / 1000 Ang^3
#
#
#
# Elastic Constant Matrix: (Units=GPa)
#
#
# Indices 1 2 3 4 5 6 
#
# 1 72.5778 23.8542 14.2641 0.0000 0.0000 0.0000
# 2 23.8542 50.6114 55.3347 0.0000 0.0000 0.0000
# 3 14.2641 55.3347 108.0792 0.0000 0.0000 0.0000
# 4 0.0000 0.0000 0.0000 33.9774 0.0000 0.0000
# 5 0.0000 0.0000 0.0000 0.0000 29.2383 0.0000
# 6 0.0000 0.0000 0.0000 0.0000 0.0000 27.7904
#
#
#
# Elastic Compliance Matrix: (Units=1/GPa)
#
#
# Indices 1 2 3 4 5 6 
#
# 1 0.017123 -0.012720 0.004252 0.000000 0.000000 0.000000
# 2 -0.012720 0.054330 -0.026137 0.000000 0.000000 0.000000
# 3 0.004252 -0.026137 0.022073 0.000000 0.000000 0.000000
# 4 0.000000 0.000000 0.000000 0.029431 0.000000 0.000000
# 5 0.000000 0.000000 0.000000 0.000000 0.034202 0.000000
# 6 0.000000 0.000000 0.000000 0.000000 0.000000 0.035984
#
#
# Mechanical properties :
#
#
# Convention : Reuss Voigt Hill
#
# Bulk Modulus (GPa) = 41.12352 46.46382 43.79367
# Shear Modulus (GPa) = 18.48715 27.38890 22.93803
#
# Velocity S-wave (km/s) = 2.84004 3.45681 3.16349
# Velocity P-wave (km/s) = 5.35689 6.01702 5.69653
#
# Compressibility (1/GPa) = 0.02431698
#
# Stress axis : x y z
#
# Youngs Moduli (GPa) = 58.40028 18.40601 45.30404
#
# Poissons Ratio (x) = 0.23412 -0.19265
# Poissons Ratio (y) = 0.74284 1.18413
# Poissons Ratio (z) = -0.24834 0.48108
#
# Static dielectric constant tensor:
#      x y z
#    x 1.881090 0.000000 0.000000 
#    y 0.000000 1.864950 0.000000 
#    z 0.000000 0.000000 1.886540 
# 
# From -- ./inp_files/5356.got.cif
#   From: 2010.05.17/outbox.cif.g08.bks.cpg/sg33_3_cif.got.tgz:5356.got - 2010.06.03 17:15:25.
