data_PCOD9346661
_publ_section_title
;
Structure prediction by ZEFSAII (Michael W. Deem and Ramdas Pophale) SiO2 
 PCOD9346661
Probable space group: P N A 21
;
_chemical_formula_sum "Si O2"
_cell_formula_units_Z 20
_cell_length_a 9.033578
_cell_length_b 15.482719
_cell_length_c 5.068261
_cell_angle_alpha 90.000000
_cell_angle_beta 90.000000
_cell_angle_gamma 90.000000
_cell_volume 708.869029
_symmetry_space_group_name_H-M "P N A 21"
_symmetry_group_IT_number 33
_symmetry_cell_setting 'orthorhombic'
loop_
_space_group_symop_operation_xyz
x,y,z
-x,-y,1/2+z
1/2-x,1/2+y,1/2+z
1/2+x,1/2-y,z
loop_
_atom_site_type_symbol
_atom_site_label
_atom_site_fract_x
_atom_site_fract_y
_atom_site_fract_z
Si Si1 0.308925 0.581704 0.566590
Si Si2 0.788507 0.580704 0.259037
Si Si3 0.724835 0.266773 0.672590
Si Si4 0.970661 0.215004 0.304118
Si Si5 0.522023 0.102737 0.236333
O O1 0.335839 0.478774 0.615043
O O2 0.257926 0.640614 0.315888
O O3 0.452632 0.630986 0.680212
O O4 0.150078 0.578525 0.717965
O O5 0.731550 0.678332 0.321110
O O6 0.867925 0.556195 0.533565
O O7 0.911301 0.592271 0.027492
O O8 0.555958 0.273605 0.581993
O O9 0.807009 0.242773 0.394970
O O10 0.020241 0.298171 0.140516
#
# Coordination Sequence:
#
# PCOD9346661 Si02
#       5
#     4   4   4   4   4
#     4  12  24  44  74 107 144 206 247 320 385 456
#     4  11  26  45  73 109 152 191 256 320 373 468
#     4  11  25  47  68 108 147 197 254 305 387 458
#     4  11  24  44  74 101 149 198 244 314 381 457
#     4  11  23  46  71 109 144 194 257 311 376 461
#
# _framework density 28.213954000000001
#
# number of rings (size 3 to 8) (size 9 to 14) (size 15 to 20)
#    0.000    0.800    4.000    3.600    2.800    0.000 
#    3.600    0.000    0.000    0.000    0.000    0.000 
#    0.000    0.000    0.000    0.000    0.000    0.000 
#
# Total GULP energy -111367.927865 kJ/mol
# GULP energy per Si atom -5568.396393 kJ/mol
# Density = 2.814974 g / cm^3
# Si number density = 28.213954 Si / 1000 Ang^3
#
#
#
# Elastic Constant Matrix: (Units=GPa)
#
#
# Indices 1 2 3 4 5 6 
#
# 1 97.3108 -8.1750 16.0515 0.0000 0.0000 0.0000
# 2 -8.1750 68.7270 0.0040 0.0000 0.0000 0.0000
# 3 16.0515 0.0040 109.9197 0.0000 0.0000 0.0000
# 4 0.0000 0.0000 0.0000 54.5417 0.0000 0.0000
# 5 0.0000 0.0000 0.0000 0.0000 35.7456 0.0000
# 6 0.0000 0.0000 0.0000 0.0000 0.0000 31.5808
#
#
#
# Elastic Compliance Matrix: (Units=1/GPa)
#
#
# Indices 1 2 3 4 5 6 
#
# 1 0.010639 0.001266 -0.001554 0.000000 0.000000 0.000000
# 2 0.001266 0.014701 -0.000185 0.000000 0.000000 0.000000
# 3 -0.001554 -0.000185 0.009324 0.000000 0.000000 0.000000
# 4 0.000000 0.000000 0.000000 0.018335 0.000000 0.000000
# 5 0.000000 0.000000 0.000000 0.000000 0.027975 0.000000
# 6 0.000000 0.000000 0.000000 0.000000 0.000000 0.031665
#
#
# Mechanical properties :
#
#
# Convention : Reuss Voigt Hill
#
# Bulk Modulus (GPa) = 29.65824 32.41316 31.03570
# Shear Modulus (GPa) = 40.05607 42.24544 41.15076
#
# Velocity S-wave (km/s) = 3.77201 3.87373 3.82321
# Velocity P-wave (km/s) = 5.43190 5.61435 5.52388
#
# Compressibility (1/GPa) = 0.03371744
#
# Stress axis : x y z
#
# Youngs Moduli (GPa) = 93.99423 68.02320 107.24508
#
# Poissons Ratio (x) = -0.08609 0.16662
# Poissons Ratio (y) = -0.11896 0.01988
# Poissons Ratio (z) = 0.14603 0.01261
#
# Static dielectric constant tensor:
#      x y z
#    x 2.132680 0.000000 0.000000 
#    y 0.000000 2.841380 0.000000 
#    z 0.000000 0.000000 2.201320 
# 
# From -- ./inp_files/338.got.cif
#   From: 2010.05.17/outbox.cif.g08.bks.cpg/sg33_1_cif.got.tgz:338.got - 2010.06.03 17:15:25.
