data_PCOD9346070
_publ_section_title
;
Structure prediction by ZEFSAII (Michael W. Deem and Ramdas Pophale) SiO2 
 PCOD9346070
Probable space group: P N A 21
;
_chemical_formula_sum "Si O2"
_cell_formula_units_Z 28
_cell_length_a 23.747605
_cell_length_b 5.017314
_cell_length_c 10.975834
_cell_angle_alpha 90.000000
_cell_angle_beta 90.000000
_cell_angle_gamma 90.000000
_cell_volume 1307.761742
_symmetry_space_group_name_H-M "P N A 21"
_symmetry_group_IT_number 33
_symmetry_cell_setting 'orthorhombic'
loop_
_space_group_symop_operation_xyz
x,y,z
-x,-y,1/2+z
1/2-x,1/2+y,1/2+z
1/2+x,1/2-y,z
loop_
_atom_site_type_symbol
_atom_site_label
_atom_site_fract_x
_atom_site_fract_y
_atom_site_fract_z
Si Si1 0.789424 0.674543 0.495940
Si Si2 0.093182 0.325682 0.514091
Si Si3 0.337714 0.332604 0.940840
Si Si4 0.636796 0.912419 0.187714
Si Si5 0.149357 0.820941 0.937596
Si Si6 0.555227 0.449092 0.759826
Si Si7 0.481876 0.939555 0.803446
O O1 0.723425 0.626005 0.498163
O O2 0.820308 0.621320 0.625147
O O3 0.823109 0.465626 0.409157
O O4 0.800523 0.969680 0.450427
O O5 0.125516 0.608321 0.512063
O O6 0.082649 0.190902 0.643244
O O7 0.035064 0.354695 0.440163
O O8 0.130444 0.112120 0.441133
O O9 0.334313 0.227872 0.802509
O O10 0.624604 0.717630 0.073675
O O11 0.577305 0.019063 0.235042
O O12 0.103125 0.939149 0.849035
O O13 0.516842 0.708778 0.736884
O O14 0.515953 0.214581 0.812600
#
# Coordination Sequence:
#
# PCOD9346070 Si02
#       7
#     4   4   4   4   4   4   4
#     4  10  23  42  71  99 133 179 220 283 341 411
#     4  11  26  45  65 105 138 178 233 293 337 427
#     4  11  23  46  70 102 134 181 229 281 361 401
#     4   9  25  43  70  99 137 171 235 282 330 435
#     4  10  24  44  66 107 129 176 228 279 336 409
#     4  12  26  45  69 100 141 183 227 296 342 416
#     4  11  25  43  69  98 136 190 226 280 359 405
#
# _framework density 21.410630000000001
#
# number of rings (size 3 to 8) (size 9 to 14) (size 15 to 20)
#    0.857    0.571    0.000    4.286    8.000    1.143 
#    2.571    0.000    0.000    0.000    0.000    0.000 
#    0.000    0.000    0.000    0.000    0.000    0.000 
#
# Total GULP energy -156386.575869 kJ/mol
# GULP energy per Si atom -5585.234852 kJ/mol
# Density = 2.136190 g / cm^3
# Si number density = 21.410630 Si / 1000 Ang^3
#
#
#
# Elastic Constant Matrix: (Units=GPa)
#
#
# Indices 1 2 3 4 5 6 
#
# 1 56.0416 8.7451 14.3693 0.0000 0.0000 0.0000
# 2 8.7451 85.9723 0.3892 0.0000 0.0000 0.0000
# 3 14.3693 0.3892 69.5996 0.0000 0.0000 0.0000
# 4 0.0000 0.0000 0.0000 31.6694 0.0000 0.0000
# 5 0.0000 0.0000 0.0000 0.0000 -7.7854 0.0000
# 6 0.0000 0.0000 0.0000 0.0000 0.0000 16.4006
#
#
#
# Elastic Compliance Matrix: (Units=1/GPa)
#
#
# Indices 1 2 3 4 5 6 
#
# 1 0.019156 -0.001931 -0.003944 0.000000 0.000000 0.000000
# 2 -0.001931 0.011827 0.000332 0.000000 0.000000 0.000000
# 3 -0.003944 0.000332 0.015180 0.000000 0.000000 0.000000
# 4 0.000000 0.000000 0.000000 0.031576 0.000000 0.000000
# 5 0.000000 0.000000 0.000000 0.000000 -0.128445 0.000000
# 6 0.000000 0.000000 0.000000 0.000000 0.000000 0.060973
#
#
# Mechanical properties :
#
#
# Convention : Reuss Voigt Hill
#
# Bulk Modulus (GPa) = 28.50750 28.73562 28.62156
# Shear Modulus (GPa) = 151.30820 20.59760 85.95290
#
# Velocity S-wave (km/s) = 8.41565 3.10502 6.34288
# Velocity P-wave (km/s) = 10.38144 5.12886 8.18778
#
# Compressibility (1/GPa) = 0.03507849
#
# Stress axis : x y z
#
# Youngs Moduli (GPa) = 52.20172 84.55562 65.87466
#
# Poissons Ratio (x) = 0.16325 0.25982
# Poissons Ratio (y) = 0.10079 -0.02190
# Poissons Ratio (z) = 0.20589 -0.02811
#
# Static dielectric constant tensor:
#      x y z
#    x 1.754230 0.000000 0.000000 
#    y 0.000000 1.760740 0.000000 
#    z 0.000000 0.000000 1.800290 
# 
# From -- ./inp_files/7299.got.cif
#   From: 2010.05.17/outbox.cif.g08.bks.cpg/sg33_4_cif.got.tgz:7299.got - 2010.06.03 17:15:25.
