data_PCOD9346846
_publ_section_title
;
Structure prediction by ZEFSAII (Michael W. Deem and Ramdas Pophale) SiO2 
 PCOD9346846
Probable space group: P N A 21
;
_chemical_formula_sum "Si O2"
_cell_formula_units_Z 24
_cell_length_a 15.459706
_cell_length_b 4.972544
_cell_length_c 12.687961
_cell_angle_alpha 90.000000
_cell_angle_beta 90.000000
_cell_angle_gamma 90.000000
_cell_volume 975.375181
_symmetry_space_group_name_H-M "P N A 21"
_symmetry_group_IT_number 33
_symmetry_cell_setting 'orthorhombic'
loop_
_space_group_symop_operation_xyz
x,y,z
-x,-y,1/2+z
1/2-x,1/2+y,1/2+z
1/2+x,1/2-y,z
loop_
_atom_site_type_symbol
_atom_site_label
_atom_site_fract_x
_atom_site_fract_y
_atom_site_fract_z
Si Si1 0.745399 0.061697 0.101300
Si Si2 0.700417 0.100929 0.869430
Si Si3 0.021902 0.787201 0.062475
Si Si4 0.629777 0.814162 0.251898
Si Si5 0.476594 0.780596 0.419978
Si Si6 0.852775 0.542274 0.156307
O O1 0.668563 0.074488 0.188804
O O2 0.804240 0.824665 0.145521
O O3 0.801014 0.329956 0.086904
O O4 0.717993 0.981469 0.983750
O O5 0.791751 0.202628 0.822779
O O6 0.620163 0.309637 0.884747
O O7 0.660310 0.928287 0.773812
O O8 0.096762 0.846034 0.147649
O O9 0.948570 0.622420 0.125905
O O10 0.040111 0.570268 0.971931
O O11 0.993056 0.060363 0.005429
O O12 0.548041 0.823450 0.329955
#
# Coordination Sequence:
#
# PCOD9346846 Si02
#       6
#     4   4   4   4   4   4
#     4  11  26  46  76 107 150 198 252 313 381 449
#     4  11  25  46  74 107 150 195 257 310 381 456
#     4  12  26  49  75 109 154 196 254 315 382 457
#     4  11  26  50  76 114 150 205 253 317 384 459
#     4  12  28  48  75 111 149 201 254 315 382 456
#     4  11  25  47  74 108 147 197 250 314 378 453
#
# _framework density 24.605917999999999
#
# number of rings (size 3 to 8) (size 9 to 14) (size 15 to 20)
#    0.000    0.667    3.333    3.000    4.667   10.667 
#    0.000    0.000    0.000    0.000    0.000    0.000 
#    0.000    0.000    0.000    0.000    0.000    0.000 
#
# Total GULP energy -133891.975814 kJ/mol
# GULP energy per Si atom -5578.832326 kJ/mol
# Density = 2.454991 g / cm^3
# Si number density = 24.605918 Si / 1000 Ang^3
#
#
#
# Elastic Constant Matrix: (Units=GPa)
#
#
# Indices 1 2 3 4 5 6 
#
# 1 140.2403 19.8070 68.4525 0.0000 0.0000 0.0000
# 2 19.8070 88.8495 6.7513 0.0000 0.0000 0.0000
# 3 68.4525 6.7513 156.2533 0.0000 0.0000 0.0000
# 4 0.0000 0.0000 0.0000 22.5521 0.0000 0.0000
# 5 0.0000 0.0000 0.0000 0.0000 38.5091 0.0000
# 6 0.0000 0.0000 0.0000 0.0000 0.0000 22.5130
#
#
#
# Elastic Compliance Matrix: (Units=1/GPa)
#
#
# Indices 1 2 3 4 5 6 
#
# 1 0.009342 -0.001777 -0.004016 0.000000 0.000000 0.000000
# 2 -0.001777 0.011630 0.000276 0.000000 0.000000 0.000000
# 3 -0.004016 0.000276 0.008147 0.000000 0.000000 0.000000
# 4 0.000000 0.000000 0.000000 0.044342 0.000000 0.000000
# 5 0.000000 0.000000 0.000000 0.000000 0.025968 0.000000
# 6 0.000000 0.000000 0.000000 0.000000 0.000000 0.044419
#
#
# Mechanical properties :
#
#
# Convention : Reuss Voigt Hill
#
# Bulk Modulus (GPa) = 55.29377 63.92944 59.61160
# Shear Modulus (GPa) = 31.07327 36.07031 33.57179
#
# Velocity S-wave (km/s) = 3.55750 3.83289 3.69776
# Velocity P-wave (km/s) = 6.27654 6.75468 6.51999
#
# Compressibility (1/GPa) = 0.01808522
#
# Stress axis : x y z
#
# Youngs Moduli (GPa) = 107.04635 85.98283 122.74216
#
# Poissons Ratio (x) = 0.15283 0.49290
# Poissons Ratio (y) = 0.19026 -0.03389
# Poissons Ratio (z) = 0.42987 -0.02374
#
# Static dielectric constant tensor:
#      x y z
#    x 2.153270 0.000000 0.000000 
#    y 0.000000 1.933540 0.000000 
#    z 0.000000 0.000000 2.051250 
# 
# From -- ./inp_files/6652.got.cif
#   From: 2010.05.17/outbox.cif.g08.bks.cpg/sg33_4_cif.got.tgz:6652.got - 2010.06.03 17:15:25.
