data_PCOD9346733
_publ_section_title
;
Structure prediction by ZEFSAII (Michael W. Deem and Ramdas Pophale) SiO2 
 PCOD9346733
Probable space group: P N A 21
;
_chemical_formula_sum "Si O2"
_cell_formula_units_Z 32
_cell_length_a 17.354958
_cell_length_b 6.294645
_cell_length_c 12.325007
_cell_angle_alpha 90.000000
_cell_angle_beta 90.000000
_cell_angle_gamma 90.000000
_cell_volume 1346.424432
_symmetry_space_group_name_H-M "P N A 21"
_symmetry_group_IT_number 33
_symmetry_cell_setting 'orthorhombic'
loop_
_space_group_symop_operation_xyz
x,y,z
-x,-y,1/2+z
1/2-x,1/2+y,1/2+z
1/2+x,1/2-y,z
loop_
_atom_site_type_symbol
_atom_site_label
_atom_site_fract_x
_atom_site_fract_y
_atom_site_fract_z
Si Si1 0.742336 0.819245 0.117840
Si Si2 0.986393 0.127923 0.140395
Si Si3 0.433040 0.882796 0.827213
Si Si4 0.917541 0.270112 0.664414
Si Si5 0.811066 0.259297 0.159229
Si Si6 0.815310 0.648606 0.305505
Si Si7 0.550785 0.056652 0.971467
Si Si8 0.220993 0.487504 0.440162
O O1 0.671101 0.702412 0.179442
O O2 0.818719 0.748744 0.184959
O O3 0.749719 0.071232 0.135669
O O4 0.739059 0.716059 0.998683
O O5 0.040738 0.217183 0.237338
O O6 0.898184 0.170953 0.171310
O O7 0.018247 0.892833 0.129280
O O8 0.005608 0.252844 0.029680
O O9 0.444973 0.112013 0.771133
O O10 0.491292 0.884641 0.926081
O O11 0.346494 0.887621 0.868147
O O12 0.905148 0.443027 0.569759
O O13 0.793733 0.407074 0.264567
O O14 0.810583 0.388889 0.046147
O O15 0.891388 0.624902 0.377373
O O16 0.766643 0.829992 0.372452
#
# Coordination Sequence:
#
# PCOD9346733 Si02
#       8
#     4   4   4   4   4   4   4   4
#     4  11  26  45  70 107 144 190 248 300 363 450
#     4  11  25  44  73 103 141 186 237 300 367 435
#     4  11  24  45  67 104 140 182 238 297 357 434
#     4  11  26  46  66 101 142 190 234 293 365 434
#     4  11  25  43  74 108 141 186 244 300 363 446
#     4  11  24  46  72 104 144 192 240 299 372 436
#     4  11  24  44  71 101 144 179 238 298 356 439
#     4  11  24  47  71 102 144 191 235 299 369 444
#
# _framework density 23.766653000000002
#
# number of rings (size 3 to 8) (size 9 to 14) (size 15 to 20)
#    0.000    1.000    3.750    1.500    3.500    8.000 
#    2.250    0.000    0.000    0.000    0.000    0.000 
#    0.000    0.000    0.000    0.000    0.000    0.000 
#
# Total GULP energy -178418.046279 kJ/mol
# GULP energy per Si atom -5575.563946 kJ/mol
# Density = 2.371256 g / cm^3
# Si number density = 23.766653 Si / 1000 Ang^3
#
#
#
# Elastic Constant Matrix: (Units=GPa)
#
#
# Indices 1 2 3 4 5 6 
#
# 1 109.5282 36.3120 38.5731 0.0000 0.0000 0.0000
# 2 36.3120 59.9543 48.1743 0.0000 0.0000 0.0000
# 3 38.5731 48.1743 107.8918 0.0000 0.0000 0.0000
# 4 0.0000 0.0000 0.0000 42.6883 0.0000 0.0000
# 5 0.0000 0.0000 0.0000 0.0000 41.0914 0.0000
# 6 0.0000 0.0000 0.0000 0.0000 0.0000 33.2930
#
#
#
# Elastic Compliance Matrix: (Units=1/GPa)
#
#
# Indices 1 2 3 4 5 6 
#
# 1 0.011593 -0.005756 -0.001574 0.000000 0.000000 0.000000
# 2 -0.005756 0.028870 -0.010833 0.000000 0.000000 0.000000
# 3 -0.001574 -0.010833 0.014668 0.000000 0.000000 0.000000
# 4 0.000000 0.000000 0.000000 0.023426 0.000000 0.000000
# 5 0.000000 0.000000 0.000000 0.000000 0.024336 0.000000
# 6 0.000000 0.000000 0.000000 0.000000 0.000000 0.030036
#
#
# Mechanical properties :
#
#
# Convention : Reuss Voigt Hill
#
# Bulk Modulus (GPa) = 53.17902 58.16591 55.67246
# Shear Modulus (GPa) = 28.48613 33.70219 31.09416
#
# Velocity S-wave (km/s) = 3.46580 3.76978 3.62098
# Velocity P-wave (km/s) = 6.19998 6.59357 6.39980
#
# Compressibility (1/GPa) = 0.01880441
#
# Stress axis : x y z
#
# Youngs Moduli (GPa) = 86.25937 34.63809 68.17444
#
# Poissons Ratio (x) = 0.19939 0.10734
# Poissons Ratio (y) = 0.49654 0.73851
# Poissons Ratio (z) = 0.13581 0.37522
#
# Static dielectric constant tensor:
#      x y z
#    x 1.955960 0.000000 0.000000 
#    y 0.000000 2.000940 0.000000 
#    z 0.000000 0.000000 1.874390 
# 
# From -- ./inp_files/7240.got.cif
#   From: 2010.05.17/outbox.cif.g08.bks.cpg/sg33_4_cif.got.tgz:7240.got - 2010.06.03 17:15:25.
