data_PCOD9346117
_publ_section_title
;
Structure prediction by ZEFSAII (Michael W. Deem and Ramdas Pophale) SiO2 
 PCOD9346117
Probable space group: P N A 21
;
_chemical_formula_sum "Si O2"
_cell_formula_units_Z 24
_cell_length_a 5.457631
_cell_length_b 24.026013
_cell_length_c 7.332455
_cell_angle_alpha 90.000000
_cell_angle_beta 90.000000
_cell_angle_gamma 90.000000
_cell_volume 961.468993
_symmetry_space_group_name_H-M "P N A 21"
_symmetry_group_IT_number 33
_symmetry_cell_setting 'orthorhombic'
loop_
_space_group_symop_operation_xyz
x,y,z
-x,-y,1/2+z
1/2-x,1/2+y,1/2+z
1/2+x,1/2-y,z
loop_
_atom_site_type_symbol
_atom_site_label
_atom_site_fract_x
_atom_site_fract_y
_atom_site_fract_z
Si Si1 0.175758 0.220447 0.614950
Si Si2 0.014421 0.007240 0.394875
Si Si3 0.372489 0.606939 0.316517
Si Si4 0.832789 0.111760 0.201552
Si Si5 0.518858 0.957223 0.507580
Si Si6 0.220718 0.263773 0.211576
O O1 0.443442 0.242124 0.674934
O O2 0.120229 0.158546 0.683631
O O3 0.193476 0.226892 0.394676
O O4 0.287417 0.994897 0.461557
O O5 0.974267 0.953296 0.255916
O O6 0.768776 0.991503 0.512080
O O7 0.989269 0.069323 0.321593
O O8 0.522748 0.618234 0.506685
O O9 0.090854 0.591409 0.364503
O O10 0.580243 0.077472 0.177164
O O11 0.762649 0.172507 0.266234
O O12 0.463165 0.242871 0.110662
#
# Coordination Sequence:
#
# PCOD9346117 Si02
#       6
#     4   4   4   4   4   4
#     4  10  23  44  63  94 133 181 232 283 357 412
#     4   9  22  40  64  99 136 176 226 288 355 414
#     4   9  23  42  67  96 136 177 232 287 349 421
#     4  11  23  44  71 100 142 181 246 289 357 428
#     4   9  22  41  59 103 131 178 220 284 352 408
#     4  10  25  45  64 100 134 183 234 293 354 413
#
# _framework density 24.961804000000001
#
# number of rings (size 3 to 8) (size 9 to 14) (size 15 to 20)
#    1.000    1.333    0.000    0.000    9.333    1.333 
#   18.000    0.000    0.000    0.000    0.000    0.000 
#    0.000    0.000    0.000    0.000    0.000    0.000 
#
# Total GULP energy -133805.642421 kJ/mol
# GULP energy per Si atom -5575.235101 kJ/mol
# Density = 2.490499 g / cm^3
# Si number density = 24.961804 Si / 1000 Ang^3
#
#
#
# Elastic Constant Matrix: (Units=GPa)
#
#
# Indices 1 2 3 4 5 6 
#
# 1 204.9217 55.2359 28.9335 0.0000 0.0000 0.0000
# 2 55.2359 86.2138 4.9850 0.0000 0.0000 0.0000
# 3 28.9335 4.9850 42.2329 0.0000 0.0000 0.0000
# 4 0.0000 0.0000 0.0000 147.6756 0.0000 0.0000
# 5 0.0000 0.0000 0.0000 0.0000 3.8221 0.0000
# 6 0.0000 0.0000 0.0000 0.0000 0.0000 38.6544
#
#
#
# Elastic Compliance Matrix: (Units=1/GPa)
#
#
# Indices 1 2 3 4 5 6 
#
# 1 0.006505 -0.003937 -0.003992 0.000000 0.000000 0.000000
# 2 -0.003937 0.014061 0.001037 0.000000 0.000000 0.000000
# 3 -0.003992 0.001037 0.026290 0.000000 0.000000 0.000000
# 4 0.000000 0.000000 0.000000 0.006772 0.000000 0.000000
# 5 0.000000 0.000000 0.000000 0.000000 0.261634 0.000000
# 6 0.000000 0.000000 0.000000 0.000000 0.000000 0.025870
#
#
# Mechanical properties :
#
#
# Convention : Reuss Voigt Hill
#
# Bulk Modulus (GPa) = 30.23501 56.85303 43.54402
# Shear Modulus (GPa) = 13.66348 54.31135 33.98742
#
# Velocity S-wave (km/s) = 2.34214 4.66958 3.69396
# Velocity P-wave (km/s) = 4.41055 7.20408 5.97293
#
# Compressibility (1/GPa) = 0.03307424
#
# Stress axis : x y z
#
# Youngs Moduli (GPa) = 153.73741 71.11759 38.03671
#
# Poissons Ratio (x) = 0.27996 0.15183
# Poissons Ratio (y) = 0.60520 -0.03945
# Poissons Ratio (z) = 0.61366 -0.07376
#
# Static dielectric constant tensor:
#      x y z
#    x 1.996190 0.000000 0.000000 
#    y 0.000000 0.470180 0.000000 
#    z 0.000000 0.000000 2.151720 
# 
# From -- ./inp_files/2714.got.cif
#   From: 2010.05.17/outbox.cif.g08.bks.cpg/sg33_2_cif.got.tgz:2714.got - 2010.06.03 17:15:25.
