data_PCOD9346095
_publ_section_title
;
Structure prediction by ZEFSAII (Michael W. Deem and Ramdas Pophale) SiO2 
 PCOD9346095
Probable space group: P N A 21
;
_chemical_formula_sum "Si O2"
_cell_formula_units_Z 32
_cell_length_a 12.483643
_cell_length_b 11.814947
_cell_length_c 10.829172
_cell_angle_alpha 90.000000
_cell_angle_beta 90.000000
_cell_angle_gamma 90.000000
_cell_volume 1597.233351
_symmetry_space_group_name_H-M "P N A 21"
_symmetry_group_IT_number 33
_symmetry_cell_setting 'orthorhombic'
loop_
_space_group_symop_operation_xyz
x,y,z
-x,-y,1/2+z
1/2-x,1/2+y,1/2+z
1/2+x,1/2-y,z
loop_
_atom_site_type_symbol
_atom_site_label
_atom_site_fract_x
_atom_site_fract_y
_atom_site_fract_z
Si Si1 0.590201 0.757615 0.585070
Si Si2 0.090201 0.757615 0.931776
Si Si3 0.031500 0.166912 0.649534
Si Si4 0.015872 0.081120 0.252090
Si Si5 0.298328 0.611487 0.942711
Si Si6 0.015872 0.418880 0.264756
Si Si7 0.298328 0.888513 0.574136
Si Si8 0.531500 0.166912 0.867313
O O1 0.501733 0.669436 0.639983
O O2 0.569421 0.871606 0.663399
O O3 0.703257 0.697750 0.604196
O O4 0.569899 0.783699 0.442282
O O5 0.203257 0.697750 0.912650
O O6 0.001733 0.669436 0.876864
O O7 0.069421 0.871606 0.853448
O O8 0.069899 0.783699 0.074564
O O9 0.122143 0.160506 0.545598
O O10 0.061976 0.250000 0.758423
O O11 0.008857 0.043052 0.703417
O O12 0.129568 0.085451 0.322172
O O13 0.250000 0.500000 0.008423
O O14 0.991143 0.543052 0.313429
O O15 0.129568 0.414549 0.194674
O O16 0.377857 0.839494 0.471248
#
# Coordination Sequence:
#
# PCOD9346095 Si02
#       8
#     4   4   4   4   4   4   4   4
#     4  10  23  43  68  94 135 175 225 268 348 398
#     4  10  23  43  68  94 135 175 225 268 348 398
#     4  11  24  41  68  99 136 170 229 284 332 398
#     4  10  23  43  69  97 136 174 220 286 332 404
#     4  11  22  43  70  95 134 177 223 275 341 405
#     4  10  23  43  69  97 136 174 220 286 332 404
#     4  11  22  43  70  95 134 177 223 275 341 405
#     4  11  24  41  68  99 136 170 229 284 332 398
#
# _framework density 20.034644
#
# number of rings (size 3 to 8) (size 9 to 14) (size 15 to 20)
#    0.000    1.500    2.500    1.500    3.500   11.000 
#    0.000    1.250    0.000    0.000    0.000    0.000 
#    0.000    0.000    0.000    0.000    0.000    0.000 
#
# Total GULP energy -178713.774409 kJ/mol
# GULP energy per Si atom -5584.805450 kJ/mol
# Density = 1.998904 g / cm^3
# Si number density = 20.034644 Si / 1000 Ang^3
#
#
#
# Elastic Constant Matrix: (Units=GPa)
#
#
# Indices 1 2 3 4 5 6 
#
# 1 117.2200 45.7822 42.2331 0.0000 0.0000 0.0000
# 2 45.7822 104.5736 58.6831 0.0000 0.0000 0.0000
# 3 42.2331 58.6831 96.6760 0.0000 0.0000 0.0000
# 4 0.0000 0.0000 0.0000 41.6740 0.0000 0.0000
# 5 0.0000 0.0000 0.0000 0.0000 29.6108 0.0000
# 6 0.0000 0.0000 0.0000 0.0000 0.0000 25.1396
#
#
#
# Elastic Compliance Matrix: (Units=1/GPa)
#
#
# Indices 1 2 3 4 5 6 
#
# 1 0.010766 -0.003146 -0.002794 0.000000 0.000000 0.000000
# 2 -0.003146 0.015422 -0.007987 0.000000 0.000000 0.000000
# 3 -0.002794 -0.007987 0.016412 0.000000 0.000000 0.000000
# 4 0.000000 0.000000 0.000000 0.023996 0.000000 0.000000
# 5 0.000000 0.000000 0.000000 0.000000 0.033771 0.000000
# 6 0.000000 0.000000 0.000000 0.000000 0.000000 0.039778
#
#
# Mechanical properties :
#
#
# Convention : Reuss Voigt Hill
#
# Bulk Modulus (GPa) = 67.80761 67.98514 67.89637
# Shear Modulus (GPa) = 28.91606 30.73628 29.82617
#
# Velocity S-wave (km/s) = 3.80320 3.92108 3.86259
# Velocity P-wave (km/s) = 7.29414 7.38290 7.33866
#
# Compressibility (1/GPa) = 0.01474761
#
# Stress axis : x y z
#
# Youngs Moduli (GPa) = 92.88405 64.84314 60.92922
#
# Poissons Ratio (x) = 0.20397 0.17022
# Poissons Ratio (y) = 0.29218 0.48664
# Poissons Ratio (z) = 0.25950 0.51790
#
# Static dielectric constant tensor:
#      x y z
#    x 1.747280 0.000000 0.000000 
#    y 0.000000 1.699950 0.000000 
#    z 0.000000 0.000000 1.728810 
# 
# From -- ./inp_files/6492.got.cif
#   From: 2010.05.17/outbox.cif.g08.bks.cpg/sg33_4_cif.got.tgz:6492.got - 2010.06.03 17:15:25.
