data_PCOD9346253
_publ_section_title
;
Structure prediction by ZEFSAII (Michael W. Deem and Ramdas Pophale) SiO2 
 PCOD9346253
Probable space group: P N A 21
;
_chemical_formula_sum "Si O2"
_cell_formula_units_Z 20
_cell_length_a 8.845208
_cell_length_b 5.184150
_cell_length_c 18.454851
_cell_angle_alpha 90.000000
_cell_angle_beta 90.000000
_cell_angle_gamma 90.000000
_cell_volume 846.245071
_symmetry_space_group_name_H-M "P N A 21"
_symmetry_group_IT_number 33
_symmetry_cell_setting 'orthorhombic'
loop_
_space_group_symop_operation_xyz
x,y,z
-x,-y,1/2+z
1/2-x,1/2+y,1/2+z
1/2+x,1/2-y,z
loop_
_atom_site_type_symbol
_atom_site_label
_atom_site_fract_x
_atom_site_fract_y
_atom_site_fract_z
Si Si1 0.113488 0.571003 0.566760
Si Si2 0.015028 0.905647 0.857746
Si Si3 0.393899 0.434979 0.196392
Si Si4 0.153297 0.719979 0.126660
Si Si5 0.658165 0.891439 0.406597
O O1 0.251630 0.119494 0.695374
O O2 0.226560 0.330680 0.570102
O O3 0.133806 0.698056 0.489628
O O4 0.943088 0.488430 0.582764
O O5 0.946426 0.645222 0.892508
O O6 0.057596 0.843178 0.774592
O O7 0.170009 0.016246 0.892885
O O8 0.896012 0.143483 0.860625
O O9 0.343966 0.220830 0.139454
O O10 0.531478 0.581397 0.157533
#
# Coordination Sequence:
#
# PCOD9346253 Si02
#       5
#     4   4   4   4   4
#     4  11  25  43  74 101 144 187 246 293 363 431
#     4  12  29  49  76 109 154 195 245 306 378 441
#     4  11  25  43  74 101 144 187 246 293 363 431
#     4  10  24  42  70 104 138 182 250 296 350 422
#     4  12  29  49  76 109 154 195 245 306 378 441
#
# _framework density 23.633817000000001
#
# number of rings (size 3 to 8) (size 9 to 14) (size 15 to 20)
#    0.000    0.800    0.000    4.800   22.400    0.000 
#    0.000    0.000    0.000    0.000    0.000    0.000 
#    0.000    0.000    0.000    0.000    0.000    0.000 
#
# Total GULP energy -111886.421799 kJ/mol
# GULP energy per Si atom -5594.321090 kJ/mol
# Density = 2.358003 g / cm^3
# Si number density = 23.633817 Si / 1000 Ang^3
#
#
#
# Elastic Constant Matrix: (Units=GPa)
#
#
# Indices 1 2 3 4 5 6 
#
# 1 85.9444 12.6481 -18.2773 0.0000 0.0000 0.0000
# 2 12.6481 73.7548 1.9558 0.0000 0.0000 0.0000
# 3 -18.2773 1.9558 86.4001 0.0000 0.0000 0.0000
# 4 0.0000 0.0000 0.0000 29.8874 0.0000 0.0000
# 5 0.0000 0.0000 0.0000 0.0000 20.9273 0.0000
# 6 0.0000 0.0000 0.0000 0.0000 0.0000 45.9596
#
#
#
# Elastic Compliance Matrix: (Units=1/GPa)
#
#
# Indices 1 2 3 4 5 6 
#
# 1 0.012537 -0.002222 0.002702 0.000000 0.000000 0.000000
# 2 -0.002222 0.013960 -0.000786 0.000000 0.000000 0.000000
# 3 0.002702 -0.000786 0.012164 0.000000 0.000000 0.000000
# 4 0.000000 0.000000 0.000000 0.033459 0.000000 0.000000
# 5 0.000000 0.000000 0.000000 0.000000 0.047784 0.000000
# 6 0.000000 0.000000 0.000000 0.000000 0.000000 0.021758
#
#
# Mechanical properties :
#
#
# Convention : Reuss Voigt Hill
#
# Bulk Modulus (GPa) = 26.28088 26.52806 26.40447
# Shear Modulus (GPa) = 32.26716 36.00638 34.13677
#
# Velocity S-wave (km/s) = 3.69900 3.90745 3.80465
# Velocity P-wave (km/s) = 5.42104 5.62197 5.52242
#
# Compressibility (1/GPa) = 0.03805048
#
# Stress axis : x y z
#
# Youngs Moduli (GPa) = 79.76339 71.63193 82.21303
#
# Poissons Ratio (x) = 0.15914 -0.22217
# Poissons Ratio (y) = 0.17720 0.06462
# Poissons Ratio (z) = -0.21555 0.05630
#
# Static dielectric constant tensor:
#      x y z
#    x 1.857800 0.000000 0.000000 
#    y 0.000000 2.290790 0.000000 
#    z 0.000000 0.000000 1.923320 
# 
# From -- ./inp_files/8404.got.cif
#   From: 2010.05.17/outbox.cif.g08.bks.cpg/sg33_5_cif.got.tgz:8404.got - 2010.06.03 17:15:25.
