data_PCOD9346085
_publ_section_title
;
Structure prediction by ZEFSAII (Michael W. Deem and Ramdas Pophale) SiO2 
 PCOD9346085
Probable space group: P N A 21
;
_chemical_formula_sum "Si O2"
_cell_formula_units_Z 32
_cell_length_a 12.285998
_cell_length_b 9.991980
_cell_length_c 13.315883
_cell_angle_alpha 90.000000
_cell_angle_beta 90.000000
_cell_angle_gamma 90.000000
_cell_volume 1634.677056
_symmetry_space_group_name_H-M "P N A 21"
_symmetry_group_IT_number 33
_symmetry_cell_setting 'orthorhombic'
loop_
_space_group_symop_operation_xyz
x,y,z
-x,-y,1/2+z
1/2-x,1/2+y,1/2+z
1/2+x,1/2-y,z
loop_
_atom_site_type_symbol
_atom_site_label
_atom_site_fract_x
_atom_site_fract_y
_atom_site_fract_z
Si Si1 0.682434 0.314887 0.181430
Si Si2 0.647424 0.591823 0.674119
Si Si3 0.402443 0.486788 0.399274
Si Si4 0.279156 0.128842 0.549920
Si Si5 0.978339 0.533545 0.995687
Si Si6 0.245869 0.421175 0.579147
Si Si7 0.591581 0.288079 0.394643
Si Si8 0.017444 0.229452 0.017390
O O1 0.786190 0.224700 0.203837
O O2 0.710757 0.465385 0.152327
O O3 0.607844 0.314692 0.278286
O O4 0.623839 0.248274 0.085914
O O5 0.612446 0.529844 0.780617
O O6 0.719955 0.481908 0.617073
O O7 0.559888 0.645462 0.593087
O O8 0.296515 0.459872 0.469122
O O9 0.491060 0.376406 0.433352
O O10 0.449320 0.631823 0.427561
O O11 0.398655 0.076881 0.520862
O O12 0.285370 0.272719 0.604518
O O13 0.199287 0.166153 0.455783
O O14 0.938895 0.632408 0.907489
O O15 0.973076 0.373387 0.983555
O O16 0.885176 0.570339 0.077178
#
# Coordination Sequence:
#
# PCOD9346085 Si02
#       8
#     4   4   4   4   4   4   4   4
#     4  11  23  40  67  97 128 177 221 269 335 405
#     4  12  22  41  66  98 132 172 227 271 337 401
#     4  11  23  43  66  98 133 176 220 274 338 401
#     4  11  23  41  65  95 132 175 220 286 333 383
#     4  11  22  43  65  95 131 175 225 276 333 393
#     4  10  23  43  66  95 134 171 224 277 332 393
#     4  11  23  41  67  94 133 177 223 271 338 403
#     4  11  23  42  68  96 135 175 220 280 334 395
#
# _framework density 19.575731999999999
#
# number of rings (size 3 to 8) (size 9 to 14) (size 15 to 20)
#    0.000    1.000    6.250    1.500    0.000    0.000 
#    2.250    2.500    0.000    0.000    0.000    0.000 
#    0.000    0.000    0.000    0.000    0.000    0.000 
#
# Total GULP energy -178521.192000 kJ/mol
# GULP energy per Si atom -5578.787250 kJ/mol
# Density = 1.953118 g / cm^3
# Si number density = 19.575732 Si / 1000 Ang^3
#
#
#
# Elastic Constant Matrix: (Units=GPa)
#
#
# Indices 1 2 3 4 5 6 
#
# 1 97.0153 44.6979 40.6305 0.0000 0.0000 0.0000
# 2 44.6979 156.7131 62.4631 0.0000 0.0000 0.0000
# 3 40.6305 62.4631 87.9257 0.0000 0.0000 0.0000
# 4 0.0000 0.0000 0.0000 27.0153 0.0000 0.0000
# 5 0.0000 0.0000 0.0000 0.0000 17.9746 0.0000
# 6 0.0000 0.0000 0.0000 0.0000 0.0000 39.9235
#
#
#
# Elastic Compliance Matrix: (Units=1/GPa)
#
#
# Indices 1 2 3 4 5 6 
#
# 1 0.013156 -0.001854 -0.004762 0.000000 0.000000 0.000000
# 2 -0.001854 0.009163 -0.005653 0.000000 0.000000 0.000000
# 3 -0.004762 -0.005653 0.017590 0.000000 0.000000 0.000000
# 4 0.000000 0.000000 0.000000 0.037016 0.000000 0.000000
# 5 0.000000 0.000000 0.000000 0.000000 0.055634 0.000000
# 6 0.000000 0.000000 0.000000 0.000000 0.000000 0.025048
#
#
# Mechanical properties :
#
#
# Convention : Reuss Voigt Hill
#
# Bulk Modulus (GPa) = 65.05920 70.80411 67.93165
# Shear Modulus (GPa) = 26.69960 29.90687 28.30323
#
# Velocity S-wave (km/s) = 3.69713 3.91289 3.80654
# Velocity P-wave (km/s) = 7.17856 7.52742 7.35506
#
# Compressibility (1/GPa) = 0.01537062
#
# Stress axis : x y z
#
# Youngs Moduli (GPa) = 76.00831 109.13457 56.85206
#
# Poissons Ratio (x) = 0.20237 0.27074
# Poissons Ratio (y) = 0.14095 0.32136
# Poissons Ratio (z) = 0.36197 0.61689
#
# Static dielectric constant tensor:
#      x y z
#    x 1.745850 0.000000 0.000000 
#    y 0.000000 1.678930 0.000000 
#    z 0.000000 0.000000 1.661510 
# 
# From -- ./inp_files/8006.got.cif
#   From: 2010.05.17/outbox.cif.g08.bks.cpg/sg33_5_cif.got.tgz:8006.got - 2010.06.03 17:15:25.
