data_PCOD9346544
_publ_section_title
;
Structure prediction by ZEFSAII (Michael W. Deem and Ramdas Pophale) SiO2 
 PCOD9346544
Probable space group: P N A 21
;
_chemical_formula_sum "Si O2"
_cell_formula_units_Z 32
_cell_length_a 11.417395
_cell_length_b 17.849337
_cell_length_c 6.514136
_cell_angle_alpha 90.000000
_cell_angle_beta 90.000000
_cell_angle_gamma 90.000000
_cell_volume 1327.534868
_symmetry_space_group_name_H-M "P N A 21"
_symmetry_group_IT_number 33
_symmetry_cell_setting 'orthorhombic'
loop_
_space_group_symop_operation_xyz
x,y,z
-x,-y,1/2+z
1/2-x,1/2+y,1/2+z
1/2+x,1/2-y,z
loop_
_atom_site_type_symbol
_atom_site_label
_atom_site_fract_x
_atom_site_fract_y
_atom_site_fract_z
Si Si1 0.236941 0.169453 0.455780
Si Si2 0.800734 0.546633 0.521235
Si Si3 0.978889 0.814806 0.254402
Si Si4 0.711899 0.469542 0.154062
Si Si5 0.041958 0.929071 0.602613
Si Si6 0.547106 0.179426 0.058531
Si Si7 0.629504 0.920019 0.288685
Si Si8 0.404770 0.281578 0.365457
O O1 0.120287 0.174439 0.585697
O O2 0.225202 0.105487 0.287716
O O3 0.330335 0.141335 0.623688
O O4 0.277029 0.244654 0.342440
O O5 0.788853 0.530918 0.277117
O O6 0.665981 0.529808 0.585194
O O7 0.836202 0.630361 0.579799
O O8 0.890552 0.491796 0.640172
O O9 0.010224 0.884474 0.395270
O O10 0.939496 0.748582 0.404265
O O11 0.085868 0.792788 0.109319
O O12 0.571594 0.480235 0.143313
O O13 0.767852 0.449924 0.937021
O O14 0.065043 0.860900 0.762374
O O15 0.463047 0.119221 0.939746
O O16 0.488037 0.217570 0.259345
#
# Coordination Sequence:
#
# PCOD9346544 Si02
#       8
#     4   4   4   4   4   4   4   4
#     4  11  22  42  68 102 128 175 220 266 352 391
#     4  11  30  42  68  96 132 183 222 278 322 405
#     4  11  24  41  71  99 137 172 214 288 333 406
#     4  11  24  45  66  91 133 180 220 273 327 401
#     4  11  26  45  65 103 135 172 230 274 340 397
#     4  11  26  45  65 103 135 172 230 274 340 397
#     4  11  24  45  66  91 133 180 220 273 327 401
#     4  11  24  41  71  99 137 172 214 288 333 406
#
# _framework density 24.104828999999999
#
# number of rings (size 3 to 8) (size 9 to 14) (size 15 to 20)
#    0.000    1.000    5.000    0.000    7.000    2.000 
#    0.000    0.000    0.000    0.000    0.000    0.000 
#    0.000    0.000    0.000    0.000    0.000    0.000 
#
# Total GULP energy -178814.082796 kJ/mol
# GULP energy per Si atom -5587.940087 kJ/mol
# Density = 2.404997 g / cm^3
# Si number density = 24.104829 Si / 1000 Ang^3
#
#
#
# Elastic Constant Matrix: (Units=GPa)
#
#
# Indices 1 2 3 4 5 6 
#
# 1 28.4341 -5.1423 8.0564 0.0000 0.0000 0.0000
# 2 -5.1423 85.2755 31.6663 0.0000 0.0000 0.0000
# 3 8.0564 31.6663 98.4995 0.0000 0.0000 0.0000
# 4 0.0000 0.0000 0.0000 30.3030 0.0000 0.0000
# 5 0.0000 0.0000 0.0000 0.0000 30.8634 0.0000
# 6 0.0000 0.0000 0.0000 0.0000 0.0000 30.3350
#
#
#
# Elastic Compliance Matrix: (Units=1/GPa)
#
#
# Indices 1 2 3 4 5 6 
#
# 1 0.037066 0.003817 -0.004259 0.000000 0.000000 0.000000
# 2 0.003817 0.013709 -0.004720 0.000000 0.000000 0.000000
# 3 -0.004259 -0.004720 0.012018 0.000000 0.000000 0.000000
# 4 0.000000 0.000000 0.000000 0.033000 0.000000 0.000000
# 5 0.000000 0.000000 0.000000 0.000000 0.032401 0.000000
# 6 0.000000 0.000000 0.000000 0.000000 0.000000 0.032965
#
#
# Mechanical properties :
#
#
# Convention : Reuss Voigt Hill
#
# Bulk Modulus (GPa) = 19.05854 31.26334 25.16094
# Shear Modulus (GPa) = 26.45887 30.14220 28.30053
#
# Velocity S-wave (km/s) = 3.31669 3.54002 3.43017
# Velocity P-wave (km/s) = 4.75299 5.45041 5.11360
#
# Compressibility (1/GPa) = 0.05246992
#
# Stress axis : x y z
#
# Youngs Moduli (GPa) = 26.97899 72.94257 83.20899
#
# Poissons Ratio (x) = -0.27839 0.35436
# Poissons Ratio (y) = -0.10297 0.39271
# Poissons Ratio (z) = 0.11489 0.34426
#
# Static dielectric constant tensor:
#      x y z
#    x 2.017100 0.000000 0.000000 
#    y 0.000000 1.904060 0.000000 
#    z 0.000000 0.000000 1.936550 
# 
# From -- ./inp_files/1023.got.cif
#   From: 2010.05.17/outbox.cif.g08.bks.cpg/sg33_1_cif.got.tgz:1023.got - 2010.06.03 17:15:25.
