data_PCOD9346798
_publ_section_title
;
Structure prediction by ZEFSAII (Michael W. Deem and Ramdas Pophale) SiO2 
 PCOD9346798
Probable space group: P N A 21
;
_chemical_formula_sum "Si O2"
_cell_formula_units_Z 24
_cell_length_a 13.427476
_cell_length_b 8.034061
_cell_length_c 9.147667
_cell_angle_alpha 90.000000
_cell_angle_beta 90.000000
_cell_angle_gamma 90.000000
_cell_volume 986.824348
_symmetry_space_group_name_H-M "P N A 21"
_symmetry_group_IT_number 33
_symmetry_cell_setting 'orthorhombic'
loop_
_space_group_symop_operation_xyz
x,y,z
-x,-y,1/2+z
1/2-x,1/2+y,1/2+z
1/2+x,1/2-y,z
loop_
_atom_site_type_symbol
_atom_site_label
_atom_site_fract_x
_atom_site_fract_y
_atom_site_fract_z
Si Si1 0.269066 0.931377 0.659900
Si Si2 0.084021 0.670611 0.987596
Si Si3 0.430403 0.465720 0.726874
Si Si4 0.775655 0.418455 0.228306
Si Si5 0.126301 0.488442 0.460804
Si Si6 0.563498 0.634188 0.526762
O O1 0.272605 0.732950 0.637753
O O2 0.157436 0.967087 0.598905
O O3 0.355598 0.027732 0.575256
O O4 0.295556 0.965498 0.830107
O O5 0.150359 0.672069 0.840201
O O6 0.973186 0.617656 0.941942
O O7 0.075733 0.823596 0.101949
O O8 0.319601 0.489785 0.791094
O O9 0.481033 0.622406 0.651484
O O10 0.486535 0.430356 0.877275
O O11 0.827478 0.547973 0.119821
O O12 0.094747 0.680365 0.481554
#
# Coordination Sequence:
#
# PCOD9346798 Si02
#       6
#     4   4   4   4   4   4
#     4  11  24  49  71 103 143 188 242 292 360 431
#     4  12  25  47  74 105 143 187 242 292 361 431
#     4  12  27  46  72 109 142 190 239 302 361 429
#     4  11  26  44  73 104 144 187 236 299 360 425
#     4  11  25  47  73 106 142 192 236 298 360 437
#     4  11  27  47  73 105 146 188 241 299 364 427
#
# _framework density 24.320435
#
# number of rings (size 3 to 8) (size 9 to 14) (size 15 to 20)
#    0.000    0.667    3.333    3.000    9.333    1.333 
#    0.000    0.000    0.000    0.000    0.000    0.000 
#    0.000    0.000    0.000    0.000    0.000    0.000 
#
# Total GULP energy -133971.634384 kJ/mol
# GULP energy per Si atom -5582.151433 kJ/mol
# Density = 2.426508 g / cm^3
# Si number density = 24.320435 Si / 1000 Ang^3
#
#
#
# Elastic Constant Matrix: (Units=GPa)
#
#
# Indices 1 2 3 4 5 6 
#
# 1 101.9461 31.8525 78.7270 0.0000 0.0000 0.0000
# 2 31.8525 53.8486 13.3832 0.0000 0.0000 0.0000
# 3 78.7270 13.3832 119.3880 0.0000 0.0000 0.0000
# 4 0.0000 0.0000 0.0000 24.0332 0.0000 0.0000
# 5 0.0000 0.0000 0.0000 0.0000 47.8016 0.0000
# 6 0.0000 0.0000 0.0000 0.0000 0.0000 34.3966
#
#
#
# Elastic Compliance Matrix: (Units=1/GPa)
#
#
# Indices 1 2 3 4 5 6 
#
# 1 0.025061 -0.011024 -0.015290 0.000000 0.000000 0.000000
# 2 -0.011024 0.023952 0.004585 0.000000 0.000000 0.000000
# 3 -0.015290 0.004585 0.017945 0.000000 0.000000 0.000000
# 4 0.000000 0.000000 0.000000 0.041609 0.000000 0.000000
# 5 0.000000 0.000000 0.000000 0.000000 0.020920 0.000000
# 6 0.000000 0.000000 0.000000 0.000000 0.000000 0.029073
#
#
# Mechanical properties :
#
#
# Convention : Reuss Voigt Hill
#
# Bulk Modulus (GPa) = 42.55544 58.12312 50.33928
# Shear Modulus (GPa) = 23.82635 31.32762 27.57699
#
# Velocity S-wave (km/s) = 3.13339 3.59293 3.37100
# Velocity P-wave (km/s) = 5.53413 6.41584 5.99123
#
# Compressibility (1/GPa) = 0.02349876
#
# Stress axis : x y z
#
# Youngs Moduli (GPa) = 39.90242 41.74993 55.72669
#
# Poissons Ratio (x) = 0.46025 0.85206
# Poissons Ratio (y) = 0.43989 -0.25548
# Poissons Ratio (z) = 0.61011 -0.19140
#
# Static dielectric constant tensor:
#      x y z
#    x 2.039760 0.000000 0.000000 
#    y 0.000000 1.944120 0.000000 
#    z 0.000000 0.000000 2.053850 
# 
# From -- ./inp_files/3721.got.cif
#   From: 2010.05.17/outbox.cif.g08.bks.cpg/sg33_2_cif.got.tgz:3721.got - 2010.06.03 17:15:25.
