data_PCOD9346804
_publ_section_title
;
Structure prediction by ZEFSAII (Michael W. Deem and Ramdas Pophale) SiO2 
 PCOD9346804
Probable space group: P N A 21
;
_chemical_formula_sum "Si O2"
_cell_formula_units_Z 20
_cell_length_a 15.096393
_cell_length_b 9.084467
_cell_length_c 5.313431
_cell_angle_alpha 90.000000
_cell_angle_beta 90.000000
_cell_angle_gamma 90.000000
_cell_volume 728.698189
_symmetry_space_group_name_H-M "P N A 21"
_symmetry_group_IT_number 33
_symmetry_cell_setting 'orthorhombic'
loop_
_space_group_symop_operation_xyz
x,y,z
-x,-y,1/2+z
1/2-x,1/2+y,1/2+z
1/2+x,1/2-y,z
loop_
_atom_site_type_symbol
_atom_site_label
_atom_site_fract_x
_atom_site_fract_y
_atom_site_fract_z
Si Si1 0.744410 0.858681 0.952800
Si Si2 0.079912 0.586662 0.271411
Si Si3 0.104064 0.319187 0.620494
Si Si4 0.958541 0.985037 0.314279
Si Si5 0.678947 0.665711 0.572496
O O1 0.749805 0.775919 0.689646
O O2 0.642901 0.888295 0.029243
O O3 0.796135 0.748381 0.144094
O O4 0.787275 0.019199 0.938499
O O5 0.109676 0.430463 0.386155
O O6 0.111561 0.727499 0.432132
O O7 0.973320 0.590997 0.268766
O O8 0.056256 0.160777 0.640737
O O9 0.873314 0.089398 0.305884
O O10 0.975761 0.941732 0.603904
#
# Coordination Sequence:
#
# PCOD9346804 Si02
#       5
#     4   4   4   4   4
#     4  11  26  53  75 116 158 217 278 353 436 517
#     4  12  27  48  77 117 158 210 281 351 425 522
#     4  11  27  49  78 117 158 219 273 355 425 518
#     4  11  24  49  77 117 161 218 280 347 423 512
#     4  11  26  47  77 111 165 212 280 348 431 517
#
# _framework density 27.446204999999999
#
# number of rings (size 3 to 8) (size 9 to 14) (size 15 to 20)
#    0.000    0.800    4.000    1.200    8.400    0.000 
#   10.800    0.000    0.000    0.000    0.000    0.000 
#    0.000    0.000    0.000    0.000    0.000    0.000 
#
# Total GULP energy -111363.634741 kJ/mol
# GULP energy per Si atom -5568.181737 kJ/mol
# Density = 2.738374 g / cm^3
# Si number density = 27.446205 Si / 1000 Ang^3
#
#
#
# Elastic Constant Matrix: (Units=GPa)
#
#
# Indices 1 2 3 4 5 6 
#
# 1 121.7914 85.6934 40.1376 0.0000 0.0000 0.0000
# 2 85.6934 141.1225 52.3100 0.0000 0.0000 0.0000
# 3 40.1376 52.3100 104.3864 0.0000 0.0000 0.0000
# 4 0.0000 0.0000 0.0000 49.0722 0.0000 0.0000
# 5 0.0000 0.0000 0.0000 0.0000 32.6225 0.0000
# 6 0.0000 0.0000 0.0000 0.0000 0.0000 -628.8961
#
#
#
# Elastic Compliance Matrix: (Units=1/GPa)
#
#
# Indices 1 2 3 4 5 6 
#
# 1 0.014507 -0.008279 -0.001429 0.000000 0.000000 0.000000
# 2 -0.008279 0.013428 -0.003545 0.000000 0.000000 0.000000
# 3 -0.001429 -0.003545 0.011906 0.000000 0.000000 0.000000
# 4 0.000000 0.000000 0.000000 0.020378 0.000000 0.000000
# 5 0.000000 0.000000 0.000000 0.000000 0.030654 0.000000
# 6 0.000000 0.000000 0.000000 0.000000 0.000000 -0.001590
#
#
# Mechanical properties :
#
#
# Convention : Reuss Voigt Hill
#
# Bulk Modulus (GPa) = 75.00212 80.39803 77.70008
# Shear Modulus (GPa) = 41.58527 -96.82967 -27.62220
#
# Velocity S-wave (km/s) = 3.89672 -5.94612 -3.17584
# Velocity P-wave (km/s) = 6.90161 4.21726 3.86309
#
# Compressibility (1/GPa) = 0.01333296
#
# Stress axis : x y z
#
# Youngs Moduli (GPa) = 68.93119 74.47298 83.99145
#
# Poissons Ratio (x) = 0.61659 0.12004
# Poissons Ratio (y) = 0.57071 0.29778
# Poissons Ratio (z) = 0.09852 0.26403
#
# Static dielectric constant tensor:
#      x y z
#    x 2.369480 0.000000 0.000000 
#    y 0.000000 2.108240 0.000000 
#    z 0.000000 0.000000 2.399140 
# 
# From -- ./inp_files/1655.got.cif
#   From: 2010.05.17/outbox.cif.g08.bks.cpg/sg33_1_cif.got.tgz:1655.got - 2010.06.03 17:15:25.
