data_PCOD9346478
_publ_section_title
;
Structure prediction by ZEFSAII (Michael W. Deem and Ramdas Pophale) SiO2 
 PCOD9346478
Probable space group: P N A 21
;
_chemical_formula_sum "Si O2"
_cell_formula_units_Z 32
_cell_length_a 16.758796
_cell_length_b 12.963199
_cell_length_c 6.472669
_cell_angle_alpha 90.000000
_cell_angle_beta 90.000000
_cell_angle_gamma 90.000000
_cell_volume 1406.171855
_symmetry_space_group_name_H-M "P N A 21"
_symmetry_group_IT_number 33
_symmetry_cell_setting 'orthorhombic'
loop_
_space_group_symop_operation_xyz
x,y,z
-x,-y,1/2+z
1/2-x,1/2+y,1/2+z
1/2+x,1/2-y,z
loop_
_atom_site_type_symbol
_atom_site_label
_atom_site_fract_x
_atom_site_fract_y
_atom_site_fract_z
Si Si1 0.330931 0.148844 0.581610
Si Si2 0.376871 0.959082 0.340786
Si Si3 0.787859 0.472775 0.955152
Si Si4 0.387414 0.343762 0.756136
Si Si5 0.760973 0.132876 0.121395
Si Si6 0.121814 0.075085 0.114606
Si Si7 0.440067 0.749750 0.304852
Si Si8 0.330579 0.709133 0.925910
O O1 0.340517 0.271902 0.592048
O O2 0.239291 0.138060 0.514923
O O3 0.385540 0.073072 0.444323
O O4 0.333404 0.108894 0.814806
O O5 0.299210 0.910985 0.450508
O O6 0.440223 0.868579 0.386537
O O7 0.352696 0.976610 0.103924
O O8 0.738125 0.546708 0.800302
O O9 0.717714 0.425932 0.091046
O O10 0.400752 0.457113 0.659677
O O11 0.470097 0.283083 0.764940
O O12 0.339967 0.346880 0.979281
O O13 0.712055 0.221220 0.248604
O O14 0.090604 0.150713 0.936385
O O15 0.102861 0.138403 0.320281
O O16 0.377417 0.759490 0.115705
#
# Coordination Sequence:
#
# PCOD9346478 Si02
#       8
#     4   4   4   4   4   4   4   4
#     4  11  24  44  72 104 134 182 250 305 350 428
#     4  11  22  46  72 102 135 187 244 305 356 426
#     4  11  20  41  76 105 132 180 246 308 352 415
#     4  12  28  47  66 110 152 191 237 299 379 450
#     4  11  22  41  74 102 140 181 247 306 355 423
#     4  12  24  43  70 103 141 191 232 293 367 440
#     4  12  28  47  68 103 154 190 236 296 379 448
#     4  12  22  43  74 105 136 188 246 304 354 422
#
# _framework density 22.756822
#
# number of rings (size 3 to 8) (size 9 to 14) (size 15 to 20)
#    0.000    0.500    6.250    3.000    1.750    0.000 
#    4.500    0.000    0.000    0.000    0.000    0.000 
#    0.000    0.000    0.000    0.000    0.000    0.000 
#
# Total GULP energy -178235.091392 kJ/mol
# GULP energy per Si atom -5569.846606 kJ/mol
# Density = 2.270503 g / cm^3
# Si number density = 22.756822 Si / 1000 Ang^3
#
#
#
# Elastic Constant Matrix: (Units=GPa)
#
#
# Indices 1 2 3 4 5 6 
#
# 1 18.9161 -23.1071 -4.4364 0.0000 0.0000 0.0000
# 2 -23.1071 73.9923 23.4553 0.0000 0.0000 0.0000
# 3 -4.4364 23.4553 60.8245 0.0000 0.0000 0.0000
# 4 0.0000 0.0000 0.0000 42.7038 0.0000 0.0000
# 5 0.0000 0.0000 0.0000 0.0000 3.5330 0.0000
# 6 0.0000 0.0000 0.0000 0.0000 0.0000 18.7982
#
#
#
# Elastic Compliance Matrix: (Units=1/GPa)
#
#
# Indices 1 2 3 4 5 6 
#
# 1 0.086628 0.028539 -0.004687 0.000000 0.000000 0.000000
# 2 0.028539 0.024799 -0.007481 0.000000 0.000000 0.000000
# 3 -0.004687 -0.007481 0.018984 0.000000 0.000000 0.000000
# 4 0.000000 0.000000 0.000000 0.023417 0.000000 0.000000
# 5 0.000000 0.000000 0.000000 0.000000 0.283048 0.000000
# 6 0.000000 0.000000 0.000000 0.000000 0.000000 0.053197
#
#
# Mechanical properties :
#
#
# Convention : Reuss Voigt Hill
#
# Bulk Modulus (GPa) = 6.12928 16.17294 11.15111
# Shear Modulus (GPa) = 9.77107 23.52839 16.64973
#
# Velocity S-wave (km/s) = 2.07437 3.21893 2.70781
# Velocity P-wave (km/s) = 2.90458 4.57576 3.83237
#
# Compressibility (1/GPa) = 0.16315129
#
# Stress axis : x y z
#
# Youngs Moduli (GPa) = 11.54367 40.32441 52.67617
#
# Poissons Ratio (x) = -1.15081 0.24688
# Poissons Ratio (y) = -0.32944 0.39409
# Poissons Ratio (z) = 0.05410 0.30169
#
# Static dielectric constant tensor:
#      x y z
#    x 1.860930 0.000000 0.000000 
#    y 0.000000 2.055190 0.000000 
#    z 0.000000 0.000000 1.923580 
# 
# From -- ./inp_files/1834.got.cif
#   From: 2010.05.17/outbox.cif.g08.bks.cpg/sg33_1_cif.got.tgz:1834.got - 2010.06.03 17:15:25.
