data_PCOD9346783
_publ_section_title
;
Structure prediction by ZEFSAII (Michael W. Deem and Ramdas Pophale) SiO2 
 PCOD9346783
Probable space group: P N A 21
;
_chemical_formula_sum "Si O2"
_cell_formula_units_Z 20
_cell_length_a 15.773107
_cell_length_b 10.906628
_cell_length_c 5.095493
_cell_angle_alpha 90.000000
_cell_angle_beta 90.000000
_cell_angle_gamma 90.000000
_cell_volume 876.584848
_symmetry_space_group_name_H-M "P N A 21"
_symmetry_group_IT_number 33
_symmetry_cell_setting 'orthorhombic'
loop_
_space_group_symop_operation_xyz
x,y,z
-x,-y,1/2+z
1/2-x,1/2+y,1/2+z
1/2+x,1/2-y,z
loop_
_atom_site_type_symbol
_atom_site_label
_atom_site_fract_x
_atom_site_fract_y
_atom_site_fract_z
Si Si1 0.126414 0.633163 0.094010
Si Si2 0.553924 0.203579 0.614406
Si Si3 0.190224 0.501358 0.593941
Si Si4 0.486363 0.632842 0.607111
Si Si5 0.871405 0.088130 0.753124
O O1 0.183075 0.561194 0.306536
O O2 0.138853 0.778000 0.129260
O O3 0.026680 0.613396 0.153579
O O4 0.144761 0.589785 0.802048
O O5 0.638679 0.125871 0.587448
O O6 0.534174 0.285155 0.359317
O O7 0.553148 0.292636 0.863330
O O8 0.283005 0.479137 0.711966
O O9 0.585856 0.613745 0.537978
O O10 0.441249 0.501802 0.627640
#
# Coordination Sequence:
#
# PCOD9346783 Si02
#       5
#     4   4   4   4   4
#     4  11  25  45  68 103 144 186 231 296 360 428
#     4  11  24  47  74 104 142 190 234 293 368 434
#     4  12  27  42  75 104 146 181 243 295 357 423
#     4  11  25  46  74 102 143 190 240 290 363 432
#     4  11  27  46  75 105 145 189 246 294 360 427
#
# _framework density 22.815816000000002
#
# number of rings (size 3 to 8) (size 9 to 14) (size 15 to 20)
#    0.000    0.800    0.000    7.200    5.600    8.000 
#    0.000    0.000    0.000    0.000    0.000    0.000 
#    0.000    0.000    0.000    0.000    0.000    0.000 
#
# Total GULP energy -111958.292364 kJ/mol
# GULP energy per Si atom -5597.914618 kJ/mol
# Density = 2.276389 g / cm^3
# Si number density = 22.815816 Si / 1000 Ang^3
#
#
#
# Elastic Constant Matrix: (Units=GPa)
#
#
# Indices 1 2 3 4 5 6 
#
# 1 100.5693 38.3344 5.0236 0.0000 0.0000 0.0000
# 2 38.3344 81.3565 31.4750 0.0000 0.0000 0.0000
# 3 5.0236 31.4750 130.1738 0.0000 0.0000 0.0000
# 4 0.0000 0.0000 0.0000 41.5366 0.0000 0.0000
# 5 0.0000 0.0000 0.0000 0.0000 19.4931 0.0000
# 6 0.0000 0.0000 0.0000 0.0000 0.0000 5.4198
#
#
#
# Elastic Compliance Matrix: (Units=1/GPa)
#
#
# Indices 1 2 3 4 5 6 
#
# 1 0.012241 -0.006162 0.001017 0.000000 0.000000 0.000000
# 2 -0.006162 0.016661 -0.003791 0.000000 0.000000 0.000000
# 3 0.001017 -0.003791 0.008559 0.000000 0.000000 0.000000
# 4 0.000000 0.000000 0.000000 0.024075 0.000000 0.000000
# 5 0.000000 0.000000 0.000000 0.000000 0.051300 0.000000
# 6 0.000000 0.000000 0.000000 0.000000 0.000000 0.184508
#
#
# Mechanical properties :
#
#
# Convention : Reuss Voigt Hill
#
# Bulk Modulus (GPa) = 51.04106 51.30729 51.17417
# Shear Modulus (GPa) = 15.54020 29.10766 22.32393
#
# Velocity S-wave (km/s) = 2.61265 3.57566 3.13140
# Velocity P-wave (km/s) = 5.61433 6.29155 5.96256
#
# Compressibility (1/GPa) = 0.01959207
#
# Stress axis : x y z
#
# Youngs Moduli (GPa) = 81.69139 60.01885 116.83114
#
# Poissons Ratio (x) = 0.36981 -0.11886
# Poissons Ratio (y) = 0.50335 0.44289
# Poissons Ratio (z) = -0.08311 0.22752
#
# Static dielectric constant tensor:
#      x y z
#    x 1.874190 0.000000 0.000000 
#    y 0.000000 1.823510 0.000000 
#    z 0.000000 0.000000 1.864280 
# 
# From -- ./inp_files/1617.got.cif
#   From: 2010.05.17/outbox.cif.g08.bks.cpg/sg33_1_cif.got.tgz:1617.got - 2010.06.03 17:15:25.
