data_PCOD9346490
_publ_section_title
;
Structure prediction by ZEFSAII (Michael W. Deem and Ramdas Pophale) SiO2 
 PCOD9346490
Probable space group: P N A 21
;
_chemical_formula_sum "Si O2"
_cell_formula_units_Z 32
_cell_length_a 8.616347
_cell_length_b 8.693994
_cell_length_c 19.302613
_cell_angle_alpha 90.000000
_cell_angle_beta 90.000000
_cell_angle_gamma 90.000000
_cell_volume 1445.967795
_symmetry_space_group_name_H-M "P N A 21"
_symmetry_group_IT_number 33
_symmetry_cell_setting 'orthorhombic'
loop_
_space_group_symop_operation_xyz
x,y,z
-x,-y,1/2+z
1/2-x,1/2+y,1/2+z
1/2+x,1/2-y,z
loop_
_atom_site_type_symbol
_atom_site_label
_atom_site_fract_x
_atom_site_fract_y
_atom_site_fract_z
Si Si1 0.885005 0.549062 0.862770
Si Si2 0.035356 0.442978 0.525178
Si Si3 0.870834 0.162808 0.576900
Si Si4 0.438694 0.316451 0.323622
Si Si5 0.344446 0.808528 0.462553
Si Si6 0.790610 0.740656 0.313660
Si Si7 0.478031 0.486910 0.958520
Si Si8 0.040124 0.930153 0.230685
O O1 0.927521 0.579379 0.943183
O O2 0.739625 0.658350 0.842446
O O3 0.020767 0.637511 0.822337
O O4 0.818958 0.381241 0.841534
O O5 0.196930 0.399995 0.562688
O O6 0.898166 0.343228 0.561131
O O7 0.960035 0.612799 0.517227
O O8 0.923833 0.107188 0.651850
O O9 0.994964 0.100224 0.521205
O O10 0.517293 0.418824 0.386566
O O11 0.485505 0.400580 0.252606
O O12 0.377322 0.830766 0.380282
O O13 0.373816 0.627062 0.466083
O O14 0.174648 0.883122 0.467335
O O15 0.689239 0.615689 0.275448
O O16 0.906689 0.817894 0.259881
#
# Coordination Sequence:
#
# PCOD9346490 Si02
#       8
#     4   4   4   4   4   4   4   4
#     4  11  21  38  63  96 124 159 223 282 325 384
#     4  12  23  39  66  96 131 173 221 284 331 398
#     4  12  25  43  62  99 140 180 224 276 347 414
#     4  11  23  39  64  94 129 167 221 278 329 391
#     4  12  23  40  70  98 127 169 228 283 331 387
#     4  11  21  41  65  95 129 171 222 284 336 396
#     4  12  22  42  64  99 132 171 222 282 334 390
#     4  11  24  42  64  93 138 178 217 275 337 416
#
# _framework density 22.130507999999999
#
# number of rings (size 3 to 8) (size 9 to 14) (size 15 to 20)
#    0.000    0.500    6.250    3.750    1.750    1.000 
#    0.000    6.250    0.000    0.000    0.000    0.000 
#    0.000    0.000    0.000    0.000    0.000    0.000 
#
# Total GULP energy -178537.117699 kJ/mol
# GULP energy per Si atom -5579.284928 kJ/mol
# Density = 2.208014 g / cm^3
# Si number density = 22.130508 Si / 1000 Ang^3
#
#
#
# Elastic Constant Matrix: (Units=GPa)
#
#
# Indices 1 2 3 4 5 6 
#
# 1 59.9920 -4.1925 -17.2625 0.0000 0.0000 0.0000
# 2 -4.1925 67.0756 9.8071 0.0000 0.0000 0.0000
# 3 -17.2625 9.8071 74.6997 0.0000 0.0000 0.0000
# 4 0.0000 0.0000 0.0000 23.9251 0.0000 0.0000
# 5 0.0000 0.0000 0.0000 0.0000 10.3893 0.0000
# 6 0.0000 0.0000 0.0000 0.0000 0.0000 39.9548
#
#
#
# Elastic Compliance Matrix: (Units=1/GPa)
#
#
# Indices 1 2 3 4 5 6 
#
# 1 0.017874 0.000523 0.004062 0.000000 0.000000 0.000000
# 2 0.000523 0.015216 -0.001877 0.000000 0.000000 0.000000
# 3 0.004062 -0.001877 0.014572 0.000000 0.000000 0.000000
# 4 0.000000 0.000000 0.000000 0.041797 0.000000 0.000000
# 5 0.000000 0.000000 0.000000 0.000000 0.096253 0.000000
# 6 0.000000 0.000000 0.000000 0.000000 0.000000 0.025028
#
#
# Mechanical properties :
#
#
# Convention : Reuss Voigt Hill
#
# Bulk Modulus (GPa) = 18.83987 19.83019 19.33503
# Shear Modulus (GPa) = 22.41990 29.08151 25.75070
#
# Velocity S-wave (km/s) = 3.18634 3.62897 3.41484
# Velocity P-wave (km/s) = 4.69772 5.15163 4.92990
#
# Compressibility (1/GPa) = 0.05307891
#
# Stress axis : x y z
#
# Youngs Moduli (GPa) = 55.94642 65.72183 68.62479
#
# Poissons Ratio (x) = -0.03439 -0.27875
# Poissons Ratio (y) = -0.02928 0.12879
# Poissons Ratio (z) = -0.22725 0.12334
#
# Static dielectric constant tensor:
#      x y z
#    x 1.911440 0.000000 0.000000 
#    y 0.000000 1.875250 0.000000 
#    z 0.000000 0.000000 1.765690 
# 
# From -- ./inp_files/8962.got.cif
#   From: 2010.05.17/outbox.cif.g08.bks.cpg/sg33_5_cif.got.tgz:8962.got - 2010.06.03 17:15:25.
