data_PCOD9346437
_publ_section_title
;
Structure prediction by ZEFSAII (Michael W. Deem and Ramdas Pophale) SiO2 
 PCOD9346437
Probable space group: P N A 21
;
_chemical_formula_sum "Si O2"
_cell_formula_units_Z 28
_cell_length_a 27.030450
_cell_length_b 5.715415
_cell_length_c 7.868759
_cell_angle_alpha 90.000000
_cell_angle_beta 90.000000
_cell_angle_gamma 90.000000
_cell_volume 1215.646462
_symmetry_space_group_name_H-M "P N A 21"
_symmetry_group_IT_number 33
_symmetry_cell_setting 'orthorhombic'
loop_
_space_group_symop_operation_xyz
x,y,z
-x,-y,1/2+z
1/2-x,1/2+y,1/2+z
1/2+x,1/2-y,z
loop_
_atom_site_type_symbol
_atom_site_label
_atom_site_fract_x
_atom_site_fract_y
_atom_site_fract_z
Si Si1 0.766972 0.007814 0.137450
Si Si2 0.220106 0.996162 0.239718
Si Si3 0.392436 0.464277 0.795820
Si Si4 0.375598 0.328354 0.180757
Si Si5 0.444413 0.530440 0.472296
Si Si6 0.969381 0.756364 0.954113
Si Si7 0.560678 0.035585 0.808661
O O1 0.740077 0.261302 0.158441
O O2 0.822145 0.059195 0.209294
O O3 0.743271 0.762031 0.201108
O O4 0.772250 0.966405 0.938609
O O5 0.161347 0.983162 0.214179
O O6 0.426499 0.388201 0.636946
O O7 0.418600 0.705677 0.855209
O O8 0.386935 0.333972 0.978215
O O9 0.415637 0.456116 0.300900
O O10 0.386445 0.070913 0.252473
O O11 0.503592 0.509593 0.465584
O O12 0.431554 0.801756 0.471551
O O13 0.013652 0.622351 0.861184
O O14 0.958563 0.656452 0.137326
#
# Coordination Sequence:
#
# PCOD9346437 Si02
#       7
#     4   4   4   4   4   4   4
#     4  11  26  49  77 110 150 194 253 323 389 457
#     4  11  27  48  78 112 148 198 250 322 390 459
#     4  11  25  45  70 104 144 187 249 303 371 455
#     4  10  26  45  69 101 141 189 247 309 370 452
#     4  11  24  44  68 101 141 192 241 303 370 444
#     4  11  24  41  67 103 148 188 250 300 372 446
#     4  11  24  42  71 105 142 206 242 312 376 453
#
# _framework density 23.033014999999999
#
# number of rings (size 3 to 8) (size 9 to 14) (size 15 to 20)
#    0.000    1.143    1.429    2.571   12.000    2.286 
#    2.571    0.000    0.000    0.000    0.000    0.000 
#    0.000    0.000    0.000    0.000    0.000    0.000 
#
# Total GULP energy -155943.164382 kJ/mol
# GULP energy per Si atom -5569.398728 kJ/mol
# Density = 2.298059 g / cm^3
# Si number density = 23.033015 Si / 1000 Ang^3
#
#
#
# Elastic Constant Matrix: (Units=GPa)
#
#
# Indices 1 2 3 4 5 6 
#
# 1 114.7233 30.4876 11.6411 0.0000 0.0000 0.0000
# 2 30.4876 55.9071 4.7617 0.0000 0.0000 0.0000
# 3 11.6411 4.7617 50.0365 0.0000 0.0000 0.0000
# 4 0.0000 0.0000 0.0000 19.6296 0.0000 0.0000
# 5 0.0000 0.0000 0.0000 0.0000 19.0265 0.0000
# 6 0.0000 0.0000 0.0000 0.0000 0.0000 -13.2787
#
#
#
# Elastic Compliance Matrix: (Units=1/GPa)
#
#
# Indices 1 2 3 4 5 6 
#
# 1 0.010368 -0.005493 -0.001889 0.000000 0.000000 0.000000
# 2 -0.005493 0.020943 -0.000715 0.000000 0.000000 0.000000
# 3 -0.001889 -0.000715 0.020493 0.000000 0.000000 0.000000
# 4 0.000000 0.000000 0.000000 0.050944 0.000000 0.000000
# 5 0.000000 0.000000 0.000000 0.000000 0.052558 0.000000
# 6 0.000000 0.000000 0.000000 0.000000 0.000000 -0.075309
#
#
# Mechanical properties :
#
#
# Convention : Reuss Voigt Hill
#
# Bulk Modulus (GPa) = 28.08258 34.93861 31.51060
# Shear Modulus (GPa) = 46.26962 16.66059 31.46511
#
# Velocity S-wave (km/s) = 4.48687 2.69241 3.70007
# Velocity P-wave (km/s) = 6.24992 4.98671 5.65370
#
# Compressibility (1/GPa) = 0.03560927
#
# Stress axis : x y z
#
# Youngs Moduli (GPa) = 96.44945 47.74807 48.79710
#
# Poissons Ratio (x) = 0.26228 0.09220
# Poissons Ratio (y) = 0.52981 0.03489
# Poissons Ratio (z) = 0.18223 0.03414
#
# Static dielectric constant tensor:
#      x y z
#    x 1.897380 0.000000 0.000000 
#    y 0.000000 2.253510 0.000000 
#    z 0.000000 0.000000 1.862070 
# 
# From -- ./inp_files/5242.got.cif
#   From: 2010.05.17/outbox.cif.g08.bks.cpg/sg33_3_cif.got.tgz:5242.got - 2010.06.03 17:15:25.
