data_PCOD9346426
_publ_section_title
;
Structure prediction by ZEFSAII (Michael W. Deem and Ramdas Pophale) SiO2 
 PCOD9346426
Probable space group: P N A 21
;
_chemical_formula_sum "Si O2"
_cell_formula_units_Z 20
_cell_length_a 10.883562
_cell_length_b 14.221333
_cell_length_c 4.588074
_cell_angle_alpha 90.000000
_cell_angle_beta 90.000000
_cell_angle_gamma 90.000000
_cell_volume 710.136402
_symmetry_space_group_name_H-M "P N A 21"
_symmetry_group_IT_number 33
_symmetry_cell_setting 'orthorhombic'
loop_
_space_group_symop_operation_xyz
x,y,z
-x,-y,1/2+z
1/2-x,1/2+y,1/2+z
1/2+x,1/2-y,z
loop_
_atom_site_type_symbol
_atom_site_label
_atom_site_fract_x
_atom_site_fract_y
_atom_site_fract_z
Si Si1 0.680878 0.083440 0.947690
Si Si2 0.268587 0.118806 0.392244
Si Si3 0.532710 0.154013 0.452967
Si Si4 0.635515 0.693701 0.052613
Si Si5 0.013492 0.067042 0.128455
O O1 0.572101 0.082455 0.706238
O O2 0.792572 0.122792 0.757122
O O3 0.716744 0.980068 0.059792
O O4 0.638386 0.148705 0.211857
O O5 0.408063 0.130471 0.271233
O O6 0.268356 0.218192 0.553598
O O7 0.149186 0.106230 0.196283
O O8 0.490214 0.248732 0.622227
O O9 0.586471 0.638689 0.765154
O O10 0.991021 0.968009 0.298277
#
# Coordination Sequence:
#
# PCOD9346426 Si02
#       5
#     4   4   4   4   4
#     4  12  23  50  73 115 155 199 265 324 397 485
#     4  10  25  49  77 110 153 207 255 332 393 479
#     4  10  27  43  78 110 151 198 261 326 392 472
#     4  10  26  48  78 112 155 208 264 332 402 484
#     4  12  27  50  74 111 156 204 261 322 402 480
#
# _framework density 28.163602999999998
#
# number of rings (size 3 to 8) (size 9 to 14) (size 15 to 20)
#    1.200    0.000    2.000    2.400    2.800    6.400 
#    0.000    0.000    0.000    0.000    0.000    0.000 
#    0.000    0.000    0.000    0.000    0.000    0.000 
#
# Total GULP energy -111626.476299 kJ/mol
# GULP energy per Si atom -5581.323815 kJ/mol
# Density = 2.809950 g / cm^3
# Si number density = 28.163603 Si / 1000 Ang^3
#
#
#
# Elastic Constant Matrix: (Units=GPa)
#
#
# Indices 1 2 3 4 5 6 
#
# 1 182.4429 27.8339 34.6752 0.0000 0.0000 0.0000
# 2 27.8339 138.4004 -12.3374 0.0000 0.0000 0.0000
# 3 34.6752 -12.3374 70.6967 0.0000 0.0000 0.0000
# 4 0.0000 0.0000 0.0000 17.3806 0.0000 0.0000
# 5 0.0000 0.0000 0.0000 0.0000 35.7238 0.0000
# 6 0.0000 0.0000 0.0000 0.0000 0.0000 53.5840
#
#
#
# Elastic Compliance Matrix: (Units=1/GPa)
#
#
# Indices 1 2 3 4 5 6 
#
# 1 0.006369 -0.001584 -0.003400 0.000000 0.000000 0.000000
# 2 -0.001584 0.007734 0.002127 0.000000 0.000000 0.000000
# 3 -0.003400 0.002127 0.016184 0.000000 0.000000 0.000000
# 4 0.000000 0.000000 0.000000 0.057535 0.000000 0.000000
# 5 0.000000 0.000000 0.000000 0.000000 0.027993 0.000000
# 6 0.000000 0.000000 0.000000 0.000000 0.000000 0.018662
#
#
# Mechanical properties :
#
#
# Convention : Reuss Voigt Hill
#
# Bulk Modulus (GPa) = 40.69872 54.65372 47.67622
# Shear Modulus (GPa) = 33.69666 44.09556 38.89611
#
# Velocity S-wave (km/s) = 3.46274 3.96118 3.72032
# Velocity P-wave (km/s) = 5.51993 6.35367 5.95142
#
# Compressibility (1/GPa) = 0.02457080
#
# Stress axis : x y z
#
# Youngs Moduli (GPa) = 157.00811 129.30689 61.79007
#
# Poissons Ratio (x) = 0.20482 0.21011
# Poissons Ratio (y) = 0.24870 -0.13140
# Poissons Ratio (z) = 0.53388 -0.27497
#
# Static dielectric constant tensor:
#      x y z
#    x 2.298390 0.000000 0.000000 
#    y 0.000000 2.256050 0.000000 
#    z 0.000000 0.000000 2.183180 
# 
# From -- ./inp_files/734.got.cif
#   From: 2010.05.17/outbox.cif.g08.bks.cpg/sg33_1_cif.got.tgz:734.got - 2010.06.03 17:15:25.
