data_PCOD9346808
_publ_section_title
;
Structure prediction by ZEFSAII (Michael W. Deem and Ramdas Pophale) SiO2 
 PCOD9346808
Probable space group: P N A 21
;
_chemical_formula_sum "Si O2"
_cell_formula_units_Z 24
_cell_length_a 16.261216
_cell_length_b 5.001266
_cell_length_c 12.168260
_cell_angle_alpha 90.000000
_cell_angle_beta 90.000000
_cell_angle_gamma 90.000000
_cell_volume 989.604025
_symmetry_space_group_name_H-M "P N A 21"
_symmetry_group_IT_number 33
_symmetry_cell_setting 'orthorhombic'
loop_
_space_group_symop_operation_xyz
x,y,z
-x,-y,1/2+z
1/2-x,1/2+y,1/2+z
1/2+x,1/2-y,z
loop_
_atom_site_type_symbol
_atom_site_label
_atom_site_fract_x
_atom_site_fract_y
_atom_site_fract_z
Si Si1 0.163607 0.909650 0.856860
Si Si2 0.641971 0.183931 0.649914
Si Si3 0.692448 0.361316 0.085637
Si Si4 0.091462 0.965844 0.295728
Si Si5 0.291318 0.549850 0.962070
Si Si6 0.020564 0.536718 0.793050
O O1 0.251189 0.769520 0.881594
O O2 0.100673 0.662592 0.850197
O O3 0.156650 0.111669 0.753270
O O4 0.151248 0.059824 0.970631
O O5 0.635280 0.351776 0.539344
O O6 0.562230 0.003167 0.672418
O O7 0.721796 0.002711 0.623086
O O8 0.630310 0.465538 0.177511
O O9 0.725356 0.066089 0.049562
O O10 0.049473 0.250720 0.318413
O O11 0.164778 0.861204 0.374329
O O12 0.019292 0.751593 0.308906
#
# Coordination Sequence:
#
# PCOD9346808 Si02
#       6
#     4   4   4   4   4   4
#     4  11  24  50  76 109 151 204 250 316 380 457
#     4  11  24  50  76 109 151 204 250 316 380 457
#     4  11  26  47  82 108 149 202 269 313 371 469
#     4  12  29  48  75 114 152 200 252 320 395 456
#     4  11  26  47  82 108 149 202 269 313 371 469
#     4  12  27  50  69 110 162 190 246 316 389 464
#
# _framework density 24.252126000000001
#
# number of rings (size 3 to 8) (size 9 to 14) (size 15 to 20)
#    0.000    0.667    1.667    5.000   11.667    1.333 
#    6.000    0.000    0.000    0.000    0.000    0.000 
#    0.000    0.000    0.000    0.000    0.000    0.000 
#
# Total GULP energy -133673.769151 kJ/mol
# GULP energy per Si atom -5569.740381 kJ/mol
# Density = 2.419693 g / cm^3
# Si number density = 24.252126 Si / 1000 Ang^3
#
#
#
# Elastic Constant Matrix: (Units=GPa)
#
#
# Indices 1 2 3 4 5 6 
#
# 1 46.7706 15.9962 28.9505 0.0000 0.0000 0.0000
# 2 15.9962 99.7437 22.8716 0.0000 0.0000 0.0000
# 3 28.9505 22.8716 80.3127 0.0000 0.0000 0.0000
# 4 0.0000 0.0000 0.0000 29.8706 0.0000 0.0000
# 5 0.0000 0.0000 0.0000 0.0000 25.5866 0.0000
# 6 0.0000 0.0000 0.0000 0.0000 0.0000 33.3187
#
#
#
# Elastic Compliance Matrix: (Units=1/GPa)
#
#
# Indices 1 2 3 4 5 6 
#
# 1 0.028019 -0.002330 -0.009437 0.000000 0.000000 0.000000
# 2 -0.002330 0.010920 -0.002270 0.000000 0.000000 0.000000
# 3 -0.009437 -0.002270 0.016499 0.000000 0.000000 0.000000
# 4 0.000000 0.000000 0.000000 0.033478 0.000000 0.000000
# 5 0.000000 0.000000 0.000000 0.000000 0.039083 0.000000
# 6 0.000000 0.000000 0.000000 0.000000 0.000000 0.030013
#
#
# Mechanical properties :
#
#
# Convention : Reuss Voigt Hill
#
# Bulk Modulus (GPa) = 36.54214 40.27373 38.40793
# Shear Modulus (GPa) = 25.61393 28.35576 26.98485
#
# Velocity S-wave (km/s) = 3.25337 3.42308 3.33930
# Velocity P-wave (km/s) = 5.40490 5.68028 5.54430
#
# Compressibility (1/GPa) = 0.02736567
#
# Stress axis : x y z
#
# Youngs Moduli (GPa) = 35.69024 91.57654 60.60814
#
# Poissons Ratio (x) = 0.21334 0.57194
# Poissons Ratio (y) = 0.08314 0.13758
# Poissons Ratio (z) = 0.33679 0.20788
#
# Static dielectric constant tensor:
#      x y z
#    x 1.985990 0.000000 0.000000 
#    y 0.000000 2.107360 0.000000 
#    z 0.000000 0.000000 1.949910 
# 
# From -- ./inp_files/6921.got.cif
#   From: 2010.05.17/outbox.cif.g08.bks.cpg/sg33_4_cif.got.tgz:6921.got - 2010.06.03 17:15:25.
