data_PCOD9346648
_publ_section_title
;
Structure prediction by ZEFSAII (Michael W. Deem and Ramdas Pophale) SiO2 
 PCOD9346648
Probable space group: P N A 21
;
_chemical_formula_sum "Si O2"
_cell_formula_units_Z 28
_cell_length_a 13.833436
_cell_length_b 15.768929
_cell_length_c 5.157901
_cell_angle_alpha 90.000000
_cell_angle_beta 90.000000
_cell_angle_gamma 90.000000
_cell_volume 1125.136633
_symmetry_space_group_name_H-M "P N A 21"
_symmetry_group_IT_number 33
_symmetry_cell_setting 'orthorhombic'
loop_
_space_group_symop_operation_xyz
x,y,z
-x,-y,1/2+z
1/2-x,1/2+y,1/2+z
1/2+x,1/2-y,z
loop_
_atom_site_type_symbol
_atom_site_label
_atom_site_fract_x
_atom_site_fract_y
_atom_site_fract_z
Si Si1 0.156504 0.299907 0.356580
Si Si2 0.228212 0.639418 0.655159
Si Si3 0.430061 0.367702 0.856488
Si Si4 0.123924 0.589662 0.133543
Si Si5 0.603611 0.474101 0.030201
Si Si6 0.532605 0.192702 0.847343
Si Si7 0.736150 0.555857 0.655860
O O1 0.216615 0.223415 0.234838
O O2 0.113302 0.281415 0.637140
O O3 0.225255 0.381578 0.378682
O O4 0.075084 0.315421 0.134915
O O5 0.190385 0.629806 0.363106
O O6 0.306999 0.563771 0.694358
O O7 0.140653 0.632359 0.856459
O O8 0.518028 0.406187 0.029110
O O9 0.323020 0.383081 0.966301
O O10 0.433699 0.434319 0.619710
O O11 0.455368 0.269769 0.825398
O O12 0.167829 0.496417 0.088750
O O13 0.017363 0.607099 0.239674
O O14 0.654385 0.491108 0.755623
#
# Coordination Sequence:
#
# PCOD9346648 Si02
#       7
#     4   4   4   4   4   4   4
#     4  12  28  46  69 104 142 190 234 287 348 428
#     4  11  23  45  69 100 144 175 229 289 353 415
#     4  12  24  43  71 108 141 184 236 297 364 416
#     4  11  25  47  71 102 137 190 231 291 350 415
#     4  11  24  40  71 105 143 176 229 298 358 415
#     4  12  29  45  73 100 146 190 233 289 349 430
#     4  11  27  44  72 103 139 189 236 293 352 421
#
# _framework density 24.885869
#
# number of rings (size 3 to 8) (size 9 to 14) (size 15 to 20)
#    0.000    0.571    4.286    2.571   10.000    1.143 
#    0.000    0.000    0.000    0.000    0.000    0.000 
#    0.000    0.000    0.000    0.000    0.000    0.000 
#
# Total GULP energy -156498.469655 kJ/mol
# GULP energy per Si atom -5589.231059 kJ/mol
# Density = 2.482923 g / cm^3
# Si number density = 24.885869 Si / 1000 Ang^3
#
#
#
# Elastic Constant Matrix: (Units=GPa)
#
#
# Indices 1 2 3 4 5 6 
#
# 1 33.7613 31.5938 13.0633 0.0000 0.0000 0.0000
# 2 31.5938 64.5751 -5.3433 0.0000 0.0000 0.0000
# 3 13.0633 -5.3433 72.8361 0.0000 0.0000 0.0000
# 4 0.0000 0.0000 0.0000 19.0970 0.0000 0.0000
# 5 0.0000 0.0000 0.0000 0.0000 43.8455 0.0000
# 6 0.0000 0.0000 0.0000 0.0000 0.0000 51.8164
#
#
#
# Elastic Compliance Matrix: (Units=1/GPa)
#
#
# Indices 1 2 3 4 5 6 
#
# 1 0.067075 -0.034019 -0.014526 0.000000 0.000000 0.000000
# 2 -0.034019 0.032834 0.008510 0.000000 0.000000 0.000000
# 3 -0.014526 0.008510 0.016959 0.000000 0.000000 0.000000
# 4 0.000000 0.000000 0.000000 0.052364 0.000000 0.000000
# 5 0.000000 0.000000 0.000000 0.000000 0.022807 0.000000
# 6 0.000000 0.000000 0.000000 0.000000 0.000000 0.019299
#
#
# Mechanical properties :
#
#
# Convention : Reuss Voigt Hill
#
# Bulk Modulus (GPa) = 27.17462 27.75555 27.46509
# Shear Modulus (GPa) = 16.46505 31.74234 24.10370
#
# Velocity S-wave (km/s) = 2.57499 3.57531 3.11556
# Velocity P-wave (km/s) = 4.44794 5.31236 4.89925
#
# Compressibility (1/GPa) = 0.03679905
#
# Stress axis : x y z
#
# Youngs Moduli (GPa) = 14.90871 30.45635 58.96577
#
# Poissons Ratio (x) = 1.03609 0.85652
# Poissons Ratio (y) = 0.50718 -0.50180
# Poissons Ratio (z) = 0.21656 -0.25919
#
# Static dielectric constant tensor:
#      x y z
#    x 2.002120 0.000000 0.000000 
#    y 0.000000 1.959030 0.000000 
#    z 0.000000 0.000000 1.988040 
# 
# From -- ./inp_files/1399.got.cif
#   From: 2010.05.17/outbox.cif.g08.bks.cpg/sg33_1_cif.got.tgz:1399.got - 2010.06.03 17:15:25.
