data_PCOD9346848
_publ_section_title
;
Structure prediction by ZEFSAII (Michael W. Deem and Ramdas Pophale) SiO2 
 PCOD9346848
Probable space group: P N A 21
;
_chemical_formula_sum "Si O2"
_cell_formula_units_Z 28
_cell_length_a 24.228958
_cell_length_b 8.194875
_cell_length_c 5.272280
_cell_angle_alpha 90.000000
_cell_angle_beta 90.000000
_cell_angle_gamma 90.000000
_cell_volume 1046.828499
_symmetry_space_group_name_H-M "P N A 21"
_symmetry_group_IT_number 33
_symmetry_cell_setting 'orthorhombic'
loop_
_space_group_symop_operation_xyz
x,y,z
-x,-y,1/2+z
1/2-x,1/2+y,1/2+z
1/2+x,1/2-y,z
loop_
_atom_site_type_symbol
_atom_site_label
_atom_site_fract_x
_atom_site_fract_y
_atom_site_fract_z
Si Si1 0.828354 0.896578 0.707230
Si Si2 0.565337 0.963101 0.312667
Si Si3 0.658820 0.036664 0.006706
Si Si4 0.772356 0.993899 0.201159
Si Si5 0.528096 0.255908 0.645580
Si Si6 0.844501 0.284102 0.119024
Si Si7 0.077673 0.951121 0.955823
O O1 0.835965 0.723222 0.575551
O O2 0.791472 0.986251 0.491936
O O3 0.887471 0.989067 0.701081
O O4 0.803798 0.883500 0.989562
O O5 0.594203 0.999043 0.045471
O O6 0.508174 0.868372 0.316018
O O7 0.610938 0.837594 0.414902
O O8 0.560547 0.133896 0.459697
O O9 0.707630 0.959827 0.179229
O O10 0.672554 0.955910 0.741833
O O11 0.790771 0.171133 0.086885
O O12 0.479983 0.361350 0.508016
O O13 0.564591 0.385707 0.795697
O O14 0.881945 0.171159 0.306809
#
# Coordination Sequence:
#
# PCOD9346848 Si02
#       7
#     4   4   4   4   4   4   4
#     4  11  28  49  76 115 150 204 255 321 383 475
#     4  12  28  46  75 109 151 199 257 324 379 467
#     4  12  28  46  77 111 153 201 254 325 383 472
#     4  11  28  49  80 111 157 203 256 314 401 459
#     4  12  26  46  75 108 151 203 259 320 398 450
#     4  11  25  50  72 113 150 200 254 319 391 462
#     4  11  25  46  75 109 150 202 255 319 383 469
#
# _framework density 26.74746
#
# number of rings (size 3 to 8) (size 9 to 14) (size 15 to 20)
#    0.000    0.571    1.429    4.286   16.000    0.000 
#    0.000    0.000    0.000    0.000    0.000    0.000 
#    0.000    0.000    0.000    0.000    0.000    0.000 
#
# Total GULP energy -156692.531126 kJ/mol
# GULP energy per Si atom -5596.161826 kJ/mol
# Density = 2.668658 g / cm^3
# Si number density = 26.747460 Si / 1000 Ang^3
#
#
#
# Elastic Constant Matrix: (Units=GPa)
#
#
# Indices 1 2 3 4 5 6 
#
# 1 132.2052 26.9755 36.2710 0.0000 0.0000 0.0000
# 2 26.9755 136.5641 17.5681 0.0000 0.0000 0.0000
# 3 36.2710 17.5681 66.4332 0.0000 0.0000 0.0000
# 4 0.0000 0.0000 0.0000 42.6356 0.0000 0.0000
# 5 0.0000 0.0000 0.0000 0.0000 43.9322 0.0000
# 6 0.0000 0.0000 0.0000 0.0000 0.0000 25.5905
#
#
#
# Elastic Compliance Matrix: (Units=1/GPa)
#
#
# Indices 1 2 3 4 5 6 
#
# 1 0.009082 -0.001197 -0.004642 0.000000 0.000000 0.000000
# 2 -0.001197 0.007738 -0.001393 0.000000 0.000000 0.000000
# 3 -0.004642 -0.001393 0.017955 0.000000 0.000000 0.000000
# 4 0.000000 0.000000 0.000000 0.023455 0.000000 0.000000
# 5 0.000000 0.000000 0.000000 0.000000 0.022762 0.000000
# 6 0.000000 0.000000 0.000000 0.000000 0.000000 0.039077
#
#
# Mechanical properties :
#
#
# Convention : Reuss Voigt Hill
#
# Bulk Modulus (GPa) = 49.23174 55.20351 52.21762
# Shear Modulus (GPa) = 35.38490 39.39086 37.38788
#
# Velocity S-wave (km/s) = 3.64115 3.84173 3.74279
# Velocity P-wave (km/s) = 6.01027 6.35312 6.18407
#
# Compressibility (1/GPa) = 0.02031210
#
# Stress axis : x y z
#
# Youngs Moduli (GPa) = 110.11128 129.22976 55.69333
#
# Poissons Ratio (x) = 0.15466 0.25852
# Poissons Ratio (y) = 0.13178 0.07758
# Poissons Ratio (z) = 0.51113 0.18001
#
# Static dielectric constant tensor:
#      x y z
#    x 2.144460 0.000000 0.000000 
#    y 0.000000 2.139860 0.000000 
#    z 0.000000 0.000000 2.165700 
# 
# From -- ./inp_files/2410.got.cif
#   From: 2010.05.17/outbox.cif.g08.bks.cpg/sg33_2_cif.got.tgz:2410.got - 2010.06.03 17:15:25.
