data_PCOD9346709
_publ_section_title
;
Structure prediction by ZEFSAII (Michael W. Deem and Ramdas Pophale) SiO2 
 PCOD9346709
Probable space group: P N A 21
;
_chemical_formula_sum "Si O2"
_cell_formula_units_Z 16
_cell_length_a 6.842881
_cell_length_b 10.874497
_cell_length_c 7.767576
_cell_angle_alpha 90.000000
_cell_angle_beta 90.000000
_cell_angle_gamma 90.000000
_cell_volume 578.007770
_symmetry_space_group_name_H-M "P N A 21"
_symmetry_group_IT_number 33
_symmetry_cell_setting 'orthorhombic'
loop_
_space_group_symop_operation_xyz
x,y,z
-x,-y,1/2+z
1/2-x,1/2+y,1/2+z
1/2+x,1/2-y,z
loop_
_atom_site_type_symbol
_atom_site_label
_atom_site_fract_x
_atom_site_fract_y
_atom_site_fract_z
Si Si1 0.595290 0.590787 0.260570
Si Si2 0.980123 0.145065 0.159315
Si Si3 0.573662 0.102201 0.303171
Si Si4 0.166930 0.643977 0.147029
O O1 0.571878 0.612056 0.463727
O O2 0.652441 0.450085 0.215490
O O3 0.389274 0.598453 0.157620
O O4 0.695468 0.715439 0.201119
O O5 0.809551 0.122613 0.301304
O O6 0.024388 0.290028 0.166158
O O7 0.452746 0.133806 0.471845
O O8 0.556117 0.956628 0.266350
#
# Coordination Sequence:
#
# PCOD9346709 Si02
#       4
#     4   4   4   4
#     4  11  24  43  68 102 138 181 229 283 342 408
#     4  11  24  43  68 102 138 181 229 283 342 408
#     4  11  24  43  68 102 138 181 229 283 342 408
#     4  11  24  43  68 102 138 181 229 283 342 408
#
# _framework density 27.681291000000002
#
# number of rings (size 3 to 8) (size 9 to 14) (size 15 to 20)
#    0.000    1.000    0.000    6.000    0.000   10.000 
#    0.000    0.000    0.000    0.000    0.000    0.000 
#    0.000    0.000    0.000    0.000    0.000    0.000 
#
# Total GULP energy -89486.559152 kJ/mol
# GULP energy per Si atom -5592.909947 kJ/mol
# Density = 2.761829 g / cm^3
# Si number density = 27.681291 Si / 1000 Ang^3
#
#
#
# Elastic Constant Matrix: (Units=GPa)
#
#
# Indices 1 2 3 4 5 6 
#
# 1 62.2648 26.4048 20.0707 0.0000 0.0000 0.0000
# 2 26.4048 234.4671 64.5525 0.0000 0.0000 0.0000
# 3 20.0707 64.5525 116.0247 0.0000 0.0000 0.0000
# 4 0.0000 0.0000 0.0000 57.2627 0.0000 0.0000
# 5 0.0000 0.0000 0.0000 0.0000 36.9229 0.0000
# 6 0.0000 0.0000 0.0000 0.0000 0.0000 58.2113
#
#
#
# Elastic Compliance Matrix: (Units=1/GPa)
#
#
# Indices 1 2 3 4 5 6 
#
# 1 0.017354 -0.001332 -0.002261 0.000000 0.000000 0.000000
# 2 -0.001332 0.005139 -0.002629 0.000000 0.000000 0.000000
# 3 -0.002261 -0.002629 0.010472 0.000000 0.000000 0.000000
# 4 0.000000 0.000000 0.000000 0.017463 0.000000 0.000000
# 5 0.000000 0.000000 0.000000 0.000000 0.027083 0.000000
# 6 0.000000 0.000000 0.000000 0.000000 0.000000 0.017179
#
#
# Mechanical properties :
#
#
# Convention : Reuss Voigt Hill
#
# Bulk Modulus (GPa) = 48.72762 70.53474 59.63118
# Shear Modulus (GPa) = 43.86944 50.59461 47.23202
#
# Velocity S-wave (km/s) = 3.98528 4.27986 4.13520
# Velocity P-wave (km/s) = 6.23040 7.06819 6.66248
#
# Compressibility (1/GPa) = 0.02052224
#
# Stress axis : x y z
#
# Youngs Moduli (GPa) = 57.62334 194.60266 95.48858
#
# Poissons Ratio (x) = 0.25918 0.21590
# Poissons Ratio (y) = 0.07675 0.25100
# Poissons Ratio (z) = 0.13029 0.51153
#
# Static dielectric constant tensor:
#      x y z
#    x 2.271780 0.000000 0.000000 
#    y 0.000000 2.390050 0.000000 
#    z 0.000000 0.000000 2.087630 
# 
# From -- ./inp_files/2967.got.cif
#   From: 2010.05.17/outbox.cif.g08.bks.cpg/sg33_2_cif.got.tgz:2967.got - 2010.06.03 17:15:25.
