data_PCOD9346266
_publ_section_title
;
Structure prediction by ZEFSAII (Michael W. Deem and Ramdas Pophale) SiO2 
 PCOD9346266
Probable space group: P N A 21
;
_chemical_formula_sum "Si O2"
_cell_formula_units_Z 28
_cell_length_a 8.927653
_cell_length_b 5.770231
_cell_length_c 20.703679
_cell_angle_alpha 90.000000
_cell_angle_beta 90.000000
_cell_angle_gamma 90.000000
_cell_volume 1066.542158
_symmetry_space_group_name_H-M "P N A 21"
_symmetry_group_IT_number 33
_symmetry_cell_setting 'orthorhombic'
loop_
_space_group_symop_operation_xyz
x,y,z
-x,-y,1/2+z
1/2-x,1/2+y,1/2+z
1/2+x,1/2-y,z
loop_
_atom_site_type_symbol
_atom_site_label
_atom_site_fract_x
_atom_site_fract_y
_atom_site_fract_z
Si Si1 0.593619 0.835708 0.080100
Si Si2 0.680803 0.057359 0.372628
Si Si3 0.627109 0.011911 0.673308
Si Si4 0.862849 0.854139 0.989538
Si Si5 0.518961 0.319521 0.893340
Si Si6 0.430678 0.481617 0.150905
Si Si7 0.855839 0.925673 0.774460
O O1 0.541668 0.968569 0.144822
O O2 0.736262 0.921225 0.040810
O O3 0.459540 0.842202 0.026457
O O4 0.562342 0.563074 0.100666
O O5 0.716243 0.244465 0.427291
O O6 0.536653 0.557391 0.459042
O O7 0.809229 0.869639 0.380634
O O8 0.670387 0.170167 0.302766
O O9 0.659844 0.756905 0.643754
O O10 0.667931 0.280454 0.655052
O O11 0.696321 0.000795 0.744665
O O12 0.427638 0.433675 0.833526
O O13 0.477276 0.052944 0.890420
O O14 0.523648 0.446208 0.217178
#
# Coordination Sequence:
#
# PCOD9346266 Si02
#       7
#     4   4   4   4   4   4   4
#     4  10  24  42  76 108 151 207 259 322 397 473
#     4  11  27  44  74 112 153 212 264 334 398 469
#     4  10  25  43  72 108 153 196 258 311 391 462
#     4  11  23  49  70 105 153 198 268 322 394 473
#     4  11  27  44  74 109 153 207 266 330 398 471
#     4  10  25  43  71 111 153 199 252 314 391 464
#     4  11  25  45  73 105 160 199 265 321 401 470
#
# _framework density 26.253064999999999
#
# number of rings (size 3 to 8) (size 9 to 14) (size 15 to 20)
#    0.857    0.571    1.429    1.714    8.000    4.571 
#    0.000    0.000    0.000    0.000    0.000    0.000 
#    0.000    0.000    0.000    0.000    0.000    0.000 
#
# Total GULP energy -156096.337144 kJ/mol
# GULP energy per Si atom -5574.869184 kJ/mol
# Density = 2.619331 g / cm^3
# Si number density = 26.253065 Si / 1000 Ang^3
#
#
#
# Elastic Constant Matrix: (Units=GPa)
#
#
# Indices 1 2 3 4 5 6 
#
# 1 61.0298 19.8233 16.6878 0.0000 0.0000 0.0000
# 2 19.8233 114.7760 15.1395 0.0000 0.0000 0.0000
# 3 16.6878 15.1395 125.9546 0.0000 0.0000 0.0000
# 4 0.0000 0.0000 0.0000 30.4779 0.0000 0.0000
# 5 0.0000 0.0000 0.0000 0.0000 41.9800 0.0000
# 6 0.0000 0.0000 0.0000 0.0000 0.0000 41.6754
#
#
#
# Elastic Compliance Matrix: (Units=1/GPa)
#
#
# Indices 1 2 3 4 5 6 
#
# 1 0.017854 -0.002816 -0.002027 0.000000 0.000000 0.000000
# 2 -0.002816 0.009297 -0.000744 0.000000 0.000000 0.000000
# 3 -0.002027 -0.000744 0.008297 0.000000 0.000000 0.000000
# 4 0.000000 0.000000 0.000000 0.032811 0.000000 0.000000
# 5 0.000000 0.000000 0.000000 0.000000 0.023821 0.000000
# 6 0.000000 0.000000 0.000000 0.000000 0.000000 0.023995
#
#
# Mechanical properties :
#
#
# Convention : Reuss Voigt Hill
#
# Bulk Modulus (GPa) = 41.19691 45.00682 43.10187
# Shear Modulus (GPa) = 36.94338 39.50065 38.22202
#
# Velocity S-wave (km/s) = 3.75534 3.88314 3.81977
# Velocity P-wave (km/s) = 5.87620 6.10620 5.99230
#
# Compressibility (1/GPa) = 0.02427366
#
# Stress axis : x y z
#
# Youngs Moduli (GPa) = 56.00836 107.55898 120.51963
#
# Poissons Ratio (x) = 0.30292 0.24430
# Poissons Ratio (y) = 0.15774 0.08971
# Poissons Ratio (z) = 0.11353 0.08006
#
# Static dielectric constant tensor:
#      x y z
#    x 2.124390 0.000000 0.000000 
#    y 0.000000 2.127700 0.000000 
#    z 0.000000 0.000000 2.088440 
# 
# From -- ./inp_files/8685.got.cif
#   From: 2010.05.17/outbox.cif.g08.bks.cpg/sg33_5_cif.got.tgz:8685.got - 2010.06.03 17:15:25.
