data_PCOD9346417
_publ_section_title
;
Structure prediction by ZEFSAII (Michael W. Deem and Ramdas Pophale) SiO2 
 PCOD9346417
Probable space group: P N A 21
;
_chemical_formula_sum "Si O2"
_cell_formula_units_Z 28
_cell_length_a 26.228839
_cell_length_b 5.605798
_cell_length_c 7.800935
_cell_angle_alpha 90.000000
_cell_angle_beta 90.000000
_cell_angle_gamma 90.000000
_cell_volume 1146.999347
_symmetry_space_group_name_H-M "P N A 21"
_symmetry_group_IT_number 33
_symmetry_cell_setting 'orthorhombic'
loop_
_space_group_symop_operation_xyz
x,y,z
-x,-y,1/2+z
1/2-x,1/2+y,1/2+z
1/2+x,1/2-y,z
loop_
_atom_site_type_symbol
_atom_site_label
_atom_site_fract_x
_atom_site_fract_y
_atom_site_fract_z
Si Si1 0.536460 0.785067 0.095700
Si Si2 0.246921 0.761909 0.284140
Si Si3 0.616253 0.261234 0.461042
Si Si4 0.853257 0.985686 0.299350
Si Si5 0.510674 0.271078 0.260098
Si Si6 0.857315 0.133344 0.670443
Si Si7 0.313299 0.130221 0.095144
O O1 0.515047 0.534683 0.176131
O O2 0.594000 0.803630 0.165599
O O3 0.510188 0.038964 0.138336
O O4 0.535563 0.743042 0.892622
O O5 0.292644 0.573137 0.282219
O O6 0.197238 0.738543 0.163449
O O7 0.223711 0.778603 0.472490
O O8 0.275865 0.993612 0.220935
O O9 0.615650 0.329463 0.663049
O O10 0.560243 0.234856 0.383177
O O11 0.639350 0.468842 0.339279
O O12 0.655876 0.043540 0.466169
O O13 0.864928 0.973892 0.499061
O O14 0.854875 0.243883 0.212829
#
# Coordination Sequence:
#
# PCOD9346417 Si02
#       7
#     4   4   4   4   4   4   4
#     4  11  26  48  77 112 142 197 233 313 365 449
#     4  11  23  40  62  96 140 181 236 290 352 422
#     4  10  25  46  68  98 143 184 234 300 363 427
#     4  11  25  42  68 102 130 197 239 294 356 434
#     4  11  25  48  78 108 149 186 243 300 379 434
#     4  11  24  45  69 103 143 182 248 290 367 433
#     4  11  24  41  66  95 135 187 231 299 352 423
#
# _framework density 24.411522999999999
#
# number of rings (size 3 to 8) (size 9 to 14) (size 15 to 20)
#    0.000    1.143    2.857    1.714    8.000    1.143 
#   12.857    0.000    0.000    0.000    0.000    0.000 
#    0.000    0.000    0.000    0.000    0.000    0.000 
#
# Total GULP energy -156397.342750 kJ/mol
# GULP energy per Si atom -5585.619384 kJ/mol
# Density = 2.435596 g / cm^3
# Si number density = 24.411523 Si / 1000 Ang^3
#
#
#
# Elastic Constant Matrix: (Units=GPa)
#
#
# Indices 1 2 3 4 5 6 
#
# 1 54.0771 25.2889 -3.3510 0.0000 0.0000 0.0000
# 2 25.2889 56.4265 8.9433 0.0000 0.0000 0.0000
# 3 -3.3510 8.9433 90.8790 0.0000 0.0000 0.0000
# 4 0.0000 0.0000 0.0000 30.4496 0.0000 0.0000
# 5 0.0000 0.0000 0.0000 0.0000 36.4542 0.0000
# 6 0.0000 0.0000 0.0000 0.0000 0.0000 17.4269
#
#
#
# Elastic Compliance Matrix: (Units=1/GPa)
#
#
# Indices 1 2 3 4 5 6 
#
# 1 0.023732 -0.010945 0.001952 0.000000 0.000000 0.000000
# 2 -0.010945 0.023051 -0.002672 0.000000 0.000000 0.000000
# 3 0.001952 -0.002672 0.011339 0.000000 0.000000 0.000000
# 4 0.000000 0.000000 0.000000 0.032841 0.000000 0.000000
# 5 0.000000 0.000000 0.000000 0.000000 0.027432 0.000000
# 6 0.000000 0.000000 0.000000 0.000000 0.000000 0.057382
#
#
# Mechanical properties :
#
#
# Convention : Reuss Voigt Hill
#
# Bulk Modulus (GPa) = 28.74310 29.23834 28.99072
# Shear Modulus (GPa) = 23.72998 28.23289 25.98144
#
# Velocity S-wave (km/s) = 3.12120 3.40448 3.26592
# Velocity P-wave (km/s) = 4.97887 5.23997 5.11109
#
# Compressibility (1/GPa) = 0.03479096
#
# Stress axis : x y z
#
# Youngs Moduli (GPa) = 42.13787 43.38192 88.19446
#
# Poissons Ratio (x) = 0.47483 -0.17217
# Poissons Ratio (y) = 0.46121 0.23566
# Poissons Ratio (z) = -0.08226 0.11592
#
# Static dielectric constant tensor:
#      x y z
#    x 1.973410 0.000000 0.000000 
#    y 0.000000 2.003230 0.000000 
#    z 0.000000 0.000000 1.933360 
# 
# From -- ./inp_files/5278.got.cif
#   From: 2010.05.17/outbox.cif.g08.bks.cpg/sg33_3_cif.got.tgz:5278.got - 2010.06.03 17:15:25.
