data_PCOD9346151
_publ_section_title
;
Structure prediction by ZEFSAII (Michael W. Deem and Ramdas Pophale) SiO2 
 PCOD9346151
Probable space group: P N A 21
;
_chemical_formula_sum "Si O2"
_cell_formula_units_Z 32
_cell_length_a 8.443013
_cell_length_b 11.064599
_cell_length_c 13.787896
_cell_angle_alpha 90.000000
_cell_angle_beta 90.000000
_cell_angle_gamma 90.000000
_cell_volume 1288.045296
_symmetry_space_group_name_H-M "P N A 21"
_symmetry_group_IT_number 33
_symmetry_cell_setting 'orthorhombic'
loop_
_space_group_symop_operation_xyz
x,y,z
-x,-y,1/2+z
1/2-x,1/2+y,1/2+z
1/2+x,1/2-y,z
loop_
_atom_site_type_symbol
_atom_site_label
_atom_site_fract_x
_atom_site_fract_y
_atom_site_fract_z
Si Si1 0.563350 0.839376 0.276060
Si Si2 0.496564 0.953844 0.085107
Si Si3 0.127594 0.933960 0.038528
Si Si4 0.308326 0.315118 0.355112
Si Si5 0.843233 0.697965 0.587634
Si Si6 0.027021 0.908180 0.673006
Si Si7 0.952627 0.423173 0.363312
Si Si8 0.880835 0.840686 0.394832
O O1 0.568863 0.858229 0.160925
O O2 0.725578 0.864704 0.331711
O O3 0.506642 0.712732 0.319736
O O4 0.448167 0.949393 0.308693
O O5 0.537201 0.090825 0.116325
O O6 0.308404 0.938883 0.074864
O O7 0.567923 0.945952 0.977557
O O8 0.120839 0.823553 0.964145
O O9 0.091722 0.044145 0.963201
O O10 0.015858 0.961400 0.129349
O O11 0.413507 0.394972 0.281951
O O12 0.328813 0.175767 0.327418
O O13 0.129146 0.363992 0.352084
O O14 0.671781 0.646860 0.611076
O O15 0.855358 0.736087 0.475730
O O16 0.884362 0.816723 0.649252
#
# Coordination Sequence:
#
# PCOD9346151 Si02
#       8
#     4   4   4   4   4   4   4   4
#     4  12  24  43  72 104 137 186 238 294 356 424
#     4  11  23  44  67  97 142 181 231 289 355 415
#     4  10  23  45  67  96 141 183 228 296 347 426
#     4  11  23  44  67  94 141 178 224 289 349 424
#     4  11  21  39  68  99 133 181 227 292 338 421
#     4  11  22  37  68  99 127 177 235 278 341 420
#     4  11  25  46  66  97 139 184 226 294 356 418
#     4  11  21  44  69  98 144 180 231 294 356 420
#
# _framework density 24.843847
#
# number of rings (size 3 to 8) (size 9 to 14) (size 15 to 20)
#    0.000    1.000    3.750    5.250    0.000    4.000 
#    9.000    0.000    0.000    0.000    0.000    0.000 
#    0.000    0.000    0.000    0.000    0.000    0.000 
#
# Total GULP energy -179127.507917 kJ/mol
# GULP energy per Si atom -5597.734622 kJ/mol
# Density = 2.478730 g / cm^3
# Si number density = 24.843847 Si / 1000 Ang^3
#
#
#
# Elastic Constant Matrix: (Units=GPa)
#
#
# Indices 1 2 3 4 5 6 
#
# 1 25.9417 8.6856 18.6738 0.0000 0.0000 0.0000
# 2 8.6856 38.4563 -6.4381 0.0000 0.0000 0.0000
# 3 18.6738 -6.4381 129.4715 0.0000 0.0000 0.0000
# 4 0.0000 0.0000 0.0000 41.0873 0.0000 0.0000
# 5 0.0000 0.0000 0.0000 0.0000 24.5788 0.0000
# 6 0.0000 0.0000 0.0000 0.0000 0.0000 26.8578
#
#
#
# Elastic Compliance Matrix: (Units=1/GPa)
#
#
# Indices 1 2 3 4 5 6 
#
# 1 0.048020 -0.012106 -0.007528 0.000000 0.000000 0.000000
# 2 -0.012106 0.029274 0.003202 0.000000 0.000000 0.000000
# 3 -0.007528 0.003202 0.008969 0.000000 0.000000 0.000000
# 4 0.000000 0.000000 0.000000 0.024338 0.000000 0.000000
# 5 0.000000 0.000000 0.000000 0.000000 0.040685 0.000000
# 6 0.000000 0.000000 0.000000 0.000000 0.000000 0.037233
#
#
# Mechanical properties :
#
#
# Convention : Reuss Voigt Hill
#
# Bulk Modulus (GPa) = 18.72723 26.19022 22.45873
# Shear Modulus (GPa) = 20.90446 30.03467 25.46956
#
# Velocity S-wave (km/s) = 2.90390 3.48075 3.20533
# Velocity P-wave (km/s) = 4.33564 5.16904 4.77058
#
# Compressibility (1/GPa) = 0.05339817
#
# Stress axis : x y z
#
# Youngs Moduli (GPa) = 20.82459 34.16030 111.49907
#
# Poissons Ratio (x) = 0.41354 0.83936
# Poissons Ratio (y) = 0.25210 -0.35699
# Poissons Ratio (z) = 0.15677 -0.10937
#
# Static dielectric constant tensor:
#      x y z
#    x 1.952280 0.000000 0.000000 
#    y 0.000000 2.002770 0.000000 
#    z 0.000000 0.000000 1.995630 
# 
# From -- ./inp_files/7631.got.cif
#   From: 2010.05.17/outbox.cif.g08.bks.cpg/sg33_4_cif.got.tgz:7631.got - 2010.06.03 17:15:25.
