data_PCOD9346457
_publ_section_title
;
Structure prediction by ZEFSAII (Michael W. Deem and Ramdas Pophale) SiO2 
 PCOD9346457
Probable space group: P N A 21
;
_chemical_formula_sum "Si O2"
_cell_formula_units_Z 32
_cell_length_a 13.179591
_cell_length_b 17.070347
_cell_length_c 5.012265
_cell_angle_alpha 90.000000
_cell_angle_beta 90.000000
_cell_angle_gamma 90.000000
_cell_volume 1127.660340
_symmetry_space_group_name_H-M "P N A 21"
_symmetry_group_IT_number 33
_symmetry_cell_setting 'orthorhombic'
loop_
_space_group_symop_operation_xyz
x,y,z
-x,-y,1/2+z
1/2-x,1/2+y,1/2+z
1/2+x,1/2-y,z
loop_
_atom_site_type_symbol
_atom_site_label
_atom_site_fract_x
_atom_site_fract_y
_atom_site_fract_z
Si Si1 0.438117 0.823394 0.983510
Si Si2 0.013662 0.092114 0.067240
Si Si3 0.252569 0.862870 0.716772
Si Si4 0.873223 0.189250 0.732057
Si Si5 0.652992 0.326392 0.443027
Si Si6 0.137904 0.667725 0.633257
Si Si7 0.567094 0.004531 0.536106
Si Si8 0.667602 0.481982 0.768569
O O1 0.383901 0.748228 0.116574
O O2 0.550676 0.818295 0.859684
O O3 0.617170 0.775492 0.375940
O O4 0.413540 0.905231 0.127744
O O5 0.051146 0.156454 0.273941
O O6 0.926563 0.031843 0.147225
O O7 0.972106 0.136876 0.806593
O O8 0.117528 0.043056 0.044295
O O9 0.362898 0.827823 0.731256
O O10 0.248887 0.685576 0.753817
O O11 0.255953 0.955661 0.779617
O O12 0.173579 0.827286 0.939500
O O13 0.792538 0.149585 0.929570
O O14 0.684462 0.401586 0.616458
O O15 0.133043 0.574988 0.563089
O O16 0.526097 0.013438 0.237335
#
# Coordination Sequence:
#
# PCOD9346457 Si02
#       8
#     4   4   4   4   4   4   4   4
#     4  11  26  53  78 114 165 218 269 338 413 486
#     4  11  23  43  74 116 157 209 253 333 416 474
#     4  11  27  47  79 115 161 208 266 335 409 493
#     4  11  25  47  79 116 159 206 271 332 403 488
#     4  12  26  48  79 123 157 214 274 339 417 503
#     4  11  26  50  79 119 166 214 283 339 409 498
#     4  10  26  50  79 108 153 213 268 323 397 479
#     4  11  25  44  79 115 164 202 268 331 416 487
#
# _framework density 28.377341000000001
#
# number of rings (size 3 to 8) (size 9 to 14) (size 15 to 20)
#    0.000    1.000    3.750    0.750    5.250   10.000 
#    0.000    0.000    0.000    0.000    0.000    0.000 
#    0.000    0.000    0.000    0.000    0.000    0.000 
#
# Total GULP energy -179028.283655 kJ/mol
# GULP energy per Si atom -5594.633864 kJ/mol
# Density = 2.831275 g / cm^3
# Si number density = 28.377341 Si / 1000 Ang^3
#
#
#
# Elastic Constant Matrix: (Units=GPa)
#
#
# Indices 1 2 3 4 5 6 
#
# 1 111.8785 44.2026 35.5779 0.0000 0.0000 0.0000
# 2 44.2026 237.0804 22.8127 0.0000 0.0000 0.0000
# 3 35.5779 22.8127 66.4544 0.0000 0.0000 0.0000
# 4 0.0000 0.0000 0.0000 45.1316 0.0000 0.0000
# 5 0.0000 0.0000 0.0000 0.0000 30.4321 0.0000
# 6 0.0000 0.0000 0.0000 0.0000 0.0000 64.0176
#
#
#
# Elastic Compliance Matrix: (Units=1/GPa)
#
#
# Indices 1 2 3 4 5 6 
#
# 1 0.011316 -0.001579 -0.005516 0.000000 0.000000 0.000000
# 2 -0.001579 0.004582 -0.000728 0.000000 0.000000 0.000000
# 3 -0.005516 -0.000728 0.018251 0.000000 0.000000 0.000000
# 4 0.000000 0.000000 0.000000 0.022157 0.000000 0.000000
# 5 0.000000 0.000000 0.000000 0.000000 0.032860 0.000000
# 6 0.000000 0.000000 0.000000 0.000000 0.000000 0.015621
#
#
# Mechanical properties :
#
#
# Convention : Reuss Voigt Hill
#
# Bulk Modulus (GPa) = 54.04376 68.95551 61.49963
# Shear Modulus (GPa) = 39.49378 48.77092 44.13235
#
# Velocity S-wave (km/s) = 3.73465 4.15017 3.94788
# Velocity P-wave (km/s) = 6.13863 6.87877 6.51921
#
# Compressibility (1/GPa) = 0.01850353
#
# Stress axis : x y z
#
# Youngs Moduli (GPa) = 88.36731 218.22570 54.79136
#
# Poissons Ratio (x) = 0.34460 0.30225
# Poissons Ratio (y) = 0.13954 0.03987
# Poissons Ratio (z) = 0.48747 0.15879
#
# Static dielectric constant tensor:
#      x y z
#    x 2.231920 0.000000 0.000000 
#    y 0.000000 2.425450 0.000000 
#    z 0.000000 0.000000 2.153000 
# 
# From -- ./inp_files/1817.got.cif
#   From: 2010.05.17/outbox.cif.g08.bks.cpg/sg33_1_cif.got.tgz:1817.got - 2010.06.03 17:15:25.
