data_PCOD9346867
_publ_section_title
;
Structure prediction by ZEFSAII (Michael W. Deem and Ramdas Pophale) SiO2 
 PCOD9346867
Probable space group: P N A 21
;
_chemical_formula_sum "Si O2"
_cell_formula_units_Z 20
_cell_length_a 13.577898
_cell_length_b 6.458217
_cell_length_c 8.668097
_cell_angle_alpha 90.000000
_cell_angle_beta 90.000000
_cell_angle_gamma 90.000000
_cell_volume 760.096859
_symmetry_space_group_name_H-M "P N A 21"
_symmetry_group_IT_number 33
_symmetry_cell_setting 'orthorhombic'
loop_
_space_group_symop_operation_xyz
x,y,z
-x,-y,1/2+z
1/2-x,1/2+y,1/2+z
1/2+x,1/2-y,z
loop_
_atom_site_type_symbol
_atom_site_label
_atom_site_fract_x
_atom_site_fract_y
_atom_site_fract_z
Si Si1 0.203529 0.233567 0.297440
Si Si2 0.382931 0.418448 0.157283
Si Si3 0.480512 0.155138 0.371058
Si Si4 0.328465 0.314457 0.599525
Si Si5 0.472750 0.284278 0.851284
O O1 0.269882 0.406770 0.209199
O O2 0.090689 0.287637 0.327715
O O3 0.203474 0.032453 0.180755
O O4 0.084716 0.910576 0.481938
O O5 0.418261 0.191889 0.217216
O O6 0.250277 0.729435 0.973597
O O7 0.447358 0.588658 0.249961
O O8 0.424456 0.307623 0.487709
O O9 0.473800 0.917297 0.418998
O O10 0.382663 0.208099 0.744097
#
# Coordination Sequence:
#
# PCOD9346867 Si02
#       5
#     4   4   4   4   4
#     4  11  25  50  82 123 175 235 295 369 444 539
#     4  11  25  47  78 117 172 216 299 359 447 529
#     4  11  25  50  79 117 170 222 294 354 458 512
#     4  11  26  50  81 122 173 226 297 365 446 534
#     4  12  25  49  80 117 170 235 281 379 439 532
#
# _framework density 26.312435000000001
#
# number of rings (size 3 to 8) (size 9 to 14) (size 15 to 20)
#    0.000    0.800    2.000    4.800    0.000    3.200 
#    7.200    2.000    0.000    0.000    0.000    0.000 
#    0.000    0.000    0.000    0.000    0.000    0.000 
#
# Total GULP energy -111478.556982 kJ/mol
# GULP energy per Si atom -5573.927849 kJ/mol
# Density = 2.625255 g / cm^3
# Si number density = 26.312435 Si / 1000 Ang^3
#
#
#
# Elastic Constant Matrix: (Units=GPa)
#
#
# Indices 1 2 3 4 5 6 
#
# 1 197.6725 49.3422 48.2693 0.0000 0.0000 0.0000
# 2 49.3422 108.5062 60.3348 0.0000 0.0000 0.0000
# 3 48.2693 60.3348 160.0499 0.0000 0.0000 0.0000
# 4 0.0000 0.0000 0.0000 28.7193 0.0000 0.0000
# 5 0.0000 0.0000 0.0000 0.0000 34.2970 0.0000
# 6 0.0000 0.0000 0.0000 0.0000 0.0000 24.9138
#
#
#
# Elastic Compliance Matrix: (Units=1/GPa)
#
#
# Indices 1 2 3 4 5 6 
#
# 1 0.005821 -0.002114 -0.000959 0.000000 0.000000 0.000000
# 2 -0.002114 0.012428 -0.004048 0.000000 0.000000 0.000000
# 3 -0.000959 -0.004048 0.008063 0.000000 0.000000 0.000000
# 4 0.000000 0.000000 0.000000 0.034820 0.000000 0.000000
# 5 0.000000 0.000000 0.000000 0.000000 0.029157 0.000000
# 6 0.000000 0.000000 0.000000 0.000000 0.000000 0.040138
#
#
# Mechanical properties :
#
#
# Convention : Reuss Voigt Hill
#
# Bulk Modulus (GPa) = 82.83877 86.90236 84.87056
# Shear Modulus (GPa) = 33.62690 38.13816 35.88253
#
# Velocity S-wave (km/s) = 3.57877 3.81127 3.69685
# Velocity P-wave (km/s) = 6.97337 7.24338 7.10966
#
# Compressibility (1/GPa) = 0.01207164
#
# Stress axis : x y z
#
# Youngs Moduli (GPa) = 171.80376 80.46388 124.02408
#
# Poissons Ratio (x) = 0.17009 0.11888
# Poissons Ratio (y) = 0.36317 0.50199
# Poissons Ratio (z) = 0.16468 0.32568
#
# Static dielectric constant tensor:
#      x y z
#    x 2.083740 0.000000 0.000000 
#    y 0.000000 2.209340 0.000000 
#    z 0.000000 0.000000 2.140340 
# 
# From -- ./inp_files/7832.got.cif
#   From: 2010.05.17/outbox.cif.g08.bks.cpg/sg33_4_cif.got.tgz:7832.got - 2010.06.03 17:15:25.
