data_PCOD9346398
_publ_section_title
;
Structure prediction by ZEFSAII (Michael W. Deem and Ramdas Pophale) SiO2 
 PCOD9346398
Probable space group: P N A 21
;
_chemical_formula_sum "Si O2"
_cell_formula_units_Z 24
_cell_length_a 13.778994
_cell_length_b 6.039220
_cell_length_c 12.037973
_cell_angle_alpha 90.000000
_cell_angle_beta 90.000000
_cell_angle_gamma 90.000000
_cell_volume 1001.732413
_symmetry_space_group_name_H-M "P N A 21"
_symmetry_group_IT_number 33
_symmetry_cell_setting 'orthorhombic'
loop_
_space_group_symop_operation_xyz
x,y,z
-x,-y,1/2+z
1/2-x,1/2+y,1/2+z
1/2+x,1/2-y,z
loop_
_atom_site_type_symbol
_atom_site_label
_atom_site_fract_x
_atom_site_fract_y
_atom_site_fract_z
Si Si1 0.864092 0.622843 0.858890
Si Si2 0.508687 0.081405 0.693152
Si Si3 0.477395 0.561881 0.003107
Si Si4 0.306668 0.037785 0.333508
Si Si5 0.198221 0.745672 0.496130
Si Si6 0.396575 0.824680 0.523831
O O1 0.924045 0.442946 0.786368
O O2 0.766058 0.754273 0.822333
O O3 0.837363 0.498444 0.973430
O O4 0.943874 0.801027 0.895698
O O5 0.501199 0.296172 0.614044
O O6 0.616111 0.030334 0.739991
O O7 0.474559 0.883237 0.614080
O O8 0.561900 0.393485 0.966058
O O9 0.382120 0.417164 0.030328
O O10 0.240420 0.831353 0.375791
O O11 0.374941 0.035752 0.445215
O O12 0.292437 0.760579 0.572623
#
# Coordination Sequence:
#
# PCOD9346398 Si02
#       6
#     4   4   4   4   4   4
#     4  11  25  47  76 100 145 195 240 299 368 435
#     4  12  25  40  74 109 138 187 251 300 355 432
#     4  11  24  44  71 101 147 191 241 301 356 437
#     4   9  24  46  67 103 144 189 237 301 366 430
#     4   9  23  45  67  97 144 191 235 286 368 418
#     4  10  25  44  67 104 142 193 240 297 363 430
#
# _framework density 23.958494000000002
#
# number of rings (size 3 to 8) (size 9 to 14) (size 15 to 20)
#    1.000    0.667    0.000    3.000    4.667    9.333 
#    0.000    0.000    0.000    0.000    0.000    0.000 
#    0.000    0.000    0.000    0.000    0.000    0.000 
#
# Total GULP energy -133680.986594 kJ/mol
# GULP energy per Si atom -5570.041108 kJ/mol
# Density = 2.390396 g / cm^3
# Si number density = 23.958494 Si / 1000 Ang^3
#
#
#
# Elastic Constant Matrix: (Units=GPa)
#
#
# Indices 1 2 3 4 5 6 
#
# 1 143.4094 49.8492 44.7145 0.0000 0.0000 0.0000
# 2 49.8492 65.6728 20.2236 0.0000 0.0000 0.0000
# 3 44.7145 20.2236 82.8282 0.0000 0.0000 0.0000
# 4 0.0000 0.0000 0.0000 20.1379 0.0000 0.0000
# 5 0.0000 0.0000 0.0000 0.0000 35.9671 0.0000
# 6 0.0000 0.0000 0.0000 0.0000 0.0000 46.0340
#
#
#
# Elastic Compliance Matrix: (Units=1/GPa)
#
#
# Indices 1 2 3 4 5 6 
#
# 1 0.010603 -0.006796 -0.004064 0.000000 0.000000 0.000000
# 2 -0.006796 0.020822 -0.001415 0.000000 0.000000 0.000000
# 3 -0.004064 -0.001415 0.014613 0.000000 0.000000 0.000000
# 4 0.000000 0.000000 0.000000 0.049658 0.000000 0.000000
# 5 0.000000 0.000000 0.000000 0.000000 0.027803 0.000000
# 6 0.000000 0.000000 0.000000 0.000000 0.000000 0.021723
#
#
# Mechanical properties :
#
#
# Convention : Reuss Voigt Hill
#
# Bulk Modulus (GPa) = 46.54247 57.94276 52.24262
# Shear Modulus (GPa) = 28.25908 32.23601 30.24755
#
# Velocity S-wave (km/s) = 3.43811 3.67208 3.55702
# Velocity P-wave (km/s) = 5.93543 6.49739 6.22275
#
# Compressibility (1/GPa) = 0.02148575
#
# Stress axis : x y z
#
# Youngs Moduli (GPa) = 94.31501 48.02710 68.43317
#
# Poissons Ratio (x) = 0.32641 0.27814
# Poissons Ratio (y) = 0.64101 0.09682
# Poissons Ratio (z) = 0.38334 0.06795
#
# Static dielectric constant tensor:
#      x y z
#    x 2.029040 0.000000 0.000000 
#    y 0.000000 1.913940 0.000000 
#    z 0.000000 0.000000 2.056910 
# 
# From -- ./inp_files/8068.got.cif
#   From: 2010.05.17/outbox.cif.g08.bks.cpg/sg33_5_cif.got.tgz:8068.got - 2010.06.03 17:15:25.
