data_PCOD9346975
_publ_section_title
;
Structure prediction by ZEFSAII (Michael W. Deem and Ramdas Pophale) SiO2 
 PCOD9346975
Probable space group: P N A 21
;
_chemical_formula_sum "Si O2"
_cell_formula_units_Z 24
_cell_length_a 18.231383
_cell_length_b 9.525326
_cell_length_c 5.465561
_cell_angle_alpha 90.000000
_cell_angle_beta 90.000000
_cell_angle_gamma 90.000000
_cell_volume 949.148594
_symmetry_space_group_name_H-M "P N A 21"
_symmetry_group_IT_number 33
_symmetry_cell_setting 'orthorhombic'
loop_
_space_group_symop_operation_xyz
x,y,z
-x,-y,1/2+z
1/2-x,1/2+y,1/2+z
1/2+x,1/2-y,z
loop_
_atom_site_type_symbol
_atom_site_label
_atom_site_fract_x
_atom_site_fract_y
_atom_site_fract_z
Si Si1 0.875861 0.528918 0.552000
Si Si2 0.627344 0.767777 0.735834
Si Si3 0.479136 0.147531 0.872422
Si Si4 0.757657 0.722565 0.387678
Si Si5 0.538637 0.544646 0.231448
Si Si6 0.315824 0.483721 0.527512
O O1 0.846545 0.389237 0.418018
O O2 0.924991 0.474758 0.777494
O O3 0.808410 0.634603 0.577529
O O4 0.936559 0.603636 0.379311
O O5 0.547490 0.808761 0.642362
O O6 0.678642 0.758660 0.498397
O O7 0.638940 0.618131 0.852150
O O8 0.465209 0.285705 0.712786
O O9 0.744915 0.616554 0.159240
O O10 0.792200 0.878147 0.380901
O O11 0.502812 0.512660 0.493459
O O12 0.621377 0.482955 0.228135
#
# Coordination Sequence:
#
# PCOD9346975 Si02
#       6
#     4   4   4   4   4   4
#     4  12  26  48  79 113 155 214 267 331 408 491
#     4  12  25  49  77 107 161 205 262 340 399 487
#     4  12  26  48  80 113 157 209 273 332 404 484
#     4  12  28  49  77 117 153 219 260 332 414 506
#     4  12  27  49  79 116 161 210 269 341 406 479
#     4  12  28  49  78 110 163 203 269 330 415 485
#
# _framework density 25.285817000000002
#
# number of rings (size 3 to 8) (size 9 to 14) (size 15 to 20)
#    0.000    0.000    6.667    2.000    4.667    1.333 
#    3.000    0.000    0.000    0.000    0.000    0.000 
#    0.000    0.000    0.000    0.000    0.000    0.000 
#
# Total GULP energy -134259.905210 kJ/mol
# GULP energy per Si atom -5594.162717 kJ/mol
# Density = 2.522827 g / cm^3
# Si number density = 25.285817 Si / 1000 Ang^3
#
#
#
# Elastic Constant Matrix: (Units=GPa)
#
#
# Indices 1 2 3 4 5 6 
#
# 1 88.9793 47.0757 20.4493 0.0000 0.0000 0.0000
# 2 47.0757 146.8960 37.6335 0.0000 0.0000 0.0000
# 3 20.4493 37.6335 82.7424 0.0000 0.0000 0.0000
# 4 0.0000 0.0000 0.0000 45.0823 0.0000 0.0000
# 5 0.0000 0.0000 0.0000 0.0000 24.6616 0.0000
# 6 0.0000 0.0000 0.0000 0.0000 0.0000 52.8711
#
#
#
# Elastic Compliance Matrix: (Units=1/GPa)
#
#
# Indices 1 2 3 4 5 6 
#
# 1 0.013712 -0.003991 -0.001574 0.000000 0.000000 0.000000
# 2 -0.003991 0.008867 -0.003047 0.000000 0.000000 0.000000
# 3 -0.001574 -0.003047 0.013860 0.000000 0.000000 0.000000
# 4 0.000000 0.000000 0.000000 0.022182 0.000000 0.000000
# 5 0.000000 0.000000 0.000000 0.000000 0.040549 0.000000
# 6 0.000000 0.000000 0.000000 0.000000 0.000000 0.018914
#
#
# Mechanical properties :
#
#
# Convention : Reuss Voigt Hill
#
# Bulk Modulus (GPa) = 52.03821 58.77052 55.40436
# Shear Modulus (GPa) = 35.28296 38.75362 37.01829
#
# Velocity S-wave (km/s) = 3.73951 3.91912 3.83037
# Velocity P-wave (km/s) = 6.26657 6.61606 6.44369
#
# Compressibility (1/GPa) = 0.01921665
#
# Stress axis : x y z
#
# Youngs Moduli (GPa) = 72.93026 112.77685 72.14865
#
# Poissons Ratio (x) = 0.45010 0.11353
# Poissons Ratio (y) = 0.29107 0.21981
# Poissons Ratio (z) = 0.11476 0.34359
#
# Static dielectric constant tensor:
#      x y z
#    x 2.026430 0.000000 0.000000 
#    y 0.000000 2.023290 0.000000 
#    z 0.000000 0.000000 2.076820 
# 
# From -- ./inp_files/1658.got.cif
#   From: 2010.05.17/outbox.cif.g08.bks.cpg/sg33_1_cif.got.tgz:1658.got - 2010.06.03 17:15:25.
