data_PCOD9346772
_publ_section_title
;
Structure prediction by ZEFSAII (Michael W. Deem and Ramdas Pophale) SiO2 
 PCOD9346772
Probable space group: P N A 21
;
_chemical_formula_sum "Si O2"
_cell_formula_units_Z 24
_cell_length_a 14.175128
_cell_length_b 10.692049
_cell_length_c 6.584837
_cell_angle_alpha 90.000000
_cell_angle_beta 90.000000
_cell_angle_gamma 90.000000
_cell_volume 998.005555
_symmetry_space_group_name_H-M "P N A 21"
_symmetry_group_IT_number 33
_symmetry_cell_setting 'orthorhombic'
loop_
_space_group_symop_operation_xyz
x,y,z
-x,-y,1/2+z
1/2-x,1/2+y,1/2+z
1/2+x,1/2-y,z
loop_
_atom_site_type_symbol
_atom_site_label
_atom_site_fract_x
_atom_site_fract_y
_atom_site_fract_z
Si Si1 0.322497 0.312028 0.244860
Si Si2 0.158842 0.519006 0.791367
Si Si3 0.502305 0.088853 0.524873
Si Si4 0.464267 0.281307 0.863885
Si Si5 0.856975 0.026900 0.644709
Si Si6 0.387326 0.764652 0.673750
O O1 0.324403 0.167677 0.323029
O O2 0.347651 0.416208 0.415597
O O3 0.213752 0.331227 0.182826
O O4 0.392385 0.301801 0.051794
O O5 0.092956 0.489370 0.596829
O O6 0.255299 0.445286 0.752219
O O7 0.081589 0.495617 0.965014
O O8 0.454896 0.171060 0.701364
O O9 0.541631 0.175727 0.341045
O O10 0.447755 0.404955 0.734793
O O11 0.565685 0.255363 0.955051
O O12 0.868804 0.883259 0.707819
#
# Coordination Sequence:
#
# PCOD9346772 Si02
#       6
#     4   4   4   4   4   4
#     4  11  24  50  70 108 148 196 261 314 391 462
#     4  11  24  46  74 105 150 199 251 326 377 459
#     4  12  25  47  74 112 152 198 260 318 386 464
#     4  12  26  44  74 106 150 196 256 314 385 461
#     4  11  26  47  73 106 152 201 258 323 381 468
#     4  11  27  46  73 107 152 204 254 319 394 458
#
# _framework density 24.04796
#
# number of rings (size 3 to 8) (size 9 to 14) (size 15 to 20)
#    0.000    0.667    5.000    1.000    7.000    0.000 
#    6.000    0.000    0.000    0.000    0.000    0.000 
#    0.000    0.000    0.000    0.000    0.000    0.000 
#
# Total GULP energy -133795.497808 kJ/mol
# GULP energy per Si atom -5574.812409 kJ/mol
# Density = 2.399323 g / cm^3
# Si number density = 24.047960 Si / 1000 Ang^3
#
#
#
# Elastic Constant Matrix: (Units=GPa)
#
#
# Indices 1 2 3 4 5 6 
#
# 1 68.4473 25.0910 20.7802 0.0000 0.0000 0.0000
# 2 25.0910 56.2822 14.2669 0.0000 0.0000 0.0000
# 3 20.7802 14.2669 88.1214 0.0000 0.0000 0.0000
# 4 0.0000 0.0000 0.0000 46.8640 0.0000 0.0000
# 5 0.0000 0.0000 0.0000 0.0000 45.3815 0.0000
# 6 0.0000 0.0000 0.0000 0.0000 0.0000 41.1502
#
#
#
# Elastic Compliance Matrix: (Units=1/GPa)
#
#
# Indices 1 2 3 4 5 6 
#
# 1 0.018248 -0.007346 -0.003114 0.000000 0.000000 0.000000
# 2 -0.007346 0.021485 -0.001746 0.000000 0.000000 0.000000
# 3 -0.003114 -0.001746 0.012365 0.000000 0.000000 0.000000
# 4 0.000000 0.000000 0.000000 0.021338 0.000000 0.000000
# 5 0.000000 0.000000 0.000000 0.000000 0.022035 0.000000
# 6 0.000000 0.000000 0.000000 0.000000 0.000000 0.024301
#
#
# Mechanical properties :
#
#
# Convention : Reuss Voigt Hill
#
# Bulk Modulus (GPa) = 36.11886 37.01412 36.56649
# Shear Modulus (GPa) = 32.59175 36.86000 34.72588
#
# Velocity S-wave (km/s) = 3.68541 3.91931 3.80416
# Velocity P-wave (km/s) = 5.75862 5.99220 5.87658
#
# Compressibility (1/GPa) = 0.02768637
#
# Stress axis : x y z
#
# Youngs Moduli (GPa) = 54.80094 46.54408 80.87364
#
# Poissons Ratio (x) = 0.34190 0.25183
# Poissons Ratio (y) = 0.40255 0.14122
# Poissons Ratio (z) = 0.17064 0.08128
#
# Static dielectric constant tensor:
#      x y z
#    x 1.945130 0.000000 0.000000 
#    y 0.000000 1.987050 0.000000 
#    z 0.000000 0.000000 2.026720 
# 
# From -- ./inp_files/1315.got.cif
#   From: 2010.05.17/outbox.cif.g08.bks.cpg/sg33_1_cif.got.tgz:1315.got - 2010.06.03 17:15:25.
