data_PCOD9346509
_publ_section_title
;
Structure prediction by ZEFSAII (Michael W. Deem and Ramdas Pophale) SiO2 
 PCOD9346509
Probable space group: P N A 21
;
_chemical_formula_sum "Si O2"
_cell_formula_units_Z 32
_cell_length_a 8.308928
_cell_length_b 14.599540
_cell_length_c 11.640703
_cell_angle_alpha 90.000000
_cell_angle_beta 90.000000
_cell_angle_gamma 90.000000
_cell_volume 1412.093249
_symmetry_space_group_name_H-M "P N A 21"
_symmetry_group_IT_number 33
_symmetry_cell_setting 'orthorhombic'
loop_
_space_group_symop_operation_xyz
x,y,z
-x,-y,1/2+z
1/2-x,1/2+y,1/2+z
1/2+x,1/2-y,z
loop_
_atom_site_type_symbol
_atom_site_label
_atom_site_fract_x
_atom_site_fract_y
_atom_site_fract_z
Si Si1 0.729234 0.615767 0.695990
Si Si2 0.400668 0.496874 0.014937
Si Si3 0.196862 0.650635 0.420074
Si Si4 0.290135 0.432753 0.650367
Si Si5 0.717390 0.904665 0.827262
Si Si6 0.874898 0.561729 0.926120
Si Si7 0.032048 0.830283 0.341162
Si Si8 0.114217 0.212200 0.149887
O O1 0.722368 0.526110 0.616975
O O2 0.745571 0.591101 0.829135
O O3 0.876520 0.678418 0.652576
O O4 0.560605 0.667628 0.667488
O O5 0.339656 0.574181 0.930053
O O6 0.414735 0.406754 0.934655
O O7 0.567204 0.521301 0.075606
O O8 0.124771 0.549401 0.428535
O O9 0.070531 0.729710 0.389390
O O10 0.341779 0.654597 0.327346
O O11 0.291040 0.677566 0.537363
O O12 0.225025 0.510450 0.737001
O O13 0.164176 0.404125 0.553653
O O14 0.367279 0.353570 0.727742
O O15 0.542088 0.900403 0.879975
O O16 0.778658 0.817862 0.758221
#
# Coordination Sequence:
#
# PCOD9346509 Si02
#       8
#     4   4   4   4   4   4   4   4
#     4  12  24  41  70 101 138 183 227 294 353 421
#     4  11  21  42  71  97 136 180 229 285 360 411
#     4  12  23  43  70 103 138 180 231 299 346 419
#     4  11  23  47  65 100 144 181 231 287 351 438
#     4  11  25  40  72 103 133 182 232 288 354 418
#     4  12  26  43  69 100 144 184 234 287 360 423
#     4  11  24  41  68 104 134 181 229 295 355 414
#     4  12  22  43  69 102 139 173 243 293 347 416
#
# _framework density 22.661393
#
# number of rings (size 3 to 8) (size 9 to 14) (size 15 to 20)
#    0.000    0.500    6.250    2.250    5.250    1.000 
#    0.000    5.000    0.000    0.000    0.000    0.000 
#    0.000    0.000    0.000    0.000    0.000    0.000 
#
# Total GULP energy -179115.704168 kJ/mol
# GULP energy per Si atom -5597.365755 kJ/mol
# Density = 2.260981 g / cm^3
# Si number density = 22.661393 Si / 1000 Ang^3
#
#
#
# Elastic Constant Matrix: (Units=GPa)
#
#
# Indices 1 2 3 4 5 6 
#
# 1 63.0928 -0.2907 31.0883 0.0000 0.0000 0.0000
# 2 -0.2907 43.3060 4.7952 0.0000 0.0000 0.0000
# 3 31.0883 4.7952 115.9340 0.0000 0.0000 0.0000
# 4 0.0000 0.0000 0.0000 31.1972 0.0000 0.0000
# 5 0.0000 0.0000 0.0000 0.0000 38.9311 0.0000
# 6 0.0000 0.0000 0.0000 0.0000 0.0000 33.5826
#
#
#
# Elastic Compliance Matrix: (Units=1/GPa)
#
#
# Indices 1 2 3 4 5 6 
#
# 1 0.018282 0.000669 -0.004930 0.000000 0.000000 0.000000
# 2 0.000669 0.023222 -0.001140 0.000000 0.000000 0.000000
# 3 -0.004930 -0.001140 0.009995 0.000000 0.000000 0.000000
# 4 0.000000 0.000000 0.000000 0.032054 0.000000 0.000000
# 5 0.000000 0.000000 0.000000 0.000000 0.025686 0.000000
# 6 0.000000 0.000000 0.000000 0.000000 0.000000 0.029777
#
#
# Mechanical properties :
#
#
# Convention : Reuss Voigt Hill
#
# Bulk Modulus (GPa) = 24.57215 32.61314 28.59265
# Shear Modulus (GPa) = 30.60261 33.19151 31.89706
#
# Velocity S-wave (km/s) = 3.67881 3.83126 3.75580
# Velocity P-wave (km/s) = 5.37694 5.83045 5.60828
#
# Compressibility (1/GPa) = 0.04069647
#
# Stress axis : x y z
#
# Youngs Moduli (GPa) = 54.69867 43.06227 100.05241
#
# Poissons Ratio (x) = -0.02879 0.49326
# Poissons Ratio (y) = -0.03657 0.11404
# Poissons Ratio (z) = 0.26967 0.04908
#
# Static dielectric constant tensor:
#      x y z
#    x 1.884890 0.000000 0.000000 
#    y 0.000000 1.839820 0.000000 
#    z 0.000000 0.000000 1.842110 
# 
# From -- ./inp_files/5960.got.cif
#   From: 2010.05.17/outbox.cif.g08.bks.cpg/sg33_3_cif.got.tgz:5960.got - 2010.06.03 17:15:25.
