data_PCOD9346252
_publ_section_title
;
Structure prediction by ZEFSAII (Michael W. Deem and Ramdas Pophale) SiO2 
 PCOD9346252
Probable space group: P N A 21
;
_chemical_formula_sum "Si O2"
_cell_formula_units_Z 20
_cell_length_a 8.220212
_cell_length_b 9.029753
_cell_length_c 10.252248
_cell_angle_alpha 90.000000
_cell_angle_beta 90.000000
_cell_angle_gamma 90.000000
_cell_volume 760.988322
_symmetry_space_group_name_H-M "P N A 21"
_symmetry_group_IT_number 33
_symmetry_cell_setting 'orthorhombic'
loop_
_space_group_symop_operation_xyz
x,y,z
-x,-y,1/2+z
1/2-x,1/2+y,1/2+z
1/2+x,1/2-y,z
loop_
_atom_site_type_symbol
_atom_site_label
_atom_site_fract_x
_atom_site_fract_y
_atom_site_fract_z
Si Si1 0.992791 0.979828 0.678190
Si Si2 0.036029 0.523246 0.404938
Si Si3 0.255087 0.327492 0.543059
Si Si4 0.790186 0.706495 0.753235
Si Si5 0.168461 0.213534 0.821997
O O1 0.855569 0.857048 0.697769
O O2 0.157044 0.883647 0.671768
O O3 0.919984 0.079221 0.563792
O O4 0.024133 0.093965 0.797973
O O5 0.086235 0.422095 0.527705
O O6 0.064467 0.410188 0.284220
O O7 0.190348 0.633668 0.399112
O O8 0.886744 0.632572 0.385701
O O9 0.272917 0.257633 0.400335
O O10 0.231431 0.235884 0.673720
#
# Coordination Sequence:
#
# PCOD9346252 Si02
#       5
#     4   4   4   4   4
#     4  11  23  44  71 100 136 183 235 284 341 419
#     4   9  23  42  65 100 133 182 229 283 344 411
#     4  10  24  42  69  99 140 184 223 289 359 381
#     4   9  25  43  66 101 138 178 235 281 344 411
#     4  11  21  43  69  98 139 177 236 285 336 420
#
# _framework density 26.281613
#
# number of rings (size 3 to 8) (size 9 to 14) (size 15 to 20)
#    1.200    0.800    2.000    0.000    5.600    1.600 
#    0.000    0.000    0.000    0.000    0.000    0.000 
#    0.000    0.000    0.000    0.000    0.000    0.000 
#
# Total GULP energy -111757.655689 kJ/mol
# GULP energy per Si atom -5587.882784 kJ/mol
# Density = 2.622180 g / cm^3
# Si number density = 26.281613 Si / 1000 Ang^3
#
#
#
# Elastic Constant Matrix: (Units=GPa)
#
#
# Indices 1 2 3 4 5 6 
#
# 1 60.7725 24.6182 16.3488 0.0000 0.0000 0.0000
# 2 24.6182 81.1382 21.8403 0.0000 0.0000 0.0000
# 3 16.3488 21.8403 49.2923 0.0000 0.0000 0.0000
# 4 0.0000 0.0000 0.0000 32.2254 0.0000 0.0000
# 5 0.0000 0.0000 0.0000 0.0000 26.6286 0.0000
# 6 0.0000 0.0000 0.0000 0.0000 0.0000 55.0994
#
#
#
# Elastic Compliance Matrix: (Units=1/GPa)
#
#
# Indices 1 2 3 4 5 6 
#
# 1 0.019560 -0.004756 -0.004380 0.000000 0.000000 0.000000
# 2 -0.004756 0.015150 -0.005135 0.000000 0.000000 0.000000
# 3 -0.004380 -0.005135 0.024015 0.000000 0.000000 0.000000
# 4 0.000000 0.000000 0.000000 0.031031 0.000000 0.000000
# 5 0.000000 0.000000 0.000000 0.000000 0.037554 0.000000
# 6 0.000000 0.000000 0.000000 0.000000 0.000000 0.018149
#
#
# Mechanical properties :
#
#
# Convention : Reuss Voigt Hill
#
# Bulk Modulus (GPa) = 33.13173 35.20194 34.16683
# Shear Modulus (GPa) = 27.16480 31.35040 29.25760
#
# Velocity S-wave (km/s) = 3.21846 3.45753 3.34014
# Velocity P-wave (km/s) = 5.14248 5.41873 5.28241
#
# Compressibility (1/GPa) = 0.03018255
#
# Stress axis : x y z
#
# Youngs Moduli (GPa) = 51.12584 66.00742 41.64013
#
# Poissons Ratio (x) = 0.31390 0.18240
# Poissons Ratio (y) = 0.24313 0.21383
# Poissons Ratio (z) = 0.22395 0.33897
#
# Static dielectric constant tensor:
#      x y z
#    x 2.136750 0.000000 0.000000 
#    y 0.000000 2.102310 0.000000 
#    z 0.000000 0.000000 2.005070 
# 
# From -- ./inp_files/5722.got.cif
#   From: 2010.05.17/outbox.cif.g08.bks.cpg/sg33_3_cif.got.tgz:5722.got - 2010.06.03 17:15:25.
