data_PCOD9346691
_publ_section_title
;
Structure prediction by ZEFSAII (Michael W. Deem and Ramdas Pophale) SiO2 
 PCOD9346691
Probable space group: P N A 21
;
_chemical_formula_sum "Si O2"
_cell_formula_units_Z 20
_cell_length_a 12.137483
_cell_length_b 11.880356
_cell_length_c 5.010047
_cell_angle_alpha 90.000000
_cell_angle_beta 90.000000
_cell_angle_gamma 90.000000
_cell_volume 722.436848
_symmetry_space_group_name_H-M "P N A 21"
_symmetry_group_IT_number 33
_symmetry_cell_setting 'orthorhombic'
loop_
_space_group_symop_operation_xyz
x,y,z
-x,-y,1/2+z
1/2-x,1/2+y,1/2+z
1/2+x,1/2-y,z
loop_
_atom_site_type_symbol
_atom_site_label
_atom_site_fract_x
_atom_site_fract_y
_atom_site_fract_z
Si Si1 0.133873 0.922093 0.375000
Si Si2 0.071427 0.150414 0.126416
Si Si3 0.067183 0.473422 0.667161
Si Si4 0.216634 0.288252 0.511324
Si Si5 0.742036 0.935378 0.257748
O O1 0.052211 0.835384 0.520451
O O2 0.073111 0.041180 0.322631
O O3 0.232547 0.956609 0.575569
O O4 0.185704 0.874332 0.102975
O O5 0.143037 0.249558 0.257370
O O6 0.143201 0.105601 0.882707
O O7 0.116443 0.347826 0.676945
O O8 0.157780 0.543766 0.497825
O O9 0.033888 0.517928 0.956786
O O10 0.280109 0.173153 0.579430
#
# Coordination Sequence:
#
# PCOD9346691 Si02
#       5
#     4   4   4   4   4
#     4  11  23  49  77 112 164 204 274 343 401 504
#     4  11  24  46  78 116 151 217 271 330 421 488
#     4  12  29  53  77 113 167 215 271 345 417 500
#     4  11  28  46  80 116 159 208 275 339 419 499
#     4  11  26  48  76 111 157 212 267 337 408 495
#
# _framework density 27.684080999999999
#
# number of rings (size 3 to 8) (size 9 to 14) (size 15 to 20)
#    0.000    0.800    4.000    1.200   11.200    0.000 
#    3.600    0.000    0.000    0.000    0.000    0.000 
#    0.000    0.000    0.000    0.000    0.000    0.000 
#
# Total GULP energy -111725.060498 kJ/mol
# GULP energy per Si atom -5586.253025 kJ/mol
# Density = 2.762107 g / cm^3
# Si number density = 27.684081 Si / 1000 Ang^3
#
#
#
# Elastic Constant Matrix: (Units=GPa)
#
#
# Indices 1 2 3 4 5 6 
#
# 1 124.6914 58.6179 20.4790 0.0000 0.0000 0.0000
# 2 58.6179 127.5024 46.6491 0.0000 0.0000 0.0000
# 3 20.4790 46.6491 126.4633 0.0000 0.0000 0.0000
# 4 0.0000 0.0000 0.0000 10.1330 0.0000 0.0000
# 5 0.0000 0.0000 0.0000 0.0000 62.6201 0.0000
# 6 0.0000 0.0000 0.0000 0.0000 0.0000 42.4240
#
#
#
# Elastic Compliance Matrix: (Units=1/GPa)
#
#
# Indices 1 2 3 4 5 6 
#
# 1 0.010232 -0.004737 0.000090 0.000000 0.000000 0.000000
# 2 -0.004737 0.011260 -0.003386 0.000000 0.000000 0.000000
# 3 0.000090 -0.003386 0.009142 0.000000 0.000000 0.000000
# 4 0.000000 0.000000 0.000000 0.098687 0.000000 0.000000
# 5 0.000000 0.000000 0.000000 0.000000 0.015969 0.000000
# 6 0.000000 0.000000 0.000000 0.000000 0.000000 0.023572
#
#
# Mechanical properties :
#
#
# Convention : Reuss Voigt Hill
#
# Bulk Modulus (GPa) = 68.64525 70.01657 69.33091
# Shear Modulus (GPa) = 26.34581 39.89617 33.12099
#
# Velocity S-wave (km/s) = 3.08824 3.80033 3.46264
# Velocity P-wave (km/s) = 6.12912 6.67854 6.40972
#
# Compressibility (1/GPa) = 0.01456765
#
# Stress axis : x y z
#
# Youngs Moduli (GPa) = 97.73390 88.81173 109.38628
#
# Poissons Ratio (x) = 0.42071 -0.00990
# Poissons Ratio (y) = 0.46297 0.37042
# Poissons Ratio (z) = -0.00884 0.30075
#
# Static dielectric constant tensor:
#      x y z
#    x 2.218990 0.000000 0.000000 
#    y 0.000000 2.283280 0.000000 
#    z 0.000000 0.000000 2.237560 
# 
# From -- ./inp_files/1297.got.cif
#   From: 2010.05.17/outbox.cif.g08.bks.cpg/sg33_1_cif.got.tgz:1297.got - 2010.06.03 17:15:25.
