data_PCOD9346526
_publ_section_title
;
Structure prediction by ZEFSAII (Michael W. Deem and Ramdas Pophale) SiO2 
 PCOD9346526
Probable space group: P N A 21
;
_chemical_formula_sum "Si O2"
_cell_formula_units_Z 32
_cell_length_a 11.090792
_cell_length_b 21.650994
_cell_length_c 6.662463
_cell_angle_alpha 90.000000
_cell_angle_beta 90.000000
_cell_angle_gamma 90.000000
_cell_volume 1599.835061
_symmetry_space_group_name_H-M "P N A 21"
_symmetry_group_IT_number 33
_symmetry_cell_setting 'orthorhombic'
loop_
_space_group_symop_operation_xyz
x,y,z
-x,-y,1/2+z
1/2-x,1/2+y,1/2+z
1/2+x,1/2-y,z
loop_
_atom_site_type_symbol
_atom_site_label
_atom_site_fract_x
_atom_site_fract_y
_atom_site_fract_z
Si Si1 0.896679 0.955225 0.318090
Si Si2 0.247463 0.330524 0.088666
Si Si3 0.034469 0.653225 0.625474
Si Si4 0.771036 0.440276 0.203681
Si Si5 0.677634 0.774454 0.290628
Si Si6 0.576392 0.728005 0.899223
Si Si7 0.860224 0.850173 0.013839
Si Si8 0.336741 0.461121 0.966335
O O1 0.810054 0.939096 0.503372
O O2 0.919902 0.897189 0.171909
O O3 0.027543 0.976057 0.393268
O O4 0.830691 0.006834 0.184057
O O5 0.316634 0.309397 0.290501
O O6 0.109165 0.349032 0.117340
O O7 0.256604 0.271859 0.941973
O O8 0.315686 0.388807 0.992066
O O9 0.096833 0.587320 0.665364
O O10 0.095401 0.679756 0.422035
O O11 0.066073 0.705389 0.792586
O O12 0.713375 0.392174 0.360252
O O13 0.754878 0.506339 0.311467
O O14 0.772512 0.808839 0.148686
O O15 0.597146 0.736320 0.134892
O O16 0.452785 0.690132 0.884791
#
# Coordination Sequence:
#
# PCOD9346526 Si02
#       8
#     4   4   4   4   4   4   4   4
#     4  11  22  40  69  93 124 158 221 278 317 377
#     4  11  26  42  63  99 135 168 217 267 324 394
#     4  11  24  43  62  93 138 172 210 264 323 400
#     4  11  23  43  65  89 128 170 213 268 319 383
#     4  11  22  41  66  99 129 169 212 259 331 390
#     4  11  23  39  67  98 129 166 208 269 324 383
#     4  11  22  38  69  96 122 167 212 263 327 380
#     4  11  24  42  65  95 121 168 219 266 327 373
#
# _framework density 20.002061999999999
#
# number of rings (size 3 to 8) (size 9 to 14) (size 15 to 20)
#    0.000    1.000    3.750    3.000    3.500    3.000 
#    2.250    0.000    0.000    0.000    0.000    0.000 
#    0.000    0.000    0.000    0.000    0.000    0.000 
#
# Total GULP energy -178827.830549 kJ/mol
# GULP energy per Si atom -5588.369705 kJ/mol
# Density = 1.995654 g / cm^3
# Si number density = 20.002062 Si / 1000 Ang^3
#
#
#
# Elastic Constant Matrix: (Units=GPa)
#
#
# Indices 1 2 3 4 5 6 
#
# 1 58.5788 -11.4588 9.4002 0.0000 0.0000 0.0000
# 2 -11.4588 38.6711 2.4069 0.0000 0.0000 0.0000
# 3 9.4002 2.4069 80.8465 0.0000 0.0000 0.0000
# 4 0.0000 0.0000 0.0000 19.7612 0.0000 0.0000
# 5 0.0000 0.0000 0.0000 0.0000 26.6971 0.0000
# 6 0.0000 0.0000 0.0000 0.0000 0.0000 22.6437
#
#
#
# Elastic Compliance Matrix: (Units=1/GPa)
#
#
# Indices 1 2 3 4 5 6 
#
# 1 0.018547 0.005641 -0.002324 0.000000 0.000000 0.000000
# 2 0.005641 0.027623 -0.001478 0.000000 0.000000 0.000000
# 3 -0.002324 -0.001478 0.012683 0.000000 0.000000 0.000000
# 4 0.000000 0.000000 0.000000 0.050604 0.000000 0.000000
# 5 0.000000 0.000000 0.000000 0.000000 0.037457 0.000000
# 6 0.000000 0.000000 0.000000 0.000000 0.000000 0.044162
#
#
# Mechanical properties :
#
#
# Convention : Reuss Voigt Hill
#
# Bulk Modulus (GPa) = 15.99256 19.86587 17.92921
# Shear Modulus (GPa) = 24.01026 25.67028 24.84027
#
# Velocity S-wave (km/s) = 3.46842 3.58632 3.52786
# Velocity P-wave (km/s) = 4.90436 5.20599 5.05743
#
# Compressibility (1/GPa) = 0.06252909
#
# Stress axis : x y z
#
# Youngs Moduli (GPa) = 53.91586 36.20235 78.84321
#
# Poissons Ratio (x) = -0.20420 0.18327
# Poissons Ratio (y) = -0.30412 0.11655
# Poissons Ratio (z) = 0.12533 0.05351
#
# Static dielectric constant tensor:
#      x y z
#    x 1.708090 0.000000 0.000000 
#    y 0.000000 1.728110 0.000000 
#    z 0.000000 0.000000 1.705050 
# 
# From -- ./inp_files/1019.got.cif
#   From: 2010.05.17/outbox.cif.g08.bks.cpg/sg33_1_cif.got.tgz:1019.got - 2010.06.03 17:15:25.
