data_PCOD9346074
_publ_section_title
;
Structure prediction by ZEFSAII (Michael W. Deem and Ramdas Pophale) SiO2 
 PCOD9346074
Probable space group: P N A 21
;
_chemical_formula_sum "Si O2"
_cell_formula_units_Z 16
_cell_length_a 5.252587
_cell_length_b 16.867030
_cell_length_c 7.320469
_cell_angle_alpha 90.000000
_cell_angle_beta 90.000000
_cell_angle_gamma 90.000000
_cell_volume 648.560922
_symmetry_space_group_name_H-M "P N A 21"
_symmetry_group_IT_number 33
_symmetry_cell_setting 'orthorhombic'
loop_
_space_group_symop_operation_xyz
x,y,z
-x,-y,1/2+z
1/2-x,1/2+y,1/2+z
1/2+x,1/2-y,z
loop_
_atom_site_type_symbol
_atom_site_label
_atom_site_fract_x
_atom_site_fract_y
_atom_site_fract_z
Si Si1 0.031942 0.291748 0.022000
Si Si2 0.339844 0.549590 0.094868
Si Si3 0.950722 0.774101 0.118649
Si Si4 0.843474 0.455463 0.184337
O O1 0.316042 0.270600 0.083665
O O2 0.937749 0.377520 0.080138
O O3 0.039980 0.280134 0.801327
O O4 0.424850 0.634618 0.171457
O O5 0.591769 0.495025 0.096036
O O6 0.092307 0.512144 0.191428
O O7 0.245700 0.563720 0.888772
O O8 0.706381 0.743859 0.012910
#
# Coordination Sequence:
#
# PCOD9346074 Si02
#       4
#     4   4   4   4
#     4  10  23  42  73 104 145 194 248 302 381 438
#     4  12  28  46  75 112 155 198 253 311 381 449
#     4  10  23  42  73 104 145 194 248 302 381 438
#     4  12  28  46  75 112 155 198 253 311 381 449
#
# _framework density 24.670003999999999
#
# number of rings (size 3 to 8) (size 9 to 14) (size 15 to 20)
#    0.000    1.000    0.000    4.500   21.000    2.000 
#    0.000    0.000    0.000    0.000    0.000    0.000 
#    0.000    0.000    0.000    0.000    0.000    0.000 
#
# Total GULP energy -89608.252023 kJ/mol
# GULP energy per Si atom -5600.515751 kJ/mol
# Density = 2.461385 g / cm^3
# Si number density = 24.670004 Si / 1000 Ang^3
#
#
#
# Elastic Constant Matrix: (Units=GPa)
#
#
# Indices 1 2 3 4 5 6 
#
# 1 204.7209 40.0810 -4.0021 0.0000 0.0000 0.0000
# 2 40.0810 122.8314 9.4739 0.0000 0.0000 0.0000
# 3 -4.0021 9.4739 87.3161 0.0000 0.0000 0.0000
# 4 0.0000 0.0000 0.0000 20.6255 0.0000 0.0000
# 5 0.0000 0.0000 0.0000 0.0000 17.3662 0.0000
# 6 0.0000 0.0000 0.0000 0.0000 0.0000 25.7495
#
#
#
# Elastic Compliance Matrix: (Units=1/GPa)
#
#
# Indices 1 2 3 4 5 6 
#
# 1 0.005234 -0.001741 0.000429 0.000000 0.000000 0.000000
# 2 -0.001741 0.008789 -0.001033 0.000000 0.000000 0.000000
# 3 0.000429 -0.001033 0.011584 0.000000 0.000000 0.000000
# 4 0.000000 0.000000 0.000000 0.048484 0.000000 0.000000
# 5 0.000000 0.000000 0.000000 0.000000 0.057583 0.000000
# 6 0.000000 0.000000 0.000000 0.000000 0.000000 0.038836
#
#
# Mechanical properties :
#
#
# Convention : Reuss Voigt Hill
#
# Bulk Modulus (GPa) = 47.80972 56.21931 52.01452
# Shear Modulus (GPa) = 27.44639 37.36927 32.40783
#
# Velocity S-wave (km/s) = 3.33910 3.89622 3.62837
# Velocity P-wave (km/s) = 5.85558 6.56344 6.21959
#
# Compressibility (1/GPa) = 0.02091625
#
# Stress axis : x y z
#
# Youngs Moduli (GPa) = 191.06102 113.77811 86.32278
#
# Poissons Ratio (x) = 0.19808 -0.03701
# Poissons Ratio (y) = 0.33263 0.08921
# Poissons Ratio (z) = -0.08193 0.11758
#
# Static dielectric constant tensor:
#      x y z
#    x 2.084950 0.000000 0.000000 
#    y 0.000000 1.915950 0.000000 
#    z 0.000000 0.000000 1.963950 
# 
# From -- ./inp_files/2597.got.cif
#   From: 2010.05.17/outbox.cif.g08.bks.cpg/sg33_2_cif.got.tgz:2597.got - 2010.06.03 17:15:25.
