data_PCOD9346645
_publ_section_title
;
Structure prediction by ZEFSAII (Michael W. Deem and Ramdas Pophale) SiO2 
 PCOD9346645
Probable space group: P N A 21
;
_chemical_formula_sum "Si O2"
_cell_formula_units_Z 32
_cell_length_a 14.246429
_cell_length_b 9.056791
_cell_length_c 11.628463
_cell_angle_alpha 90.000000
_cell_angle_beta 90.000000
_cell_angle_gamma 90.000000
_cell_volume 1500.384881
_symmetry_space_group_name_H-M "P N A 21"
_symmetry_group_IT_number 33
_symmetry_cell_setting 'orthorhombic'
loop_
_space_group_symop_operation_xyz
x,y,z
-x,-y,1/2+z
1/2-x,1/2+y,1/2+z
1/2+x,1/2-y,z
loop_
_atom_site_type_symbol
_atom_site_label
_atom_site_fract_x
_atom_site_fract_y
_atom_site_fract_z
Si Si1 0.761286 0.550036 0.238720
Si Si2 0.778677 0.846617 0.119341
Si Si3 0.607608 0.354383 0.115241
Si Si4 0.952160 0.754729 0.846160
Si Si5 0.719312 0.029794 0.338976
Si Si6 0.231002 0.763588 0.471235
Si Si7 0.568551 0.519247 0.512022
Si Si8 0.842246 0.303447 0.388565
O O1 0.793140 0.675497 0.150318
O O2 0.670432 0.475122 0.181588
O O3 0.750000 0.644398 0.355517
O O4 0.823275 0.413405 0.282011
O O5 0.726204 0.938700 0.219492
O O6 0.718347 0.852667 0.000763
O O7 0.881643 0.917980 0.107817
O O8 0.540034 0.281362 0.210024
O O9 0.680578 0.239762 0.057690
O O10 0.538292 0.433557 0.027041
O O11 0.870238 0.634675 0.854052
O O12 0.046932 0.703195 0.907107
O O13 0.923597 0.911236 0.902443
O O14 0.805991 0.141673 0.352617
O O15 0.719317 0.906135 0.436836
O O16 0.135447 0.837892 0.513187
#
# Coordination Sequence:
#
# PCOD9346645 Si02
#       8
#     4   4   4   4   4   4   4   4
#     4  11  24  46  70 101 143 182 238 290 359 432
#     4  11  23  45  73  99 140 195 226 297 364 416
#     4  12  25  43  75 102 139 191 237 289 369 419
#     4  12  25  44  68 104 141 183 235 302 350 433
#     4  11  23  45  68 102 140 181 243 290 362 423
#     4  11  24  45  71 101 142 188 235 302 349 433
#     4  12  24  46  72 102 145 185 246 291 361 432
#     4  12  24  48  69 101 148 183 238 301 358 426
#
# _framework density 21.327860000000001
#
# number of rings (size 3 to 8) (size 9 to 14) (size 15 to 20)
#    0.000    0.500    5.000    3.750    1.750    2.000 
#    6.750    0.000    0.000    0.000    0.000    0.000 
#    0.000    0.000    0.000    0.000    0.000    0.000 
#
# Total GULP energy -178697.115362 kJ/mol
# GULP energy per Si atom -5584.284855 kJ/mol
# Density = 2.127932 g / cm^3
# Si number density = 21.327860 Si / 1000 Ang^3
#
#
#
# Elastic Constant Matrix: (Units=GPa)
#
#
# Indices 1 2 3 4 5 6 
#
# 1 97.0713 31.6200 31.5488 0.0000 0.0000 0.0000
# 2 31.6200 92.5018 32.4784 0.0000 0.0000 0.0000
# 3 31.5488 32.4784 63.9154 0.0000 0.0000 0.0000
# 4 0.0000 0.0000 0.0000 48.1590 0.0000 0.0000
# 5 0.0000 0.0000 0.0000 0.0000 9.0540 0.0000
# 6 0.0000 0.0000 0.0000 0.0000 0.0000 17.2279
#
#
#
# Elastic Compliance Matrix: (Units=1/GPa)
#
#
# Indices 1 2 3 4 5 6 
#
# 1 0.012771 -0.002620 -0.004973 0.000000 0.000000 0.000000
# 2 -0.002620 0.013696 -0.005666 0.000000 0.000000 0.000000
# 3 -0.004973 -0.005666 0.020980 0.000000 0.000000 0.000000
# 4 0.000000 0.000000 0.000000 0.020765 0.000000 0.000000
# 5 0.000000 0.000000 0.000000 0.000000 0.110448 0.000000
# 6 0.000000 0.000000 0.000000 0.000000 0.000000 0.058045
#
#
# Mechanical properties :
#
#
# Convention : Reuss Voigt Hill
#
# Bulk Modulus (GPa) = 47.78062 49.42033 48.60047
# Shear Modulus (GPa) = 18.50493 25.41095 21.95794
#
# Velocity S-wave (km/s) = 2.94877 3.45547 3.21213
# Velocity P-wave (km/s) = 5.83483 6.25639 6.04928
#
# Compressibility (1/GPa) = 0.02092899
#
# Stress axis : x y z
#
# Youngs Moduli (GPa) = 78.30127 73.01634 47.66547
#
# Poissons Ratio (x) = 0.19127 0.23703
# Poissons Ratio (y) = 0.20512 0.27009
# Poissons Ratio (z) = 0.38937 0.41373
#
# Static dielectric constant tensor:
#      x y z
#    x 1.737300 0.000000 0.000000 
#    y 0.000000 1.777970 0.000000 
#    z 0.000000 0.000000 1.857520 
# 
# From -- ./inp_files/6814.got.cif
#   From: 2010.05.17/outbox.cif.g08.bks.cpg/sg33_4_cif.got.tgz:6814.got - 2010.06.03 17:15:25.
