data_PCOD9346726
_publ_section_title
;
Structure prediction by ZEFSAII (Michael W. Deem and Ramdas Pophale) SiO2 
 PCOD9346726
Probable space group: P N A 21
;
_chemical_formula_sum "Si O2"
_cell_formula_units_Z 32
_cell_length_a 27.154872
_cell_length_b 9.303947
_cell_length_c 5.367618
_cell_angle_alpha 90.000000
_cell_angle_beta 90.000000
_cell_angle_gamma 90.000000
_cell_volume 1356.115214
_symmetry_space_group_name_H-M "P N A 21"
_symmetry_group_IT_number 33
_symmetry_cell_setting 'orthorhombic'
loop_
_space_group_symop_operation_xyz
x,y,z
-x,-y,1/2+z
1/2-x,1/2+y,1/2+z
1/2+x,1/2-y,z
loop_
_atom_site_type_symbol
_atom_site_label
_atom_site_fract_x
_atom_site_fract_y
_atom_site_fract_z
Si Si1 0.639517 0.527968 0.833610
Si Si2 0.910486 0.765591 0.561840
Si Si3 0.346218 0.968811 0.282433
Si Si4 0.257593 0.572310 0.949294
Si Si5 0.996603 0.405336 0.871921
Si Si6 0.341513 0.722390 0.946023
Si Si7 0.895154 0.288982 0.020985
Si Si8 0.201028 0.793216 0.237292
O O1 0.660901 0.406256 0.647971
O O2 0.608681 0.641225 0.671817
O O3 0.602959 0.428715 0.994132
O O4 0.679201 0.614052 0.002261
O O5 0.868994 0.652020 0.463000
O O6 0.897633 0.766412 0.853790
O O7 0.960601 0.705610 0.453570
O O8 0.298237 0.053780 0.357558
O O9 0.388063 0.081913 0.216004
O O10 0.330190 0.878650 0.042201
O O11 0.296245 0.664771 0.780289
O O12 0.277668 0.409261 0.933401
O O13 0.243910 0.681072 0.174269
O O14 0.003962 0.479165 0.601798
O O15 0.944724 0.321483 0.874355
O O16 0.846904 0.285692 0.846802
#
# Coordination Sequence:
#
# PCOD9346726 Si02
#       8
#     4   4   4   4   4   4   4   4
#     4  11  24  47  70 106 152 193 248 319 399 461
#     4  11  25  49  75 106 152 198 257 328 397 469
#     4  11  25  41  70 104 144 198 251 309 376 467
#     4  12  24  44  68 108 149 206 247 310 398 476
#     4  12  29  53  84 116 153 207 273 334 412 489
#     4  11  24  44  68 104 150 195 250 312 381 467
#     4  12  26  49  76 108 153 198 263 330 395 478
#     4  12  27  47  73 110 157 201 263 328 394 493
#
# _framework density 23.596816
#
# number of rings (size 3 to 8) (size 9 to 14) (size 15 to 20)
#    0.000    0.500    6.250    0.750    7.000    3.000 
#    4.500    0.000    0.000    0.000    0.000    0.000 
#    0.000    0.000    0.000    0.000    0.000    0.000 
#
# Total GULP energy -178566.503588 kJ/mol
# GULP energy per Si atom -5580.203237 kJ/mol
# Density = 2.354311 g / cm^3
# Si number density = 23.596816 Si / 1000 Ang^3
#
#
#
# Elastic Constant Matrix: (Units=GPa)
#
#
# Indices 1 2 3 4 5 6 
#
# 1 97.9739 21.7995 1.2336 0.0000 0.0000 0.0000
# 2 21.7995 126.5754 27.5700 0.0000 0.0000 0.0000
# 3 1.2336 27.5700 52.6814 0.0000 0.0000 0.0000
# 4 0.0000 0.0000 0.0000 42.0191 0.0000 0.0000
# 5 0.0000 0.0000 0.0000 0.0000 28.3702 0.0000
# 6 0.0000 0.0000 0.0000 0.0000 0.0000 31.5271
#
#
#
# Elastic Compliance Matrix: (Units=1/GPa)
#
#
# Indices 1 2 3 4 5 6 
#
# 1 0.010643 -0.002008 0.000801 0.000000 0.000000 0.000000
# 2 -0.002008 0.009296 -0.004818 0.000000 0.000000 0.000000
# 3 0.000801 -0.004818 0.021485 0.000000 0.000000 0.000000
# 4 0.000000 0.000000 0.000000 0.023799 0.000000 0.000000
# 5 0.000000 0.000000 0.000000 0.000000 0.035248 0.000000
# 6 0.000000 0.000000 0.000000 0.000000 0.000000 0.031719
#
#
# Mechanical properties :
#
#
# Convention : Reuss Voigt Hill
#
# Bulk Modulus (GPa) = 34.04168 42.04854 38.04511
# Shear Modulus (GPa) = 32.46145 35.49178 33.97661
#
# Velocity S-wave (km/s) = 3.71303 3.88247 3.79869
# Velocity P-wave (km/s) = 5.73060 6.16087 5.94963
#
# Compressibility (1/GPa) = 0.02937575
#
# Stress axis : x y z
#
# Youngs Moduli (GPa) = 93.95485 107.57824 46.54510
#
# Poissons Ratio (x) = 0.21598 -0.03730
# Poissons Ratio (y) = 0.18863 0.22424
# Poissons Ratio (z) = -0.07530 0.51828
#
# Static dielectric constant tensor:
#      x y z
#    x 2.041470 0.000000 0.000000 
#    y 0.000000 1.844520 0.000000 
#    z 0.000000 0.000000 2.159000 
# 
# From -- ./inp_files/2544.got.cif
#   From: 2010.05.17/outbox.cif.g08.bks.cpg/sg33_2_cif.got.tgz:2544.got - 2010.06.03 17:15:25.
