data_PCOD9346356
_publ_section_title
;
Structure prediction by ZEFSAII (Michael W. Deem and Ramdas Pophale) SiO2 
 PCOD9346356
Probable space group: P N A 21
;
_chemical_formula_sum "Si O2"
_cell_formula_units_Z 28
_cell_length_a 15.151005
_cell_length_b 13.585884
_cell_length_c 4.877845
_cell_angle_alpha 90.000000
_cell_angle_beta 90.000000
_cell_angle_gamma 90.000000
_cell_volume 1004.054622
_symmetry_space_group_name_H-M "P N A 21"
_symmetry_group_IT_number 33
_symmetry_cell_setting 'orthorhombic'
loop_
_space_group_symop_operation_xyz
x,y,z
-x,-y,1/2+z
1/2-x,1/2+y,1/2+z
1/2+x,1/2-y,z
loop_
_atom_site_type_symbol
_atom_site_label
_atom_site_fract_x
_atom_site_fract_y
_atom_site_fract_z
Si Si1 0.712237 0.551398 0.803230
Si Si2 0.103592 0.434853 0.976205
Si Si3 0.769536 0.350760 0.044698
Si Si4 0.805409 0.702710 0.123937
Si Si5 0.106210 0.648555 0.050713
Si Si6 0.030058 0.944664 0.487970
Si Si7 0.959184 0.755501 0.773766
O O1 0.801927 0.552424 0.626300
O O2 0.716553 0.450850 0.979331
O O3 0.629602 0.555764 0.600673
O O4 0.721607 0.648825 0.989888
O O5 0.131712 0.391659 0.683560
O O6 0.063028 0.542077 0.991406
O O7 0.051371 0.345328 0.106553
O O8 0.718343 0.259647 0.902756
O O9 0.858006 0.351185 0.857557
O O10 0.807798 0.346847 0.350468
O O11 0.867299 0.771177 0.935893
O O12 0.038617 0.734166 0.982124
O O13 0.983662 0.844090 0.576107
O O14 0.018343 0.970997 0.171108
#
# Coordination Sequence:
#
# PCOD9346356 Si02
#       7
#     4   4   4   4   4   4   4
#     4  10  24  47  68 105 142 193 246 300 362 446
#     4  10  25  44  75 103 146 188 244 304 371 439
#     4  11  25  43  74 100 143 190 247 295 365 440
#     4  11  24  44  73 103 142 194 245 300 369 450
#     4  11  26  47  72 111 140 191 240 313 368 440
#     4  12  30  49  74 109 153 197 247 309 369 444
#     4  11  28  44  74 109 150 195 249 307 388 435
#
# _framework density 27.886927
#
# number of rings (size 3 to 8) (size 9 to 14) (size 15 to 20)
#    0.000    1.143    1.429    1.714   16.000    0.000 
#    0.000    0.000    0.000    0.000    0.000    0.000 
#    0.000    0.000    0.000    0.000    0.000    0.000 
#
# Total GULP energy -157271.706743 kJ/mol
# GULP energy per Si atom -5616.846669 kJ/mol
# Density = 2.782346 g / cm^3
# Si number density = 27.886927 Si / 1000 Ang^3
#
#
#
# Elastic Constant Matrix: (Units=GPa)
#
#
# Indices 1 2 3 4 5 6 
#
# 1 128.3585 27.3749 17.2898 0.0000 0.0000 0.0000
# 2 27.3749 157.6779 5.3871 0.0000 0.0000 0.0000
# 3 17.2898 5.3871 74.6354 0.0000 0.0000 0.0000
# 4 0.0000 0.0000 0.0000 45.3312 0.0000 0.0000
# 5 0.0000 0.0000 0.0000 0.0000 43.8179 0.0000
# 6 0.0000 0.0000 0.0000 0.0000 0.0000 42.5228
#
#
#
# Elastic Compliance Matrix: (Units=1/GPa)
#
#
# Indices 1 2 3 4 5 6 
#
# 1 0.008332 -0.001384 -0.001830 0.000000 0.000000 0.000000
# 2 -0.001384 0.006588 -0.000155 0.000000 0.000000 0.000000
# 3 -0.001830 -0.000155 0.013834 0.000000 0.000000 0.000000
# 4 0.000000 0.000000 0.000000 0.022060 0.000000 0.000000
# 5 0.000000 0.000000 0.000000 0.000000 0.022822 0.000000
# 6 0.000000 0.000000 0.000000 0.000000 0.000000 0.023517
#
#
# Mechanical properties :
#
#
# Convention : Reuss Voigt Hill
#
# Bulk Modulus (GPa) = 45.42337 51.19728 48.31033
# Shear Modulus (GPa) = 44.95230 47.04238 45.99734
#
# Velocity S-wave (km/s) = 4.01926 4.11164 4.06571
# Velocity P-wave (km/s) = 6.15330 6.39840 6.27705
#
# Compressibility (1/GPa) = 0.02201510
#
# Stress axis : x y z
#
# Youngs Moduli (GPa) = 120.01334 151.79971 72.28748
#
# Poissons Ratio (x) = 0.21010 0.13231
# Poissons Ratio (y) = 0.16611 0.01119
# Poissons Ratio (z) = 0.21967 0.02351
#
# Static dielectric constant tensor:
#      x y z
#    x 2.196840 0.000000 0.000000 
#    y 0.000000 2.176440 0.000000 
#    z 0.000000 0.000000 2.136670 
# 
# From -- ./inp_files/1430.got.cif
#   From: 2010.05.17/outbox.cif.g08.bks.cpg/sg33_1_cif.got.tgz:1430.got - 2010.06.03 17:15:25.
