data_PCOD9346481
_publ_section_title
;
Structure prediction by ZEFSAII (Michael W. Deem and Ramdas Pophale) SiO2 
 PCOD9346481
Probable space group: P N A 21
;
_chemical_formula_sum "Si O2"
_cell_formula_units_Z 28
_cell_length_a 7.616826
_cell_length_b 15.866270
_cell_length_c 9.669717
_cell_angle_alpha 90.000000
_cell_angle_beta 90.000000
_cell_angle_gamma 90.000000
_cell_volume 1168.591274
_symmetry_space_group_name_H-M "P N A 21"
_symmetry_group_IT_number 33
_symmetry_cell_setting 'orthorhombic'
loop_
_space_group_symop_operation_xyz
x,y,z
-x,-y,1/2+z
1/2-x,1/2+y,1/2+z
1/2+x,1/2-y,z
loop_
_atom_site_type_symbol
_atom_site_label
_atom_site_fract_x
_atom_site_fract_y
_atom_site_fract_z
Si Si1 0.632470 0.046211 0.299840
Si Si2 0.846967 0.643211 0.546320
Si Si3 0.913273 0.990118 0.519463
Si Si4 0.853155 0.860476 0.938952
Si Si5 0.509467 0.186235 0.512910
Si Si6 0.313416 0.918192 0.243041
Si Si7 0.756668 0.832763 0.619482
O O1 0.720139 0.076198 0.158615
O O2 0.764640 0.000826 0.401816
O O3 0.578541 0.130623 0.383830
O O4 0.467930 0.987265 0.263743
O O5 0.060683 0.641676 0.568278
O O6 0.785785 0.618485 0.394435
O O7 0.785352 0.735999 0.584626
O O8 0.841816 0.035878 0.659457
O O9 0.069874 0.047726 0.464043
O O10 0.905003 0.891252 0.549562
O O11 0.687709 0.844307 0.036888
O O12 0.785298 0.846302 0.783212
O O13 0.986324 0.784473 0.974338
O O14 0.621664 0.157342 0.643862
#
# Coordination Sequence:
#
# PCOD9346481 Si02
#       7
#     4   4   4   4   4   4   4
#     4  11  20  45  75  97 136 190 231 280 359 427
#     4  12  25  44  75 101 141 183 236 292 361 414
#     4  11  26  46  72 107 141 184 241 293 355 431
#     4  12  24  46  72 102 139 189 237 288 354 433
#     4  11  23  42  73  97 137 188 232 283 349 434
#     4  11  23  45  71 103 139 181 237 295 351 420
#     4  12  25  48  70 107 141 183 240 295 351 433
#
# _framework density 23.960474000000001
#
# number of rings (size 3 to 8) (size 9 to 14) (size 15 to 20)
#    0.000    0.571    5.714    2.571    2.000    3.429 
#    7.714    0.000    0.000    0.000    0.000    0.000 
#    0.000    0.000    0.000    0.000    0.000    0.000 
#
# Total GULP energy -156899.796991 kJ/mol
# GULP energy per Si atom -5603.564178 kJ/mol
# Density = 2.390594 g / cm^3
# Si number density = 23.960474 Si / 1000 Ang^3
#
#
#
# Elastic Constant Matrix: (Units=GPa)
#
#
# Indices 1 2 3 4 5 6 
#
# 1 47.5749 -1.8506 10.3009 0.0000 0.0000 0.0000
# 2 -1.8506 111.4222 44.6286 0.0000 0.0000 0.0000
# 3 10.3009 44.6286 164.6457 0.0000 0.0000 0.0000
# 4 0.0000 0.0000 0.0000 37.6697 0.0000 0.0000
# 5 0.0000 0.0000 0.0000 0.0000 18.6411 0.0000
# 6 0.0000 0.0000 0.0000 0.0000 0.0000 34.5790
#
#
#
# Elastic Compliance Matrix: (Units=1/GPa)
#
#
# Indices 1 2 3 4 5 6 
#
# 1 0.021407 0.001001 -0.001611 0.000000 0.000000 0.000000
# 2 0.001001 0.010115 -0.002804 0.000000 0.000000 0.000000
# 3 -0.001611 -0.002804 0.006935 0.000000 0.000000 0.000000
# 4 0.000000 0.000000 0.000000 0.026547 0.000000 0.000000
# 5 0.000000 0.000000 0.000000 0.000000 0.053645 0.000000
# 6 0.000000 0.000000 0.000000 0.000000 0.000000 0.028919
#
#
# Mechanical properties :
#
#
# Convention : Reuss Voigt Hill
#
# Bulk Modulus (GPa) = 31.61757 47.75563 39.68660
# Shear Modulus (GPa) = 30.31438 36.21554 33.26496
#
# Velocity S-wave (km/s) = 3.56080 3.89198 3.73007
# Velocity P-wave (km/s) = 5.48909 6.33806 5.92879
#
# Compressibility (1/GPa) = 0.03162798
#
# Stress axis : x y z
#
# Youngs Moduli (GPa) = 46.71339 98.86591 144.20579
#
# Poissons Ratio (x) = -0.09893 0.23225
# Poissons Ratio (y) = -0.04674 0.40439
# Poissons Ratio (z) = 0.07523 0.27725
#
# Static dielectric constant tensor:
#      x y z
#    x 2.001700 0.000000 0.000000 
#    y 0.000000 1.872290 0.000000 
#    z 0.000000 0.000000 1.878290 
# 
# From -- ./inp_files/3206.got.cif
#   From: 2010.05.17/outbox.cif.g08.bks.cpg/sg33_2_cif.got.tgz:3206.got - 2010.06.03 17:15:25.
