data_PCOD9346843
_publ_section_title
;
Structure prediction by ZEFSAII (Michael W. Deem and Ramdas Pophale) SiO2 
 PCOD9346843
Probable space group: P N A 21
;
_chemical_formula_sum "Si O2"
_cell_formula_units_Z 28
_cell_length_a 8.037231
_cell_length_b 12.329645
_cell_length_c 12.448103
_cell_angle_alpha 90.000000
_cell_angle_beta 90.000000
_cell_angle_gamma 90.000000
_cell_volume 1233.559767
_symmetry_space_group_name_H-M "P N A 21"
_symmetry_group_IT_number 33
_symmetry_cell_setting 'orthorhombic'
loop_
_space_group_symop_operation_xyz
x,y,z
-x,-y,1/2+z
1/2-x,1/2+y,1/2+z
1/2+x,1/2-y,z
loop_
_atom_site_type_symbol
_atom_site_label
_atom_site_fract_x
_atom_site_fract_y
_atom_site_fract_z
Si Si1 0.147619 0.894171 0.872250
Si Si2 0.287029 0.609487 0.498847
Si Si3 0.105583 0.931030 0.624466
Si Si4 0.272637 0.799215 0.335732
Si Si5 0.924149 0.537666 0.477944
Si Si6 0.514567 0.330581 0.681812
Si Si7 0.981849 0.700929 0.968716
O O1 0.162722 0.900070 0.744195
O O2 0.298531 0.840707 0.939377
O O3 0.005270 0.807340 0.896397
O O4 0.140303 0.015813 0.919447
O O5 0.437481 0.628505 0.582855
O O6 0.248214 0.720382 0.436571
O O7 0.103798 0.564173 0.532205
O O8 0.265674 0.927255 0.547899
O O9 0.049251 0.056104 0.627029
O O10 0.405650 0.890054 0.370051
O O11 0.330771 0.718505 0.243374
O O12 0.115067 0.851148 0.278424
O O13 0.913994 0.409774 0.452290
O O14 0.480892 0.242779 0.588835
#
# Coordination Sequence:
#
# PCOD9346843 Si02
#       7
#     4   4   4   4   4   4   4
#     4  11  25  47  70 107 145 195 242 315 371 440
#     4  11  25  49  73 108 150 187 255 311 367 446
#     4  12  26  47  76 106 147 200 250 300 380 447
#     4  12  24  46  74 108 148 190 250 312 372 438
#     4  11  27  47  72 108 151 192 244 318 370 443
#     4  12  24  44  80 107 136 200 257 300 361 452
#     4  11  25  46  71 108 151 186 252 312 373 442
#
# _framework density 22.698535
#
# number of rings (size 3 to 8) (size 9 to 14) (size 15 to 20)
#    0.000    0.571    4.286    3.429    2.000    1.143 
#    2.571    0.000    0.000    0.000    0.000    0.000 
#    0.000    0.000    0.000    0.000    0.000    0.000 
#
# Total GULP energy -156297.163249 kJ/mol
# GULP energy per Si atom -5582.041545 kJ/mol
# Density = 2.264687 g / cm^3
# Si number density = 22.698535 Si / 1000 Ang^3
#
#
#
# Elastic Constant Matrix: (Units=GPa)
#
#
# Indices 1 2 3 4 5 6 
#
# 1 102.3567 9.6926 32.5994 0.0000 0.0000 0.0000
# 2 9.6926 94.7255 23.7620 0.0000 0.0000 0.0000
# 3 32.5994 23.7620 73.3357 0.0000 0.0000 0.0000
# 4 0.0000 0.0000 0.0000 -75.4140 0.0000 0.0000
# 5 0.0000 0.0000 0.0000 0.0000 34.7659 0.0000
# 6 0.0000 0.0000 0.0000 0.0000 0.0000 36.0537
#
#
#
# Elastic Compliance Matrix: (Units=1/GPa)
#
#
# Indices 1 2 3 4 5 6 
#
# 1 0.011382 0.000114 -0.005097 0.000000 0.000000 0.000000
# 2 0.000114 0.011492 -0.003774 0.000000 0.000000 0.000000
# 3 -0.005097 -0.003774 0.017124 0.000000 0.000000 0.000000
# 4 0.000000 0.000000 0.000000 -0.013260 0.000000 0.000000
# 5 0.000000 0.000000 0.000000 0.000000 0.028764 0.000000
# 6 0.000000 0.000000 0.000000 0.000000 0.000000 0.027736
#
#
# Mechanical properties :
#
#
# Convention : Reuss Voigt Hill
#
# Bulk Modulus (GPa) = 44.47473 44.72511 44.59992
# Shear Modulus (GPa) = 46.19061 12.70537 29.44799
#
# Velocity S-wave (km/s) = 4.51595 2.36846 3.60578
# Velocity P-wave (km/s) = 6.84309 5.21787 6.08499
#
# Compressibility (1/GPa) = 0.02248468
#
# Stress axis : x y z
#
# Youngs Moduli (GPa) = 87.85680 87.01767 58.39650
#
# Poissons Ratio (x) = -0.00990 0.29762
# Poissons Ratio (y) = -0.01000 0.22040
# Poissons Ratio (z) = 0.44776 0.32842
#
# Static dielectric constant tensor:
#      x y z
#    x 1.958900 0.000000 0.000000 
#    y 0.000000 1.892330 0.000000 
#    z 0.000000 0.000000 1.862150 
# 
# From -- ./inp_files/5831.got.cif
#   From: 2010.05.17/outbox.cif.g08.bks.cpg/sg33_3_cif.got.tgz:5831.got - 2010.06.03 17:15:25.
