data_PCOD9346557
_publ_section_title
;
Structure prediction by ZEFSAII (Michael W. Deem and Ramdas Pophale) SiO2 
 PCOD9346557
Probable space group: P N A 21
;
_chemical_formula_sum "Si O2"
_cell_formula_units_Z 32
_cell_length_a 9.490628
_cell_length_b 7.324852
_cell_length_c 20.967950
_cell_angle_alpha 90.000000
_cell_angle_beta 90.000000
_cell_angle_gamma 90.000000
_cell_volume 1457.638321
_symmetry_space_group_name_H-M "P N A 21"
_symmetry_group_IT_number 33
_symmetry_cell_setting 'orthorhombic'
loop_
_space_group_symop_operation_xyz
x,y,z
-x,-y,1/2+z
1/2-x,1/2+y,1/2+z
1/2+x,1/2-y,z
loop_
_atom_site_type_symbol
_atom_site_label
_atom_site_fract_x
_atom_site_fract_y
_atom_site_fract_z
Si Si1 0.283291 0.095533 0.936720
Si Si2 0.428386 0.641868 0.240701
Si Si3 0.888100 0.455180 0.552878
Si Si4 0.584087 0.352965 0.594121
Si Si5 0.517979 0.312397 0.010212
Si Si6 0.873169 0.435235 0.792246
Si Si7 0.052438 0.165707 0.331764
Si Si8 0.203634 0.696802 0.920245
O O1 0.336368 0.121175 0.864918
O O2 0.281573 0.877004 0.947555
O O3 0.381865 0.208273 0.983827
O O4 0.123743 0.153079 0.951633
O O5 0.460502 0.612860 0.166626
O O6 0.261653 0.623793 0.251435
O O7 0.490082 0.833658 0.265543
O O8 0.501322 0.488248 0.284074
O O9 0.751684 0.376299 0.588213
O O10 0.023916 0.343317 0.574682
O O11 0.909233 0.670870 0.559037
O O12 0.858179 0.418497 0.477889
O O13 0.519354 0.500071 0.544957
O O14 0.892765 0.653364 0.795501
O O15 0.178532 0.098307 0.377703
O O16 0.921513 0.232005 0.375139
#
# Coordination Sequence:
#
# PCOD9346557 Si02
#       8
#     4   4   4   4   4   4   4   4
#     4  11  22  43  70 105 142 167 237 288 359 407
#     4  12  27  47  70  98 143 190 239 278 342 427
#     4  12  25  45  73  99 141 181 231 292 350 408
#     4  12  28  47  67 102 141 191 238 280 341 424
#     4  12  25  44  69 107 136 187 225 295 349 414
#     4  11  26  45  71 107 134 181 236 290 351 412
#     4  11  24  46  68 105 141 182 222 294 353 413
#     4  11  23  43  70 105 142 171 230 293 359 407
#
# _framework density 21.953320000000001
#
# number of rings (size 3 to 8) (size 9 to 14) (size 15 to 20)
#    0.000    0.500    5.000    4.500    3.500    2.000 
#    0.000    0.000    0.000    0.000    0.000    0.000 
#    0.000    0.000    0.000    0.000    0.000    0.000 
#
# Total GULP energy -179234.986093 kJ/mol
# GULP energy per Si atom -5601.093315 kJ/mol
# Density = 2.190335 g / cm^3
# Si number density = 21.953320 Si / 1000 Ang^3
#
#
#
# Elastic Constant Matrix: (Units=GPa)
#
#
# Indices 1 2 3 4 5 6 
#
# 1 61.7741 -19.4817 -7.6965 0.0000 0.0000 0.0000
# 2 -19.4817 52.6816 -14.4455 0.0000 0.0000 0.0000
# 3 -7.6965 -14.4455 65.7252 0.0000 0.0000 0.0000
# 4 0.0000 0.0000 0.0000 3.5252 0.0000 0.0000
# 5 0.0000 0.0000 0.0000 0.0000 21.9500 0.0000
# 6 0.0000 0.0000 0.0000 0.0000 0.0000 37.9476
#
#
#
# Elastic Compliance Matrix: (Units=1/GPa)
#
#
# Indices 1 2 3 4 5 6 
#
# 1 0.019299 0.008254 0.004074 0.000000 0.000000 0.000000
# 2 0.008254 0.023729 0.006182 0.000000 0.000000 0.000000
# 3 0.004074 0.006182 0.017051 0.000000 0.000000 0.000000
# 4 0.000000 0.000000 0.000000 0.283670 0.000000 0.000000
# 5 0.000000 0.000000 0.000000 0.000000 0.045558 0.000000
# 6 0.000000 0.000000 0.000000 0.000000 0.000000 0.026352
#
#
# Mechanical properties :
#
#
# Convention : Reuss Voigt Hill
#
# Bulk Modulus (GPa) = 10.29894 10.77041 10.53468
# Shear Modulus (GPa) = 12.16527 27.47152 19.81840
#
# Velocity S-wave (km/s) = 2.35658 3.54130 3.00784
# Velocity P-wave (km/s) = 3.47938 4.65164 4.10754
#
# Compressibility (1/GPa) = 0.09709734
#
# Stress axis : x y z
#
# Youngs Moduli (GPa) = 51.81735 42.14209 58.64893
#
# Poissons Ratio (x) = -0.34783 -0.23893
# Poissons Ratio (y) = -0.42768 -0.36256
# Poissons Ratio (z) = -0.21110 -0.26052
#
# Static dielectric constant tensor:
#      x y z
#    x 1.822660 0.000000 0.000000 
#    y 0.000000 1.804240 0.000000 
#    z 0.000000 0.000000 1.782070 
# 
# From -- ./inp_files/8980.got.cif
#   From: 2010.05.17/outbox.cif.g08.bks.cpg/sg33_5_cif.got.tgz:8980.got - 2010.06.03 17:15:25.
