data_PCOD9346109
_publ_section_title
;
Structure prediction by ZEFSAII (Michael W. Deem and Ramdas Pophale) SiO2 
 PCOD9346109
Probable space group: P N A 21
;
_chemical_formula_sum "Si O2"
_cell_formula_units_Z 24
_cell_length_a 14.863331
_cell_length_b 7.717698
_cell_length_c 7.530036
_cell_angle_alpha 90.000000
_cell_angle_beta 90.000000
_cell_angle_gamma 90.000000
_cell_volume 863.775700
_symmetry_space_group_name_H-M "P N A 21"
_symmetry_group_IT_number 33
_symmetry_cell_setting 'orthorhombic'
loop_
_space_group_symop_operation_xyz
x,y,z
-x,-y,1/2+z
1/2-x,1/2+y,1/2+z
1/2+x,1/2-y,z
loop_
_atom_site_type_symbol
_atom_site_label
_atom_site_fract_x
_atom_site_fract_y
_atom_site_fract_z
Si Si1 0.256843 0.167066 0.309770
Si Si2 0.914694 0.656392 0.836272
Si Si3 0.082183 0.523541 0.982248
Si Si4 0.303097 0.280250 0.908268
Si Si5 0.983495 0.093774 0.064458
Si Si6 0.376680 0.657988 0.298254
O O1 0.352391 0.167171 0.404092
O O2 0.221317 0.970336 0.330786
O O3 0.180858 0.281187 0.402344
O O4 0.268895 0.235877 0.109572
O O5 0.894364 0.518491 0.682478
O O6 0.973955 0.797232 0.727492
O O7 0.979182 0.575751 0.979142
O O8 0.096980 0.353314 0.859427
O O9 0.231632 0.157840 0.800635
O O10 0.411192 0.297456 0.944120
O O11 0.926611 0.929750 0.132235
O O12 0.073684 0.051855 0.956007
#
# Coordination Sequence:
#
# PCOD9346109 Si02
#       6
#     4   4   4   4   4   4
#     4  11  20  44  72 100 150 191 244 310 378 457
#     4  11  22  43  74 105 148 195 247 307 379 454
#     4  10  23  43  73 106 148 191 250 308 377 456
#     4  11  23  43  72 105 147 184 248 313 373 456
#     4  11  22  43  72 101 144 191 247 308 372 455
#     4  10  24  46  69 103 143 192 250 300 383 450
#
# _framework density 27.784991000000002
#
# number of rings (size 3 to 8) (size 9 to 14) (size 15 to 20)
#    0.000    1.333    6.667    1.000    0.000    2.667 
#    6.000    3.333    0.000    0.000    0.000    0.000 
#    0.000    0.000    0.000    0.000    0.000    0.000 
#
# Total GULP energy -134290.839775 kJ/mol
# GULP energy per Si atom -5595.451657 kJ/mol
# Density = 2.772175 g / cm^3
# Si number density = 27.784991 Si / 1000 Ang^3
#
#
#
# Elastic Constant Matrix: (Units=GPa)
#
#
# Indices 1 2 3 4 5 6 
#
# 1 172.4013 80.6148 30.1536 0.0000 0.0000 0.0000
# 2 80.6148 99.5435 35.9371 0.0000 0.0000 0.0000
# 3 30.1536 35.9371 75.8450 0.0000 0.0000 0.0000
# 4 0.0000 0.0000 0.0000 52.2602 0.0000 0.0000
# 5 0.0000 0.0000 0.0000 0.0000 30.4512 0.0000
# 6 0.0000 0.0000 0.0000 0.0000 0.0000 71.5359
#
#
#
# Elastic Compliance Matrix: (Units=1/GPa)
#
#
# Indices 1 2 3 4 5 6 
#
# 1 0.009337 -0.007505 -0.000156 0.000000 0.000000 0.000000
# 2 -0.007505 0.018152 -0.005617 0.000000 0.000000 0.000000
# 3 -0.000156 -0.005617 0.015908 0.000000 0.000000 0.000000
# 4 0.000000 0.000000 0.000000 0.019135 0.000000 0.000000
# 5 0.000000 0.000000 0.000000 0.000000 0.032839 0.000000
# 6 0.000000 0.000000 0.000000 0.000000 0.000000 0.013979
#
#
# Mechanical properties :
#
#
# Convention : Reuss Voigt Hill
#
# Bulk Modulus (GPa) = 59.37945 71.24453 65.31199
# Shear Modulus (GPa) = 35.33052 44.25509 39.79280
#
# Velocity S-wave (km/s) = 3.56977 3.99528 3.78851
# Velocity P-wave (km/s) = 6.19746 6.85420 6.53409
#
# Compressibility (1/GPa) = 0.01684084
#
# Stress axis : x y z
#
# Youngs Moduli (GPa) = 107.09824 55.09079 62.86072
#
# Poissons Ratio (x) = 0.41348 0.00980
# Poissons Ratio (y) = 0.80381 0.35308
# Poissons Ratio (z) = 0.01670 0.30944
#
# Static dielectric constant tensor:
#      x y z
#    x 2.083690 0.000000 0.000000 
#    y 0.000000 2.290910 0.000000 
#    z 0.000000 0.000000 2.169130 
# 
# From -- ./inp_files/4915.got.cif
#   From: 2010.05.17/outbox.cif.g08.bks.cpg/sg33_3_cif.got.tgz:4915.got - 2010.06.03 17:15:25.
