data_PCOD9346150
_publ_section_title
;
Structure prediction by ZEFSAII (Michael W. Deem and Ramdas Pophale) SiO2 
 PCOD9346150
Probable space group: P N A 21
;
_chemical_formula_sum "Si O2"
_cell_formula_units_Z 28
_cell_length_a 10.678210
_cell_length_b 18.510089
_cell_length_c 5.158766
_cell_angle_alpha 90.000000
_cell_angle_beta 90.000000
_cell_angle_gamma 90.000000
_cell_volume 1019.653920
_symmetry_space_group_name_H-M "P N A 21"
_symmetry_group_IT_number 33
_symmetry_cell_setting 'orthorhombic'
loop_
_space_group_symop_operation_xyz
x,y,z
-x,-y,1/2+z
1/2-x,1/2+y,1/2+z
1/2+x,1/2-y,z
loop_
_atom_site_type_symbol
_atom_site_label
_atom_site_fract_x
_atom_site_fract_y
_atom_site_fract_z
Si Si1 0.581984 0.226178 0.335470
Si Si2 0.457447 0.628904 0.987429
Si Si3 0.082731 0.563817 0.154739
Si Si4 0.408102 0.209073 0.835790
Si Si5 0.374100 0.355643 0.993459
Si Si6 0.283829 0.503602 0.832631
Si Si7 0.330078 0.924553 0.918423
O O1 0.636280 0.304015 0.419505
O O2 0.472546 0.217381 0.553965
O O3 0.677634 0.159218 0.347815
O O4 0.513859 0.218017 0.058535
O O5 0.561503 0.645428 0.770904
O O6 0.398820 0.552216 0.919413
O O7 0.516946 0.631312 0.273366
O O8 0.143868 0.627669 0.327201
O O9 0.094326 0.482575 0.252839
O O10 0.166324 0.555277 0.896707
O O11 0.936831 0.582162 0.146809
O O12 0.320550 0.278002 0.900761
O O13 0.289913 0.427599 0.989535
O O14 0.280623 0.471703 0.543763
#
# Coordination Sequence:
#
# PCOD9346150 Si02
#       7
#     4   4   4   4   4   4   4
#     4   9  20  40  67  89 124 171 213 262 319 369
#     4  10  23  45  67  95 128 167 215 269 318 379
#     4  11  23  40  62  91 131 171 214 264 317 381
#     4   9  20  40  67  89 124 171 213 262 319 369
#     4  10  23  45  67  95 128 167 215 269 318 379
#     4  12  26  38  66  98 128 174 210 262 328 384
#     4  11  23  40  62  91 131 171 214 264 317 381
#
# _framework density 27.460296
#
# number of rings (size 3 to 8) (size 9 to 14) (size 15 to 20)
#    0.000    1.714    1.429    1.714    8.000    1.143 
#    0.000    1.429    0.000    0.000    0.000    0.000 
#    0.000    0.000    0.000    0.000    0.000    0.000 
#
# Total GULP energy -156413.138765 kJ/mol
# GULP energy per Si atom -5586.183527 kJ/mol
# Density = 2.739779 g / cm^3
# Si number density = 27.460296 Si / 1000 Ang^3
#
#
#
# Elastic Constant Matrix: (Units=GPa)
#
#
# Indices 1 2 3 4 5 6 
#
# 1 49.9814 41.7528 7.2535 0.0000 0.0000 0.0000
# 2 41.7528 221.6229 13.5280 0.0000 0.0000 0.0000
# 3 7.2535 13.5280 109.9834 0.0000 0.0000 0.0000
# 4 0.0000 0.0000 0.0000 55.0644 0.0000 0.0000
# 5 0.0000 0.0000 0.0000 0.0000 19.3597 0.0000
# 6 0.0000 0.0000 0.0000 0.0000 0.0000 41.2078
#
#
#
# Elastic Compliance Matrix: (Units=1/GPa)
#
#
# Indices 1 2 3 4 5 6 
#
# 1 0.023859 -0.004432 -0.001028 0.000000 0.000000 0.000000
# 2 -0.004432 0.005370 -0.000368 0.000000 0.000000 0.000000
# 3 -0.001028 -0.000368 0.009205 0.000000 0.000000 0.000000
# 4 0.000000 0.000000 0.000000 0.018161 0.000000 0.000000
# 5 0.000000 0.000000 0.000000 0.000000 0.051654 0.000000
# 6 0.000000 0.000000 0.000000 0.000000 0.000000 0.024267
#
#
# Mechanical properties :
#
#
# Convention : Reuss Voigt Hill
#
# Bulk Modulus (GPa) = 37.34580 56.29513 46.82046
# Shear Modulus (GPa) = 32.65869 44.39663 38.52766
#
# Velocity S-wave (km/s) = 3.45237 4.02525 3.74977
# Velocity P-wave (km/s) = 5.43335 6.49220 5.98623
#
# Compressibility (1/GPa) = 0.02677677
#
# Stress axis : x y z
#
# Youngs Moduli (GPa) = 41.91259 186.23199 108.63208
#
# Poissons Ratio (x) = 0.82542 0.11171
# Poissons Ratio (y) = 0.18576 0.03999
# Poissons Ratio (z) = 0.04310 0.06856
#
# Static dielectric constant tensor:
#      x y z
#    x 2.296870 0.000000 0.000000 
#    y 0.000000 2.283070 0.000000 
#    z 0.000000 0.000000 2.507080 
# 
# From -- ./inp_files/934.got.cif
#   From: 2010.05.17/outbox.cif.g08.bks.cpg/sg33_1_cif.got.tgz:934.got - 2010.06.03 17:15:25.
