data_PCOD9346405
_publ_section_title
;
Structure prediction by ZEFSAII (Michael W. Deem and Ramdas Pophale) SiO2 
 PCOD9346405
Probable space group: P N A 21
;
_chemical_formula_sum "Si O2"
_cell_formula_units_Z 20
_cell_length_a 8.719416
_cell_length_b 7.342237
_cell_length_c 13.511519
_cell_angle_alpha 90.000000
_cell_angle_beta 90.000000
_cell_angle_gamma 90.000000
_cell_volume 865.007700
_symmetry_space_group_name_H-M "P N A 21"
_symmetry_group_IT_number 33
_symmetry_cell_setting 'orthorhombic'
loop_
_space_group_symop_operation_xyz
x,y,z
-x,-y,1/2+z
1/2-x,1/2+y,1/2+z
1/2+x,1/2-y,z
loop_
_atom_site_type_symbol
_atom_site_label
_atom_site_fract_x
_atom_site_fract_y
_atom_site_fract_z
Si Si1 0.746685 0.341938 0.800670
Si Si2 0.518855 0.353848 0.316613
Si Si3 0.438195 0.998331 0.235878
Si Si4 0.089812 0.269011 0.105558
Si Si5 0.856752 0.096338 0.976359
O O1 0.613754 0.493535 0.807058
O O2 0.058801 0.654684 0.820695
O O3 0.676044 0.164116 0.750194
O O4 0.890702 0.417336 0.742397
O O5 0.613031 0.329380 0.212511
O O6 0.622224 0.418894 0.407658
O O7 0.557810 0.896895 0.632087
O O8 0.683485 0.763791 0.402795
O O9 0.223908 0.389143 0.058336
O O10 0.020429 0.128109 0.028010
#
# Coordination Sequence:
#
# PCOD9346405 Si02
#       5
#     4   4   4   4   4
#     4  12  22  46  74 109 145 198 247 315 377 453
#     4  10  25  44  76 100 157 197 245 318 388 435
#     4  10  26  43  78 103 149 203 241 315 387 441
#     4  10  25  45  74 108 149 198 254 315 371 473
#     4  12  22  46  74 106 154 194 253 315 375 454
#
# _framework density 23.121179999999999
#
# number of rings (size 3 to 8) (size 9 to 14) (size 15 to 20)
#    1.200    0.000    4.000    1.200    5.600    0.000 
#    0.000   10.000    0.000    0.000    0.000    0.000 
#    0.000    0.000    0.000    0.000    0.000    0.000 
#
# Total GULP energy -111572.136568 kJ/mol
# GULP energy per Si atom -5578.606828 kJ/mol
# Density = 2.306856 g / cm^3
# Si number density = 23.121180 Si / 1000 Ang^3
#
#
#
# Elastic Constant Matrix: (Units=GPa)
#
#
# Indices 1 2 3 4 5 6 
#
# 1 43.5073 27.2308 14.8111 0.0000 0.0000 0.0000
# 2 27.2308 138.5151 25.5257 0.0000 0.0000 0.0000
# 3 14.8111 25.5257 91.5157 0.0000 0.0000 0.0000
# 4 0.0000 0.0000 0.0000 25.1191 0.0000 0.0000
# 5 0.0000 0.0000 0.0000 0.0000 43.5440 0.0000
# 6 0.0000 0.0000 0.0000 0.0000 0.0000 42.6789
#
#
#
# Elastic Compliance Matrix: (Units=1/GPa)
#
#
# Indices 1 2 3 4 5 6 
#
# 1 0.026991 -0.004745 -0.003045 0.000000 0.000000 0.000000
# 2 -0.004745 0.008445 -0.001587 0.000000 0.000000 0.000000
# 3 -0.003045 -0.001587 0.011863 0.000000 0.000000 0.000000
# 4 0.000000 0.000000 0.000000 0.039810 0.000000 0.000000
# 5 0.000000 0.000000 0.000000 0.000000 0.022965 0.000000
# 6 0.000000 0.000000 0.000000 0.000000 0.000000 0.023431
#
#
# Mechanical properties :
#
#
# Convention : Reuss Voigt Hill
#
# Bulk Modulus (GPa) = 35.03388 45.40815 40.22101
# Shear Modulus (GPa) = 30.90727 35.99976 33.45352
#
# Velocity S-wave (km/s) = 3.66013 3.95017 3.80791
# Velocity P-wave (km/s) = 5.74867 6.36294 6.06359
#
# Compressibility (1/GPa) = 0.02854380
#
# Stress axis : x y z
#
# Youngs Moduli (GPa) = 37.04930 118.41588 84.29827
#
# Poissons Ratio (x) = 0.56189 0.25667
# Poissons Ratio (y) = 0.17580 0.13382
# Poissons Ratio (z) = 0.11281 0.18798
#
# Static dielectric constant tensor:
#      x y z
#    x 1.922020 0.000000 0.000000 
#    y 0.000000 1.877880 0.000000 
#    z 0.000000 0.000000 1.924140 
# 
# From -- ./inp_files/7545.got.cif
#   From: 2010.05.17/outbox.cif.g08.bks.cpg/sg33_4_cif.got.tgz:7545.got - 2010.06.03 17:15:25.
