data_PCOD9346406
_publ_section_title
;
Structure prediction by ZEFSAII (Michael W. Deem and Ramdas Pophale) SiO2 
 PCOD9346406
Probable space group: P N A 21
;
_chemical_formula_sum "Si O2"
_cell_formula_units_Z 20
_cell_length_a 9.554314
_cell_length_b 4.896408
_cell_length_c 17.579723
_cell_angle_alpha 90.000000
_cell_angle_beta 90.000000
_cell_angle_gamma 90.000000
_cell_volume 822.411428
_symmetry_space_group_name_H-M "P N A 21"
_symmetry_group_IT_number 33
_symmetry_cell_setting 'orthorhombic'
loop_
_space_group_symop_operation_xyz
x,y,z
-x,-y,1/2+z
1/2-x,1/2+y,1/2+z
1/2+x,1/2-y,z
loop_
_atom_site_type_symbol
_atom_site_label
_atom_site_fract_x
_atom_site_fract_y
_atom_site_fract_z
Si Si1 0.257626 0.772768 0.620700
Si Si2 0.812812 0.750913 0.208546
Si Si3 0.489141 0.571359 0.076289
Si Si4 0.479909 0.947147 0.933417
Si Si5 0.839622 0.951027 0.379572
O O1 0.297674 0.049735 0.664644
O O2 0.372369 0.601294 0.578094
O O3 0.142179 0.871903 0.560494
O O4 0.204668 0.562894 0.685571
O O5 0.818425 0.827374 0.295500
O O6 0.949907 0.849207 0.162744
O O7 0.490021 0.816765 0.017668
O O8 0.568479 0.222735 0.923101
O O9 0.316588 0.982862 0.910732
O O10 0.562703 0.720865 0.882237
#
# Coordination Sequence:
#
# PCOD9346406 Si02
#       5
#     4   4   4   4   4
#     4  10  25  44  79 109 152 196 272 327 393 461
#     4  10  26  45  81 113 158 201 275 326 402 468
#     4  10  28  47  79 116 156 210 265 334 393 482
#     4  12  30  52  78 118 168 214 269 328 419 483
#     4  12  29  50  83 116 166 213 267 335 415 486
#
# _framework density 24.318729000000001
#
# number of rings (size 3 to 8) (size 9 to 14) (size 15 to 20)
#    1.200    0.000    0.000    2.400   14.000    1.600 
#    0.000    0.000    0.000    0.000    0.000    0.000 
#    0.000    0.000    0.000    0.000    0.000    0.000 
#
# Total GULP energy -111829.485798 kJ/mol
# GULP energy per Si atom -5591.474290 kJ/mol
# Density = 2.426338 g / cm^3
# Si number density = 24.318729 Si / 1000 Ang^3
#
#
#
# Elastic Constant Matrix: (Units=GPa)
#
#
# Indices 1 2 3 4 5 6 
#
# 1 177.7474 74.0642 38.1029 0.0000 0.0000 0.0000
# 2 74.0642 143.3047 17.9987 0.0000 0.0000 0.0000
# 3 38.1029 17.9987 126.9603 0.0000 0.0000 0.0000
# 4 0.0000 0.0000 0.0000 52.6722 0.0000 0.0000
# 5 0.0000 0.0000 0.0000 0.0000 22.4370 0.0000
# 6 0.0000 0.0000 0.0000 0.0000 0.0000 52.0073
#
#
#
# Elastic Compliance Matrix: (Units=1/GPa)
#
#
# Indices 1 2 3 4 5 6 
#
# 1 0.007529 -0.003673 -0.001739 0.000000 0.000000 0.000000
# 2 -0.003673 0.008896 -0.000159 0.000000 0.000000 0.000000
# 3 -0.001739 -0.000159 0.008421 0.000000 0.000000 0.000000
# 4 0.000000 0.000000 0.000000 0.018985 0.000000 0.000000
# 5 0.000000 0.000000 0.000000 0.000000 0.044569 0.000000
# 6 0.000000 0.000000 0.000000 0.000000 0.000000 0.019228
#
#
# Mechanical properties :
#
#
# Convention : Reuss Voigt Hill
#
# Bulk Modulus (GPa) = 72.96640 78.70489 75.83564
# Shear Modulus (GPa) = 40.53871 46.61307 43.57589
#
# Velocity S-wave (km/s) = 4.08729 4.38283 4.23764
# Velocity P-wave (km/s) = 7.23491 7.61882 7.42934
#
# Compressibility (1/GPa) = 0.01370494
#
# Stress axis : x y z
#
# Youngs Moduli (GPa) = 132.81696 112.40557 118.75233
#
# Poissons Ratio (x) = 0.41285 0.20650
# Poissons Ratio (y) = 0.48782 0.01887
# Poissons Ratio (z) = 0.23096 0.01786
#
# Static dielectric constant tensor:
#      x y z
#    x 1.978540 0.000000 0.000000 
#    y 0.000000 1.962960 0.000000 
#    z 0.000000 0.000000 1.969810 
# 
# From -- ./inp_files/7793.got.cif
#   From: 2010.05.17/outbox.cif.g08.bks.cpg/sg33_4_cif.got.tgz:7793.got - 2010.06.03 17:15:25.
