data_PCOD9346883
_publ_section_title
;
Structure prediction by ZEFSAII (Michael W. Deem and Ramdas Pophale) SiO2 
 PCOD9346883
Probable space group: P N A 21
;
_chemical_formula_sum "Si O2"
_cell_formula_units_Z 28
_cell_length_a 23.330518
_cell_length_b 9.191450
_cell_length_c 5.300489
_cell_angle_alpha 90.000000
_cell_angle_beta 90.000000
_cell_angle_gamma 90.000000
_cell_volume 1136.643697
_symmetry_space_group_name_H-M "P N A 21"
_symmetry_group_IT_number 33
_symmetry_cell_setting 'orthorhombic'
loop_
_space_group_symop_operation_xyz
x,y,z
-x,-y,1/2+z
1/2-x,1/2+y,1/2+z
1/2+x,1/2-y,z
loop_
_atom_site_type_symbol
_atom_site_label
_atom_site_fract_x
_atom_site_fract_y
_atom_site_fract_z
Si Si1 0.461724 0.503653 0.211350
Si Si2 0.829708 0.466488 0.270109
Si Si3 0.113707 0.240932 0.897692
Si Si4 0.198905 0.756801 0.133521
Si Si5 0.505167 0.089819 0.966177
Si Si6 0.102597 0.758691 0.470278
Si Si7 0.780754 0.940390 0.480815
O O1 0.494823 0.499190 0.476508
O O2 0.421461 0.644807 0.199025
O O3 0.419658 0.365989 0.186693
O O4 0.847861 0.630628 0.287751
O O5 0.839848 0.370447 0.514898
O O6 0.865581 0.385927 0.059611
O O7 0.762696 0.443138 0.215738
O O8 0.062905 0.324427 0.042889
O O9 0.157859 0.131668 0.030226
O O10 0.153095 0.836304 0.315956
O O11 0.216119 0.883894 0.933846
O O12 0.248691 0.666006 0.278152
O O13 0.516342 0.985426 0.725438
O O14 0.457203 0.200986 0.858882
#
# Coordination Sequence:
#
# PCOD9346883 Si02
#       7
#     4   4   4   4   4   4   4
#     4  12  30  50  77 119 160 207 268 332 411 495
#     4  11  25  49  77 109 157 203 278 321 412 475
#     4  12  26  48  80 116 155 219 264 346 409 494
#     4  11  26  48  77 110 158 209 267 338 405 489
#     4  12  27  48  78 119 158 208 271 334 411 497
#     4  11  26  46  75 107 157 203 254 342 401 491
#     4  11  26  49  72 120 149 215 266 341 403 491
#
# _framework density 24.633929999999999
#
# number of rings (size 3 to 8) (size 9 to 14) (size 15 to 20)
#    0.000    0.571    4.286    1.714    8.000    1.143 
#    7.714    0.000    0.000    0.000    0.000    0.000 
#    0.000    0.000    0.000    0.000    0.000    0.000 
#
# Total GULP energy -156305.846914 kJ/mol
# GULP energy per Si atom -5582.351675 kJ/mol
# Density = 2.457786 g / cm^3
# Si number density = 24.633930 Si / 1000 Ang^3
#
#
#
# Elastic Constant Matrix: (Units=GPa)
#
#
# Indices 1 2 3 4 5 6 
#
# 1 134.2887 58.1839 38.6984 0.0000 0.0000 0.0000
# 2 58.1839 170.5125 32.4798 0.0000 0.0000 0.0000
# 3 38.6984 32.4798 69.0738 0.0000 0.0000 0.0000
# 4 0.0000 0.0000 0.0000 30.3469 0.0000 0.0000
# 5 0.0000 0.0000 0.0000 0.0000 25.0459 0.0000
# 6 0.0000 0.0000 0.0000 0.0000 0.0000 53.4811
#
#
#
# Elastic Compliance Matrix: (Units=1/GPa)
#
#
# Indices 1 2 3 4 5 6 
#
# 1 0.009774 -0.002518 -0.004292 0.000000 0.000000 0.000000
# 2 -0.002518 0.007090 -0.001923 0.000000 0.000000 0.000000
# 3 -0.004292 -0.001923 0.017786 0.000000 0.000000 0.000000
# 4 0.000000 0.000000 0.000000 0.032952 0.000000 0.000000
# 5 0.000000 0.000000 0.000000 0.000000 0.039927 0.000000
# 6 0.000000 0.000000 0.000000 0.000000 0.000000 0.018698
#
#
# Mechanical properties :
#
#
# Convention : Reuss Voigt Hill
#
# Bulk Modulus (GPa) = 58.19255 70.28880 64.24068
# Shear Modulus (GPa) = 33.46208 38.07564 35.76886
#
# Velocity S-wave (km/s) = 3.68961 3.93575 3.81467
# Velocity P-wave (km/s) = 6.46724 7.01775 6.74811
#
# Compressibility (1/GPa) = 0.01718433
#
# Stress axis : x y z
#
# Youngs Moduli (GPa) = 102.30806 141.04037 56.22282
#
# Poissons Ratio (x) = 0.35510 0.24132
# Poissons Ratio (y) = 0.25758 0.10814
# Poissons Ratio (z) = 0.43913 0.27128
#
# Static dielectric constant tensor:
#      x y z
#    x 2.005240 0.000000 0.000000 
#    y 0.000000 2.033300 0.000000 
#    z 0.000000 0.000000 2.003550 
# 
# From -- ./inp_files/2220.got.cif
#   From: 2010.05.17/outbox.cif.g08.bks.cpg/sg33_2_cif.got.tgz:2220.got - 2010.06.03 17:15:25.
