data_PCOD9346649
_publ_section_title
;
Structure prediction by ZEFSAII (Michael W. Deem and Ramdas Pophale) SiO2 
 PCOD9346649
Probable space group: P N A 21
;
_chemical_formula_sum "Si O2"
_cell_formula_units_Z 24
_cell_length_a 12.538882
_cell_length_b 9.269448
_cell_length_c 9.715647
_cell_angle_alpha 90.000000
_cell_angle_beta 90.000000
_cell_angle_gamma 90.000000
_cell_volume 1129.235220
_symmetry_space_group_name_H-M "P N A 21"
_symmetry_group_IT_number 33
_symmetry_cell_setting 'orthorhombic'
loop_
_space_group_symop_operation_xyz
x,y,z
-x,-y,1/2+z
1/2-x,1/2+y,1/2+z
1/2+x,1/2-y,z
loop_
_atom_site_type_symbol
_atom_site_label
_atom_site_fract_x
_atom_site_fract_y
_atom_site_fract_z
Si Si1 0.975409 0.376910 0.194360
Si Si2 0.927575 0.585623 0.992612
Si Si3 0.150893 0.114060 0.592640
Si Si4 0.245238 0.143081 0.306124
Si Si5 0.443282 0.581650 0.590761
Si Si6 0.224461 0.988337 0.865068
O O1 0.853785 0.407686 0.236691
O O2 0.028699 0.363690 0.344590
O O3 0.996885 0.235150 0.103841
O O4 0.009327 0.507193 0.094210
O O5 0.831422 0.479481 0.949735
O O6 0.878012 0.719353 0.073428
O O7 0.215071 0.076425 0.453728
O O8 0.219347 0.075584 0.724678
O O9 0.038401 0.031943 0.609283
O O10 0.147046 0.100339 0.207925
O O11 0.266760 0.316353 0.329591
O O12 0.378257 0.532925 0.455143
#
# Coordination Sequence:
#
# PCOD9346649 Si02
#       6
#     4   4   4   4   4   4
#     4  12  25  48  70 104 148 193 244 310 372 436
#     4  11  27  47  68 106 148 190 243 315 371 440
#     4  11  24  45  73 105 138 196 243 302 372 449
#     4  11  24  47  71 105 149 182 244 321 358 440
#     4  12  23  46  77 103 144 196 252 300 373 450
#     4  11  23  45  69 109 139 187 248 294 376 439
#
# _framework density 21.253322000000001
#
# number of rings (size 3 to 8) (size 9 to 14) (size 15 to 20)
#    0.000    0.667    6.667    2.000    4.667    0.000 
#    3.000    0.000    0.000    0.000    0.000    0.000 
#    0.000    0.000    0.000    0.000    0.000    0.000 
#
# Total GULP energy -133885.117215 kJ/mol
# GULP energy per Si atom -5578.546551 kJ/mol
# Density = 2.120495 g / cm^3
# Si number density = 21.253322 Si / 1000 Ang^3
#
#
#
# Elastic Constant Matrix: (Units=GPa)
#
#
# Indices 1 2 3 4 5 6 
#
# 1 95.2635 25.3913 33.4289 0.0000 0.0000 0.0000
# 2 25.3913 71.0999 63.2851 0.0000 0.0000 0.0000
# 3 33.4289 63.2851 148.0642 0.0000 0.0000 0.0000
# 4 0.0000 0.0000 0.0000 37.4908 0.0000 0.0000
# 5 0.0000 0.0000 0.0000 0.0000 34.2127 0.0000
# 6 0.0000 0.0000 0.0000 0.0000 0.0000 20.0330
#
#
#
# Elastic Compliance Matrix: (Units=1/GPa)
#
#
# Indices 1 2 3 4 5 6 
#
# 1 0.011776 -0.002968 -0.001390 0.000000 0.000000 0.000000
# 2 -0.002968 0.023449 -0.009352 0.000000 0.000000 0.000000
# 3 -0.001390 -0.009352 0.011065 0.000000 0.000000 0.000000
# 4 0.000000 0.000000 0.000000 0.026673 0.000000 0.000000
# 5 0.000000 0.000000 0.000000 0.000000 0.029229 0.000000
# 6 0.000000 0.000000 0.000000 0.000000 0.000000 0.049918
#
#
# Mechanical properties :
#
#
# Convention : Reuss Voigt Hill
#
# Bulk Modulus (GPa) = 52.99714 62.07090 57.53402
# Shear Modulus (GPa) = 26.90757 31.16879 29.03818
#
# Velocity S-wave (km/s) = 3.56201 3.83369 3.70034
# Velocity P-wave (km/s) = 6.47358 6.99035 6.73692
#
# Compressibility (1/GPa) = 0.01886894
#
# Stress axis : x y z
#
# Youngs Moduli (GPa) = 84.91750 42.64532 90.37461
#
# Poissons Ratio (x) = 0.12658 0.12563
# Poissons Ratio (y) = 0.25206 0.84522
# Poissons Ratio (z) = 0.11804 0.39884
#
# Static dielectric constant tensor:
#      x y z
#    x 1.831890 0.000000 0.000000 
#    y 0.000000 1.806740 0.000000 
#    z 0.000000 0.000000 1.779620 
# 
# From -- ./inp_files/4243.got.cif
#   From: 2010.05.17/outbox.cif.g08.bks.cpg/sg33_3_cif.got.tgz:4243.got - 2010.06.03 17:15:25.
