data_PCOD9346593
_publ_section_title
;
Structure prediction by ZEFSAII (Michael W. Deem and Ramdas Pophale) SiO2 
 PCOD9346593
Probable space group: P N A 21
;
_chemical_formula_sum "Si O2"
_cell_formula_units_Z 24
_cell_length_a 5.697757
_cell_length_b 29.501305
_cell_length_c 4.974684
_cell_angle_alpha 90.000000
_cell_angle_beta 90.000000
_cell_angle_gamma 90.000000
_cell_volume 836.200937
_symmetry_space_group_name_H-M "P N A 21"
_symmetry_group_IT_number 33
_symmetry_cell_setting 'orthorhombic'
loop_
_space_group_symop_operation_xyz
x,y,z
-x,-y,1/2+z
1/2-x,1/2+y,1/2+z
1/2+x,1/2-y,z
loop_
_atom_site_type_symbol
_atom_site_label
_atom_site_fract_x
_atom_site_fract_y
_atom_site_fract_z
Si Si1 0.159531 0.816975 0.743090
Si Si2 0.846552 0.344079 0.227475
Si Si3 0.622626 0.431285 0.093012
Si Si4 0.160174 0.735145 0.120762
Si Si5 0.144562 0.901546 0.088047
Si Si6 0.886077 0.515253 0.235709
O O1 0.404156 0.830071 0.602133
O O2 0.167850 0.849228 0.011929
O O3 0.908617 0.828802 0.612342
O O4 0.162215 0.766133 0.848935
O O5 0.843524 0.316324 0.511056
O O6 0.823276 0.398182 0.216745
O O7 0.559908 0.413910 0.797373
O O8 0.410545 0.421863 0.295345
O O9 0.684931 0.483683 0.107410
O O10 0.411031 0.749482 0.248201
O O11 0.352879 0.931345 0.208827
O O12 0.905117 0.499819 0.540819
#
# Coordination Sequence:
#
# PCOD9346593 Si02
#       6
#     4   4   4   4   4   4
#     4   9  18  34  59  89 125 167 216 270 329 392
#     4   9  18  34  59  89 125 167 216 270 329 392
#     4  11  23  41  63  91 130 177 226 277 338 404
#     4   8  14  28  54  84 120 162 210 266 326 388
#     4  11  23  41  63  91 130 177 226 277 338 404
#     4  12  24  40  64  96 134 176 226 280 340 406
#
# _framework density 28.701235
#
# number of rings (size 3 to 8) (size 9 to 14) (size 15 to 20)
#    0.000    2.000    0.000    4.000    0.000    2.667 
#    0.000    0.000    0.000   32.000    0.000    2.333 
#    0.000    0.000    0.000    0.000    0.000    0.000 
#
# Total GULP energy -134171.712601 kJ/mol
# GULP energy per Si atom -5590.488025 kJ/mol
# Density = 2.863591 g / cm^3
# Si number density = 28.701235 Si / 1000 Ang^3
#
#
#
# Elastic Constant Matrix: (Units=GPa)
#
#
# Indices 1 2 3 4 5 6 
#
# 1 203.7295 30.3052 34.8740 0.0000 0.0000 0.0000
# 2 30.3052 88.9400 37.8274 0.0000 0.0000 0.0000
# 3 34.8740 37.8274 112.1562 0.0000 0.0000 0.0000
# 4 0.0000 0.0000 0.0000 51.4076 0.0000 0.0000
# 5 0.0000 0.0000 0.0000 0.0000 8.1369 0.0000
# 6 0.0000 0.0000 0.0000 0.0000 0.0000 59.2846
#
#
#
# Elastic Compliance Matrix: (Units=1/GPa)
#
#
# Indices 1 2 3 4 5 6 
#
# 1 0.005309 -0.001292 -0.001215 0.000000 0.000000 0.000000
# 2 -0.001292 0.013441 -0.004132 0.000000 0.000000 0.000000
# 3 -0.001215 -0.004132 0.010687 0.000000 0.000000 0.000000
# 4 0.000000 0.000000 0.000000 0.019452 0.000000 0.000000
# 5 0.000000 0.000000 0.000000 0.000000 0.122897 0.000000
# 6 0.000000 0.000000 0.000000 0.000000 0.000000 0.016868
#
#
# Mechanical properties :
#
#
# Convention : Reuss Voigt Hill
#
# Bulk Modulus (GPa) = 61.88151 67.87099 64.87625
# Shear Modulus (GPa) = 24.11758 43.88710 34.00234
#
# Velocity S-wave (km/s) = 2.90193 3.91461 3.44568
# Velocity P-wave (km/s) = 5.73024 6.64312 6.20349
#
# Compressibility (1/GPa) = 0.01615992
#
# Stress axis : x y z
#
# Youngs Moduli (GPa) = 188.37215 74.39911 93.56856
#
# Poissons Ratio (x) = 0.09614 0.11367
# Poissons Ratio (y) = 0.24341 0.38658
# Poissons Ratio (z) = 0.22885 0.30738
#
# Static dielectric constant tensor:
#      x y z
#    x 2.365180 0.000000 0.000000 
#    y 0.000000 2.190720 0.000000 
#    z 0.000000 0.000000 2.098090 
# 
# From -- ./inp_files/223.got.cif
#   From: 2010.05.17/outbox.cif.g08.bks.cpg/sg33_1_cif.got.tgz:223.got - 2010.06.03 17:15:25.
