data_PCOD9346586
_publ_section_title
;
Structure prediction by ZEFSAII (Michael W. Deem and Ramdas Pophale) SiO2 
 PCOD9346586
Probable space group: P N A 21
;
_chemical_formula_sum "Si O2"
_cell_formula_units_Z 28
_cell_length_a 9.219782
_cell_length_b 5.486863
_cell_length_c 21.930871
_cell_angle_alpha 90.000000
_cell_angle_beta 90.000000
_cell_angle_gamma 90.000000
_cell_volume 1109.431900
_symmetry_space_group_name_H-M "P N A 21"
_symmetry_group_IT_number 33
_symmetry_cell_setting 'orthorhombic'
loop_
_space_group_symop_operation_xyz
x,y,z
-x,-y,1/2+z
1/2-x,1/2+y,1/2+z
1/2+x,1/2-y,z
loop_
_atom_site_type_symbol
_atom_site_label
_atom_site_fract_x
_atom_site_fract_y
_atom_site_fract_z
Si Si1 0.033473 0.355942 0.820940
Si Si2 0.134923 0.340090 0.436651
Si Si3 0.649831 0.249875 0.292093
Si Si4 0.714951 0.654559 0.411120
Si Si5 0.153190 0.991247 0.593367
Si Si6 0.101572 0.972732 0.735752
Si Si7 0.010287 0.509738 0.052837
O O1 0.152624 0.440617 0.870583
O O2 0.930928 0.500386 0.774260
O O3 0.921492 0.209498 0.865913
O O4 0.136205 0.204683 0.776163
O O5 0.114620 0.284474 0.364335
O O6 0.244773 0.573188 0.437854
O O7 0.008842 0.438417 0.480300
O O8 0.175892 0.065446 0.456648
O O9 0.814568 0.235449 0.273652
O O10 0.567384 0.441850 0.250973
O O11 0.144000 0.967930 0.666704
O O12 0.070797 0.746773 0.568250
O O13 0.323310 0.997425 0.574488
O O14 0.072755 0.250493 0.579467
#
# Coordination Sequence:
#
# PCOD9346586 Si02
#       7
#     4   4   4   4   4   4   4
#     4  11  23  39  63 108 148 182 238 295 390 457
#     4  11  24  47  74 105 150 191 250 320 381 468
#     4  11  25  42  71 113 141 195 236 319 396 450
#     4  11  24  40  68 107 147 183 237 301 393 453
#     4  12  30  52  80 113 156 218 273 328 394 470
#     4  12  25  45  72 103 155 191 256 317 385 471
#     4  12  29  55  78 115 155 216 276 326 391 477
#
# _framework density 25.238142
#
# number of rings (size 3 to 8) (size 9 to 14) (size 15 to 20)
#    0.000    0.571    4.286    3.429    4.000    6.857 
#    0.000    0.000    0.000    0.000    0.000    0.000 
#    0.000    0.000    0.000    0.000    0.000    0.000 
#
# Total GULP energy -156058.786793 kJ/mol
# GULP energy per Si atom -5573.528100 kJ/mol
# Density = 2.518070 g / cm^3
# Si number density = 25.238142 Si / 1000 Ang^3
#
#
#
# Elastic Constant Matrix: (Units=GPa)
#
#
# Indices 1 2 3 4 5 6 
#
# 1 123.2571 39.9768 16.3716 0.0000 0.0000 0.0000
# 2 39.9768 180.7272 24.0969 0.0000 0.0000 0.0000
# 3 16.3716 24.0969 132.1514 0.0000 0.0000 0.0000
# 4 0.0000 0.0000 0.0000 23.9513 0.0000 0.0000
# 5 0.0000 0.0000 0.0000 0.0000 27.5965 0.0000
# 6 0.0000 0.0000 0.0000 0.0000 0.0000 39.7174
#
#
#
# Elastic Compliance Matrix: (Units=1/GPa)
#
#
# Indices 1 2 3 4 5 6 
#
# 1 0.008813 -0.001849 -0.000755 0.000000 0.000000 0.000000
# 2 -0.001849 0.006059 -0.000876 0.000000 0.000000 0.000000
# 3 -0.000755 -0.000876 0.007820 0.000000 0.000000 0.000000
# 4 0.000000 0.000000 0.000000 0.041751 0.000000 0.000000
# 5 0.000000 0.000000 0.000000 0.000000 0.036236 0.000000
# 6 0.000000 0.000000 0.000000 0.000000 0.000000 0.025178
#
#
# Mechanical properties :
#
#
# Convention : Reuss Voigt Hill
#
# Bulk Modulus (GPa) = 63.55793 66.33625 64.94709
# Shear Modulus (GPa) = 36.21584 41.96572 39.09078
#
# Velocity S-wave (km/s) = 3.79220 4.08216 3.93985
# Velocity P-wave (km/s) = 6.66426 6.96849 6.81807
#
# Compressibility (1/GPa) = 0.01573368
#
# Stress axis : x y z
#
# Youngs Moduli (GPa) = 113.46873 165.04575 127.87300
#
# Poissons Ratio (x) = 0.30514 0.09650
# Poissons Ratio (y) = 0.20978 0.11199
# Poissons Ratio (z) = 0.08563 0.14454
#
# Static dielectric constant tensor:
#      x y z
#    x 2.031830 0.000000 0.000000 
#    y 0.000000 2.449610 0.000000 
#    z 0.000000 0.000000 2.044860 
# 
# From -- ./inp_files/9238.got.cif
#   From: 2010.05.17/outbox.cif.g08.bks.cpg/sg33_5_cif.got.tgz:9238.got - 2010.06.03 17:15:25.
