data_PCOD9346601
_publ_section_title
;
Structure prediction by ZEFSAII (Michael W. Deem and Ramdas Pophale) SiO2 
 PCOD9346601
Probable space group: P N A 21
;
_chemical_formula_sum "Si O2"
_cell_formula_units_Z 28
_cell_length_a 10.127333
_cell_length_b 6.528508
_cell_length_c 18.748717
_cell_angle_alpha 90.000000
_cell_angle_beta 90.000000
_cell_angle_gamma 90.000000
_cell_volume 1239.597195
_symmetry_space_group_name_H-M "P N A 21"
_symmetry_group_IT_number 33
_symmetry_cell_setting 'orthorhombic'
loop_
_space_group_symop_operation_xyz
x,y,z
-x,-y,1/2+z
1/2-x,1/2+y,1/2+z
1/2+x,1/2-y,z
loop_
_atom_site_type_symbol
_atom_site_label
_atom_site_fract_x
_atom_site_fract_y
_atom_site_fract_z
Si Si1 0.739739 0.865655 0.519110
Si Si2 0.390292 0.548707 0.233165
Si Si3 0.733481 0.611329 0.388076
Si Si4 0.436903 0.192635 0.339015
Si Si5 0.896259 0.377057 0.769429
Si Si6 0.010493 0.905335 0.587031
Si Si7 0.585766 0.266231 0.478229
O O1 0.797340 0.756528 0.447976
O O2 0.609299 0.748501 0.546310
O O3 0.857075 0.854925 0.576126
O O4 0.688409 0.089780 0.498303
O O5 0.398083 0.409885 0.305163
O O6 0.237810 0.611310 0.224282
O O7 0.486766 0.743912 0.235819
O O8 0.442161 0.414781 0.167770
O O9 0.640602 0.755731 0.341653
O O10 0.656368 0.440323 0.431795
O O11 0.826541 0.483939 0.335376
O O12 0.474204 0.194050 0.422637
O O13 0.557838 0.101736 0.293407
O O14 0.030414 0.125526 0.548597
#
# Coordination Sequence:
#
# PCOD9346601 Si02
#       7
#     4   4   4   4   4   4   4
#     4  11  25  47  73 105 147 186 247 304 360 429
#     4  12  30  48  72 106 147 198 242 300 369 442
#     4  11  23  41  71 113 133 184 235 303 357 425
#     4  12  24  43  75 105 147 184 243 299 369 423
#     4  12  26  46  72 105 146 183 243 304 362 434
#     4  11  29  46  72 103 147 193 244 292 367 441
#     4  11  23  43  73 105 143 186 240 300 362 420
#
# _framework density 22.587982
#
# number of rings (size 3 to 8) (size 9 to 14) (size 15 to 20)
#    0.000    0.571    4.286    2.571    8.000    2.286 
#    0.000    0.000    0.000    0.000    0.000    0.000 
#    0.000    0.000    0.000    0.000    0.000    0.000 
#
# Total GULP energy -156614.713764 kJ/mol
# GULP energy per Si atom -5593.382634 kJ/mol
# Density = 2.253657 g / cm^3
# Si number density = 22.587982 Si / 1000 Ang^3
#
#
#
# Elastic Constant Matrix: (Units=GPa)
#
#
# Indices 1 2 3 4 5 6 
#
# 1 75.8717 16.1124 -11.9130 0.0000 0.0000 0.0000
# 2 16.1124 65.4645 -6.1261 0.0000 0.0000 0.0000
# 3 -11.9130 -6.1261 45.4212 0.0000 0.0000 0.0000
# 4 0.0000 0.0000 0.0000 24.9829 0.0000 0.0000
# 5 0.0000 0.0000 0.0000 0.0000 18.2228 0.0000
# 6 0.0000 0.0000 0.0000 0.0000 0.0000 34.5032
#
#
#
# Elastic Compliance Matrix: (Units=1/GPa)
#
#
# Indices 1 2 3 4 5 6 
#
# 1 0.014390 -0.003229 0.003339 0.000000 0.000000 0.000000
# 2 -0.003229 0.016195 0.001337 0.000000 0.000000 0.000000
# 3 0.003339 0.001337 0.023072 0.000000 0.000000 0.000000
# 4 0.000000 0.000000 0.000000 0.040027 0.000000 0.000000
# 5 0.000000 0.000000 0.000000 0.000000 0.054876 0.000000
# 6 0.000000 0.000000 0.000000 0.000000 0.000000 0.028983
#
#
# Mechanical properties :
#
#
# Convention : Reuss Voigt Hill
#
# Bulk Modulus (GPa) = 17.68311 20.32266 19.00288
# Shear Modulus (GPa) = 25.83961 28.12071 26.98016
#
# Velocity S-wave (km/s) = 3.38591 3.53220 3.45983
# Velocity P-wave (km/s) = 4.80951 5.06477 4.93879
#
# Compressibility (1/GPa) = 0.05655115
#
# Stress axis : x y z
#
# Youngs Moduli (GPa) = 69.49194 61.74589 43.34219
#
# Poissons Ratio (x) = 0.19940 -0.14471
# Poissons Ratio (y) = 0.22441 -0.05796
# Poissons Ratio (z) = -0.23201 -0.08257
#
# Static dielectric constant tensor:
#      x y z
#    x 1.866470 0.000000 0.000000 
#    y 0.000000 1.828610 0.000000 
#    z 0.000000 0.000000 1.841950 
# 
# From -- ./inp_files/8655.got.cif
#   From: 2010.05.17/outbox.cif.g08.bks.cpg/sg33_5_cif.got.tgz:8655.got - 2010.06.03 17:15:25.
