data_PCOD9346868
_publ_section_title
;
Structure prediction by ZEFSAII (Michael W. Deem and Ramdas Pophale) SiO2 
 PCOD9346868
Probable space group: P N A 21
;
_chemical_formula_sum "Si O2"
_cell_formula_units_Z 24
_cell_length_a 14.325029
_cell_length_b 8.538660
_cell_length_c 8.554409
_cell_angle_alpha 90.000000
_cell_angle_beta 90.000000
_cell_angle_gamma 90.000000
_cell_volume 1046.345814
_symmetry_space_group_name_H-M "P N A 21"
_symmetry_group_IT_number 33
_symmetry_cell_setting 'orthorhombic'
loop_
_space_group_symop_operation_xyz
x,y,z
-x,-y,1/2+z
1/2-x,1/2+y,1/2+z
1/2+x,1/2-y,z
loop_
_atom_site_type_symbol
_atom_site_label
_atom_site_fract_x
_atom_site_fract_y
_atom_site_fract_z
Si Si1 0.591142 0.621844 0.075130
Si Si2 0.923699 0.017242 0.253748
Si Si3 0.783562 0.453352 0.122585
Si Si4 0.607046 0.160877 0.858339
Si Si5 0.599446 0.896428 0.334600
Si Si6 0.226122 0.360796 0.168288
O O1 0.514677 0.501909 0.146662
O O2 0.693782 0.547598 0.064924
O O3 0.597931 0.768378 0.194164
O O4 0.561992 0.641787 0.894191
O O5 0.909672 0.844019 0.326546
O O6 0.826229 0.054242 0.169629
O O7 0.850866 0.573029 0.208964
O O8 0.744554 0.314296 0.230521
O O9 0.838127 0.360562 0.986303
O O10 0.506321 0.085970 0.890793
O O11 0.678830 0.143775 0.998932
O O12 0.650627 0.049572 0.271811
#
# Coordination Sequence:
#
# PCOD9346868 Si02
#       6
#     4   4   4   4   4   4
#     4  11  25  48  71 105 148 188 247 303 366 438
#     4  11  26  47  71 108 145 192 246 307 368 436
#     4  12  25  45  72 103 145 186 240 300 365 432
#     4  11  26  47  71 103 145 192 238 302 362 441
#     4  11  26  49  71 104 148 185 244 299 361 441
#     4  12  24  44  72 105 141 187 243 295 368 434
#
# _framework density 22.936969000000001
#
# number of rings (size 3 to 8) (size 9 to 14) (size 15 to 20)
#    0.000    0.667    3.333    3.000    9.333    2.667 
#    3.000    0.000    0.000    0.000    0.000    0.000 
#    0.000    0.000    0.000    0.000    0.000    0.000 
#
# Total GULP energy -134225.965174 kJ/mol
# GULP energy per Si atom -5592.748549 kJ/mol
# Density = 2.288476 g / cm^3
# Si number density = 22.936969 Si / 1000 Ang^3
#
#
#
# Elastic Constant Matrix: (Units=GPa)
#
#
# Indices 1 2 3 4 5 6 
#
# 1 132.6589 -11.0821 63.3650 0.0000 0.0000 0.0000
# 2 -11.0821 45.5111 24.1144 0.0000 0.0000 0.0000
# 3 63.3650 24.1144 81.3003 0.0000 0.0000 0.0000
# 4 0.0000 0.0000 0.0000 32.0675 0.0000 0.0000
# 5 0.0000 0.0000 0.0000 0.0000 45.1297 0.0000
# 6 0.0000 0.0000 0.0000 0.0000 0.0000 7.5691
#
#
#
# Elastic Compliance Matrix: (Units=1/GPa)
#
#
# Indices 1 2 3 4 5 6 
#
# 1 0.016666 0.012981 -0.016840 0.000000 0.000000 0.000000
# 2 0.012981 0.036180 -0.020849 0.000000 0.000000 0.000000
# 3 -0.016840 -0.020849 0.031609 0.000000 0.000000 0.000000
# 4 0.000000 0.000000 0.000000 0.031184 0.000000 0.000000
# 5 0.000000 0.000000 0.000000 0.000000 0.022158 0.000000
# 6 0.000000 0.000000 0.000000 0.000000 0.000000 0.132116
#
#
# Mechanical properties :
#
#
# Convention : Reuss Voigt Hill
#
# Bulk Modulus (GPa) = 28.53860 45.80721 37.17290
# Shear Modulus (GPa) = 15.10534 29.15811 22.13172
#
# Velocity S-wave (km/s) = 2.56902 3.56930 3.10964
# Velocity P-wave (km/s) = 4.61184 6.08283 5.39768
#
# Compressibility (1/GPa) = 0.03504027
#
# Stress axis : x y z
#
# Youngs Moduli (GPa) = 60.00216 27.63928 31.63682
#
# Poissons Ratio (x) = -0.35878 0.53275
# Poissons Ratio (y) = -0.77888 0.65959
# Poissons Ratio (z) = 1.01042 0.57624
#
# Static dielectric constant tensor:
#      x y z
#    x 1.827570 0.000000 0.000000 
#    y 0.000000 1.870630 0.000000 
#    z 0.000000 0.000000 1.927230 
# 
# From -- ./inp_files/4264.got.cif
#   From: 2010.05.17/outbox.cif.g08.bks.cpg/sg33_3_cif.got.tgz:4264.got - 2010.06.03 17:15:25.
