data_PCOD9346858
_publ_section_title
;
Structure prediction by ZEFSAII (Michael W. Deem and Ramdas Pophale) SiO2 
 PCOD9346858
Probable space group: P N A 21
;
_chemical_formula_sum "Si O2"
_cell_formula_units_Z 28
_cell_length_a 10.577279
_cell_length_b 9.052548
_cell_length_c 10.666733
_cell_angle_alpha 90.000000
_cell_angle_beta 90.000000
_cell_angle_gamma 90.000000
_cell_volume 1021.353827
_symmetry_space_group_name_H-M "P N A 21"
_symmetry_group_IT_number 33
_symmetry_cell_setting 'orthorhombic'
loop_
_space_group_symop_operation_xyz
x,y,z
-x,-y,1/2+z
1/2-x,1/2+y,1/2+z
1/2+x,1/2-y,z
loop_
_atom_site_type_symbol
_atom_site_label
_atom_site_fract_x
_atom_site_fract_y
_atom_site_fract_z
Si Si1 0.014186 0.417681 0.200020
Si Si2 0.346631 0.341398 0.231048
Si Si3 0.318203 0.865723 0.485537
Si Si4 0.205311 0.156754 0.431814
Si Si5 0.223266 0.428519 0.600542
Si Si6 0.957985 0.068432 0.789864
Si Si7 0.830523 0.360026 0.860921
O O1 0.056201 0.354208 0.065430
O O2 0.123815 0.520297 0.257627
O O3 0.963825 0.268358 0.261604
O O4 0.891310 0.518614 0.186147
O O5 0.291461 0.335175 0.090844
O O6 0.241574 0.264732 0.318328
O O7 0.405433 0.502724 0.254693
O O8 0.284228 0.758440 0.372431
O O9 0.315688 0.037702 0.451718
O O10 0.198730 0.263387 0.550834
O O11 0.093087 0.044796 0.396871
O O12 0.357799 0.444443 0.672129
O O13 0.205591 0.536404 0.480124
O O14 0.939662 0.233918 0.840658
#
# Coordination Sequence:
#
# PCOD9346858 Si02
#       7
#     4   4   4   4   4   4   4
#     4  12  26  46  77 108 151 192 258 299 377 457
#     4  12  24  48  73 105 152 195 247 318 360 459
#     4  11  26  48  70 109 147 197 245 312 374 441
#     4  11  26  45  73 107 148 197 247 302 382 438
#     4  12  25  48  77 110 150 200 246 319 374 448
#     4  11  26  48  72 112 147 193 262 297 380 449
#     4  11  25  47  72 109 145 198 243 309 373 448
#
# _framework density 27.414594999999998
#
# number of rings (size 3 to 8) (size 9 to 14) (size 15 to 20)
#    0.000    0.571    2.857    4.286    6.000    2.286 
#    7.714    0.000    0.000    0.000    0.000    0.000 
#    0.000    0.000    0.000    0.000    0.000    0.000 
#
# Total GULP energy -156489.237123 kJ/mol
# GULP energy per Si atom -5588.901326 kJ/mol
# Density = 2.735220 g / cm^3
# Si number density = 27.414595 Si / 1000 Ang^3
#
#
#
# Elastic Constant Matrix: (Units=GPa)
#
#
# Indices 1 2 3 4 5 6 
#
# 1 84.9405 18.8226 23.8515 0.0000 0.0000 0.0000
# 2 18.8226 212.6255 52.5802 0.0000 0.0000 0.0000
# 3 23.8515 52.5802 102.4239 0.0000 0.0000 0.0000
# 4 0.0000 0.0000 0.0000 72.6569 0.0000 0.0000
# 5 0.0000 0.0000 0.0000 0.0000 28.5129 0.0000
# 6 0.0000 0.0000 0.0000 0.0000 0.0000 31.7174
#
#
#
# Elastic Compliance Matrix: (Units=1/GPa)
#
#
# Indices 1 2 3 4 5 6 
#
# 1 0.012634 -0.000448 -0.002712 0.000000 0.000000 0.000000
# 2 -0.000448 0.005403 -0.002669 0.000000 0.000000 0.000000
# 3 -0.002712 -0.002669 0.011765 0.000000 0.000000 0.000000
# 4 0.000000 0.000000 0.000000 0.013763 0.000000 0.000000
# 5 0.000000 0.000000 0.000000 0.000000 0.035072 0.000000
# 6 0.000000 0.000000 0.000000 0.000000 0.000000 0.031528
#
#
# Mechanical properties :
#
#
# Convention : Reuss Voigt Hill
#
# Bulk Modulus (GPa) = 55.11651 65.61093 60.36372
# Shear Modulus (GPa) = 39.10168 46.89315 42.99742
#
# Velocity S-wave (km/s) = 3.78075 4.14033 3.96462
# Velocity P-wave (km/s) = 6.26156 6.84406 6.55928
#
# Compressibility (1/GPa) = 0.01814338
#
# Stress axis : x y z
#
# Youngs Moduli (GPa) = 79.15312 185.08790 84.99601
#
# Poissons Ratio (x) = 0.08286 0.23053
# Poissons Ratio (y) = 0.03544 0.22688
# Poissons Ratio (z) = 0.21468 0.49406
#
# Static dielectric constant tensor:
#      x y z
#    x 2.196000 0.000000 0.000000 
#    y 0.000000 2.104180 0.000000 
#    z 0.000000 0.000000 2.241220 
# 
# From -- ./inp_files/6349.got.cif
#   From: 2010.05.17/outbox.cif.g08.bks.cpg/sg33_4_cif.got.tgz:6349.got - 2010.06.03 17:15:25.
