data_PCOD9346758
_publ_section_title
;
Structure prediction by ZEFSAII (Michael W. Deem and Ramdas Pophale) SiO2 
 PCOD9346758
Probable space group: P N A 21
;
_chemical_formula_sum "Si O2"
_cell_formula_units_Z 32
_cell_length_a 19.550710
_cell_length_b 5.399931
_cell_length_c 12.087740
_cell_angle_alpha 90.000000
_cell_angle_beta 90.000000
_cell_angle_gamma 90.000000
_cell_volume 1276.132750
_symmetry_space_group_name_H-M "P N A 21"
_symmetry_group_IT_number 33
_symmetry_cell_setting 'orthorhombic'
loop_
_space_group_symop_operation_xyz
x,y,z
-x,-y,1/2+z
1/2-x,1/2+y,1/2+z
1/2+x,1/2-y,z
loop_
_atom_site_type_symbol
_atom_site_label
_atom_site_fract_x
_atom_site_fract_y
_atom_site_fract_z
Si Si1 0.367144 0.208419 0.734120
Si Si2 0.063929 0.456581 0.983408
Si Si3 0.846900 0.059053 0.967726
Si Si4 0.752197 0.139009 0.153985
Si Si5 0.917096 0.567351 0.058373
Si Si6 0.156230 0.054058 0.044163
Si Si7 0.024957 0.238948 0.770163
Si Si8 0.123147 0.852266 0.817661
O O1 0.344514 0.388650 0.836203
O O2 0.374902 0.331150 0.612621
O O3 0.447704 0.161421 0.757847
O O4 0.306044 0.009583 0.721210
O O5 0.033237 0.248780 0.901780
O O6 0.102885 0.627205 0.896281
O O7 0.111276 0.300344 0.064292
O O8 0.997261 0.579440 0.031067
O O9 0.776131 0.021498 0.036325
O O10 0.882749 0.310885 0.017435
O O11 0.885514 0.804765 0.996515
O O12 0.725781 0.401597 0.109587
O O13 0.817900 0.173359 0.229012
O O14 0.921849 0.612872 0.190955
O O15 0.158513 0.026267 0.913216
O O16 0.054864 0.959119 0.756040
#
# Coordination Sequence:
#
# PCOD9346758 Si02
#       8
#     4   4   4   4   4   4   4   4
#     4  12  28  48  76 115 160 213 268 338 404 495
#     4  11  25  47  76 112 154 204 264 339 402 484
#     4  12  29  50  78 115 159 209 270 331 408 487
#     4  12  27  48  75 111 157 216 262 337 399 497
#     4  12  26  48  79 117 158 203 269 336 404 483
#     4  11  27  44  73 107 153 205 266 321 409 480
#     4  11  24  45  78 111 153 207 268 332 409 472
#     4  11  24  48  75 108 154 207 271 330 409 482
#
# _framework density 25.075759999999999
#
# number of rings (size 3 to 8) (size 9 to 14) (size 15 to 20)
#    0.000    0.500    2.500    4.500    7.000    6.000 
#    0.000    0.000    0.000    0.000    0.000    0.000 
#    0.000    0.000    0.000    0.000    0.000    0.000 
#
# Total GULP energy -178466.967836 kJ/mol
# GULP energy per Si atom -5577.092745 kJ/mol
# Density = 2.501869 g / cm^3
# Si number density = 25.075760 Si / 1000 Ang^3
#
#
#
# Elastic Constant Matrix: (Units=GPa)
#
#
# Indices 1 2 3 4 5 6 
#
# 1 87.5724 13.9076 17.9623 0.0000 0.0000 0.0000
# 2 13.9076 80.4490 -6.0113 0.0000 0.0000 0.0000
# 3 17.9623 -6.0113 119.8086 0.0000 0.0000 0.0000
# 4 0.0000 0.0000 0.0000 35.5280 0.0000 0.0000
# 5 0.0000 0.0000 0.0000 0.0000 33.2829 0.0000
# 6 0.0000 0.0000 0.0000 0.0000 0.0000 23.7969
#
#
#
# Elastic Compliance Matrix: (Units=1/GPa)
#
#
# Indices 1 2 3 4 5 6 
#
# 1 0.012174 -0.002249 -0.001938 0.000000 0.000000 0.000000
# 2 -0.002249 0.012893 0.000984 0.000000 0.000000 0.000000
# 3 -0.001938 0.000984 0.008687 0.000000 0.000000 0.000000
# 4 0.000000 0.000000 0.000000 0.028147 0.000000 0.000000
# 5 0.000000 0.000000 0.000000 0.000000 0.030045 0.000000
# 6 0.000000 0.000000 0.000000 0.000000 0.000000 0.042022
#
#
# Mechanical properties :
#
#
# Convention : Reuss Voigt Hill
#
# Bulk Modulus (GPa) = 36.56771 37.72745 37.14758
# Shear Modulus (GPa) = 33.44712 35.98633 34.71672
#
# Velocity S-wave (km/s) = 3.65614 3.79239 3.72489
# Velocity P-wave (km/s) = 5.69541 5.85272 5.77460
#
# Compressibility (1/GPa) = 0.02734653
#
# Stress axis : x y z
#
# Youngs Moduli (GPa) = 82.14316 77.56366 115.12007
#
# Poissons Ratio (x) = 0.17447 0.22311
# Poissons Ratio (y) = 0.18477 -0.11329
# Poissons Ratio (z) = 0.15920 -0.07633
#
# Static dielectric constant tensor:
#      x y z
#    x 2.147650 0.000000 0.000000 
#    y 0.000000 2.203180 0.000000 
#    z 0.000000 0.000000 2.064900 
# 
# From -- ./inp_files/7177.got.cif
#   From: 2010.05.17/outbox.cif.g08.bks.cpg/sg33_4_cif.got.tgz:7177.got - 2010.06.03 17:15:25.
