data_PCOD9346579
_publ_section_title
;
Structure prediction by ZEFSAII (Michael W. Deem and Ramdas Pophale) SiO2 
 PCOD9346579
Probable space group: P N A 21
;
_chemical_formula_sum "Si O2"
_cell_formula_units_Z 32
_cell_length_a 19.786446
_cell_length_b 5.493368
_cell_length_c 11.430084
_cell_angle_alpha 90.000000
_cell_angle_beta 90.000000
_cell_angle_gamma 90.000000
_cell_volume 1242.384171
_symmetry_space_group_name_H-M "P N A 21"
_symmetry_group_IT_number 33
_symmetry_cell_setting 'orthorhombic'
loop_
_space_group_symop_operation_xyz
x,y,z
-x,-y,1/2+z
1/2-x,1/2+y,1/2+z
1/2+x,1/2-y,z
loop_
_atom_site_type_symbol
_atom_site_label
_atom_site_fract_x
_atom_site_fract_y
_atom_site_fract_z
Si Si1 0.764903 0.794952 0.457060
Si Si2 0.398261 0.915331 0.476126
Si Si3 0.808726 0.081380 0.251587
Si Si4 0.332093 0.833321 0.062981
Si Si5 0.035004 0.087389 0.268530
Si Si6 0.069960 0.543983 0.722159
Si Si7 0.314164 0.582625 0.816291
Si Si8 0.473425 0.420522 0.527957
O O1 0.818248 0.597590 0.502736
O O2 0.809562 0.986469 0.385054
O O3 0.718575 0.669093 0.358509
O O4 0.717676 0.938001 0.545874
O O5 0.408640 0.894562 0.336001
O O6 0.431557 0.171063 0.511970
O O7 0.432902 0.676014 0.526995
O O8 0.807263 0.861900 0.158456
O O9 0.877360 0.228699 0.230795
O O10 0.742175 0.251503 0.255270
O O11 0.405730 0.926193 0.101639
O O12 0.332978 0.712581 0.937709
O O13 0.114960 0.052798 0.253307
O O14 0.004528 0.354598 0.241222
O O15 0.017138 0.049967 0.406892
O O16 0.001481 0.924508 0.164612
#
# Coordination Sequence:
#
# PCOD9346579 Si02
#       8
#     4   4   4   4   4   4   4   4
#     4  11  23  44  72 114 158 200 268 336 417 478
#     4  11  24  50  79 117 152 216 264 338 395 496
#     4  11  22  47  75 111 153 214 264 336 403 499
#     4  11  25  40  79 110 154 209 264 337 414 490
#     4  11  29  53  77 119 157 215 266 340 404 490
#     4  11  24  47  77 106 154 208 277 314 412 491
#     4  11  26  48  73 116 157 196 276 340 410 478
#     4  11  29  51  84 115 167 212 279 329 413 488
#
# _framework density 25.756927999999998
#
# number of rings (size 3 to 8) (size 9 to 14) (size 15 to 20)
#    0.000    1.000    2.500    2.250    5.250    7.000 
#   11.250    0.000    0.000    0.000    0.000    0.000 
#    0.000    0.000    0.000    0.000    0.000    0.000 
#
# Total GULP energy -179052.993239 kJ/mol
# GULP energy per Si atom -5595.406039 kJ/mol
# Density = 2.569830 g / cm^3
# Si number density = 25.756928 Si / 1000 Ang^3
#
#
#
# Elastic Constant Matrix: (Units=GPa)
#
#
# Indices 1 2 3 4 5 6 
#
# 1 109.1217 44.5820 10.7412 0.0000 0.0000 0.0000
# 2 44.5820 97.1395 20.0504 0.0000 0.0000 0.0000
# 3 10.7412 20.0504 130.4566 0.0000 0.0000 0.0000
# 4 0.0000 0.0000 0.0000 45.4657 0.0000 0.0000
# 5 0.0000 0.0000 0.0000 0.0000 36.8157 0.0000
# 6 0.0000 0.0000 0.0000 0.0000 0.0000 37.9921
#
#
#
# Elastic Compliance Matrix: (Units=1/GPa)
#
#
# Indices 1 2 3 4 5 6 
#
# 1 0.011281 -0.005149 -0.000137 0.000000 0.000000 0.000000
# 2 -0.005149 0.012982 -0.001571 0.000000 0.000000 0.000000
# 3 -0.000137 -0.001571 0.007918 0.000000 0.000000 0.000000
# 4 0.000000 0.000000 0.000000 0.021995 0.000000 0.000000
# 5 0.000000 0.000000 0.000000 0.000000 0.027162 0.000000
# 6 0.000000 0.000000 0.000000 0.000000 0.000000 0.026321
#
#
# Mechanical properties :
#
#
# Convention : Reuss Voigt Hill
#
# Bulk Modulus (GPa) = 54.15452 54.16278 54.15865
# Shear Modulus (GPa) = 39.20623 41.47765 40.34194
#
# Velocity S-wave (km/s) = 3.90572 4.01727 3.96189
# Velocity P-wave (km/s) = 6.43509 6.52626 6.48083
#
# Compressibility (1/GPa) = 0.01846568
#
# Stress axis : x y z
#
# Youngs Moduli (GPa) = 88.64220 77.02977 126.29132
#
# Poissons Ratio (x) = 0.39664 0.01736
# Poissons Ratio (y) = 0.45643 0.19844
# Poissons Ratio (z) = 0.01218 0.12104
#
# Static dielectric constant tensor:
#      x y z
#    x 2.093450 0.000000 0.000000 
#    y 0.000000 2.064910 0.000000 
#    z 0.000000 0.000000 2.066450 
# 
# From -- ./inp_files/7193.got.cif
#   From: 2010.05.17/outbox.cif.g08.bks.cpg/sg33_4_cif.got.tgz:7193.got - 2010.06.03 17:15:25.
