data_PCOD9346682
_publ_section_title
;
Structure prediction by ZEFSAII (Michael W. Deem and Ramdas Pophale) SiO2 
 PCOD9346682
Probable space group: P N A 21
;
_chemical_formula_sum "Si O2"
_cell_formula_units_Z 28
_cell_length_a 11.611315
_cell_length_b 11.590793
_cell_length_c 9.358984
_cell_angle_alpha 90.000000
_cell_angle_beta 90.000000
_cell_angle_gamma 90.000000
_cell_volume 1259.572765
_symmetry_space_group_name_H-M "P N A 21"
_symmetry_group_IT_number 33
_symmetry_cell_setting 'orthorhombic'
loop_
_space_group_symop_operation_xyz
x,y,z
-x,-y,1/2+z
1/2-x,1/2+y,1/2+z
1/2+x,1/2-y,z
loop_
_atom_site_type_symbol
_atom_site_label
_atom_site_fract_x
_atom_site_fract_y
_atom_site_fract_z
Si Si1 0.881095 0.338813 0.033800
Si Si2 0.308445 0.059164 0.735774
Si Si3 0.760990 0.875269 0.808158
Si Si4 0.061899 0.687109 0.996141
Si Si5 0.951089 0.897557 0.168073
Si Si6 0.892736 0.081531 0.948457
Si Si7 0.408342 0.830266 0.730899
O O1 0.809339 0.393883 0.163417
O O2 0.011760 0.336957 0.091481
O O3 0.852607 0.405173 0.890406
O O4 0.849462 0.205347 0.001416
O O5 0.403550 0.102344 0.623381
O O6 0.184428 0.115130 0.704072
O O7 0.305011 0.921199 0.721791
O O8 0.869164 0.799280 0.761476
O O9 0.796672 0.991316 0.890231
O O10 0.682320 0.795821 0.911774
O O11 0.002370 0.797423 0.067550
O O12 0.981368 0.636733 0.872168
O O13 0.022581 0.900122 0.313980
O O14 0.957115 0.015008 0.076410
#
# Coordination Sequence:
#
# PCOD9346682 Si02
#       7
#     4   4   4   4   4   4   4
#     4  11  27  45  71 110 145 192 245 307 369 450
#     4  12  25  47  69 106 140 194 240 305 373 438
#     4  11  25  44  73 104 147 193 239 304 377 431
#     4  11  23  48  65 106 142 188 243 296 371 438
#     4  12  27  45  73 103 145 188 249 303 364 445
#     4  12  25  48  72 107 143 191 250 304 365 454
#     4  11  24  45  73 100 146 190 244 303 371 438
#
# _framework density 22.229761
#
# number of rings (size 3 to 8) (size 9 to 14) (size 15 to 20)
#    0.000    0.571    4.286    2.571    8.000    0.000 
#    7.714    0.000    0.000    0.000    0.000    0.000 
#    0.000    0.000    0.000    0.000    0.000    0.000 
#
# Total GULP energy -156570.174652 kJ/mol
# GULP energy per Si atom -5591.791952 kJ/mol
# Density = 2.217916 g / cm^3
# Si number density = 22.229761 Si / 1000 Ang^3
#
#
#
# Elastic Constant Matrix: (Units=GPa)
#
#
# Indices 1 2 3 4 5 6 
#
# 1 77.9266 21.8649 18.5817 0.0000 0.0000 0.0000
# 2 21.8649 96.3420 4.4873 0.0000 0.0000 0.0000
# 3 18.5817 4.4873 106.9964 0.0000 0.0000 0.0000
# 4 0.0000 0.0000 0.0000 38.8122 0.0000 0.0000
# 5 0.0000 0.0000 0.0000 0.0000 16.2310 0.0000
# 6 0.0000 0.0000 0.0000 0.0000 0.0000 30.0504
#
#
#
# Elastic Compliance Matrix: (Units=1/GPa)
#
#
# Indices 1 2 3 4 5 6 
#
# 1 0.014270 -0.003129 -0.002347 0.000000 0.000000 0.000000
# 2 -0.003129 0.011086 0.000079 0.000000 0.000000 0.000000
# 3 -0.002347 0.000079 0.009750 0.000000 0.000000 0.000000
# 4 0.000000 0.000000 0.000000 0.025765 0.000000 0.000000
# 5 0.000000 0.000000 0.000000 0.000000 0.061610 0.000000
# 6 0.000000 0.000000 0.000000 0.000000 0.000000 0.033277
#
#
# Mechanical properties :
#
#
# Convention : Reuss Voigt Hill
#
# Bulk Modulus (GPa) = 41.13323 41.23697 41.18510
# Shear Modulus (GPa) = 28.62717 32.77414 30.70065
#
# Velocity S-wave (km/s) = 3.59247 3.84387 3.72029
# Velocity P-wave (km/s) = 5.97926 6.18798 6.08452
#
# Compressibility (1/GPa) = 0.02431124
#
# Stress axis : x y z
#
# Youngs Moduli (GPa) = 70.07570 90.20196 102.55971
#
# Poissons Ratio (x) = 0.28227 0.24071
# Poissons Ratio (y) = 0.21929 -0.00805
# Poissons Ratio (z) = 0.16447 -0.00708
#
# Static dielectric constant tensor:
#      x y z
#    x 1.841800 0.000000 0.000000 
#    y 0.000000 1.797880 0.000000 
#    z 0.000000 0.000000 1.802430 
# 
# From -- ./inp_files/3852.got.cif
#   From: 2010.05.17/outbox.cif.g08.bks.cpg/sg33_2_cif.got.tgz:3852.got - 2010.06.03 17:15:25.
