data_PCOD9346729
_publ_section_title
;
Structure prediction by ZEFSAII (Michael W. Deem and Ramdas Pophale) SiO2 
 PCOD9346729
Probable space group: P N A 21
;
_chemical_formula_sum "Si O2"
_cell_formula_units_Z 28
_cell_length_a 19.156268
_cell_length_b 10.922311
_cell_length_c 5.138216
_cell_angle_alpha 90.000000
_cell_angle_beta 90.000000
_cell_angle_gamma 90.000000
_cell_volume 1075.072616
_symmetry_space_group_name_H-M "P N A 21"
_symmetry_group_IT_number 33
_symmetry_cell_setting 'orthorhombic'
loop_
_space_group_symop_operation_xyz
x,y,z
-x,-y,1/2+z
1/2-x,1/2+y,1/2+z
1/2+x,1/2-y,z
loop_
_atom_site_type_symbol
_atom_site_label
_atom_site_fract_x
_atom_site_fract_y
_atom_site_fract_z
Si Si1 0.137374 0.837341 0.233950
Si Si2 0.047822 0.012914 0.927260
Si Si3 0.098850 0.449337 0.870005
Si Si4 0.749619 0.564893 0.489017
Si Si5 0.768569 0.770847 0.958665
Si Si6 0.417090 0.738429 0.750173
Si Si7 0.529326 0.826952 0.083094
O O1 0.165613 0.927417 0.448057
O O2 0.077143 0.741063 0.295424
O O3 0.107407 0.915809 0.998467
O O4 0.213584 0.783446 0.167114
O O5 0.080823 0.144701 0.009178
O O6 0.987448 0.994142 0.147862
O O7 0.179203 0.419075 0.807353
O O8 0.087696 0.375324 0.137331
O O9 0.083436 0.590452 0.924910
O O10 0.035115 0.404528 0.692751
O O11 0.758869 0.671070 0.715584
O O12 0.754475 0.414591 0.488271
O O13 0.852394 0.782275 0.940983
O O14 0.490268 0.733317 0.896425
#
# Coordination Sequence:
#
# PCOD9346729 Si02
#       7
#     4   4   4   4   4   4   4
#     4  12  26  45  73 108 148 202 256 333 391 490
#     4  12  27  47  76 112 154 203 261 331 403 475
#     4  11  24  44  70 105 144 195 253 324 393 476
#     4  11  26  48  72 107 151 202 257 328 402 493
#     4  11  26  48  73 106 150 198 263 317 413 474
#     4  11  24  46  68 105 146 196 252 317 393 471
#     4  12  23  42  72 103 143 190 254 316 393 463
#
# _framework density 26.044751999999999
#
# number of rings (size 3 to 8) (size 9 to 14) (size 15 to 20)
#    0.000    0.571    5.714    1.714    2.000    3.429 
#    0.000    0.000    0.000    0.000    0.000    0.000 
#    0.000    0.000    0.000    0.000    0.000    0.000 
#
# Total GULP energy -155924.603969 kJ/mol
# GULP energy per Si atom -5568.735856 kJ/mol
# Density = 2.598547 g / cm^3
# Si number density = 26.044752 Si / 1000 Ang^3
#
#
#
# Elastic Constant Matrix: (Units=GPa)
#
#
# Indices 1 2 3 4 5 6 
#
# 1 147.9788 38.6486 14.7025 0.0000 0.0000 0.0000
# 2 38.6486 94.5186 -0.3586 0.0000 0.0000 0.0000
# 3 14.7025 -0.3586 38.4866 0.0000 0.0000 0.0000
# 4 0.0000 0.0000 0.0000 20.9745 0.0000 0.0000
# 5 0.0000 0.0000 0.0000 0.0000 40.5791 0.0000
# 6 0.0000 0.0000 0.0000 0.0000 0.0000 45.1136
#
#
#
# Elastic Compliance Matrix: (Units=1/GPa)
#
#
# Indices 1 2 3 4 5 6 
#
# 1 0.007909 -0.003245 -0.003051 0.000000 0.000000 0.000000
# 2 -0.003245 0.011912 0.001351 0.000000 0.000000 0.000000
# 3 -0.003051 0.001351 0.027161 0.000000 0.000000 0.000000
# 4 0.000000 0.000000 0.000000 0.047677 0.000000 0.000000
# 5 0.000000 0.000000 0.000000 0.000000 0.024643 0.000000
# 6 0.000000 0.000000 0.000000 0.000000 0.000000 0.022166
#
#
# Mechanical properties :
#
#
# Convention : Reuss Voigt Hill
#
# Bulk Modulus (GPa) = 26.96152 42.99655 34.97903
# Shear Modulus (GPa) = 30.53926 36.53287 33.53606
#
# Velocity S-wave (km/s) = 3.42799 3.74932 3.59225
# Velocity P-wave (km/s) = 5.10320 5.94035 5.53762
#
# Compressibility (1/GPa) = 0.03708990
#
# Stress axis : x y z
#
# Youngs Moduli (GPa) = 126.44604 83.94844 36.81704
#
# Poissons Ratio (x) = 0.27244 0.11234
# Poissons Ratio (y) = 0.41036 -0.04973
# Poissons Ratio (z) = 0.38584 -0.11339
#
# Static dielectric constant tensor:
#      x y z
#    x 1.935260 0.000000 0.000000 
#    y 0.000000 2.238700 0.000000 
#    z 0.000000 0.000000 2.137740 
# 
# From -- ./inp_files/1723.got.cif
#   From: 2010.05.17/outbox.cif.g08.bks.cpg/sg33_1_cif.got.tgz:1723.got - 2010.06.03 17:15:25.
