data_PCOD9346276
_publ_section_title
;
Structure prediction by ZEFSAII (Michael W. Deem and Ramdas Pophale) SiO2 
 PCOD9346276
Probable space group: P N A 21
;
_chemical_formula_sum "Si O2"
_cell_formula_units_Z 24
_cell_length_a 9.744557
_cell_length_b 10.002963
_cell_length_c 9.631806
_cell_angle_alpha 90.000000
_cell_angle_beta 90.000000
_cell_angle_gamma 90.000000
_cell_volume 938.854926
_symmetry_space_group_name_H-M "P N A 21"
_symmetry_group_IT_number 33
_symmetry_cell_setting 'orthorhombic'
loop_
_space_group_symop_operation_xyz
x,y,z
-x,-y,1/2+z
1/2-x,1/2+y,1/2+z
1/2+x,1/2-y,z
loop_
_atom_site_type_symbol
_atom_site_label
_atom_site_fract_x
_atom_site_fract_y
_atom_site_fract_z
Si Si1 0.586558 0.500569 0.285960
Si Si2 0.304272 0.199297 0.276742
Si Si3 0.212197 0.099495 0.816185
Si Si4 0.259503 0.846251 0.516404
Si Si5 0.532187 0.995947 0.194301
Si Si6 0.360605 0.257079 0.591270
O O1 0.669381 0.562257 0.416385
O O2 0.427721 0.520599 0.315851
O O3 0.708389 0.288902 0.934060
O O4 0.620113 0.596991 0.155200
O O5 0.146938 0.147027 0.268263
O O6 0.398026 0.070407 0.243449
O O7 0.338677 0.250257 0.428868
O O8 0.177067 0.802888 0.652764
O O9 0.352788 0.013247 0.817341
O O10 0.237539 0.179425 0.671494
O O11 0.393725 0.922801 0.570518
O O12 0.517356 0.843807 0.141303
#
# Coordination Sequence:
#
# PCOD9346276 Si02
#       6
#     4   4   4   4   4   4
#     4  11  23  46  71  95 139 179 229 273 345 401
#     4  12  26  42  73 101 134 185 221 284 337 399
#     4   9  23  41  70  96 131 182 215 280 337 397
#     4  11  24  43  69  99 136 177 228 277 341 399
#     4  10  24  43  69  97 138 169 231 269 335 404
#     4   9  24  41  68  98 136 172 226 275 331 400
#
# _framework density 25.563054000000001
#
# number of rings (size 3 to 8) (size 9 to 14) (size 15 to 20)
#    1.000    0.667    1.667    1.000    7.000    6.667 
#    0.000    0.000    0.000    0.000    0.000    0.000 
#    0.000    0.000    0.000    0.000    0.000    0.000 
#
# Total GULP energy -134486.840893 kJ/mol
# GULP energy per Si atom -5603.618371 kJ/mol
# Density = 2.550487 g / cm^3
# Si number density = 25.563054 Si / 1000 Ang^3
#
#
#
# Elastic Constant Matrix: (Units=GPa)
#
#
# Indices 1 2 3 4 5 6 
#
# 1 97.0957 12.3845 19.1453 0.0000 0.0000 0.0000
# 2 12.3845 67.8743 46.0852 0.0000 0.0000 0.0000
# 3 19.1453 46.0852 161.4138 0.0000 0.0000 0.0000
# 4 0.0000 0.0000 0.0000 25.3277 0.0000 0.0000
# 5 0.0000 0.0000 0.0000 0.0000 11.3634 0.0000
# 6 0.0000 0.0000 0.0000 0.0000 0.0000 33.4338
#
#
#
# Elastic Compliance Matrix: (Units=1/GPa)
#
#
# Indices 1 2 3 4 5 6 
#
# 1 0.010644 -0.001346 -0.000878 0.000000 0.000000 0.000000
# 2 -0.001346 0.018446 -0.005107 0.000000 0.000000 0.000000
# 3 -0.000878 -0.005107 0.007758 0.000000 0.000000 0.000000
# 4 0.000000 0.000000 0.000000 0.039482 0.000000 0.000000
# 5 0.000000 0.000000 0.000000 0.000000 0.088002 0.000000
# 6 0.000000 0.000000 0.000000 0.000000 0.000000 0.029910
#
#
# Mechanical properties :
#
#
# Convention : Reuss Voigt Hill
#
# Bulk Modulus (GPa) = 45.07420 53.51267 49.29343
# Shear Modulus (GPa) = 23.11613 30.60956 26.86285
#
# Velocity S-wave (km/s) = 3.01039 3.46412 3.24519
# Velocity P-wave (km/s) = 5.45473 6.08105 5.77639
#
# Compressibility (1/GPa) = 0.02218564
#
# Stress axis : x y z
#
# Youngs Moduli (GPa) = 93.95007 54.21179 128.90738
#
# Poissons Ratio (x) = 0.07296 0.11321
# Poissons Ratio (y) = 0.12644 0.65832
# Poissons Ratio (z) = 0.08251 0.27686
#
# Static dielectric constant tensor:
#      x y z
#    x 2.019860 0.000000 0.000000 
#    y 0.000000 2.054040 0.000000 
#    z 0.000000 0.000000 1.965210 
# 
# From -- ./inp_files/3806.got.cif
#   From: 2010.05.17/outbox.cif.g08.bks.cpg/sg33_2_cif.got.tgz:3806.got - 2010.06.03 17:15:25.
