data_PCOD9346820
_publ_section_title
;
Structure prediction by ZEFSAII (Michael W. Deem and Ramdas Pophale) SiO2 
 PCOD9346820
Probable space group: P N A 21
;
_chemical_formula_sum "Si O2"
_cell_formula_units_Z 16
_cell_length_a 4.766853
_cell_length_b 20.284745
_cell_length_c 6.600062
_cell_angle_alpha 90.000000
_cell_angle_beta 90.000000
_cell_angle_gamma 90.000000
_cell_volume 638.189019
_symmetry_space_group_name_H-M "P N A 21"
_symmetry_group_IT_number 33
_symmetry_cell_setting 'orthorhombic'
loop_
_space_group_symop_operation_xyz
x,y,z
-x,-y,1/2+z
1/2-x,1/2+y,1/2+z
1/2+x,1/2-y,z
loop_
_atom_site_type_symbol
_atom_site_label
_atom_site_fract_x
_atom_site_fract_y
_atom_site_fract_z
Si Si1 0.871452 0.121942 0.207720
Si Si2 0.324612 0.792553 0.393098
Si Si3 0.650704 0.945046 0.521963
Si Si4 0.924352 0.079944 0.668277
O O1 0.668358 0.067163 0.096412
O O2 0.923765 0.106926 0.440142
O O3 0.182313 0.115365 0.121262
O O4 0.739249 0.189670 0.128028
O O5 0.632871 0.769761 0.340047
O O6 0.230140 0.859048 0.279938
O O7 0.792688 0.938643 0.296243
O O8 0.757696 0.011036 0.635481
#
# Coordination Sequence:
#
# PCOD9346820 Si02
#       4
#     4   4   4   4
#     4  11  26  44  73 103 149 195 242 316 378 448
#     4  11  26  47  68 104 147 198 263 306 364 464
#     4  11  25  43  70 116 147 183 248 307 391 460
#     4  11  25  46  77 107 151 196 241 323 385 456
#
# _framework density 25.070943
#
# number of rings (size 3 to 8) (size 9 to 14) (size 15 to 20)
#    0.000    1.000    2.500    3.000    7.000   10.000 
#    0.000    0.000    0.000    0.000    0.000    0.000 
#    0.000    0.000    0.000    0.000    0.000    0.000 
#
# Total GULP energy -89153.028670 kJ/mol
# GULP energy per Si atom -5572.064292 kJ/mol
# Density = 2.501388 g / cm^3
# Si number density = 25.070943 Si / 1000 Ang^3
#
#
#
# Elastic Constant Matrix: (Units=GPa)
#
#
# Indices 1 2 3 4 5 6 
#
# 1 91.3716 34.4431 24.7361 0.0000 0.0000 0.0000
# 2 34.4431 108.8903 36.1953 0.0000 0.0000 0.0000
# 3 24.7361 36.1953 161.0438 0.0000 0.0000 0.0000
# 4 0.0000 0.0000 0.0000 38.3432 0.0000 0.0000
# 5 0.0000 0.0000 0.0000 0.0000 -30.6971 0.0000
# 6 0.0000 0.0000 0.0000 0.0000 0.0000 44.6786
#
#
#
# Elastic Compliance Matrix: (Units=1/GPa)
#
#
# Indices 1 2 3 4 5 6 
#
# 1 0.012612 -0.003615 -0.001125 0.000000 0.000000 0.000000
# 2 -0.003615 0.010961 -0.001908 0.000000 0.000000 0.000000
# 3 -0.001125 -0.001908 0.006811 0.000000 0.000000 0.000000
# 4 0.000000 0.000000 0.000000 0.026080 0.000000 0.000000
# 5 0.000000 0.000000 0.000000 0.000000 -0.032576 0.000000
# 6 0.000000 0.000000 0.000000 0.000000 0.000000 0.022382
#
#
# Mechanical properties :
#
#
# Convention : Reuss Voigt Hill
#
# Bulk Modulus (GPa) = 58.52165 61.33941 59.93053
# Shear Modulus (GPa) = 76.61358 28.19367 52.40362
#
# Velocity S-wave (km/s) = 5.53399 3.35708 4.57685
# Velocity P-wave (km/s) = 8.01414 6.28857 7.20321
#
# Compressibility (1/GPa) = 0.01708769
#
# Stress axis : x y z
#
# Youngs Moduli (GPa) = 79.29212 91.22872 146.81865
#
# Poissons Ratio (x) = 0.32983 0.16511
# Poissons Ratio (y) = 0.28667 0.28018
# Poissons Ratio (z) = 0.08917 0.17409
#
# Static dielectric constant tensor:
#      x y z
#    x 2.047710 0.000000 0.000000 
#    y 0.000000 2.019390 0.000000 
#    z 0.000000 0.000000 2.115040 
# 
# From -- ./inp_files/129.got.cif
#   From: 2010.05.17/outbox.cif.g08.bks.cpg/sg33_1_cif.got.tgz:129.got - 2010.06.03 17:15:25.
