data_PCOD9346412
_publ_section_title
;
Structure prediction by ZEFSAII (Michael W. Deem and Ramdas Pophale) SiO2 
 PCOD9346412
Probable space group: P N A 21
;
_chemical_formula_sum "Si O2"
_cell_formula_units_Z 20
_cell_length_a 12.382302
_cell_length_b 7.623124
_cell_length_c 7.892753
_cell_angle_alpha 90.000000
_cell_angle_beta 90.000000
_cell_angle_gamma 90.000000
_cell_volume 745.011349
_symmetry_space_group_name_H-M "P N A 21"
_symmetry_group_IT_number 33
_symmetry_cell_setting 'orthorhombic'
loop_
_space_group_symop_operation_xyz
x,y,z
-x,-y,1/2+z
1/2-x,1/2+y,1/2+z
1/2+x,1/2-y,z
loop_
_atom_site_type_symbol
_atom_site_label
_atom_site_fract_x
_atom_site_fract_y
_atom_site_fract_z
Si Si1 0.571444 0.407244 0.222910
Si Si2 0.331592 0.517459 0.209813
Si Si3 0.542729 0.058270 0.053821
Si Si4 0.231419 0.403417 0.845684
Si Si5 0.357381 0.914492 0.893634
O O1 0.459780 0.506518 0.228185
O O2 0.682469 0.510036 0.220501
O O3 0.588196 0.276622 0.384321
O O4 0.561871 0.266311 0.072387
O O5 0.295089 0.715818 0.259004
O O6 0.267703 0.405576 0.354017
O O7 0.293044 0.424615 0.031563
O O8 0.618719 0.003917 0.898476
O O9 0.417566 0.015599 0.039389
O O10 0.595264 0.986905 0.225669
#
# Coordination Sequence:
#
# PCOD9346412 Si02
#       5
#     4   4   4   4   4
#     4  10  25  45  75 111 151 208 262 331 405 490
#     4  11  25  47  78 107 161 201 268 334 411 491
#     4   9  22  45  74 109 158 199 267 326 408 489
#     4  11  26  48  72 116 147 214 261 338 405 492
#     4   9  22  43  73 107 149 200 260 327 401 482
#
# _framework density 26.845227999999999
#
# number of rings (size 3 to 8) (size 9 to 14) (size 15 to 20)
#    1.200    0.800    0.000    1.200    8.400    1.600 
#    7.200    0.000    0.000    0.000    0.000    0.000 
#    0.000    0.000    0.000    0.000    0.000    0.000 
#
# Total GULP energy -111583.971721 kJ/mol
# GULP energy per Si atom -5579.198586 kJ/mol
# Density = 2.678413 g / cm^3
# Si number density = 26.845228 Si / 1000 Ang^3
#
#
#
# Elastic Constant Matrix: (Units=GPa)
#
#
# Indices 1 2 3 4 5 6 
#
# 1 119.4000 25.5120 1.2592 0.0000 0.0000 0.0000
# 2 25.5120 89.2436 6.5448 0.0000 0.0000 0.0000
# 3 1.2592 6.5448 127.6611 0.0000 0.0000 0.0000
# 4 0.0000 0.0000 0.0000 27.8312 0.0000 0.0000
# 5 0.0000 0.0000 0.0000 0.0000 34.1018 0.0000
# 6 0.0000 0.0000 0.0000 0.0000 0.0000 49.3320
#
#
#
# Elastic Compliance Matrix: (Units=1/GPa)
#
#
# Indices 1 2 3 4 5 6 
#
# 1 0.008920 -0.002553 0.000043 0.000000 0.000000 0.000000
# 2 -0.002553 0.011978 -0.000589 0.000000 0.000000 0.000000
# 3 0.000043 -0.000589 0.007863 0.000000 0.000000 0.000000
# 4 0.000000 0.000000 0.000000 0.035931 0.000000 0.000000
# 5 0.000000 0.000000 0.000000 0.000000 0.029324 0.000000
# 6 0.000000 0.000000 0.000000 0.000000 0.000000 0.020271
#
#
# Mechanical properties :
#
#
# Convention : Reuss Voigt Hill
#
# Bulk Modulus (GPa) = 44.31979 44.77074 44.54526
# Shear Modulus (GPa) = 39.06041 42.45223 40.75632
#
# Velocity S-wave (km/s) = 3.81861 3.98096 3.90063
# Velocity P-wave (km/s) = 5.99897 6.15177 6.07585
#
# Compressibility (1/GPa) = 0.02256328
#
# Stress axis : x y z
#
# Youngs Moduli (GPa) = 112.10392 83.48390 127.17774
#
# Poissons Ratio (x) = 0.21315 -0.00546
# Poissons Ratio (y) = 0.28622 0.07490
# Poissons Ratio (z) = -0.00481 0.04916
#
# Static dielectric constant tensor:
#      x y z
#    x 2.058670 0.000000 0.000000 
#    y 0.000000 2.159880 0.000000 
#    z 0.000000 0.000000 2.311120 
# 
# From -- ./inp_files/4183.got.cif
#   From: 2010.05.17/outbox.cif.g08.bks.cpg/sg33_3_cif.got.tgz:4183.got - 2010.06.03 17:15:25.
