data_PCOD9346300
_publ_section_title
;
Structure prediction by ZEFSAII (Michael W. Deem and Ramdas Pophale) SiO2 
 PCOD9346300
Probable space group: P N A 21
;
_chemical_formula_sum "Si O2"
_cell_formula_units_Z 28
_cell_length_a 20.443775
_cell_length_b 7.655901
_cell_length_c 7.139746
_cell_angle_alpha 90.000000
_cell_angle_beta 90.000000
_cell_angle_gamma 90.000000
_cell_volume 1117.481040
_symmetry_space_group_name_H-M "P N A 21"
_symmetry_group_IT_number 33
_symmetry_cell_setting 'orthorhombic'
loop_
_space_group_symop_operation_xyz
x,y,z
-x,-y,1/2+z
1/2-x,1/2+y,1/2+z
1/2+x,1/2-y,z
loop_
_atom_site_type_symbol
_atom_site_label
_atom_site_fract_x
_atom_site_fract_y
_atom_site_fract_z
Si Si1 0.464936 0.813726 0.585470
Si Si2 0.225458 0.615614 0.436867
Si Si3 0.898334 0.179597 0.086507
Si Si4 0.927158 0.072495 0.659566
Si Si5 0.639442 0.907312 0.080548
Si Si6 0.813948 0.619387 0.230376
Si Si7 0.934090 0.812629 0.177395
O O1 0.541062 0.805192 0.642311
O O2 0.428614 0.636326 0.651449
O O3 0.426442 0.987629 0.637375
O O4 0.456587 0.788010 0.363223
O O5 0.171692 0.734551 0.548030
O O6 0.190262 0.554685 0.246276
O O7 0.237197 0.461699 0.584597
O O8 0.285168 0.728767 0.361671
O O9 0.902550 0.004500 0.210028
O O10 0.918750 0.114474 0.878752
O O11 0.875337 0.202490 0.568457
O O12 0.997548 0.139055 0.580693
O O13 0.663515 0.978472 0.882908
O O14 0.874639 0.693307 0.107488
#
# Coordination Sequence:
#
# PCOD9346300 Si02
#       7
#     4   4   4   4   4   4   4
#     4   9  19  38  65 101 138 170 213 284 361 411
#     4  11  27  46  68  99 133 190 242 286 344 419
#     4   9  20  39  63  99 133 172 220 281 345 419
#     4   9  19  38  65 101 138 170 213 284 361 411
#     4  10  24  44  70 102 138 178 226 296 344 424
#     4  11  27  46  68  99 133 190 242 286 344 419
#     4   9  20  39  63  99 133 172 220 281 345 419
#
# _framework density 25.056352
#
# number of rings (size 3 to 8) (size 9 to 14) (size 15 to 20)
#    0.000    2.286    0.000    0.000    8.000    5.714 
#    0.000    0.000    0.000    0.000    0.000    0.000 
#    0.000    0.000    0.000    0.000    0.000    0.000 
#
# Total GULP energy -156434.823766 kJ/mol
# GULP energy per Si atom -5586.957992 kJ/mol
# Density = 2.499932 g / cm^3
# Si number density = 25.056352 Si / 1000 Ang^3
#
#
#
# Elastic Constant Matrix: (Units=GPa)
#
#
# Indices 1 2 3 4 5 6 
#
# 1 74.7622 39.3541 22.0956 0.0000 0.0000 0.0000
# 2 39.3541 83.1179 34.4577 0.0000 0.0000 0.0000
# 3 22.0956 34.4577 61.8183 0.0000 0.0000 0.0000
# 4 0.0000 0.0000 0.0000 42.9572 0.0000 0.0000
# 5 0.0000 0.0000 0.0000 0.0000 26.1882 0.0000
# 6 0.0000 0.0000 0.0000 0.0000 0.0000 30.5671
#
#
#
# Elastic Compliance Matrix: (Units=1/GPa)
#
#
# Indices 1 2 3 4 5 6 
#
# 1 0.018042 -0.007633 -0.002194 0.000000 0.000000 0.000000
# 2 -0.007633 0.018876 -0.007793 0.000000 0.000000 0.000000
# 3 -0.002194 -0.007793 0.021305 0.000000 0.000000 0.000000
# 4 0.000000 0.000000 0.000000 0.023279 0.000000 0.000000
# 5 0.000000 0.000000 0.000000 0.000000 0.038185 0.000000
# 6 0.000000 0.000000 0.000000 0.000000 0.000000 0.032715
#
#
# Mechanical properties :
#
#
# Convention : Reuss Voigt Hill
#
# Bulk Modulus (GPa) = 43.51219 45.72369 44.61794
# Shear Modulus (GPa) = 25.60126 28.19523 26.89824
#
# Velocity S-wave (km/s) = 3.19995 3.35815 3.28000
# Velocity P-wave (km/s) = 5.57282 5.77271 5.67364
#
# Compressibility (1/GPa) = 0.02298206
#
# Stress axis : x y z
#
# Youngs Moduli (GPa) = 55.42601 52.97783 46.93802
#
# Poissons Ratio (x) = 0.40437 0.10299
# Poissons Ratio (y) = 0.42306 0.36580
# Poissons Ratio (z) = 0.12162 0.41287
#
# Static dielectric constant tensor:
#      x y z
#    x 2.029170 0.000000 0.000000 
#    y 0.000000 2.007230 0.000000 
#    z 0.000000 0.000000 2.019930 
# 
# From -- ./inp_files/4948.got.cif
#   From: 2010.05.17/outbox.cif.g08.bks.cpg/sg33_3_cif.got.tgz:4948.got - 2010.06.03 17:15:25.
