data_PCOD9346769
_publ_section_title
;
Structure prediction by ZEFSAII (Michael W. Deem and Ramdas Pophale) SiO2 
 PCOD9346769
Probable space group: P N A 21
;
_chemical_formula_sum "Si O2"
_cell_formula_units_Z 20
_cell_length_a 13.633422
_cell_length_b 4.836781
_cell_length_c 11.866367
_cell_angle_alpha 90.000000
_cell_angle_beta 90.000000
_cell_angle_gamma 90.000000
_cell_volume 782.490507
_symmetry_space_group_name_H-M "P N A 21"
_symmetry_group_IT_number 33
_symmetry_cell_setting 'orthorhombic'
loop_
_space_group_symop_operation_xyz
x,y,z
-x,-y,1/2+z
1/2-x,1/2+y,1/2+z
1/2+x,1/2-y,z
loop_
_atom_site_type_symbol
_atom_site_label
_atom_site_fract_x
_atom_site_fract_y
_atom_site_fract_z
Si Si1 0.627350 0.650952 0.375000
Si Si2 0.452573 0.636547 0.074393
Si Si3 0.100045 0.153280 0.812140
Si Si4 0.095139 0.371954 0.047473
Si Si5 0.783702 0.659364 0.765951
O O1 0.629612 0.505199 0.496439
O O2 0.513316 0.608660 0.343231
O O3 0.690956 0.474760 0.288280
O O4 0.657576 0.966578 0.356097
O O5 0.408119 0.774949 0.186587
O O6 0.527915 0.380819 0.094028
O O7 0.522098 0.873754 0.023959
O O8 0.170050 0.894990 0.788001
O O9 0.139822 0.292166 0.926374
O O10 0.173762 0.428677 0.144726
#
# Coordination Sequence:
#
# PCOD9346769 Si02
#       5
#     4   4   4   4   4
#     4  11  25  48  67 105 144 191 240 307 357 444
#     4  11  24  46  75  99 151 192 240 302 379 421
#     4  11  26  46  77 104 147 198 239 307 374 435
#     4  11  24  46  72 107 145 188 248 302 355 455
#     4  12  25  46  73 105 147 187 251 298 369 439
#
# _framework density 25.559414
#
# number of rings (size 3 to 8) (size 9 to 14) (size 15 to 20)
#    0.000    0.800    4.000    2.400    2.800    6.400 
#    3.600    0.000    0.000    0.000    0.000    0.000 
#    0.000    0.000    0.000    0.000    0.000    0.000 
#
# Total GULP energy -111840.569821 kJ/mol
# GULP energy per Si atom -5592.028491 kJ/mol
# Density = 2.550124 g / cm^3
# Si number density = 25.559414 Si / 1000 Ang^3
#
#
#
# Elastic Constant Matrix: (Units=GPa)
#
#
# Indices 1 2 3 4 5 6 
#
# 1 84.1916 5.5681 -4.8651 0.0000 0.0000 0.0000
# 2 5.5681 93.8600 2.3213 0.0000 0.0000 0.0000
# 3 -4.8651 2.3213 150.2050 0.0000 0.0000 0.0000
# 4 0.0000 0.0000 0.0000 35.3074 0.0000 0.0000
# 5 0.0000 0.0000 0.0000 0.0000 40.1940 0.0000
# 6 0.0000 0.0000 0.0000 0.0000 0.0000 35.0325
#
#
#
# Elastic Compliance Matrix: (Units=1/GPa)
#
#
# Indices 1 2 3 4 5 6 
#
# 1 0.011948 -0.000719 0.000398 0.000000 0.000000 0.000000
# 2 -0.000719 0.010701 -0.000189 0.000000 0.000000 0.000000
# 3 0.000398 -0.000189 0.006673 0.000000 0.000000 0.000000
# 4 0.000000 0.000000 0.000000 0.028323 0.000000 0.000000
# 5 0.000000 0.000000 0.000000 0.000000 0.024879 0.000000
# 6 0.000000 0.000000 0.000000 0.000000 0.000000 0.028545
#
#
# Mechanical properties :
#
#
# Convention : Reuss Voigt Hill
#
# Bulk Modulus (GPa) = 35.32990 37.14501 36.23745
# Shear Modulus (GPa) = 41.14439 43.78894 42.46666
#
# Velocity S-wave (km/s) = 4.01653 4.14360 4.08056
# Velocity P-wave (km/s) = 5.94665 6.12020 6.03405
#
# Compressibility (1/GPa) = 0.02830464
#
# Stress axis : x y z
#
# Youngs Moduli (GPa) = 83.69461 93.44512 149.84913
#
# Poissons Ratio (x) = 0.06715 -0.05966
# Poissons Ratio (y) = 0.06015 0.02827
# Poissons Ratio (z) = -0.03332 0.01763
#
# Static dielectric constant tensor:
#      x y z
#    x 2.046150 0.000000 0.000000 
#    y 0.000000 1.965980 0.000000 
#    z 0.000000 0.000000 2.105080 
# 
# From -- ./inp_files/6575.got.cif
#   From: 2010.05.17/outbox.cif.g08.bks.cpg/sg33_4_cif.got.tgz:6575.got - 2010.06.03 17:15:25.
