data_PCOD9346360
_publ_section_title
;
Structure prediction by ZEFSAII (Michael W. Deem and Ramdas Pophale) SiO2 
 PCOD9346360
Probable space group: P N A 21
;
_chemical_formula_sum "Si O2"
_cell_formula_units_Z 28
_cell_length_a 15.794466
_cell_length_b 9.308493
_cell_length_c 8.507718
_cell_angle_alpha 90.000000
_cell_angle_beta 90.000000
_cell_angle_gamma 90.000000
_cell_volume 1250.827469
_symmetry_space_group_name_H-M "P N A 21"
_symmetry_group_IT_number 33
_symmetry_cell_setting 'orthorhombic'
loop_
_space_group_symop_operation_xyz
x,y,z
-x,-y,1/2+z
1/2-x,1/2+y,1/2+z
1/2+x,1/2-y,z
loop_
_atom_site_type_symbol
_atom_site_label
_atom_site_fract_x
_atom_site_fract_y
_atom_site_fract_z
Si Si1 0.122402 0.439059 0.656250
Si Si2 0.578276 0.576537 0.845573
Si Si3 0.814435 0.995331 0.760606
Si Si4 0.633454 0.775135 0.116102
Si Si5 0.552151 0.335267 0.087366
Si Si6 0.679417 0.380609 0.612868
Si Si7 0.022840 0.482922 0.971463
O O1 0.218638 0.479333 0.701666
O O2 0.126470 0.266705 0.634138
O O3 0.064760 0.497451 0.800131
O O4 0.077966 0.499863 0.498445
O O5 0.509570 0.650980 0.735654
O O6 0.641778 0.492572 0.734010
O O7 0.629367 0.688162 0.951904
O O8 0.533787 0.460680 0.960786
O O9 0.869316 0.142609 0.738747
O O10 0.855018 0.875545 0.648721
O O11 0.821382 0.941435 0.937245
O O12 0.722911 0.847716 0.146695
O O13 0.563745 0.897275 0.087885
O O14 0.547221 0.177930 0.018832
#
# Coordination Sequence:
#
# PCOD9346360 Si02
#       7
#     4   4   4   4   4   4   4
#     4  11  26  46  69 111 144 188 241 304 369 430
#     4  11  24  45  72 107 137 192 243 290 363 437
#     4  10  24  47  72 104 143 192 239 297 361 433
#     4  10  25  46  70 105 143 185 245 293 359 434
#     4  11  25  44  76 103 145 189 242 296 358 433
#     4  11  23  46  74  99 150 185 241 297 357 442
#     4  12  25  48  69 107 148 183 243 301 363 429
#
# _framework density 22.385180999999999
#
# number of rings (size 3 to 8) (size 9 to 14) (size 15 to 20)
#    0.000    1.143    2.857    1.714    8.000    2.286 
#    5.143    0.000    0.000    0.000    0.000    0.000 
#    0.000    0.000    0.000    0.000    0.000    0.000 
#
# Total GULP energy -156573.092561 kJ/mol
# GULP energy per Si atom -5591.896163 kJ/mol
# Density = 2.233423 g / cm^3
# Si number density = 22.385181 Si / 1000 Ang^3
#
#
#
# Elastic Constant Matrix: (Units=GPa)
#
#
# Indices 1 2 3 4 5 6 
#
# 1 77.3016 18.7814 30.0504 0.0000 0.0000 0.0000
# 2 18.7814 81.3313 -0.6308 0.0000 0.0000 0.0000
# 3 30.0504 -0.6308 42.8694 0.0000 0.0000 0.0000
# 4 0.0000 0.0000 0.0000 20.4115 0.0000 0.0000
# 5 0.0000 0.0000 0.0000 0.0000 37.9327 0.0000
# 6 0.0000 0.0000 0.0000 0.0000 0.0000 43.3888
#
#
#
# Elastic Compliance Matrix: (Units=1/GPa)
#
#
# Indices 1 2 3 4 5 6 
#
# 1 0.019345 -0.004573 -0.013628 0.000000 0.000000 0.000000
# 2 -0.004573 0.013378 0.003402 0.000000 0.000000 0.000000
# 3 -0.013628 0.003402 0.032929 0.000000 0.000000 0.000000
# 4 0.000000 0.000000 0.000000 0.048992 0.000000 0.000000
# 5 0.000000 0.000000 0.000000 0.000000 0.026362 0.000000
# 6 0.000000 0.000000 0.000000 0.000000 0.000000 0.023047
#
#
# Mechanical properties :
#
#
# Convention : Reuss Voigt Hill
#
# Bulk Modulus (GPa) = 27.73486 33.10046 30.41766
# Shear Modulus (GPa) = 24.31090 30.56669 27.43880
#
# Velocity S-wave (km/s) = 3.29907 3.69926 3.50488
# Velocity P-wave (km/s) = 5.18927 5.75021 5.47693
#
# Compressibility (1/GPa) = 0.03605571
#
# Stress axis : x y z
#
# Youngs Moduli (GPa) = 51.69279 74.75073 30.36804
#
# Poissons Ratio (x) = 0.34183 0.41385
# Poissons Ratio (y) = 0.23639 -0.10332
# Poissons Ratio (z) = 0.70445 -0.25433
#
# Static dielectric constant tensor:
#      x y z
#    x 1.831190 0.000000 0.000000 
#    y 0.000000 1.816070 0.000000 
#    z 0.000000 0.000000 1.854740 
# 
# From -- ./inp_files/4733.got.cif
#   From: 2010.05.17/outbox.cif.g08.bks.cpg/sg33_3_cif.got.tgz:4733.got - 2010.06.03 17:15:25.
