data_PCOD9346810
_publ_section_title
;
Structure prediction by ZEFSAII (Michael W. Deem and Ramdas Pophale) SiO2 
 PCOD9346810
Probable space group: P N A 21
;
_chemical_formula_sum "Si O2"
_cell_formula_units_Z 24
_cell_length_a 7.445060
_cell_length_b 16.244877
_cell_length_c 8.360202
_cell_angle_alpha 90.000000
_cell_angle_beta 90.000000
_cell_angle_gamma 90.000000
_cell_volume 1011.116973
_symmetry_space_group_name_H-M "P N A 21"
_symmetry_group_IT_number 33
_symmetry_cell_setting 'orthorhombic'
loop_
_space_group_symop_operation_xyz
x,y,z
-x,-y,1/2+z
1/2-x,1/2+y,1/2+z
1/2+x,1/2-y,z
loop_
_atom_site_type_symbol
_atom_site_label
_atom_site_fract_x
_atom_site_fract_y
_atom_site_fract_z
Si Si1 0.217738 0.920192 0.101860
Si Si2 0.223542 0.598822 0.738260
Si Si3 0.388902 0.302133 0.822452
Si Si4 0.099764 0.839091 0.811905
Si Si5 0.422791 0.182903 0.543661
Si Si6 0.096482 0.311337 0.055616
O O1 0.059938 0.874489 0.201287
O O2 0.268169 0.005056 0.182156
O O3 0.155574 0.918134 0.917705
O O4 0.390458 0.859544 0.091689
O O5 0.421556 0.635914 0.719840
O O6 0.174534 0.618274 0.924548
O O7 0.074899 0.641368 0.624740
O O8 0.343273 0.223379 0.706592
O O9 0.226360 0.345960 0.918095
O O10 0.519931 0.266100 0.955645
O O11 0.055067 0.762757 0.929033
O O12 0.265119 0.808824 0.703936
#
# Coordination Sequence:
#
# PCOD9346810 Si02
#       6
#     4   4   4   4   4   4
#     4  11  26  52  76 118 157 215 260 335 409 477
#     4  12  29  48  82 113 164 207 265 334 407 477
#     4  11  26  46  76 119 156 199 273 320 388 486
#     4  11  26  52  78 114 156 210 270 322 402 488
#     4  11  24  51  79 106 158 210 258 328 397 469
#     4  12  27  45  79 118 153 205 266 331 393 477
#
# _framework density 23.736125999999999
#
# number of rings (size 3 to 8) (size 9 to 14) (size 15 to 20)
#    0.000    0.667    3.333    3.000   11.667    1.333 
#    0.000    0.000    0.000    0.000    0.000    0.000 
#    0.000    0.000    0.000    0.000    0.000    0.000 
#
# Total GULP energy -133877.398225 kJ/mol
# GULP energy per Si atom -5578.224926 kJ/mol
# Density = 2.368210 g / cm^3
# Si number density = 23.736126 Si / 1000 Ang^3
#
#
#
# Elastic Constant Matrix: (Units=GPa)
#
#
# Indices 1 2 3 4 5 6 
#
# 1 126.5558 60.7775 60.8965 0.0000 0.0000 0.0000
# 2 60.7775 116.6502 70.2047 0.0000 0.0000 0.0000
# 3 60.8965 70.2047 163.3578 0.0000 0.0000 0.0000
# 4 0.0000 0.0000 0.0000 31.7875 0.0000 0.0000
# 5 0.0000 0.0000 0.0000 0.0000 45.7884 0.0000
# 6 0.0000 0.0000 0.0000 0.0000 0.0000 15.4497
#
#
#
# Elastic Compliance Matrix: (Units=1/GPa)
#
#
# Indices 1 2 3 4 5 6 
#
# 1 0.011110 -0.004446 -0.002231 0.000000 0.000000 0.000000
# 2 -0.004446 0.013343 -0.004077 0.000000 0.000000 0.000000
# 3 -0.002231 -0.004077 0.008705 0.000000 0.000000 0.000000
# 4 0.000000 0.000000 0.000000 0.031459 0.000000 0.000000
# 5 0.000000 0.000000 0.000000 0.000000 0.021840 0.000000
# 6 0.000000 0.000000 0.000000 0.000000 0.000000 0.064726
#
#
# Mechanical properties :
#
#
# Convention : Reuss Voigt Hill
#
# Bulk Modulus (GPa) = 85.83195 87.81349 86.82272
# Shear Modulus (GPa) = 28.31674 32.91746 30.61710
#
# Velocity S-wave (km/s) = 3.45770 3.72803 3.59541
# Velocity P-wave (km/s) = 7.22360 7.45701 7.34123
#
# Compressibility (1/GPa) = 0.01165067
#
# Stress axis : x y z
#
# Youngs Moduli (GPa) = 90.00614 74.94736 114.87357
#
# Poissons Ratio (x) = 0.33322 0.25628
# Poissons Ratio (y) = 0.40017 0.46831
# Poissons Ratio (z) = 0.20080 0.30554
#
# Static dielectric constant tensor:
#      x y z
#    x 1.956510 0.000000 0.000000 
#    y 0.000000 1.902930 0.000000 
#    z 0.000000 0.000000 1.981890 
# 
# From -- ./inp_files/3243.got.cif
#   From: 2010.05.17/outbox.cif.g08.bks.cpg/sg33_2_cif.got.tgz:3243.got - 2010.06.03 17:15:25.
