data_PCOD9346533
_publ_section_title
;
Structure prediction by ZEFSAII (Michael W. Deem and Ramdas Pophale) SiO2 
 PCOD9346533
Probable space group: P N A 21
;
_chemical_formula_sum "Si O2"
_cell_formula_units_Z 32
_cell_length_a 12.221584
_cell_length_b 5.256027
_cell_length_c 22.179356
_cell_angle_alpha 90.000000
_cell_angle_beta 90.000000
_cell_angle_gamma 90.000000
_cell_volume 1424.734748
_symmetry_space_group_name_H-M "P N A 21"
_symmetry_group_IT_number 33
_symmetry_cell_setting 'orthorhombic'
loop_
_space_group_symop_operation_xyz
x,y,z
-x,-y,1/2+z
1/2-x,1/2+y,1/2+z
1/2+x,1/2-y,z
loop_
_atom_site_type_symbol
_atom_site_label
_atom_site_fract_x
_atom_site_fract_y
_atom_site_fract_z
Si Si1 0.245210 0.760725 0.879460
Si Si2 0.838194 0.739544 0.519620
Si Si3 0.257882 0.114644 0.135883
Si Si4 0.656759 0.865219 0.188436
Si Si5 0.047471 0.044468 0.909127
Si Si6 0.143193 0.127174 0.498590
Si Si7 0.362099 0.256510 0.827253
Si Si8 0.024345 0.462801 0.594411
O O1 0.289662 0.505385 0.846901
O O2 0.115539 0.814527 0.879378
O O3 0.303063 0.004871 0.851093
O O4 0.282407 0.769194 0.949427
O O5 0.811210 0.934982 0.573610
O O6 0.868341 0.801015 0.451032
O O7 0.723840 0.592708 0.518943
O O8 0.940170 0.585342 0.546858
O O9 0.206196 0.355950 0.171355
O O10 0.243059 0.853241 0.171531
O O11 0.386296 0.152945 0.122864
O O12 0.626099 0.800265 0.256802
O O13 0.549426 0.844739 0.146657
O O14 0.978328 0.197315 0.860026
O O15 0.960106 0.955343 0.958834
O O16 0.097498 0.271781 0.555679
#
# Coordination Sequence:
#
# PCOD9346533 Si02
#       8
#     4   4   4   4   4   4   4   4
#     4  11  24  43  68 101 137 178 225 283 342 407
#     4  11  22  40  67 104 142 175 221 283 345 419
#     4  11  24  43  68 101 137 178 225 283 342 407
#     4  11  26  47  69  97 136 180 238 289 332 399
#     4  11  22  40  70 100 138 183 224 275 350 411
#     4  11  22  40  67 104 142 175 221 283 345 419
#     4  11  26  47  69  97 136 180 238 289 332 399
#     4  11  22  40  70 100 138 183 224 275 350 411
#
# _framework density 22.460322000000001
#
# number of rings (size 3 to 8) (size 9 to 14) (size 15 to 20)
#    0.000    1.000    0.000    7.500    0.000    7.000 
#    0.000    7.500    0.000    0.000    0.000    0.000 
#    0.000    0.000    0.000    0.000    0.000    0.000 
#
# Total GULP energy -178853.342808 kJ/mol
# GULP energy per Si atom -5589.166963 kJ/mol
# Density = 2.240920 g / cm^3
# Si number density = 22.460322 Si / 1000 Ang^3
#
#
#
# Elastic Constant Matrix: (Units=GPa)
#
#
# Indices 1 2 3 4 5 6 
#
# 1 51.4682 6.6751 3.6416 0.0000 0.0000 0.0000
# 2 6.6751 81.2765 30.4735 0.0000 0.0000 0.0000
# 3 3.6416 30.4735 134.7535 0.0000 0.0000 0.0000
# 4 0.0000 0.0000 0.0000 27.3923 0.0000 0.0000
# 5 0.0000 0.0000 0.0000 0.0000 13.0905 0.0000
# 6 0.0000 0.0000 0.0000 0.0000 0.0000 -14.0701
#
#
#
# Elastic Compliance Matrix: (Units=1/GPa)
#
#
# Indices 1 2 3 4 5 6 
#
# 1 0.019643 -0.001545 -0.000181 0.000000 0.000000 0.000000
# 2 -0.001545 0.013565 -0.003026 0.000000 0.000000 0.000000
# 3 -0.000181 -0.003026 0.008110 0.000000 0.000000 0.000000
# 4 0.000000 0.000000 0.000000 0.036507 0.000000 0.000000
# 5 0.000000 0.000000 0.000000 0.000000 0.076392 0.000000
# 6 0.000000 0.000000 0.000000 0.000000 0.000000 -0.071073
#
#
# Mechanical properties :
#
#
# Convention : Reuss Voigt Hill
#
# Bulk Modulus (GPa) = 31.43371 38.78651 35.11011
# Shear Modulus (GPa) = 48.42488 20.39641 34.41064
#
# Velocity S-wave (km/s) = 4.64833 3.01675 3.91840
# Velocity P-wave (km/s) = 6.54484 5.42594 6.01148
#
# Compressibility (1/GPa) = 0.03181298
#
# Stress axis : x y z
#
# Youngs Moduli (GPa) = 50.90947 73.71862 123.30243
#
# Poissons Ratio (x) = 0.11391 0.02237
# Poissons Ratio (y) = 0.07867 0.37310
# Poissons Ratio (z) = 0.00923 0.22306
#
# Static dielectric constant tensor:
#      x y z
#    x 1.869150 0.000000 0.000000 
#    y 0.000000 1.902630 0.000000 
#    z 0.000000 0.000000 1.870170 
# 
# From -- ./inp_files/9148.got.cif
#   From: 2010.05.17/outbox.cif.g08.bks.cpg/sg33_5_cif.got.tgz:9148.got - 2010.06.03 17:15:25.
