data_PCOD9346048
_publ_section_title
;
Structure prediction by ZEFSAII (Michael W. Deem and Ramdas Pophale) SiO2 
 PCOD9346048
Probable space group: P N A 21
;
_chemical_formula_sum "Si O2"
_cell_formula_units_Z 32
_cell_length_a 17.863392
_cell_length_b 9.845523
_cell_length_c 8.060825
_cell_angle_alpha 90.000000
_cell_angle_beta 90.000000
_cell_angle_gamma 90.000000
_cell_volume 1417.693057
_symmetry_space_group_name_H-M "P N A 21"
_symmetry_group_IT_number 33
_symmetry_cell_setting 'orthorhombic'
loop_
_space_group_symop_operation_xyz
x,y,z
-x,-y,1/2+z
1/2-x,1/2+y,1/2+z
1/2+x,1/2-y,z
loop_
_atom_site_type_symbol
_atom_site_label
_atom_site_fract_x
_atom_site_fract_y
_atom_site_fract_z
Si Si1 0.784671 0.965558 0.373850
Si Si2 0.355372 0.036470 0.076916
Si Si3 0.850266 0.785289 0.084499
Si Si4 0.996827 0.894570 0.213839
Si Si5 0.715315 0.785448 0.860672
Si Si6 0.424312 0.152198 0.565560
Si Si7 0.078373 0.137144 0.072179
Si Si8 0.490353 0.892934 0.714263
O O1 0.697080 0.957486 0.416669
O O2 0.804949 0.860935 0.229620
O O3 0.840060 0.920673 0.524903
O O4 0.801698 0.124552 0.334522
O O5 0.306561 0.122125 0.207267
O O6 0.437288 0.101561 0.092333
O O7 0.362122 0.875444 0.120538
O O8 0.928782 0.862525 0.087655
O O9 0.800386 0.797156 0.920922
O O10 0.964358 0.865818 0.394739
O O11 0.060345 0.792269 0.156900
O O12 0.030143 0.042214 0.192533
O O13 0.660237 0.843372 0.002830
O O14 0.475184 0.134804 0.396749
O O15 0.450491 0.036414 0.690910
O O16 0.069825 0.284618 0.150852
#
# Coordination Sequence:
#
# PCOD9346048 Si02
#       8
#     4   4   4   4   4   4   4   4
#     4  10  23  43  63  90 125 162 208 253 308 370
#     4  10  23  43  63  90 125 162 208 253 308 370
#     4  10  23  42  63  90 125 164 204 258 308 364
#     4  11  22  42  63  92 128 159 207 258 306 372
#     4  10  23  42  63  90 125 164 204 258 308 364
#     4  11  22  42  63  92 128 159 207 258 306 372
#     4  11  24  40  65  95 124 166 207 257 313 368
#     4  11  24  40  65  95 124 166 207 257 313 368
#
# _framework density 22.571881999999999
#
# number of rings (size 3 to 8) (size 9 to 14) (size 15 to 20)
#    0.000    1.500    2.500    1.500   10.500    5.000 
#    0.000    0.000    0.000    0.000    0.000    0.000 
#    0.000    0.000    0.000    0.000    0.000    0.000 
#
# Total GULP energy -178856.568826 kJ/mol
# GULP energy per Si atom -5589.267776 kJ/mol
# Density = 2.252051 g / cm^3
# Si number density = 22.571882 Si / 1000 Ang^3
#
#
#
# Elastic Constant Matrix: (Units=GPa)
#
#
# Indices 1 2 3 4 5 6 
#
# 1 70.1888 3.8255 20.3328 0.0000 0.0000 0.0000
# 2 3.8255 47.8390 10.4696 0.0000 0.0000 0.0000
# 3 20.3328 10.4696 48.0167 0.0000 0.0000 0.0000
# 4 0.0000 0.0000 0.0000 18.5590 0.0000 0.0000
# 5 0.0000 0.0000 0.0000 0.0000 30.7031 0.0000
# 6 0.0000 0.0000 0.0000 0.0000 0.0000 26.1726
#
#
#
# Elastic Compliance Matrix: (Units=1/GPa)
#
#
# Indices 1 2 3 4 5 6 
#
# 1 0.016241 0.000217 -0.006925 0.000000 0.000000 0.000000
# 2 0.000217 0.021954 -0.004879 0.000000 0.000000 0.000000
# 3 -0.006925 -0.004879 0.024822 0.000000 0.000000 0.000000
# 4 0.000000 0.000000 0.000000 0.053882 0.000000 0.000000
# 5 0.000000 0.000000 0.000000 0.000000 0.032570 0.000000
# 6 0.000000 0.000000 0.000000 0.000000 0.000000 0.038208
#
#
# Mechanical properties :
#
#
# Convention : Reuss Voigt Hill
#
# Bulk Modulus (GPa) = 25.09778 26.14447 25.62113
# Shear Modulus (GPa) = 22.30823 23.84801 23.07812
#
# Velocity S-wave (km/s) = 3.14717 3.25397 3.20101
# Velocity P-wave (km/s) = 4.93451 5.07204 5.00375
#
# Compressibility (1/GPa) = 0.03984416
#
# Stress axis : x y z
#
# Youngs Moduli (GPa) = 61.57072 45.55014 40.28660
#
# Poissons Ratio (x) = -0.00987 0.27897
# Poissons Ratio (y) = -0.01334 0.19654
# Poissons Ratio (z) = 0.42636 0.22222
#
# Static dielectric constant tensor:
#      x y z
#    x 1.831590 0.000000 0.000000 
#    y 0.000000 1.779010 0.000000 
#    z 0.000000 0.000000 1.883050 
# 
# From -- ./inp_files/5055.got.cif
#   From: 2010.05.17/outbox.cif.g08.bks.cpg/sg33_3_cif.got.tgz:5055.got - 2010.06.03 17:15:25.
