data_PCOD9346474
_publ_section_title
;
Structure prediction by ZEFSAII (Michael W. Deem and Ramdas Pophale) SiO2 
 PCOD9346474
Probable space group: P N A 21
;
_chemical_formula_sum "Si O2"
_cell_formula_units_Z 32
_cell_length_a 19.479862
_cell_length_b 12.175673
_cell_length_c 6.507950
_cell_angle_alpha 90.000000
_cell_angle_beta 90.000000
_cell_angle_gamma 90.000000
_cell_volume 1543.558378
_symmetry_space_group_name_H-M "P N A 21"
_symmetry_group_IT_number 33
_symmetry_cell_setting 'orthorhombic'
loop_
_space_group_symop_operation_xyz
x,y,z
-x,-y,1/2+z
1/2-x,1/2+y,1/2+z
1/2+x,1/2-y,z
loop_
_atom_site_type_symbol
_atom_site_label
_atom_site_fract_x
_atom_site_fract_y
_atom_site_fract_z
Si Si1 0.095841 0.429468 0.948470
Si Si2 0.575077 0.599626 0.752084
Si Si3 0.017475 0.632634 0.120095
Si Si4 0.681977 0.985162 0.587498
Si Si5 0.103918 0.321766 0.348151
Si Si6 0.331810 0.429816 0.634690
Si Si7 0.626553 0.757400 0.398335
Si Si8 0.921684 0.916718 0.921460
O O1 0.152526 0.493907 0.816768
O O2 0.041810 0.381435 0.787884
O O3 0.056705 0.519313 0.085024
O O4 0.117419 0.335336 0.106527
O O5 0.587877 0.692861 0.580863
O O6 0.580251 0.483422 0.633100
O O7 0.500229 0.603524 0.854392
O O8 0.633855 0.607651 0.922720
O O9 0.071892 0.714996 0.218429
O O10 0.976083 0.658799 0.912053
O O11 0.648269 0.083807 0.455755
O O12 0.762782 0.003683 0.592791
O O13 0.657938 0.869425 0.490903
O O14 0.117109 0.199453 0.427924
O O15 0.320699 0.326394 0.788490
O O16 0.386114 0.507176 0.751181
#
# Coordination Sequence:
#
# PCOD9346474 Si02
#       8
#     4   4   4   4   4   4   4   4
#     4  11  21  38  64 100 141 171 219 272 342 402
#     4  11  24  44  71  99 131 180 231 292 346 408
#     4  11  20  37  65 102 132 173 220 279 334 394
#     4  11  27  44  65 103 138 186 226 276 346 424
#     4  11  24  38  67 101 141 176 222 284 343 399
#     4  11  27  47  67  96 138 182 232 282 344 415
#     4  11  25  44  70 101 136 183 233 279 352 415
#     4  11  24  42  69 100 131 177 233 288 343 407
#
# _framework density 20.731318999999999
#
# number of rings (size 3 to 8) (size 9 to 14) (size 15 to 20)
#    0.000    1.000    3.750    2.250    5.250    7.000 
#    0.000    0.000    0.000    0.000    0.000    0.000 
#    0.000    0.000    0.000    0.000    0.000    0.000 
#
# Total GULP energy -178803.668490 kJ/mol
# GULP energy per Si atom -5587.614640 kJ/mol
# Density = 2.068413 g / cm^3
# Si number density = 20.731319 Si / 1000 Ang^3
#
#
#
# Elastic Constant Matrix: (Units=GPa)
#
#
# Indices 1 2 3 4 5 6 
#
# 1 75.1903 14.7533 27.5160 0.0000 0.0000 0.0000
# 2 14.7533 122.0351 38.1881 0.0000 0.0000 0.0000
# 3 27.5160 38.1881 98.5612 0.0000 0.0000 0.0000
# 4 0.0000 0.0000 0.0000 32.7773 0.0000 0.0000
# 5 0.0000 0.0000 0.0000 0.0000 14.5135 0.0000
# 6 0.0000 0.0000 0.0000 0.0000 0.0000 13.3105
#
#
#
# Elastic Compliance Matrix: (Units=1/GPa)
#
#
# Indices 1 2 3 4 5 6 
#
# 1 0.014847 -0.000567 -0.003926 0.000000 0.000000 0.000000
# 2 -0.000567 0.009347 -0.003463 0.000000 0.000000 0.000000
# 3 -0.003926 -0.003463 0.012584 0.000000 0.000000 0.000000
# 4 0.000000 0.000000 0.000000 0.030509 0.000000 0.000000
# 5 0.000000 0.000000 0.000000 0.000000 0.068901 0.000000
# 6 0.000000 0.000000 0.000000 0.000000 0.000000 0.075129
#
#
# Mechanical properties :
#
#
# Convention : Reuss Voigt Hill
#
# Bulk Modulus (GPa) = 47.92240 50.74459 49.33349
# Shear Modulus (GPa) = 21.35082 26.47553 23.91318
#
# Velocity S-wave (km/s) = 3.21266 3.57750 3.39998
# Velocity P-wave (km/s) = 6.07682 6.44943 6.26589
#
# Compressibility (1/GPa) = 0.02086707
#
# Stress axis : x y z
#
# Youngs Moduli (GPa) = 67.35230 106.99091 79.46769
#
# Poissons Ratio (x) = 0.06062 0.31195
# Poissons Ratio (y) = 0.03816 0.27521
# Poissons Ratio (z) = 0.26439 0.37053
#
# Static dielectric constant tensor:
#      x y z
#    x 1.712230 0.000000 0.000000 
#    y 0.000000 1.760380 0.000000 
#    z 0.000000 0.000000 1.764850 
# 
# From -- ./inp_files/2090.got.cif
#   From: 2010.05.17/outbox.cif.g08.bks.cpg/sg33_2_cif.got.tgz:2090.got - 2010.06.03 17:15:25.
