data_PCOD9346293
_publ_section_title
;
Structure prediction by ZEFSAII (Michael W. Deem and Ramdas Pophale) SiO2 
 PCOD9346293
Probable space group: P N A 21
;
_chemical_formula_sum "Si O2"
_cell_formula_units_Z 32
_cell_length_a 14.678785
_cell_length_b 12.337144
_cell_length_c 7.926458
_cell_angle_alpha 90.000000
_cell_angle_beta 90.000000
_cell_angle_gamma 90.000000
_cell_volume 1435.436238
_symmetry_space_group_name_H-M "P N A 21"
_symmetry_group_IT_number 33
_symmetry_cell_setting 'orthorhombic'
loop_
_space_group_symop_operation_xyz
x,y,z
-x,-y,1/2+z
1/2-x,1/2+y,1/2+z
1/2+x,1/2-y,z
loop_
_atom_site_type_symbol
_atom_site_label
_atom_site_fract_x
_atom_site_fract_y
_atom_site_fract_z
Si Si1 0.549062 0.598929 0.888820
Si Si2 0.688758 0.692845 0.360354
Si Si3 0.487332 0.024107 0.129753
Si Si4 0.236732 0.856782 0.737563
Si Si5 0.515078 0.363838 0.770906
Si Si6 0.360229 0.063911 0.807116
Si Si7 0.128076 0.337849 0.692686
Si Si8 0.082483 0.271774 0.307201
O O1 0.645426 0.654815 0.846352
O O2 0.556760 0.473439 0.843800
O O3 0.472436 0.661820 0.781739
O O4 0.510345 0.614195 0.075699
O O5 0.716042 0.643790 0.539995
O O6 0.584183 0.659583 0.343305
O O7 0.687313 0.822811 0.341307
O O8 0.764368 0.657169 0.223865
O O9 0.526814 0.134282 0.209605
O O10 0.576303 0.945015 0.139254
O O11 0.413536 0.954635 0.235454
O O12 0.432659 0.047300 0.958959
O O13 0.312944 0.764076 0.753017
O O14 0.288092 0.966721 0.794522
O O15 0.581294 0.260710 0.794848
O O16 0.095329 0.309798 0.502275
#
# Coordination Sequence:
#
# PCOD9346293 Si02
#       8
#     4   4   4   4   4   4   4   4
#     4  11  24  46  67  96 140 179 231 282 347 423
#     4  12  26  42  68 104 137 185 233 287 364 425
#     4  11  21  43  72  97 134 174 230 291 349 409
#     4  11  24  43  67 103 136 180 235 281 349 425
#     4  11  25  43  69  95 135 186 222 285 350 416
#     4  11  25  43  71 104 140 183 237 298 353 426
#     4  11  23  44  68  98 137 175 230 289 352 420
#     4  10  24  44  68 101 133 182 232 289 350 414
#
# _framework density 22.292874000000001
#
# number of rings (size 3 to 8) (size 9 to 14) (size 15 to 20)
#    0.000    1.000    3.750    3.000    3.500    4.000 
#    2.250    0.000    0.000    0.000    0.000    0.000 
#    0.000    0.000    0.000    0.000    0.000    0.000 
#
# Total GULP energy -178652.181783 kJ/mol
# GULP energy per Si atom -5582.880681 kJ/mol
# Density = 2.224213 g / cm^3
# Si number density = 22.292874 Si / 1000 Ang^3
#
#
#
# Elastic Constant Matrix: (Units=GPa)
#
#
# Indices 1 2 3 4 5 6 
#
# 1 85.6356 -3.1090 -0.2648 0.0000 0.0000 0.0000
# 2 -3.1090 34.4234 2.9881 0.0000 0.0000 0.0000
# 3 -0.2648 2.9881 48.9581 0.0000 0.0000 0.0000
# 4 0.0000 0.0000 0.0000 25.8819 0.0000 0.0000
# 5 0.0000 0.0000 0.0000 0.0000 35.0804 0.0000
# 6 0.0000 0.0000 0.0000 0.0000 0.0000 18.8732
#
#
#
# Elastic Compliance Matrix: (Units=1/GPa)
#
#
# Indices 1 2 3 4 5 6 
#
# 1 0.011716 0.001058 -0.000001 0.000000 0.000000 0.000000
# 2 0.001058 0.029300 -0.001783 0.000000 0.000000 0.000000
# 3 -0.000001 -0.001783 0.020534 0.000000 0.000000 0.000000
# 4 0.000000 0.000000 0.000000 0.038637 0.000000 0.000000
# 5 0.000000 0.000000 0.000000 0.000000 0.028506 0.000000
# 6 0.000000 0.000000 0.000000 0.000000 0.000000 0.052985
#
#
# Mechanical properties :
#
#
# Convention : Reuss Voigt Hill
#
# Bulk Modulus (GPa) = 16.63910 18.69396 17.66653
# Shear Modulus (GPa) = 24.61080 27.26063 25.93572
#
# Velocity S-wave (km/s) = 3.32622 3.50071 3.41458
# Velocity P-wave (km/s) = 4.71505 4.97431 4.84641
#
# Compressibility (1/GPa) = 0.06009940
#
# Stress axis : x y z
#
# Youngs Moduli (GPa) = 85.35482 34.12936 48.69876
#
# Poissons Ratio (x) = -0.03612 0.00006
# Poissons Ratio (y) = -0.09033 0.08681
# Poissons Ratio (z) = 0.00010 0.06084
#
# Static dielectric constant tensor:
#      x y z
#    x 1.833610 0.000000 0.000000 
#    y 0.000000 1.831650 0.000000 
#    z 0.000000 0.000000 1.945110 
# 
# From -- ./inp_files/4440.got.cif
#   From: 2010.05.17/outbox.cif.g08.bks.cpg/sg33_3_cif.got.tgz:4440.got - 2010.06.03 17:15:25.
