data_PCOD9346388
_publ_section_title
;
Structure prediction by ZEFSAII (Michael W. Deem and Ramdas Pophale) SiO2 
 PCOD9346388
Probable space group: P N A 21
;
_chemical_formula_sum "Si O2"
_cell_formula_units_Z 28
_cell_length_a 12.166229
_cell_length_b 18.563092
_cell_length_c 5.592333
_cell_angle_alpha 90.000000
_cell_angle_beta 90.000000
_cell_angle_gamma 90.000000
_cell_volume 1262.988301
_symmetry_space_group_name_H-M "P N A 21"
_symmetry_group_IT_number 33
_symmetry_cell_setting 'orthorhombic'
loop_
_space_group_symop_operation_xyz
x,y,z
-x,-y,1/2+z
1/2-x,1/2+y,1/2+z
1/2+x,1/2-y,z
loop_
_atom_site_type_symbol
_atom_site_label
_atom_site_fract_x
_atom_site_fract_y
_atom_site_fract_z
Si Si1 0.477027 0.640415 0.564970
Si Si2 0.872237 0.533402 0.883232
Si Si3 0.422129 0.699725 0.060277
Si Si4 0.201373 0.933732 0.529156
Si Si5 0.230628 0.093451 0.328369
Si Si6 0.877924 0.652223 0.262196
Si Si7 0.443174 0.106743 0.076039
O O1 0.479441 0.680316 0.310565
O O2 0.573420 0.581929 0.550115
O O3 0.356846 0.605820 0.613005
O O4 0.489009 0.687795 0.811166
O O5 0.754574 0.558364 0.789955
O O6 0.962494 0.557543 0.692952
O O7 0.900146 0.579194 0.116493
O O8 0.876889 0.448420 0.909162
O O9 0.374838 0.780074 0.086671
O O10 0.324234 0.641749 0.033267
O O11 0.266905 0.867177 0.405248
O O12 0.230082 0.009150 0.396738
O O13 0.350279 0.125295 0.267110
O O14 0.983281 0.663235 0.434885
#
# Coordination Sequence:
#
# PCOD9346388 Si02
#       7
#     4   4   4   4   4   4   4
#     4  10  27  49  71 104 149 188 243 295 375 437
#     4  11  22  39  67 103 144 176 252 296 369 428
#     4  10  27  49  68 105 148 194 240 299 364 454
#     4  11  25  42  75 107 136 198 242 313 359 449
#     4  10  25  42  75 104 148 183 257 301 372 432
#     4  11  25  45  71 100 152 187 249 298 381 440
#     4  11  21  40  67 109 137 194 235 316 362 438
#
# _framework density 22.169643000000001
#
# number of rings (size 3 to 8) (size 9 to 14) (size 15 to 20)
#    0.857    0.571    2.857    0.857   10.000    0.000 
#    7.714    0.000    0.000    0.000    0.000    0.000 
#    0.000    0.000    0.000    0.000    0.000    0.000 
#
# Total GULP energy -156089.425513 kJ/mol
# GULP energy per Si atom -5574.622340 kJ/mol
# Density = 2.211918 g / cm^3
# Si number density = 22.169643 Si / 1000 Ang^3
#
#
#
# Elastic Constant Matrix: (Units=GPa)
#
#
# Indices 1 2 3 4 5 6 
#
# 1 58.4381 18.6011 5.2568 0.0000 0.0000 0.0000
# 2 18.6011 69.2072 18.8522 0.0000 0.0000 0.0000
# 3 5.2568 18.8522 92.8689 0.0000 0.0000 0.0000
# 4 0.0000 0.0000 0.0000 33.9588 0.0000 0.0000
# 5 0.0000 0.0000 0.0000 0.0000 22.7525 0.0000
# 6 0.0000 0.0000 0.0000 0.0000 0.0000 7.3240
#
#
#
# Elastic Compliance Matrix: (Units=1/GPa)
#
#
# Indices 1 2 3 4 5 6 
#
# 1 0.018713 -0.005019 -0.000040 0.000000 0.000000 0.000000
# 2 -0.005019 0.016641 -0.003094 0.000000 0.000000 0.000000
# 3 -0.000040 -0.003094 0.011398 0.000000 0.000000 0.000000
# 4 0.000000 0.000000 0.000000 0.029447 0.000000 0.000000
# 5 0.000000 0.000000 0.000000 0.000000 0.043951 0.000000
# 6 0.000000 0.000000 0.000000 0.000000 0.000000 0.136538
#
#
# Mechanical properties :
#
#
# Convention : Reuss Voigt Hill
#
# Bulk Modulus (GPa) = 32.84473 33.99271 33.41872
# Shear Modulus (GPa) = 17.65885 24.66065 21.15975
#
# Velocity S-wave (km/s) = 2.82535 3.33883 3.09276
# Velocity P-wave (km/s) = 5.04885 5.49818 5.27830
#
# Compressibility (1/GPa) = 0.03044628
#
# Stress axis : x y z
#
# Youngs Moduli (GPa) = 53.43816 60.09235 87.73286
#
# Poissons Ratio (x) = 0.30158 0.00355
# Poissons Ratio (y) = 0.26818 0.27145
# Poissons Ratio (z) = 0.00216 0.18593
#
# Static dielectric constant tensor:
#      x y z
#    x 1.793720 0.000000 0.000000 
#    y 0.000000 1.818100 0.000000 
#    z 0.000000 0.000000 1.892970 
# 
# From -- ./inp_files/910.got.cif
#   From: 2010.05.17/outbox.cif.g08.bks.cpg/sg33_1_cif.got.tgz:910.got - 2010.06.03 17:15:25.
