data_PCOD9346653
_publ_section_title
;
Structure prediction by ZEFSAII (Michael W. Deem and Ramdas Pophale) SiO2 
 PCOD9346653
Probable space group: P N A 21
;
_chemical_formula_sum "Si O2"
_cell_formula_units_Z 32
_cell_length_a 11.711329
_cell_length_b 20.053135
_cell_length_c 5.813192
_cell_angle_alpha 90.000000
_cell_angle_beta 90.000000
_cell_angle_gamma 90.000000
_cell_volume 1365.221523
_symmetry_space_group_name_H-M "P N A 21"
_symmetry_group_IT_number 33
_symmetry_cell_setting 'orthorhombic'
loop_
_space_group_symop_operation_xyz
x,y,z
-x,-y,1/2+z
1/2-x,1/2+y,1/2+z
1/2+x,1/2-y,z
loop_
_atom_site_type_symbol
_atom_site_label
_atom_site_fract_x
_atom_site_fract_y
_atom_site_fract_z
Si Si1 0.846555 0.376374 0.314110
Si Si2 0.756576 0.231389 0.343463
Si Si3 0.058185 0.321612 0.025343
Si Si4 0.049655 0.934769 0.183429
Si Si5 0.609063 0.418022 0.296672
Si Si6 0.966422 0.184519 0.027187
Si Si7 0.506092 0.036172 0.528070
Si Si8 0.286003 0.882955 0.143648
O O1 0.783700 0.308183 0.377094
O O2 0.742468 0.424252 0.242009
O O3 0.947579 0.358988 0.133220
O O4 0.903260 0.410962 0.533032
O O5 0.639094 0.210722 0.220168
O O6 0.861566 0.204605 0.189912
O O7 0.750623 0.191716 0.579649
O O8 0.009350 0.253077 0.906635
O O9 0.141582 0.370039 0.879858
O O10 0.069652 0.878964 0.377433
O O11 0.174014 0.925336 0.072886
O O12 0.043951 0.013387 0.231837
O O13 0.933746 0.912389 0.058892
O O14 0.564345 0.351987 0.173629
O O15 0.618512 0.080103 0.494862
O O16 0.488579 0.998997 0.279469
#
# Coordination Sequence:
#
# PCOD9346653 Si02
#       8
#     4   4   4   4   4   4   4   4
#     4  11  26  47  75 110 152 197 260 318 398 467
#     4  11  23  45  74 105 147 191 248 327 384 466
#     4  11  24  47  74 108 149 194 253 327 391 465
#     4  12  26  43  71 103 143 198 244 311 375 460
#     4  12  25  45  66 106 146 193 249 304 377 464
#     4  11  24  44  70 103 147 187 245 308 389 455
#     4  12  28  52  79 113 161 208 264 326 391 476
#     4  12  26  45  77 106 145 198 261 315 397 455
#
# _framework density 23.439420999999999
#
# number of rings (size 3 to 8) (size 9 to 14) (size 15 to 20)
#    0.000    0.500    6.250    1.500    1.750    3.000 
#    6.750    0.000    0.000    0.000    0.000    0.000 
#    0.000    0.000    0.000    0.000    0.000    0.000 
#
# Total GULP energy -178234.618909 kJ/mol
# GULP energy per Si atom -5569.831841 kJ/mol
# Density = 2.338607 g / cm^3
# Si number density = 23.439421 Si / 1000 Ang^3
#
#
#
# Elastic Constant Matrix: (Units=GPa)
#
#
# Indices 1 2 3 4 5 6 
#
# 1 107.5058 4.2902 14.0283 0.0000 0.0000 0.0000
# 2 4.2902 87.2750 22.0129 0.0000 0.0000 0.0000
# 3 14.0283 22.0129 40.2257 0.0000 0.0000 0.0000
# 4 0.0000 0.0000 0.0000 13.5910 0.0000 0.0000
# 5 0.0000 0.0000 0.0000 0.0000 27.1861 0.0000
# 6 0.0000 0.0000 0.0000 0.0000 0.0000 24.8967
#
#
#
# Elastic Compliance Matrix: (Units=1/GPa)
#
#
# Indices 1 2 3 4 5 6 
#
# 1 0.009760 0.000439 -0.003644 0.000000 0.000000 0.000000
# 2 0.000439 0.013313 -0.007438 0.000000 0.000000 0.000000
# 3 -0.003644 -0.007438 0.030201 0.000000 0.000000 0.000000
# 4 0.000000 0.000000 0.000000 0.073578 0.000000 0.000000
# 5 0.000000 0.000000 0.000000 0.000000 0.036784 0.000000
# 6 0.000000 0.000000 0.000000 0.000000 0.000000 0.040166
#
#
# Mechanical properties :
#
#
# Convention : Reuss Voigt Hill
#
# Bulk Modulus (GPa) = 31.26231 35.07435 33.16833
# Shear Modulus (GPa) = 21.20898 26.11311 23.66105
#
# Velocity S-wave (km/s) = 3.01132 3.34139 3.18064
# Velocity P-wave (km/s) = 5.04551 5.46652 5.26023
#
# Compressibility (1/GPa) = 0.03198740
#
# Stress axis : x y z
#
# Youngs Moduli (GPa) = 102.46115 75.11699 33.11141
#
# Poissons Ratio (x) = -0.03300 0.12066
# Poissons Ratio (y) = -0.04502 0.24629
# Poissons Ratio (z) = 0.37337 0.55874
#
# Static dielectric constant tensor:
#      x y z
#    x 2.054850 0.000000 0.000000 
#    y 0.000000 1.926970 0.000000 
#    z 0.000000 0.000000 2.027850 
# 
# From -- ./inp_files/1067.got.cif
#   From: 2010.05.17/outbox.cif.g08.bks.cpg/sg33_1_cif.got.tgz:1067.got - 2010.06.03 17:15:25.
