data_PCOD9346875
_publ_section_title
;
Structure prediction by ZEFSAII (Michael W. Deem and Ramdas Pophale) SiO2 
 PCOD9346875
Probable space group: P N A 21
;
_chemical_formula_sum "Si O2"
_cell_formula_units_Z 16
_cell_length_a 13.425270
_cell_length_b 7.698667
_cell_length_c 5.595913
_cell_angle_alpha 90.000000
_cell_angle_beta 90.000000
_cell_angle_gamma 90.000000
_cell_volume 578.375007
_symmetry_space_group_name_H-M "P N A 21"
_symmetry_group_IT_number 33
_symmetry_cell_setting 'orthorhombic'
loop_
_space_group_symop_operation_xyz
x,y,z
-x,-y,1/2+z
1/2-x,1/2+y,1/2+z
1/2+x,1/2-y,z
loop_
_atom_site_type_symbol
_atom_site_label
_atom_site_fract_x
_atom_site_fract_y
_atom_site_fract_z
Si Si1 0.039554 0.280067 0.212070
Si Si2 0.257425 0.393005 0.083801
Si Si3 0.092882 0.153262 0.705013
Si Si4 0.334422 0.037681 0.171798
O O1 0.146849 0.378502 0.195547
O O2 0.037446 0.161124 0.448805
O O3 0.947938 0.411715 0.232292
O O4 0.034411 0.190687 0.951606
O O5 0.343071 0.479019 0.244182
O O6 0.296476 0.200632 0.015810
O O7 0.246554 0.541301 0.883779
O O8 0.159079 0.328725 0.669320
#
# Coordination Sequence:
#
# PCOD9346875 Si02
#       4
#     4   4   4   4
#     4  11  26  49  76 115 154 210 259 333 405 477
#     4  11  25  48  81 113 158 207 271 325 407 483
#     4  11  25  48  77 111 158 205 263 326 401 478
#     4  11  26  49  78 113 160 208 265 338 399 484
#
# _framework density 27.663712
#
# number of rings (size 3 to 8) (size 9 to 14) (size 15 to 20)
#    0.000    1.000    2.500    3.000    7.000    2.000 
#    0.000    0.000    0.000    0.000    0.000    0.000 
#    0.000    0.000    0.000    0.000    0.000    0.000 
#
# Total GULP energy -89236.515720 kJ/mol
# GULP energy per Si atom -5577.282232 kJ/mol
# Density = 2.760075 g / cm^3
# Si number density = 27.663712 Si / 1000 Ang^3
#
#
#
# Elastic Constant Matrix: (Units=GPa)
#
#
# Indices 1 2 3 4 5 6 
#
# 1 118.6296 75.5244 7.2813 0.0000 0.0000 0.0000
# 2 75.5244 199.9298 33.5505 0.0000 0.0000 0.0000
# 3 7.2813 33.5505 155.7849 0.0000 0.0000 0.0000
# 4 0.0000 0.0000 0.0000 37.7637 0.0000 0.0000
# 5 0.0000 0.0000 0.0000 0.0000 134.6083 0.0000
# 6 0.0000 0.0000 0.0000 0.0000 0.0000 69.6110
#
#
#
# Elastic Compliance Matrix: (Units=1/GPa)
#
#
# Indices 1 2 3 4 5 6 
#
# 1 0.011123 -0.004269 0.000399 0.000000 0.000000 0.000000
# 2 -0.004269 0.006828 -0.001271 0.000000 0.000000 0.000000
# 3 0.000399 -0.001271 0.006674 0.000000 0.000000 0.000000
# 4 0.000000 0.000000 0.000000 0.026480 0.000000 0.000000
# 5 0.000000 0.000000 0.000000 0.000000 0.007429 0.000000
# 6 0.000000 0.000000 0.000000 0.000000 0.000000 0.014366
#
#
# Mechanical properties :
#
#
# Convention : Reuss Voigt Hill
#
# Bulk Modulus (GPa) = 69.71489 78.56186 74.13838
# Shear Modulus (GPa) = 56.84339 72.26246 64.55293
#
# Velocity S-wave (km/s) = 4.53791 5.11649 4.83586
# Velocity P-wave (km/s) = 7.26033 7.96022 7.61832
#
# Compressibility (1/GPa) = 0.01434414
#
# Stress axis : x y z
#
# Youngs Moduli (GPa) = 89.90619 146.46554 149.83198
#
# Poissons Ratio (x) = 0.62522 -0.05985
# Poissons Ratio (y) = 0.38378 0.19042
# Poissons Ratio (z) = -0.03591 0.18614
#
# Static dielectric constant tensor:
#      x y z
#    x 2.068450 0.000000 0.000000 
#    y 0.000000 2.030030 0.000000 
#    z 0.000000 0.000000 2.606680 
# 
# From -- ./inp_files/1197.got.cif
#   From: 2010.05.17/outbox.cif.g08.bks.cpg/sg33_1_cif.got.tgz:1197.got - 2010.06.03 17:15:25.
