data_PCOD9346878
_publ_section_title
;
Structure prediction by ZEFSAII (Michael W. Deem and Ramdas Pophale) SiO2 
 PCOD9346878
Probable space group: P N A 21
;
_chemical_formula_sum "Si O2"
_cell_formula_units_Z 20
_cell_length_a 7.960369
_cell_length_b 10.822903
_cell_length_c 8.787878
_cell_angle_alpha 90.000000
_cell_angle_beta 90.000000
_cell_angle_gamma 90.000000
_cell_volume 757.113491
_symmetry_space_group_name_H-M "P N A 21"
_symmetry_group_IT_number 33
_symmetry_cell_setting 'orthorhombic'
loop_
_space_group_symop_operation_xyz
x,y,z
-x,-y,1/2+z
1/2-x,1/2+y,1/2+z
1/2+x,1/2-y,z
loop_
_atom_site_type_symbol
_atom_site_label
_atom_site_fract_x
_atom_site_fract_y
_atom_site_fract_z
Si Si1 0.012646 0.974484 0.023450
Si Si2 0.456798 0.051627 0.668257
Si Si3 0.810932 0.113402 0.237540
Si Si4 0.297773 0.289804 0.723591
Si Si5 0.319654 0.157252 0.042775
O O1 0.063147 0.881905 0.158462
O O2 0.147706 0.084028 0.026889
O O3 0.045514 0.907483 0.863853
O O4 0.847722 0.042890 0.078338
O O5 0.329213 0.164396 0.624961
O O6 0.624302 0.132649 0.712220
O O7 0.354265 0.962845 0.787538
O O8 0.531321 0.940836 0.565586
O O9 0.802328 0.254704 0.189998
O O10 0.334342 0.238990 0.891270
#
# Coordination Sequence:
#
# PCOD9346878 Si02
#       5
#     4   4   4   4   4
#     4  11  26  48  71 117 155 208 270 326 404 481
#     4  11  26  48  81 114 160 212 264 333 404 481
#     4  12  25  47  77 113 162 211 267 330 402 480
#     4  11  25  48  79 111 156 205 267 330 402 474
#     4  11  26  49  76 111 157 208 262 335 404 476
#
# _framework density 26.416118000000001
#
# number of rings (size 3 to 8) (size 9 to 14) (size 15 to 20)
#    0.000    0.800    2.000    3.600    5.600    1.600 
#   18.000    0.000    0.000    0.000    0.000    0.000 
#    0.000    0.000    0.000    0.000    0.000    0.000 
#
# Total GULP energy -111655.836681 kJ/mol
# GULP energy per Si atom -5582.791834 kJ/mol
# Density = 2.635599 g / cm^3
# Si number density = 26.416118 Si / 1000 Ang^3
#
#
#
# Elastic Constant Matrix: (Units=GPa)
#
#
# Indices 1 2 3 4 5 6 
#
# 1 89.4127 38.4834 21.2322 0.0000 0.0000 0.0000
# 2 38.4834 179.1925 78.0696 0.0000 0.0000 0.0000
# 3 21.2322 78.0696 104.3145 0.0000 0.0000 0.0000
# 4 0.0000 0.0000 0.0000 45.4191 0.0000 0.0000
# 5 0.0000 0.0000 0.0000 0.0000 31.3028 0.0000
# 6 0.0000 0.0000 0.0000 0.0000 0.0000 27.4883
#
#
#
# Elastic Compliance Matrix: (Units=1/GPa)
#
#
# Indices 1 2 3 4 5 6 
#
# 1 0.012366 -0.002314 -0.000786 0.000000 0.000000 0.000000
# 2 -0.002314 0.008713 -0.006050 0.000000 0.000000 0.000000
# 3 -0.000786 -0.006050 0.014274 0.000000 0.000000 0.000000
# 4 0.000000 0.000000 0.000000 0.022017 0.000000 0.000000
# 5 0.000000 0.000000 0.000000 0.000000 0.031946 0.000000
# 6 0.000000 0.000000 0.000000 0.000000 0.000000 0.036379
#
#
# Mechanical properties :
#
#
# Convention : Reuss Voigt Hill
#
# Bulk Modulus (GPa) = 58.63263 72.05447 65.34355
# Shear Modulus (GPa) = 33.40452 36.51768 34.96110
#
# Velocity S-wave (km/s) = 3.55991 3.72210 3.64191
# Velocity P-wave (km/s) = 6.25630 6.76816 6.51725
#
# Compressibility (1/GPa) = 0.01705535
#
# Stress axis : x y z
#
# Youngs Moduli (GPa) = 80.86425 114.76593 70.05582
#
# Poissons Ratio (x) = 0.26552 0.05503
# Poissons Ratio (y) = 0.18708 0.42386
# Poissons Ratio (z) = 0.06353 0.69436
#
# Static dielectric constant tensor:
#      x y z
#    x 2.148830 0.000000 0.000000 
#    y 0.000000 2.091130 0.000000 
#    z 0.000000 0.000000 2.172020 
# 
# From -- ./inp_files/3044.got.cif
#   From: 2010.05.17/outbox.cif.g08.bks.cpg/sg33_2_cif.got.tgz:3044.got - 2010.06.03 17:15:25.
