data_PCOD9346889
_publ_section_title
;
Structure prediction by ZEFSAII (Michael W. Deem and Ramdas Pophale) SiO2 
 PCOD9346889
Probable space group: P N A 21
;
_chemical_formula_sum "Si O2"
_cell_formula_units_Z 24
_cell_length_a 15.418777
_cell_length_b 5.363610
_cell_length_c 11.413311
_cell_angle_alpha 90.000000
_cell_angle_beta 90.000000
_cell_angle_gamma 90.000000
_cell_volume 943.884318
_symmetry_space_group_name_H-M "P N A 21"
_symmetry_group_IT_number 33
_symmetry_cell_setting 'orthorhombic'
loop_
_space_group_symop_operation_xyz
x,y,z
-x,-y,1/2+z
1/2-x,1/2+y,1/2+z
1/2+x,1/2-y,z
loop_
_atom_site_type_symbol
_atom_site_label
_atom_site_fract_x
_atom_site_fract_y
_atom_site_fract_z
Si Si1 0.622606 0.211805 0.256840
Si Si2 0.904711 0.776047 0.487241
Si Si3 0.438578 0.396013 0.282239
Si Si4 0.256131 0.971025 0.358253
Si Si5 0.870045 0.621543 0.164384
Si Si6 0.603367 0.847479 0.437010
O O1 0.621778 0.278598 0.121382
O O2 0.540598 0.365279 0.307005
O O3 0.714766 0.274231 0.313637
O O4 0.599811 0.938243 0.302285
O O5 0.844161 0.565345 0.429533
O O6 0.006479 0.716244 0.476849
O O7 0.893737 0.017439 0.403841
O O8 0.424043 0.631860 0.196102
O O9 0.406723 0.139487 0.221437
O O10 0.279730 0.838770 0.233487
O O11 0.181030 0.848442 0.436606
O O12 0.867864 0.564707 0.027634
#
# Coordination Sequence:
#
# PCOD9346889 Si02
#       6
#     4   4   4   4   4   4
#     4  12  26  46  78 114 155 213 270 329 407 478
#     4  11  26  51  75 114 164 207 267 341 396 485
#     4  11  25  51  76 113 148 216 263 323 400 469
#     4  11  27  49  75 119 155 214 269 332 399 482
#     4  11  27  50  80 110 162 204 266 332 393 478
#     4  12  27  49  78 120 158 212 269 329 407 480
#
# _framework density 25.426846000000001
#
# number of rings (size 3 to 8) (size 9 to 14) (size 15 to 20)
#    0.000    0.667    3.333    3.000    9.333    1.333 
#    6.000    0.000    0.000    0.000    0.000    0.000 
#    0.000    0.000    0.000    0.000    0.000    0.000 
#
# Total GULP energy -134101.253638 kJ/mol
# GULP energy per Si atom -5587.552235 kJ/mol
# Density = 2.536897 g / cm^3
# Si number density = 25.426846 Si / 1000 Ang^3
#
#
#
# Elastic Constant Matrix: (Units=GPa)
#
#
# Indices 1 2 3 4 5 6 
#
# 1 126.3921 29.1097 36.2331 0.0000 0.0000 0.0000
# 2 29.1097 105.3221 29.1123 0.0000 0.0000 0.0000
# 3 36.2331 29.1123 134.5395 0.0000 0.0000 0.0000
# 4 0.0000 0.0000 0.0000 39.8977 0.0000 0.0000
# 5 0.0000 0.0000 0.0000 0.0000 28.2570 0.0000
# 6 0.0000 0.0000 0.0000 0.0000 0.0000 35.6231
#
#
#
# Elastic Compliance Matrix: (Units=1/GPa)
#
#
# Indices 1 2 3 4 5 6 
#
# 1 0.008923 -0.001917 -0.001988 0.000000 0.000000 0.000000
# 2 -0.001917 0.010510 -0.001758 0.000000 0.000000 0.000000
# 3 -0.001988 -0.001758 0.008349 0.000000 0.000000 0.000000
# 4 0.000000 0.000000 0.000000 0.025064 0.000000 0.000000
# 5 0.000000 0.000000 0.000000 0.000000 0.035389 0.000000
# 6 0.000000 0.000000 0.000000 0.000000 0.000000 0.028072
#
#
# Mechanical properties :
#
#
# Convention : Reuss Voigt Hill
#
# Bulk Modulus (GPa) = 60.76802 61.68487 61.22645
# Shear Modulus (GPa) = 37.56027 38.87547 38.21787
#
# Velocity S-wave (km/s) = 3.84759 3.91438 3.88113
# Velocity P-wave (km/s) = 6.60982 6.68896 6.64951
#
# Compressibility (1/GPa) = 0.01645602
#
# Stress axis : x y z
#
# Youngs Moduli (GPa) = 112.06552 95.14394 119.77916
#
# Poissons Ratio (x) = 0.18236 0.23817
# Poissons Ratio (y) = 0.21479 0.21058
# Poissons Ratio (z) = 0.22283 0.16727
#
# Static dielectric constant tensor:
#      x y z
#    x 2.033130 0.000000 0.000000 
#    y 0.000000 2.099700 0.000000 
#    z 0.000000 0.000000 2.027980 
# 
# From -- ./inp_files/6660.got.cif
#   From: 2010.05.17/outbox.cif.g08.bks.cpg/sg33_4_cif.got.tgz:6660.got - 2010.06.03 17:15:25.
