data_PCOD9346826
_publ_section_title
;
Structure prediction by ZEFSAII (Michael W. Deem and Ramdas Pophale) SiO2 
 PCOD9346826
Probable space group: P N A 21
;
_chemical_formula_sum "Si O2"
_cell_formula_units_Z 32
_cell_length_a 12.982598
_cell_length_b 8.279333
_cell_length_c 12.104395
_cell_angle_alpha 90.000000
_cell_angle_beta 90.000000
_cell_angle_gamma 90.000000
_cell_volume 1301.068156
_symmetry_space_group_name_H-M "P N A 21"
_symmetry_group_IT_number 33
_symmetry_cell_setting 'orthorhombic'
loop_
_space_group_symop_operation_xyz
x,y,z
-x,-y,1/2+z
1/2-x,1/2+y,1/2+z
1/2+x,1/2-y,z
loop_
_atom_site_type_symbol
_atom_site_label
_atom_site_fract_x
_atom_site_fract_y
_atom_site_fract_z
Si Si1 0.377026 0.548448 0.801640
Si Si2 0.310215 0.521084 0.551466
Si Si3 0.014942 0.832963 0.458798
Si Si4 0.195634 0.516468 0.190584
Si Si5 0.497203 0.873147 0.778897
Si Si6 0.980009 0.456326 0.507445
Si Si7 0.678094 0.275849 0.529987
Si Si8 0.341676 0.253224 0.127678
O O1 0.321108 0.508361 0.685919
O O2 0.438929 0.391956 0.843882
O O3 0.451476 0.694604 0.766710
O O4 0.327879 0.615316 0.917455
O O5 0.410818 0.574977 0.487347
O O6 0.263594 0.359080 0.506049
O O7 0.228794 0.664896 0.538117
O O8 0.006096 0.641604 0.474483
O O9 0.089299 0.878925 0.560844
O O10 0.102976 0.491858 0.280455
O O11 0.263520 0.353962 0.202919
O O12 0.280795 0.645313 0.146392
O O13 0.115443 0.524464 0.088724
O O14 0.556378 0.883901 0.892135
O O15 0.584591 0.878139 0.685539
O O16 0.070689 0.328339 0.541651
#
# Coordination Sequence:
#
# PCOD9346826 Si02
#       8
#     4   4   4   4   4   4   4   4
#     4  11  25  45  72 109 144 194 249 309 386 446
#     4  12  25  47  72 104 145 196 248 305 373 451
#     4  12  24  47  72 105 148 189 244 311 372 448
#     4  12  24  46  74 101 149 194 240 301 375 438
#     4  11  25  44  72 105 149 186 247 302 374 442
#     4  11  25  47  68 109 143 187 243 313 360 446
#     4  11  27  42  72 107 144 192 253 308 370 455
#     4  12  21  46  74  96 142 198 228 301 372 432
#
# _framework density 24.595175000000001
#
# number of rings (size 3 to 8) (size 9 to 14) (size 15 to 20)
#    0.000    0.500    7.500    0.000    7.000    0.000 
#    0.000    1.250    0.000    0.000    0.000    0.000 
#    0.000    0.000    0.000    0.000    0.000    0.000 
#
# Total GULP energy -178305.571634 kJ/mol
# GULP energy per Si atom -5572.049114 kJ/mol
# Density = 2.453920 g / cm^3
# Si number density = 24.595175 Si / 1000 Ang^3
#
#
#
# Elastic Constant Matrix: (Units=GPa)
#
#
# Indices 1 2 3 4 5 6 
#
# 1 77.9750 19.7190 4.4096 0.0000 0.0000 0.0000
# 2 19.7190 74.3242 9.6202 0.0000 0.0000 0.0000
# 3 4.4096 9.6202 49.5853 0.0000 0.0000 0.0000
# 4 0.0000 0.0000 0.0000 34.4607 0.0000 0.0000
# 5 0.0000 0.0000 0.0000 0.0000 16.4331 0.0000
# 6 0.0000 0.0000 0.0000 0.0000 0.0000 29.3117
#
#
#
# Elastic Compliance Matrix: (Units=1/GPa)
#
#
# Indices 1 2 3 4 5 6 
#
# 1 0.013760 -0.003582 -0.000529 0.000000 0.000000 0.000000
# 2 -0.003582 0.014734 -0.002540 0.000000 0.000000 0.000000
# 3 -0.000529 -0.002540 0.020707 0.000000 0.000000 0.000000
# 4 0.000000 0.000000 0.000000 0.029019 0.000000 0.000000
# 5 0.000000 0.000000 0.000000 0.000000 0.060853 0.000000
# 6 0.000000 0.000000 0.000000 0.000000 0.000000 0.034116
#
#
# Mechanical properties :
#
#
# Convention : Reuss Voigt Hill
#
# Bulk Modulus (GPa) = 27.85570 29.93132 28.89351
# Shear Modulus (GPa) = 25.19436 27.25014 26.22225
#
# Velocity S-wave (km/s) = 3.20404 3.33219 3.26874
# Velocity P-wave (km/s) = 5.00381 5.19622 5.10092
#
# Compressibility (1/GPa) = 0.03589929
#
# Stress axis : x y z
#
# Youngs Moduli (GPa) = 72.67196 67.87127 48.29265
#
# Poissons Ratio (x) = 0.24314 0.02553
# Poissons Ratio (y) = 0.26034 0.12266
# Poissons Ratio (z) = 0.03842 0.17239
#
# Static dielectric constant tensor:
#      x y z
#    x 1.999540 0.000000 0.000000 
#    y 0.000000 2.047370 0.000000 
#    z 0.000000 0.000000 2.054500 
# 
# From -- ./inp_files/7963.got.cif
#   From: 2010.05.17/outbox.cif.g08.bks.cpg/sg33_4_cif.got.tgz:7963.got - 2010.06.03 17:15:25.
