data_PCOD9346080
_publ_section_title
;
Structure prediction by ZEFSAII (Michael W. Deem and Ramdas Pophale) SiO2 
 PCOD9346080
Probable space group: P N A 21
;
_chemical_formula_sum "Si O2"
_cell_formula_units_Z 20
_cell_length_a 13.034516
_cell_length_b 5.247914
_cell_length_c 12.564983
_cell_angle_alpha 90.000000
_cell_angle_beta 90.000000
_cell_angle_gamma 90.000000
_cell_volume 859.495336
_symmetry_space_group_name_H-M "P N A 21"
_symmetry_group_IT_number 33
_symmetry_cell_setting 'orthorhombic'
loop_
_space_group_symop_operation_xyz
x,y,z
-x,-y,1/2+z
1/2-x,1/2+y,1/2+z
1/2+x,1/2-y,z
loop_
_atom_site_type_symbol
_atom_site_label
_atom_site_fract_x
_atom_site_fract_y
_atom_site_fract_z
Si Si1 0.055933 0.725553 0.506330
Si Si2 0.688477 0.279378 0.495432
Si Si3 0.043810 0.254939 0.234706
Si Si4 0.592949 0.861046 0.931150
Si Si5 0.854798 0.244294 0.662188
O O1 0.130998 0.486948 0.482784
O O2 0.027667 0.733473 0.630521
O O3 0.950016 0.649877 0.445789
O O4 0.114649 0.982549 0.481022
O O5 0.741261 0.275396 0.613361
O O6 0.785838 0.325199 0.418306
O O7 0.971185 0.243755 0.336350
O O8 0.109833 0.513989 0.229634
O O9 0.118292 0.014710 0.220738
O O10 0.579240 0.746625 0.050792
#
# Coordination Sequence:
#
# PCOD9346080 Si02
#       5
#     4   4   4   4   4
#     4  11  22  42  68  92 132 179 214 271 338 387
#     4  10  23  43  63  94 133 171 218 277 324 385
#     4  11  21  42  68  93 130 183 208 273 341 386
#     4   9  24  43  66  97 137 171 223 278 324 402
#     4   9  22  40  63  90 132 168 211 281 315 384
#
# _framework density 23.269469000000001
#
# number of rings (size 3 to 8) (size 9 to 14) (size 15 to 20)
#    1.200    0.800    0.000    3.600    0.000    6.400 
#   10.800    0.000    0.000    0.000    0.000    0.000 
#    0.000    0.000    0.000    0.000    0.000    0.000 
#
# Total GULP energy -111726.402915 kJ/mol
# GULP energy per Si atom -5586.320146 kJ/mol
# Density = 2.321651 g / cm^3
# Si number density = 23.269469 Si / 1000 Ang^3
#
#
#
# Elastic Constant Matrix: (Units=GPa)
#
#
# Indices 1 2 3 4 5 6 
#
# 1 100.2231 65.1881 27.3952 0.0000 0.0000 0.0000
# 2 65.1881 185.9764 31.6505 0.0000 0.0000 0.0000
# 3 27.3952 31.6505 90.9907 0.0000 0.0000 0.0000
# 4 0.0000 0.0000 0.0000 5.9929 0.0000 0.0000
# 5 0.0000 0.0000 0.0000 0.0000 46.1627 0.0000
# 6 0.0000 0.0000 0.0000 0.0000 0.0000 16.1704
#
#
#
# Elastic Compliance Matrix: (Units=1/GPa)
#
#
# Indices 1 2 3 4 5 6 
#
# 1 0.013464 -0.004283 -0.002564 0.000000 0.000000 0.000000
# 2 -0.004283 0.007078 -0.001172 0.000000 0.000000 0.000000
# 3 -0.002564 -0.001172 0.012170 0.000000 0.000000 0.000000
# 4 0.000000 0.000000 0.000000 0.166863 0.000000 0.000000
# 5 0.000000 0.000000 0.000000 0.000000 0.021663 0.000000
# 6 0.000000 0.000000 0.000000 0.000000 0.000000 0.061842
#
#
# Mechanical properties :
#
#
# Convention : Reuss Voigt Hill
#
# Bulk Modulus (GPa) = 59.97681 69.51755 64.74718
# Shear Modulus (GPa) = 16.41087 30.52896 23.46991
#
# Velocity S-wave (km/s) = 2.65854 3.62605 3.17931
# Velocity P-wave (km/s) = 5.93756 6.88991 6.43139
#
# Compressibility (1/GPa) = 0.01667311
#
# Stress axis : x y z
#
# Youngs Moduli (GPa) = 74.26938 141.28491 82.16994
#
# Poissons Ratio (x) = 0.60515 0.21068
# Poissons Ratio (y) = 0.31811 0.09634
# Poissons Ratio (z) = 0.19042 0.16565
#
# Static dielectric constant tensor:
#      x y z
#    x 1.892980 0.000000 0.000000 
#    y 0.000000 1.871570 0.000000 
#    z 0.000000 0.000000 1.890310 
# 
# From -- ./inp_files/6644.got.cif
#   From: 2010.05.17/outbox.cif.g08.bks.cpg/sg33_4_cif.got.tgz:6644.got - 2010.06.03 17:15:25.
