data_PCOD9346399
_publ_section_title
;
Structure prediction by ZEFSAII (Michael W. Deem and Ramdas Pophale) SiO2 
 PCOD9346399
Probable space group: P N A 21
;
_chemical_formula_sum "Si O2"
_cell_formula_units_Z 28
_cell_length_a 26.052765
_cell_length_b 5.553187
_cell_length_c 7.791315
_cell_angle_alpha 90.000000
_cell_angle_beta 90.000000
_cell_angle_gamma 90.000000
_cell_volume 1127.215322
_symmetry_space_group_name_H-M "P N A 21"
_symmetry_group_IT_number 33
_symmetry_cell_setting 'orthorhombic'
loop_
_space_group_symop_operation_xyz
x,y,z
-x,-y,1/2+z
1/2-x,1/2+y,1/2+z
1/2+x,1/2-y,z
loop_
_atom_site_type_symbol
_atom_site_label
_atom_site_fract_x
_atom_site_fract_y
_atom_site_fract_z
Si Si1 0.210565 0.264799 0.069550
Si Si2 0.739121 0.754450 0.902118
Si Si3 0.608591 0.525041 0.358410
Si Si4 0.440131 0.862880 0.044884
Si Si5 0.136742 0.738565 0.688661
Si Si6 0.392738 0.592175 0.487921
Si Si7 0.997553 0.750099 0.371494
O O1 0.212743 0.240954 0.274704
O O2 0.152306 0.287990 0.000957
O O3 0.239294 0.515038 0.026466
O O4 0.230585 0.010153 0.986641
O O5 0.691580 0.810746 0.772357
O O6 0.603596 0.254906 0.427333
O O7 0.642356 0.669332 0.493550
O O8 0.618655 0.563297 0.159051
O O9 0.549010 0.597644 0.390707
O O10 0.475053 0.723609 0.181693
O O11 0.406925 0.036935 0.170469
O O12 0.480604 0.988862 0.918707
O O13 0.114465 0.944310 0.814014
O O14 0.450214 0.688452 0.494998
#
# Coordination Sequence:
#
# PCOD9346399 Si02
#       7
#     4   4   4   4   4   4   4
#     4  11  26  48  76 111 142 192 238 304 374 435
#     4  11  25  48  77 108 146 187 238 305 369 440
#     4  11  24  42  64 100 134 192 234 293 350 434
#     4  11  23  40  64  97 133 187 232 292 353 420
#     4  10  25  44  67  95 141 181 234 293 360 423
#     4  11  24  44  69  98 145 178 244 289 363 425
#     4  11  23  38  63  95 139 181 236 290 353 421
#
# _framework density 24.839974999999999
#
# number of rings (size 3 to 8) (size 9 to 14) (size 15 to 20)
#    0.000    1.143    1.429    3.429   10.000    1.143 
#   10.286    0.000    0.000    0.000    0.000    0.000 
#    0.000    0.000    0.000    0.000    0.000    0.000 
#
# Total GULP energy -156463.852101 kJ/mol
# GULP energy per Si atom -5587.994718 kJ/mol
# Density = 2.478344 g / cm^3
# Si number density = 24.839975 Si / 1000 Ang^3
#
#
#
# Elastic Constant Matrix: (Units=GPa)
#
#
# Indices 1 2 3 4 5 6 
#
# 1 81.3066 10.1100 -2.6575 0.0000 0.0000 0.0000
# 2 10.1100 51.3467 16.0323 0.0000 0.0000 0.0000
# 3 -2.6575 16.0323 100.7158 0.0000 0.0000 0.0000
# 4 0.0000 0.0000 0.0000 25.2136 0.0000 0.0000
# 5 0.0000 0.0000 0.0000 0.0000 45.2586 0.0000
# 6 0.0000 0.0000 0.0000 0.0000 0.0000 23.9179
#
#
#
# Elastic Compliance Matrix: (Units=1/GPa)
#
#
# Indices 1 2 3 4 5 6 
#
# 1 0.012664 -0.002734 0.000769 0.000000 0.000000 0.000000
# 2 -0.002734 0.021084 -0.003428 0.000000 0.000000 0.000000
# 3 0.000769 -0.003428 0.010495 0.000000 0.000000 0.000000
# 4 0.000000 0.000000 0.000000 0.039661 0.000000 0.000000
# 5 0.000000 0.000000 0.000000 0.000000 0.022095 0.000000
# 6 0.000000 0.000000 0.000000 0.000000 0.000000 0.041810
#
#
# Mechanical properties :
#
#
# Convention : Reuss Voigt Hill
#
# Bulk Modulus (GPa) = 29.88846 31.14874 30.51860
# Shear Modulus (GPa) = 29.45550 32.87031 31.16290
#
# Velocity S-wave (km/s) = 3.44730 3.64164 3.54580
# Velocity P-wave (km/s) = 5.28239 5.49991 5.39225
#
# Compressibility (1/GPa) = 0.03345773
#
# Stress axis : x y z
#
# Youngs Moduli (GPa) = 78.96276 47.42890 95.28370
#
# Poissons Ratio (x) = 0.12966 -0.07330
# Poissons Ratio (y) = 0.21587 0.32667
# Poissons Ratio (z) = -0.06075 0.16260
#
# Static dielectric constant tensor:
#      x y z
#    x 2.003210 0.000000 0.000000 
#    y 0.000000 2.144220 0.000000 
#    z 0.000000 0.000000 1.936190 
# 
# From -- ./inp_files/5264.got.cif
#   From: 2010.05.17/outbox.cif.g08.bks.cpg/sg33_3_cif.got.tgz:5264.got - 2010.06.03 17:15:25.
