data_PCOD9346982
_publ_section_title
;
Structure prediction by ZEFSAII (Michael W. Deem and Ramdas Pophale) SiO2 
 PCOD9346982
Probable space group: P N A 21
;
_chemical_formula_sum "Si O2"
_cell_formula_units_Z 32
_cell_length_a 9.547148
_cell_length_b 18.001394
_cell_length_c 6.856754
_cell_angle_alpha 90.000000
_cell_angle_beta 90.000000
_cell_angle_gamma 90.000000
_cell_volume 1178.415269
_symmetry_space_group_name_H-M "P N A 21"
_symmetry_group_IT_number 33
_symmetry_cell_setting 'orthorhombic'
loop_
_space_group_symop_operation_xyz
x,y,z
-x,-y,1/2+z
1/2-x,1/2+y,1/2+z
1/2+x,1/2-y,z
loop_
_atom_site_type_symbol
_atom_site_label
_atom_site_fract_x
_atom_site_fract_y
_atom_site_fract_z
Si Si1 0.729881 0.854911 0.205950
Si Si2 0.693310 0.559262 0.869822
Si Si3 0.028526 0.170290 0.403329
Si Si4 0.754561 0.543296 0.415400
Si Si5 0.154415 0.069682 0.087222
Si Si6 0.009953 0.700246 0.669318
Si Si7 0.515550 0.937385 0.929115
Si Si8 0.730878 0.710070 0.418935
O O1 0.754109 0.891583 0.417638
O O2 0.710286 0.767591 0.244311
O O3 0.604103 0.895903 0.096746
O O4 0.868725 0.857481 0.071980
O O5 0.625810 0.637461 0.918849
O O6 0.710292 0.541905 0.642048
O O7 0.849554 0.556117 0.956225
O O8 0.590241 0.496810 0.957613
O O9 0.036628 0.257591 0.367317
O O10 0.075496 0.135387 0.194497
O O11 0.918506 0.519492 0.412738
O O12 0.702918 0.625307 0.358478
O O13 0.202762 0.020854 0.271841
O O14 0.039535 0.616851 0.741948
O O15 0.135735 0.750258 0.584819
O O16 0.886309 0.703481 0.511004
#
# Coordination Sequence:
#
# PCOD9346982 Si02
#       8
#     4   4   4   4   4   4   4   4
#     4  12  28  54  85 126 165 229 283 353 436 515
#     4  12  29  49  86 125 167 223 292 354 441 504
#     4  12  27  52  85 121 170 223 291 356 421 517
#     4  12  27  54  82 126 167 228 281 353 426 518
#     4  12  27  47  85 117 169 218 283 350 422 510
#     4  12  25  52  86 122 168 228 284 353 423 512
#     4  12  27  52  84 126 171 220 286 354 433 518
#     4  12  28  52  85 123 171 219 288 351 428 512
#
# _framework density 27.155111999999999
#
# number of rings (size 3 to 8) (size 9 to 14) (size 15 to 20)
#    0.000    0.000    6.250    1.500    5.250    6.000 
#    0.000    0.000    0.000    0.000    0.000    0.000 
#    0.000    0.000    0.000    0.000    0.000    0.000 
#
# Total GULP energy -179200.160266 kJ/mol
# GULP energy per Si atom -5600.005008 kJ/mol
# Density = 2.709331 g / cm^3
# Si number density = 27.155112 Si / 1000 Ang^3
#
#
#
# Elastic Constant Matrix: (Units=GPa)
#
#
# Indices 1 2 3 4 5 6 
#
# 1 103.8136 25.7805 69.8127 0.0000 0.0000 0.0000
# 2 25.7805 143.2379 37.0585 0.0000 0.0000 0.0000
# 3 69.8127 37.0585 131.2604 0.0000 0.0000 0.0000
# 4 0.0000 0.0000 0.0000 68.2099 0.0000 0.0000
# 5 0.0000 0.0000 0.0000 0.0000 41.9824 0.0000
# 6 0.0000 0.0000 0.0000 0.0000 0.0000 36.3928
#
#
#
# Elastic Compliance Matrix: (Units=1/GPa)
#
#
# Indices 1 2 3 4 5 6 
#
# 1 0.015059 -0.000688 -0.007815 0.000000 0.000000 0.000000
# 2 -0.000688 0.007563 -0.001769 0.000000 0.000000 0.000000
# 3 -0.007815 -0.001769 0.012274 0.000000 0.000000 0.000000
# 4 0.000000 0.000000 0.000000 0.014661 0.000000 0.000000
# 5 0.000000 0.000000 0.000000 0.000000 0.023819 0.000000
# 6 0.000000 0.000000 0.000000 0.000000 0.000000 0.027478
#
#
# Mechanical properties :
#
#
# Convention : Reuss Voigt Hill
#
# Bulk Modulus (GPa) = 69.67972 71.51281 70.59627
# Shear Modulus (GPa) = 39.62485 45.69438 42.65961
#
# Velocity S-wave (km/s) = 3.82410 4.10654 3.96783
# Velocity P-wave (km/s) = 6.72413 6.99121 6.85897
#
# Compressibility (1/GPa) = 0.01435138
#
# Stress axis : x y z
#
# Youngs Moduli (GPa) = 66.40522 132.22266 81.47032
#
# Poissons Ratio (x) = 0.09104 0.63669
# Poissons Ratio (y) = 0.04572 0.14413
# Poissons Ratio (z) = 0.51896 0.23391
#
# Static dielectric constant tensor:
#      x y z
#    x 2.182860 0.000000 0.000000 
#    y 0.000000 2.139220 0.000000 
#    z 0.000000 0.000000 2.119490 
# 
# From -- ./inp_files/1029.got.cif
#   From: 2010.05.17/outbox.cif.g08.bks.cpg/sg33_1_cif.got.tgz:1029.got - 2010.06.03 17:15:25.
