data_PCOD9346202
_publ_section_title
;
Structure prediction by ZEFSAII (Michael W. Deem and Ramdas Pophale) SiO2 
 PCOD9346202
Probable space group: P N A 21
;
_chemical_formula_sum "Si O2"
_cell_formula_units_Z 28
_cell_length_a 17.356332
_cell_length_b 11.883181
_cell_length_c 5.678042
_cell_angle_alpha 90.000000
_cell_angle_beta 90.000000
_cell_angle_gamma 90.000000
_cell_volume 1171.087274
_symmetry_space_group_name_H-M "P N A 21"
_symmetry_group_IT_number 33
_symmetry_cell_setting 'orthorhombic'
loop_
_space_group_symop_operation_xyz
x,y,z
-x,-y,1/2+z
1/2-x,1/2+y,1/2+z
1/2+x,1/2-y,z
loop_
_atom_site_type_symbol
_atom_site_label
_atom_site_fract_x
_atom_site_fract_y
_atom_site_fract_z
Si Si1 0.011891 0.057825 0.192130
Si Si2 0.222600 0.327706 0.368347
Si Si3 0.208570 0.661366 0.231815
Si Si4 0.079608 0.357714 0.666883
Si Si5 0.422682 0.084233 0.434486
Si Si6 0.646988 0.318638 0.994606
Si Si7 0.131116 0.788068 0.625237
O O1 0.097251 0.106310 0.166638
O O2 0.949360 0.151404 0.127162
O O3 0.996504 0.023419 0.462745
O O4 0.245807 0.215761 0.514912
O O5 0.159722 0.387251 0.532426
O O6 0.177785 0.288811 0.136630
O O7 0.306885 0.361778 0.273290
O O8 0.140605 0.582449 0.142873
O O9 0.276966 0.619185 0.398747
O O10 0.166243 0.763056 0.369895
O O11 0.003498 0.358862 0.506741
O O12 0.063251 0.458810 0.847123
O O13 0.094489 0.237339 0.790754
O O14 0.384006 0.165534 0.240230
#
# Coordination Sequence:
#
# PCOD9346202 Si02
#       7
#     4   4   4   4   4   4   4
#     4  12  30  48  74 108 138 198 250 298 366 434
#     4   9  21  44  71  98 137 183 229 295 369 418
#     4   9  21  44  71  98 137 183 229 295 369 418
#     4  11  25  40  69 105 139 183 232 288 370 442
#     4  11  25  40  69 105 139 183 232 288 370 442
#     4  10  23  48  70  96 143 181 235 306 354 430
#     4  10  23  48  70  96 143 181 235 306 354 430
#
# _framework density 23.909407000000002
#
# number of rings (size 3 to 8) (size 9 to 14) (size 15 to 20)
#    0.000    1.714    0.000    1.714   16.000    0.000 
#   15.429    0.000    0.000    0.000    0.000    0.000 
#    0.000    0.000    0.000    0.000    0.000    0.000 
#
# Total GULP energy -156353.566491 kJ/mol
# GULP energy per Si atom -5584.055946 kJ/mol
# Density = 2.385499 g / cm^3
# Si number density = 23.909407 Si / 1000 Ang^3
#
#
#
# Elastic Constant Matrix: (Units=GPa)
#
#
# Indices 1 2 3 4 5 6 
#
# 1 111.4028 -1.8072 10.9845 0.0000 0.0000 0.0000
# 2 -1.8072 31.5011 0.3045 0.0000 0.0000 0.0000
# 3 10.9845 0.3045 50.4154 0.0000 0.0000 0.0000
# 4 0.0000 0.0000 0.0000 9.9444 0.0000 0.0000
# 5 0.0000 0.0000 0.0000 0.0000 45.3403 0.0000
# 6 0.0000 0.0000 0.0000 0.0000 0.0000 -59.7404
#
#
#
# Elastic Compliance Matrix: (Units=1/GPa)
#
#
# Indices 1 2 3 4 5 6 
#
# 1 0.009183 0.000546 -0.002004 0.000000 0.000000 0.000000
# 2 0.000546 0.031779 -0.000311 0.000000 0.000000 0.000000
# 3 -0.002004 -0.000311 0.020274 0.000000 0.000000 0.000000
# 4 0.000000 0.000000 0.000000 0.100559 0.000000 0.000000
# 5 0.000000 0.000000 0.000000 0.000000 0.022055 0.000000
# 6 0.000000 0.000000 0.000000 0.000000 0.000000 -0.016739
#
#
# Mechanical properties :
#
#
# Convention : Reuss Voigt Hill
#
# Bulk Modulus (GPa) = 17.33152 23.58698 20.45925
# Shear Modulus (GPa) = 26.33217 11.36469 18.84843
#
# Velocity S-wave (km/s) = 3.32223 2.18256 2.81076
# Velocity P-wave (km/s) = 4.68837 4.02964 4.37143
#
# Compressibility (1/GPa) = 0.05769833
#
# Stress axis : x y z
#
# Youngs Moduli (GPa) = 108.89806 31.46702 49.32491
#
# Poissons Ratio (x) = -0.01719 0.09885
# Poissons Ratio (y) = -0.05948 0.01534
# Poissons Ratio (z) = 0.21824 0.00978
#
# Static dielectric constant tensor:
#      x y z
#    x 1.883000 0.000000 0.000000 
#    y 0.000000 1.951790 0.000000 
#    z 0.000000 0.000000 1.976870 
# 
# From -- ./inp_files/1734.got.cif
#   From: 2010.05.17/outbox.cif.g08.bks.cpg/sg33_1_cif.got.tgz:1734.got - 2010.06.03 17:15:25.
