data_PCOD9346449
_publ_section_title
;
Structure prediction by ZEFSAII (Michael W. Deem and Ramdas Pophale) SiO2 
 PCOD9346449
Probable space group: P N A 21
;
_chemical_formula_sum "Si O2"
_cell_formula_units_Z 32
_cell_length_a 13.870063
_cell_length_b 5.063925
_cell_length_c 17.656037
_cell_angle_alpha 90.000000
_cell_angle_beta 90.000000
_cell_angle_gamma 90.000000
_cell_volume 1240.106343
_symmetry_space_group_name_H-M "P N A 21"
_symmetry_group_IT_number 33
_symmetry_cell_setting 'orthorhombic'
loop_
_space_group_symop_operation_xyz
x,y,z
-x,-y,1/2+z
1/2-x,1/2+y,1/2+z
1/2+x,1/2-y,z
loop_
_atom_site_type_symbol
_atom_site_label
_atom_site_fract_x
_atom_site_fract_y
_atom_site_fract_z
Si Si1 0.447157 0.058350 0.131430
Si Si2 0.634926 0.969562 0.407202
Si Si3 0.152761 0.278964 0.074405
Si Si4 0.760420 0.450033 0.381262
Si Si5 0.795925 0.063164 0.717745
Si Si6 0.677279 0.417757 0.616497
Si Si7 0.013316 0.701805 0.279535
Si Si8 0.438752 0.774319 0.430085
O O1 0.557338 0.075998 0.104635
O O2 0.383006 0.836190 0.090191
O O3 0.452086 0.942211 0.216663
O O4 0.454895 0.134667 0.957006
O O5 0.708241 0.729917 0.395911
O O6 0.576675 0.006313 0.327994
O O7 0.956461 0.851507 0.347252
O O8 0.696190 0.226925 0.419558
O O9 0.195073 0.101059 0.140805
O O10 0.240021 0.479961 0.060007
O O11 0.115525 0.133975 0.998840
O O12 0.753386 0.425043 0.289727
O O13 0.869322 0.479764 0.409719
O O14 0.737131 0.323475 0.691279
O O15 0.905958 0.121324 0.740514
O O16 0.603084 0.656693 0.630190
#
# Coordination Sequence:
#
# PCOD9346449 Si02
#       8
#     4   4   4   4   4   4   4   4
#     4  12  25  46  79 105 147 199 253 305 385 449
#     4   9  24  44  68 108 143 182 256 297 368 438
#     4  12  27  49  74 113 157 194 253 327 371 454
#     4  11  23  46  75 103 143 199 242 313 362 453
#     4  11  23  49  77 107 154 191 264 315 371 448
#     4  12  27  45  74 111 144 196 254 304 381 446
#     4   9  21  47  72 109 142 199 249 310 369 453
#     4  10  26  48  73 110 150 202 245 309 391 441
#
# _framework density 25.804238000000002
#
# number of rings (size 3 to 8) (size 9 to 14) (size 15 to 20)
#    0.750    0.500    2.500    2.250    1.750    4.000 
#    4.500    0.000    0.000    0.000    0.000    0.000 
#    0.000    0.000    0.000    0.000    0.000    0.000 
#
# Total GULP energy -178959.220263 kJ/mol
# GULP energy per Si atom -5592.475633 kJ/mol
# Density = 2.574551 g / cm^3
# Si number density = 25.804238 Si / 1000 Ang^3
#
#
#
# Elastic Constant Matrix: (Units=GPa)
#
#
# Indices 1 2 3 4 5 6 
#
# 1 124.0875 32.1129 17.4955 0.0000 0.0000 0.0000
# 2 32.1129 97.0659 18.0178 0.0000 0.0000 0.0000
# 3 17.4955 18.0178 99.1778 0.0000 0.0000 0.0000
# 4 0.0000 0.0000 0.0000 22.0006 0.0000 0.0000
# 5 0.0000 0.0000 0.0000 0.0000 31.5286 0.0000
# 6 0.0000 0.0000 0.0000 0.0000 0.0000 33.9969
#
#
#
# Elastic Compliance Matrix: (Units=1/GPa)
#
#
# Indices 1 2 3 4 5 6 
#
# 1 0.008923 -0.002753 -0.001074 0.000000 0.000000 0.000000
# 2 -0.002753 0.011511 -0.001606 0.000000 0.000000 0.000000
# 3 -0.001074 -0.001606 0.010564 0.000000 0.000000 0.000000
# 4 0.000000 0.000000 0.000000 0.045453 0.000000 0.000000
# 5 0.000000 0.000000 0.000000 0.000000 0.031717 0.000000
# 6 0.000000 0.000000 0.000000 0.000000 0.000000 0.029414
#
#
# Mechanical properties :
#
#
# Convention : Reuss Voigt Hill
#
# Bulk Modulus (GPa) = 49.66892 50.62042 50.14467
# Shear Modulus (GPa) = 32.22523 34.35223 33.28873
#
# Velocity S-wave (km/s) = 3.53772 3.65261 3.59562
# Velocity P-wave (km/s) = 5.99812 6.11951 6.05912
#
# Compressibility (1/GPa) = 0.02013332
#
# Stress axis : x y z
#
# Youngs Moduli (GPa) = 112.07510 86.87361 94.66063
#
# Poissons Ratio (x) = 0.23913 0.10166
# Poissons Ratio (y) = 0.30849 0.15199
# Poissons Ratio (z) = 0.12036 0.13949
#
# Static dielectric constant tensor:
#      x y z
#    x 2.007870 0.000000 0.000000 
#    y 0.000000 2.002460 0.000000 
#    z 0.000000 0.000000 2.125360 
# 
# From -- ./inp_files/8779.got.cif
#   From: 2010.05.17/outbox.cif.g08.bks.cpg/sg33_5_cif.got.tgz:8779.got - 2010.06.03 17:15:25.
