data_PCOD9346845
_publ_section_title
;
Structure prediction by ZEFSAII (Michael W. Deem and Ramdas Pophale) SiO2 
 PCOD9346845
Probable space group: P N A 21
;
_chemical_formula_sum "Si O2"
_cell_formula_units_Z 20
_cell_length_a 9.273157
_cell_length_b 11.484850
_cell_length_c 7.634309
_cell_angle_alpha 90.000000
_cell_angle_beta 90.000000
_cell_angle_gamma 90.000000
_cell_volume 813.060147
_symmetry_space_group_name_H-M "P N A 21"
_symmetry_group_IT_number 33
_symmetry_cell_setting 'orthorhombic'
loop_
_space_group_symop_operation_xyz
x,y,z
-x,-y,1/2+z
1/2-x,1/2+y,1/2+z
1/2+x,1/2-y,z
loop_
_atom_site_type_symbol
_atom_site_label
_atom_site_fract_x
_atom_site_fract_y
_atom_site_fract_z
Si Si1 0.313653 0.477355 0.512090
Si Si2 0.692485 0.905703 0.173056
Si Si3 0.314909 0.835692 0.576410
Si Si4 0.107640 0.290052 0.686635
Si Si5 0.505960 0.659032 0.725821
O O1 0.220801 0.551506 0.371701
O O2 0.207740 0.394356 0.618647
O O3 0.405238 0.561817 0.635885
O O4 0.420110 0.398747 0.394109
O O5 0.830951 0.831591 0.115335
O O6 0.556575 0.822078 0.153576
O O7 0.668088 0.025420 0.071285
O O8 0.369499 0.784075 0.395269
O O9 0.408762 0.775326 0.730371
O O10 0.146468 0.812406 0.607551
#
# Coordination Sequence:
#
# PCOD9346845 Si02
#       5
#     4   4   4   4   4
#     4  11  26  47  76 110 149 198 261 302 381 442
#     4  11  27  46  71 111 144 198 256 305 379 450
#     4  11  25  46  74 104 151 195 252 305 385 443
#     4  12  25  46  75 101 155 196 247 315 371 453
#     4  11  25  47  72 108 149 199 248 317 366 456
#
# _framework density 24.598427000000001
#
# number of rings (size 3 to 8) (size 9 to 14) (size 15 to 20)
#    0.000    0.800    2.000    3.600    8.400    4.800 
#    3.600    0.000    0.000    0.000    0.000    0.000 
#    0.000    0.000    0.000    0.000    0.000    0.000 
#
# Total GULP energy -112152.194189 kJ/mol
# GULP energy per Si atom -5607.609709 kJ/mol
# Density = 2.454244 g / cm^3
# Si number density = 24.598427 Si / 1000 Ang^3
#
#
#
# Elastic Constant Matrix: (Units=GPa)
#
#
# Indices 1 2 3 4 5 6 
#
# 1 125.3724 53.8555 27.1415 0.0000 0.0000 0.0000
# 2 53.8555 147.7273 14.6708 0.0000 0.0000 0.0000
# 3 27.1415 14.6708 42.0243 0.0000 0.0000 0.0000
# 4 0.0000 0.0000 0.0000 42.9088 0.0000 0.0000
# 5 0.0000 0.0000 0.0000 0.0000 36.2289 0.0000
# 6 0.0000 0.0000 0.0000 0.0000 0.0000 52.6981
#
#
#
# Elastic Compliance Matrix: (Units=1/GPa)
#
#
# Indices 1 2 3 4 5 6 
#
# 1 0.010635 -0.003310 -0.005713 0.000000 0.000000 0.000000
# 2 -0.003310 0.008042 -0.000670 0.000000 0.000000 0.000000
# 3 -0.005713 -0.000670 0.027720 0.000000 0.000000 0.000000
# 4 0.000000 0.000000 0.000000 0.023305 0.000000 0.000000
# 5 0.000000 0.000000 0.000000 0.000000 0.027602 0.000000
# 6 0.000000 0.000000 0.000000 0.000000 0.000000 0.018976
#
#
# Mechanical properties :
#
#
# Convention : Reuss Voigt Hill
#
# Bulk Modulus (GPa) = 37.02192 56.27329 46.64760
# Shear Modulus (GPa) = 34.56156 40.99758 37.77957
#
# Velocity S-wave (km/s) = 3.75244 4.08692 3.92325
# Velocity P-wave (km/s) = 5.81873 6.72287 6.28708
#
# Compressibility (1/GPa) = 0.02701103
#
# Stress axis : x y z
#
# Youngs Moduli (GPa) = 94.03131 124.34193 36.07565
#
# Poissons Ratio (x) = 0.41153 0.20610
# Poissons Ratio (y) = 0.31121 0.02417
# Poissons Ratio (z) = 0.53721 0.08332
#
# Static dielectric constant tensor:
#      x y z
#    x 1.872560 0.000000 0.000000 
#    y 0.000000 1.948770 0.000000 
#    z 0.000000 0.000000 1.989770 
# 
# From -- ./inp_files/2938.got.cif
#   From: 2010.05.17/outbox.cif.g08.bks.cpg/sg33_2_cif.got.tgz:2938.got - 2010.06.03 17:15:25.
