data_PCOD9346869
_publ_section_title
;
Structure prediction by ZEFSAII (Michael W. Deem and Ramdas Pophale) SiO2 
 PCOD9346869
Probable space group: P N A 21
;
_chemical_formula_sum "Si O2"
_cell_formula_units_Z 28
_cell_length_a 12.800736
_cell_length_b 15.005090
_cell_length_c 6.316820
_cell_angle_alpha 90.000000
_cell_angle_beta 90.000000
_cell_angle_gamma 90.000000
_cell_volume 1213.310755
_symmetry_space_group_name_H-M "P N A 21"
_symmetry_group_IT_number 33
_symmetry_cell_setting 'orthorhombic'
loop_
_space_group_symop_operation_xyz
x,y,z
-x,-y,1/2+z
1/2-x,1/2+y,1/2+z
1/2+x,1/2-y,z
loop_
_atom_site_type_symbol
_atom_site_label
_atom_site_fract_x
_atom_site_fract_y
_atom_site_fract_z
Si Si1 0.233998 0.008618 0.088040
Si Si2 0.093445 0.599426 0.861494
Si Si3 0.642874 0.646021 0.371415
Si Si4 0.012155 0.232579 0.535477
Si Si5 0.377156 0.970190 0.706874
Si Si6 0.453370 0.632930 0.641170
Si Si7 0.357150 0.799810 0.407300
O O1 0.319169 0.076396 0.188776
O O2 0.125212 0.059157 0.053408
O O3 0.205076 0.934044 0.260212
O O4 0.287232 0.965153 0.882789
O O5 0.990153 0.540930 0.813270
O O6 0.054003 0.699923 0.888535
O O7 0.133464 0.563859 0.087321
O O8 0.565083 0.687615 0.201298
O O9 0.571948 0.615838 0.568001
O O10 0.733501 0.716102 0.421640
O O11 0.057414 0.153724 0.389723
O O12 0.097188 0.289912 0.669057
O O13 0.374699 0.892032 0.531715
O O14 0.416924 0.724574 0.535298
#
# Coordination Sequence:
#
# PCOD9346869 Si02
#       7
#     4   4   4   4   4   4   4
#     4  12  29  43  74 110 147 199 243 304 384 449
#     4  12  24  42  72 109 141 188 243 308 372 434
#     4  11  28  47  69 104 143 194 243 302 373 452
#     4  11  27  45  75 103 144 192 247 311 369 451
#     4  12  24  44  72 108 150 183 247 316 373 445
#     4  11  29  47  72 102 152 193 249 305 375 461
#     4  11  25  48  72 104 139 191 250 306 378 440
#
# _framework density 23.077349999999999
#
# number of rings (size 3 to 8) (size 9 to 14) (size 15 to 20)
#    0.000    0.571    4.286    1.714   10.000    1.143 
#    0.000    0.000    0.000    0.000    0.000    0.000 
#    0.000    0.000    0.000    0.000    0.000    0.000 
#
# Total GULP energy -156612.011576 kJ/mol
# GULP energy per Si atom -5593.286128 kJ/mol
# Density = 2.302483 g / cm^3
# Si number density = 23.077350 Si / 1000 Ang^3
#
#
#
# Elastic Constant Matrix: (Units=GPa)
#
#
# Indices 1 2 3 4 5 6 
#
# 1 127.1188 8.1651 52.2057 0.0000 0.0000 0.0000
# 2 8.1651 40.2265 13.6029 0.0000 0.0000 0.0000
# 3 52.2057 13.6029 87.5325 0.0000 0.0000 0.0000
# 4 0.0000 0.0000 0.0000 25.2750 0.0000 0.0000
# 5 0.0000 0.0000 0.0000 0.0000 44.3606 0.0000
# 6 0.0000 0.0000 0.0000 0.0000 0.0000 29.3841
#
#
#
# Elastic Compliance Matrix: (Units=1/GPa)
#
#
# Indices 1 2 3 4 5 6 
#
# 1 0.010419 -0.000014 -0.006212 0.000000 0.000000 0.000000
# 2 -0.000014 0.026238 -0.004069 0.000000 0.000000 0.000000
# 3 -0.006212 -0.004069 0.015761 0.000000 0.000000 0.000000
# 4 0.000000 0.000000 0.000000 0.039565 0.000000 0.000000
# 5 0.000000 0.000000 0.000000 0.000000 0.022543 0.000000
# 6 0.000000 0.000000 0.000000 0.000000 0.000000 0.034032
#
#
# Mechanical properties :
#
#
# Convention : Reuss Voigt Hill
#
# Bulk Modulus (GPa) = 31.41856 44.75838 38.08847
# Shear Modulus (GPa) = 27.81541 31.86420 29.83980
#
# Velocity S-wave (km/s) = 3.47553 3.71988 3.59978
# Velocity P-wave (km/s) = 5.45433 6.15525 5.81536
#
# Compressibility (1/GPa) = 0.03182832
#
# Stress axis : x y z
#
# Youngs Moduli (GPa) = 95.98245 38.11251 63.44637
#
# Poissons Ratio (x) = 0.00054 0.39410
# Poissons Ratio (y) = 0.00137 0.25816
# Poissons Ratio (z) = 0.59620 0.15508
#
# Static dielectric constant tensor:
#      x y z
#    x 1.905600 0.000000 0.000000 
#    y 0.000000 1.903390 0.000000 
#    z 0.000000 0.000000 1.926050 
# 
# From -- ./inp_files/924.got.cif
#   From: 2010.05.17/outbox.cif.g08.bks.cpg/sg33_1_cif.got.tgz:924.got - 2010.06.03 17:15:25.
