data_PCOD9346433
_publ_section_title
;
Structure prediction by ZEFSAII (Michael W. Deem and Ramdas Pophale) SiO2 
 PCOD9346433
Probable space group: P N A 21
;
_chemical_formula_sum "Si O2"
_cell_formula_units_Z 32
_cell_length_a 11.704943
_cell_length_b 11.709377
_cell_length_c 12.117370
_cell_angle_alpha 90.000000
_cell_angle_beta 90.000000
_cell_angle_gamma 90.000000
_cell_volume 1660.777534
_symmetry_space_group_name_H-M "P N A 21"
_symmetry_group_IT_number 33
_symmetry_cell_setting 'orthorhombic'
loop_
_space_group_symop_operation_xyz
x,y,z
-x,-y,1/2+z
1/2-x,1/2+y,1/2+z
1/2+x,1/2-y,z
loop_
_atom_site_type_symbol
_atom_site_label
_atom_site_fract_x
_atom_site_fract_y
_atom_site_fract_z
Si Si1 0.121741 0.052178 0.460860
Si Si2 0.665653 0.151012 0.152297
Si Si3 0.146964 0.003825 0.713812
Si Si4 0.652387 0.928682 0.815875
Si Si5 0.066547 0.132369 0.919020
Si Si6 0.276441 0.126530 0.072246
Si Si7 0.992470 0.207176 0.302779
Si Si8 0.011675 0.395877 0.949911
O O1 0.239774 0.050674 0.394438
O O2 0.050681 0.158598 0.412635
O O3 0.137953 0.052486 0.591295
O O4 0.048126 0.939862 0.433458
O O5 0.731419 0.058132 0.223399
O O6 0.759265 0.237401 0.098035
O O7 0.584136 0.229808 0.225668
O O8 0.590203 0.089447 0.059413
O O9 0.056563 0.902289 0.738124
O O10 0.125751 0.097674 0.805356
O O11 0.694058 0.934118 0.688476
O O12 0.603993 0.800335 0.828242
O O13 0.554267 0.016344 0.856563
O O14 0.039487 0.265486 0.918878
O O15 0.155480 0.097869 0.015834
O O16 0.380510 0.100500 0.989495
#
# Coordination Sequence:
#
# PCOD9346433 Si02
#       8
#     4   4   4   4   4   4   4   4
#     4  11  23  43  69  96 136 170 227 275 345 401
#     4  11  18  38  69  89 127 173 227 277 317 411
#     4  11  21  41  63  94 131 172 218 276 343 396
#     4  12  24  41  69 101 133 178 222 288 330 397
#     4  10  26  40  67  99 125 183 220 275 334 411
#     4  11  22  42  67  95 127 176 233 268 331 396
#     4  11  22  40  67  99 124 179 232 274 336 400
#     4  11  24  41  63  99 133 175 231 271 336 396
#
# _framework density 19.268083000000001
#
# number of rings (size 3 to 8) (size 9 to 14) (size 15 to 20)
#    0.000    1.000    5.000    2.250    5.250    0.000 
#    2.250    0.000    0.000    0.000    0.000    0.000 
#    0.000    0.000    0.000    0.000    0.000    0.000 
#
# Total GULP energy -178739.065612 kJ/mol
# GULP energy per Si atom -5585.595800 kJ/mol
# Density = 1.922423 g / cm^3
# Si number density = 19.268083 Si / 1000 Ang^3
#
#
#
# Elastic Constant Matrix: (Units=GPa)
#
#
# Indices 1 2 3 4 5 6 
#
# 1 98.0385 37.0442 44.7897 0.0000 0.0000 0.0000
# 2 37.0442 55.6011 43.2773 0.0000 0.0000 0.0000
# 3 44.7897 43.2773 97.4681 0.0000 0.0000 0.0000
# 4 0.0000 0.0000 0.0000 33.4564 0.0000 0.0000
# 5 0.0000 0.0000 0.0000 0.0000 26.7455 0.0000
# 6 0.0000 0.0000 0.0000 0.0000 0.0000 28.3725
#
#
#
# Elastic Compliance Matrix: (Units=1/GPa)
#
#
# Indices 1 2 3 4 5 6 
#
# 1 0.014416 -0.006798 -0.003606 0.000000 0.000000 0.000000
# 2 -0.006798 0.030689 -0.010503 0.000000 0.000000 0.000000
# 3 -0.003606 -0.010503 0.016580 0.000000 0.000000 0.000000
# 4 0.000000 0.000000 0.000000 0.029890 0.000000 0.000000
# 5 0.000000 0.000000 0.000000 0.000000 0.037389 0.000000
# 6 0.000000 0.000000 0.000000 0.000000 0.000000 0.035245
#
#
# Mechanical properties :
#
#
# Convention : Reuss Voigt Hill
#
# Bulk Modulus (GPa) = 50.32193 55.70334 53.01263
# Shear Modulus (GPa) = 23.51309 26.11465 24.81387
#
# Velocity S-wave (km/s) = 3.49709 3.68548 3.59252
# Velocity P-wave (km/s) = 6.51764 6.86169 6.69187
#
# Compressibility (1/GPa) = 0.01987205
#
# Stress axis : x y z
#
# Youngs Moduli (GPa) = 69.36623 32.58503 60.31242
#
# Poissons Ratio (x) = 0.22150 0.21751
# Poissons Ratio (y) = 0.47153 0.63344
# Poissons Ratio (z) = 0.25016 0.34223
#
# Static dielectric constant tensor:
#      x y z
#    x 1.710070 0.000000 0.000000 
#    y 0.000000 1.651090 0.000000 
#    z 0.000000 0.000000 1.667060 
# 
# From -- ./inp_files/6468.got.cif
#   From: 2010.05.17/outbox.cif.g08.bks.cpg/sg33_4_cif.got.tgz:6468.got - 2010.06.03 17:15:25.
