data_PCOD9346895
_publ_section_title
;
Structure prediction by ZEFSAII (Michael W. Deem and Ramdas Pophale) SiO2 
 PCOD9346895
Probable space group: P N A 21
;
_chemical_formula_sum "Si O2"
_cell_formula_units_Z 20
_cell_length_a 19.799532
_cell_length_b 5.214604
_cell_length_c 7.534784
_cell_angle_alpha 90.000000
_cell_angle_beta 90.000000
_cell_angle_gamma 90.000000
_cell_volume 777.941725
_symmetry_space_group_name_H-M "P N A 21"
_symmetry_group_IT_number 33
_symmetry_cell_setting 'orthorhombic'
loop_
_space_group_symop_operation_xyz
x,y,z
-x,-y,1/2+z
1/2-x,1/2+y,1/2+z
1/2+x,1/2-y,z
loop_
_atom_site_type_symbol
_atom_site_label
_atom_site_fract_x
_atom_site_fract_y
_atom_site_fract_z
Si Si1 0.415739 0.583602 0.053200
Si Si2 0.702977 0.759443 0.690133
Si Si3 0.963260 0.757150 0.430681
Si Si4 0.664428 0.048481 0.346125
Si Si5 0.885307 0.263387 0.531014
O O1 0.343827 0.474082 0.120277
O O2 0.451646 0.718990 0.219944
O O3 0.463420 0.351066 0.992539
O O4 0.399739 0.779043 0.895779
O O5 0.779586 0.693727 0.731434
O O6 0.668780 0.829979 0.877308
O O7 0.696154 0.963643 0.533321
O O8 0.942395 0.478407 0.496383
O O9 0.913475 0.979535 0.504828
O O10 0.644233 0.809134 0.224838
#
# Coordination Sequence:
#
# PCOD9346895 Si02
#       5
#     4   4   4   4   4
#     4  11  26  46  77 113 154 203 261 318 394 459
#     4  11  28  48  76 112 154 202 261 318 385 461
#     4  11  26  48  77 116 155 202 256 326 385 470
#     4  12  27  48  80 108 156 207 258 320 384 459
#     4  11  27  48  78 115 157 198 260 318 394 453
#
# _framework density 25.708866
#
# number of rings (size 3 to 8) (size 9 to 14) (size 15 to 20)
#    0.000    0.800    2.000    2.400   14.000    3.200 
#    0.000    0.000    0.000    0.000    0.000    0.000 
#    0.000    0.000    0.000    0.000    0.000    0.000 
#
# Total GULP energy -112285.831583 kJ/mol
# GULP energy per Si atom -5614.291579 kJ/mol
# Density = 2.565035 g / cm^3
# Si number density = 25.708866 Si / 1000 Ang^3
#
#
#
# Elastic Constant Matrix: (Units=GPa)
#
#
# Indices 1 2 3 4 5 6 
#
# 1 86.8757 20.8578 40.3305 0.0000 0.0000 0.0000
# 2 20.8578 62.7336 24.2869 0.0000 0.0000 0.0000
# 3 40.3305 24.2869 131.2053 0.0000 0.0000 0.0000
# 4 0.0000 0.0000 0.0000 53.0229 0.0000 0.0000
# 5 0.0000 0.0000 0.0000 0.0000 53.8240 0.0000
# 6 0.0000 0.0000 0.0000 0.0000 0.0000 31.9624
#
#
#
# Elastic Compliance Matrix: (Units=1/GPa)
#
#
# Indices 1 2 3 4 5 6 
#
# 1 0.014006 -0.003221 -0.003709 0.000000 0.000000 0.000000
# 2 -0.003221 0.017912 -0.002326 0.000000 0.000000 0.000000
# 3 -0.003709 -0.002326 0.009192 0.000000 0.000000 0.000000
# 4 0.000000 0.000000 0.000000 0.018860 0.000000 0.000000
# 5 0.000000 0.000000 0.000000 0.000000 0.018579 0.000000
# 6 0.000000 0.000000 0.000000 0.000000 0.000000 0.031287
#
#
# Mechanical properties :
#
#
# Convention : Reuss Voigt Hill
#
# Bulk Modulus (GPa) = 44.24972 50.19612 47.22292
# Shear Modulus (GPa) = 36.79750 40.78447 38.79098
#
# Velocity S-wave (km/s) = 3.78738 3.98728 3.88861
# Velocity P-wave (km/s) = 6.03116 6.38475 6.21047
#
# Compressibility (1/GPa) = 0.02259901
#
# Stress axis : x y z
#
# Youngs Moduli (GPa) = 71.39898 55.82978 108.78787
#
# Poissons Ratio (x) = 0.17981 0.40349
# Poissons Ratio (y) = 0.22996 0.25299
# Poissons Ratio (z) = 0.26482 0.12983
#
# Static dielectric constant tensor:
#      x y z
#    x 2.015590 0.000000 0.000000 
#    y 0.000000 1.982490 0.000000 
#    z 0.000000 0.000000 1.971130 
# 
# From -- ./inp_files/4560.got.cif
#   From: 2010.05.17/outbox.cif.g08.bks.cpg/sg33_3_cif.got.tgz:4560.got - 2010.06.03 17:15:25.
