data_PCOD9346473
_publ_section_title
;
Structure prediction by ZEFSAII (Michael W. Deem and Ramdas Pophale) SiO2 
 PCOD9346473
Probable space group: P N A 21
;
_chemical_formula_sum "Si O2"
_cell_formula_units_Z 32
_cell_length_a 8.795780
_cell_length_b 11.117519
_cell_length_c 14.322957
_cell_angle_alpha 90.000000
_cell_angle_beta 90.000000
_cell_angle_gamma 90.000000
_cell_volume 1400.602595
_symmetry_space_group_name_H-M "P N A 21"
_symmetry_group_IT_number 33
_symmetry_cell_setting 'orthorhombic'
loop_
_space_group_symop_operation_xyz
x,y,z
-x,-y,1/2+z
1/2-x,1/2+y,1/2+z
1/2+x,1/2-y,z
loop_
_atom_site_type_symbol
_atom_site_label
_atom_site_fract_x
_atom_site_fract_y
_atom_site_fract_z
Si Si1 0.774423 0.422079 0.714820
Si Si2 0.728251 0.008280 0.836368
Si Si3 0.563077 0.200503 0.940705
Si Si4 0.763171 0.372904 0.036503
Si Si5 0.232639 0.922878 0.906492
Si Si6 0.472268 0.314726 0.748749
Si Si7 0.998141 0.393673 0.198652
Si Si8 0.067071 0.220383 0.356135
O O1 0.750322 0.490283 0.815551
O O2 0.606707 0.373953 0.687416
O O3 0.883375 0.304566 0.715747
O O4 0.862746 0.527363 0.658377
O O5 0.672864 0.088621 0.922362
O O6 0.847268 0.086358 0.776330
O O7 0.578675 0.978593 0.777316
O O8 0.809139 0.884475 0.861437
O O9 0.626936 0.280318 0.024711
O O10 0.391913 0.163940 0.961238
O O11 0.557980 0.275195 0.844597
O O12 0.709100 0.501778 0.000183
O O13 0.858009 0.371860 0.130294
O O14 0.377612 0.835651 0.914297
O O15 0.090273 0.837718 0.885919
O O16 0.052690 0.274013 0.251289
#
# Coordination Sequence:
#
# PCOD9346473 Si02
#       8
#     4   4   4   4   4   4   4   4
#     4  11  20  37  64  92 124 165 216 263 311 385
#     4  12  21  39  68  94 122 172 220 260 309 398
#     4  12  21  41  68  97 122 166 219 267 316 384
#     4  12  26  41  65  98 138 162 208 282 335 369
#     4  11  21  40  63  89 123 171 217 260 304 393
#     4  12  18  36  70  97 116 159 230 266 299 366
#     4  11  26  43  60  97 138 167 208 271 334 379
#     4  11  23  39  66  90 125 172 222 249 314 392
#
# _framework density 22.847308999999999
#
# number of rings (size 3 to 8) (size 9 to 14) (size 15 to 20)
#    0.000    0.500    8.750    0.750    1.750    0.000 
#    0.000    2.500    0.000    0.000    0.000    0.000 
#    0.000    0.000    0.000    0.000    0.000    0.000 
#
# Total GULP energy -178894.344410 kJ/mol
# GULP energy per Si atom -5590.448263 kJ/mol
# Density = 2.279531 g / cm^3
# Si number density = 22.847309 Si / 1000 Ang^3
#
#
#
# Elastic Constant Matrix: (Units=GPa)
#
#
# Indices 1 2 3 4 5 6 
#
# 1 106.4920 34.9929 -9.7046 0.0000 0.0000 0.0000
# 2 34.9929 109.3988 1.3263 0.0000 0.0000 0.0000
# 3 -9.7046 1.3263 14.3751 0.0000 0.0000 0.0000
# 4 0.0000 0.0000 0.0000 9.5875 0.0000 0.0000
# 5 0.0000 0.0000 0.0000 0.0000 16.9860 0.0000
# 6 0.0000 0.0000 0.0000 0.0000 0.0000 51.2757
#
#
#
# Elastic Compliance Matrix: (Units=1/GPa)
#
#
# Indices 1 2 3 4 5 6 
#
# 1 0.011344 -0.003725 0.008002 0.000000 0.000000 0.000000
# 2 -0.003725 0.010375 -0.003472 0.000000 0.000000 0.000000
# 3 0.008002 -0.003472 0.075287 0.000000 0.000000 0.000000
# 4 0.000000 0.000000 0.000000 0.104302 0.000000 0.000000
# 5 0.000000 0.000000 0.000000 0.000000 0.058872 0.000000
# 6 0.000000 0.000000 0.000000 0.000000 0.000000 0.019502
#
#
# Mechanical properties :
#
#
# Convention : Reuss Voigt Hill
#
# Bulk Modulus (GPa) = 10.14059 31.49947 20.82003
# Shear Modulus (GPa) = 16.08003 29.14662 22.61332
#
# Velocity S-wave (km/s) = 2.65581 3.57559 3.14946
# Velocity P-wave (km/s) = 3.72189 5.55548 4.72841
#
# Compressibility (1/GPa) = 0.09861362
#
# Stress axis : x y z
#
# Youngs Moduli (GPa) = 88.15409 96.38907 13.28250
#
# Poissons Ratio (x) = 0.35910 -0.10628
# Poissons Ratio (y) = 0.32842 0.04612
# Poissons Ratio (z) = -0.70540 0.33469
#
# Static dielectric constant tensor:
#      x y z
#    x 1.881540 0.000000 0.000000 
#    y 0.000000 1.876060 0.000000 
#    z 0.000000 0.000000 1.861530 
# 
# From -- ./inp_files/8563.got.cif
#   From: 2010.05.17/outbox.cif.g08.bks.cpg/sg33_5_cif.got.tgz:8563.got - 2010.06.03 17:15:25.
