data_PCOD9346472
_publ_section_title
;
Structure prediction by ZEFSAII (Michael W. Deem and Ramdas Pophale) SiO2 
 PCOD9346472
Probable space group: P N A 21
;
_chemical_formula_sum "Si O2"
_cell_formula_units_Z 32
_cell_length_a 8.426750
_cell_length_b 21.490689
_cell_length_c 7.774804
_cell_angle_alpha 90.000000
_cell_angle_beta 90.000000
_cell_angle_gamma 90.000000
_cell_volume 1407.991064
_symmetry_space_group_name_H-M "P N A 21"
_symmetry_group_IT_number 33
_symmetry_cell_setting 'orthorhombic'
loop_
_space_group_symop_operation_xyz
x,y,z
-x,-y,1/2+z
1/2-x,1/2+y,1/2+z
1/2+x,1/2-y,z
loop_
_atom_site_type_symbol
_atom_site_label
_atom_site_fract_x
_atom_site_fract_y
_atom_site_fract_z
Si Si1 0.202480 0.443492 0.529250
Si Si2 0.688756 0.536970 0.375685
Si Si3 0.417421 0.831587 0.833216
Si Si4 0.740988 0.790891 0.940362
Si Si5 0.226825 0.325837 0.960686
Si Si6 0.343324 0.522056 0.243380
Si Si7 0.477819 0.637296 0.087796
Si Si8 0.566411 0.764866 0.280971
O O1 0.181861 0.468849 0.722895
O O2 0.082419 0.394026 0.447496
O O3 0.233418 0.499145 0.396993
O O4 0.366762 0.402481 0.539987
O O5 0.682068 0.611883 0.401898
O O6 0.525763 0.507081 0.301554
O O7 0.710288 0.508907 0.564303
O O8 0.337630 0.840355 0.649130
O O9 0.594208 0.805242 0.818826
O O10 0.312251 0.777646 0.921098
O O11 0.881279 0.840624 0.920102
O O12 0.670559 0.796445 0.133104
O O13 0.335385 0.264392 0.939783
O O14 0.076261 0.308612 0.840763
O O15 0.363861 0.594173 0.201743
O O16 0.512684 0.701762 0.183420
#
# Coordination Sequence:
#
# PCOD9346472 Si02
#       8
#     4   4   4   4   4   4   4   4
#     4  11  21  40  66  97 126 174 216 286 330 387
#     4  11  20  36  63  97 126 166 219 272 329 387
#     4  12  23  40  65  95 135 174 218 273 337 410
#     4  12  22  41  63  94 131 179 218 264 340 412
#     4  12  24  38  63  99 135 168 221 277 338 406
#     4  11  21  37  65  96 127 166 230 275 320 399
#     4  11  22  37  68  98 126 173 226 274 334 403
#     4  12  21  39  63  94 132 172 214 271 342 402
#
# _framework density 22.727416999999999
#
# number of rings (size 3 to 8) (size 9 to 14) (size 15 to 20)
#    0.000    0.500   10.000    1.500    0.000    0.000 
#    0.000    1.250    5.500    0.000    0.000    0.000 
#    0.000    0.000    0.000    0.000    0.000    0.000 
#
# Total GULP energy -178652.303406 kJ/mol
# GULP energy per Si atom -5582.884481 kJ/mol
# Density = 2.267569 g / cm^3
# Si number density = 22.727417 Si / 1000 Ang^3
#
#
#
# Elastic Constant Matrix: (Units=GPa)
#
#
# Indices 1 2 3 4 5 6 
#
# 1 37.2095 -1.8119 0.6895 0.0000 0.0000 0.0000
# 2 -1.8119 46.5219 9.2833 0.0000 0.0000 0.0000
# 3 0.6895 9.2833 103.2319 0.0000 0.0000 0.0000
# 4 0.0000 0.0000 0.0000 34.8720 0.0000 0.0000
# 5 0.0000 0.0000 0.0000 0.0000 21.4118 0.0000
# 6 0.0000 0.0000 0.0000 0.0000 0.0000 13.2460
#
#
#
# Elastic Compliance Matrix: (Units=1/GPa)
#
#
# Indices 1 2 3 4 5 6 
#
# 1 0.026934 0.001105 -0.000279 0.000000 0.000000 0.000000
# 2 0.001105 0.021933 -0.001980 0.000000 0.000000 0.000000
# 3 -0.000279 -0.001980 0.009867 0.000000 0.000000 0.000000
# 4 0.000000 0.000000 0.000000 0.028676 0.000000 0.000000
# 5 0.000000 0.000000 0.000000 0.000000 0.046703 0.000000
# 6 0.000000 0.000000 0.000000 0.000000 0.000000 0.075495
#
#
# Mechanical properties :
#
#
# Convention : Reuss Voigt Hill
#
# Bulk Modulus (GPa) = 17.72251 22.58722 20.15487
# Shear Modulus (GPa) = 21.67082 25.82613 23.74847
#
# Velocity S-wave (km/s) = 3.09125 3.37462 3.23604
# Velocity P-wave (km/s) = 4.53386 5.01438 4.78016
#
# Compressibility (1/GPa) = 0.05642542
#
# Stress axis : x y z
#
# Youngs Moduli (GPa) = 37.12804 45.59273 101.34975
#
# Poissons Ratio (x) = -0.05037 0.02830
# Poissons Ratio (y) = -0.04102 0.20065
# Poissons Ratio (z) = 0.01037 0.09026
#
# Static dielectric constant tensor:
#      x y z
#    x 1.911710 0.000000 0.000000 
#    y 0.000000 1.827770 0.000000 
#    z 0.000000 0.000000 1.892780 
# 
# From -- ./inp_files/3518.got.cif
#   From: 2010.05.17/outbox.cif.g08.bks.cpg/sg33_2_cif.got.tgz:3518.got - 2010.06.03 17:15:25.
