data_PCOD9346385
_publ_section_title
;
Structure prediction by ZEFSAII (Michael W. Deem and Ramdas Pophale) SiO2 
 PCOD9346385
Probable space group: P N A 21
;
_chemical_formula_sum "Si O2"
_cell_formula_units_Z 28
_cell_length_a 16.631029
_cell_length_b 5.638794
_cell_length_c 12.129097
_cell_angle_alpha 90.000000
_cell_angle_beta 90.000000
_cell_angle_gamma 90.000000
_cell_volume 1137.453939
_symmetry_space_group_name_H-M "P N A 21"
_symmetry_group_IT_number 33
_symmetry_cell_setting 'orthorhombic'
loop_
_space_group_symop_operation_xyz
x,y,z
-x,-y,1/2+z
1/2-x,1/2+y,1/2+z
1/2+x,1/2-y,z
loop_
_atom_site_type_symbol
_atom_site_label
_atom_site_fract_x
_atom_site_fract_y
_atom_site_fract_z
Si Si1 0.394698 0.332503 0.360470
Si Si2 0.138020 0.581297 0.439103
Si Si3 0.127108 0.217563 0.163094
Si Si4 0.957387 0.458331 0.157251
Si Si5 0.278316 0.350019 0.536774
Si Si6 0.524214 0.662468 0.291086
Si Si7 0.244391 0.606174 0.265879
O O1 0.420162 0.144970 0.269283
O O2 0.350860 0.229393 0.468546
O O3 0.472603 0.499363 0.373541
O O4 0.327544 0.499994 0.305313
O O5 0.101520 0.617455 0.559408
O O6 0.197733 0.360983 0.463871
O O7 0.061899 0.617705 0.358832
O O8 0.203406 0.736526 0.370853
O O9 0.183738 0.393155 0.231724
O O10 0.045544 0.353626 0.130508
O O11 0.181124 0.104622 0.066470
O O12 0.092052 0.001027 0.235856
O O13 0.972832 0.732817 0.188814
O O14 0.252205 0.252658 0.654548
#
# Coordination Sequence:
#
# PCOD9346385 Si02
#       7
#     4   4   4   4   4   4   4
#     4  10  25  42  68 102 135 185 239 284 365 421
#     4  11  23  44  69  99 139 185 233 291 358 415
#     4  11  22  43  67  97 137 180 232 289 361 415
#     4  11  23  43  67 102 134 182 235 291 358 433
#     4  11  23  43  68  97 138 184 232 296 354 427
#     4  11  23  46  68 100 145 181 232 299 348 437
#     4  11  23  47  65 103 142 185 237 298 354 434
#
# _framework density 24.616382000000002
#
# number of rings (size 3 to 8) (size 9 to 14) (size 15 to 20)
#    0.000    1.143    2.857    2.571    0.000    3.429 
#   15.429    0.000    0.000    0.000    0.000    0.000 
#    0.000    0.000    0.000    0.000    0.000    0.000 
#
# Total GULP energy -156159.814278 kJ/mol
# GULP energy per Si atom -5577.136224 kJ/mol
# Density = 2.456035 g / cm^3
# Si number density = 24.616382 Si / 1000 Ang^3
#
#
#
# Elastic Constant Matrix: (Units=GPa)
#
#
# Indices 1 2 3 4 5 6 
#
# 1 84.4373 4.0753 16.3289 0.0000 0.0000 0.0000
# 2 4.0753 29.5498 0.6024 0.0000 0.0000 0.0000
# 3 16.3289 0.6024 83.0330 0.0000 0.0000 0.0000
# 4 0.0000 0.0000 0.0000 30.1850 0.0000 0.0000
# 5 0.0000 0.0000 0.0000 0.0000 46.9450 0.0000
# 6 0.0000 0.0000 0.0000 0.0000 0.0000 -19.6806
#
#
#
# Elastic Compliance Matrix: (Units=1/GPa)
#
#
# Indices 1 2 3 4 5 6 
#
# 1 0.012392 -0.001660 -0.002425 0.000000 0.000000 0.000000
# 2 -0.001660 0.034068 0.000079 0.000000 0.000000 0.000000
# 3 -0.002425 0.000079 0.012520 0.000000 0.000000 0.000000
# 4 0.000000 0.000000 0.000000 0.033129 0.000000 0.000000
# 5 0.000000 0.000000 0.000000 0.000000 0.021302 0.000000
# 6 0.000000 0.000000 0.000000 0.000000 0.000000 -0.050811
#
#
# Mechanical properties :
#
#
# Convention : Reuss Voigt Hill
#
# Bulk Modulus (GPa) = 19.61951 26.55923 23.08937
# Shear Modulus (GPa) = 57.07756 23.22410 40.15083
#
# Velocity S-wave (km/s) = 4.82049 3.07488 4.04302
# Velocity P-wave (km/s) = 6.24262 4.83934 5.58523
#
# Compressibility (1/GPa) = 0.05096967
#
# Stress axis : x y z
#
# Youngs Moduli (GPa) = 80.69619 29.35265 79.87403
#
# Poissons Ratio (x) = 0.04871 0.19369
# Poissons Ratio (y) = 0.13392 -0.00633
# Poissons Ratio (z) = 0.19568 -0.00233
#
# Static dielectric constant tensor:
#      x y z
#    x 1.958470 0.000000 0.000000 
#    y 0.000000 2.006960 0.000000 
#    z 0.000000 0.000000 2.023460 
# 
# From -- ./inp_files/6933.got.cif
#   From: 2010.05.17/outbox.cif.g08.bks.cpg/sg33_4_cif.got.tgz:6933.got - 2010.06.03 17:15:25.
