data_PCOD9346089
_publ_section_title
;
Structure prediction by ZEFSAII (Michael W. Deem and Ramdas Pophale) SiO2 
 PCOD9346089
Probable space group: P N A 21
;
_chemical_formula_sum "Si O2"
_cell_formula_units_Z 28
_cell_length_a 15.320055
_cell_length_b 13.847921
_cell_length_c 5.031813
_cell_angle_alpha 90.000000
_cell_angle_beta 90.000000
_cell_angle_gamma 90.000000
_cell_volume 1067.503714
_symmetry_space_group_name_H-M "P N A 21"
_symmetry_group_IT_number 33
_symmetry_cell_setting 'orthorhombic'
loop_
_space_group_symop_operation_xyz
x,y,z
-x,-y,1/2+z
1/2-x,1/2+y,1/2+z
1/2+x,1/2-y,z
loop_
_atom_site_type_symbol
_atom_site_label
_atom_site_fract_x
_atom_site_fract_y
_atom_site_fract_z
Si Si1 0.727761 0.223281 0.000000
Si Si2 0.040874 0.256349 0.219513
Si Si3 0.958930 0.124147 0.864707
Si Si4 0.700310 0.623073 0.001826
Si Si5 0.530009 0.945898 0.956229
Si Si6 0.612089 0.421623 0.563230
Si Si7 0.274501 0.072419 0.245924
O O1 0.778238 0.151684 0.202465
O O2 0.758733 0.329612 0.083127
O O3 0.625273 0.208254 0.055915
O O4 0.749777 0.196718 0.699042
O O5 0.961605 0.222374 0.030649
O O6 0.073360 0.162529 0.377836
O O7 0.010675 0.340209 0.415980
O O8 0.900119 0.131564 0.599312
O O9 0.062479 0.103410 0.831760
O O10 0.922262 0.028092 0.998385
O O11 0.737146 0.518203 0.079756
O O12 0.627865 0.943549 0.843415
O O13 0.477572 0.017046 0.756331
O O14 0.713503 0.420384 0.507568
#
# Coordination Sequence:
#
# PCOD9346089 Si02
#       7
#     4   4   4   4   4   4   4
#     4  11  26  46  69 106 141 187 237 288 357 421
#     4  11  25  43  70 102 142 187 234 300 352 424
#     4  11  23  41  72 104 141 181 232 291 368 428
#     4  11  26  45  70 101 145 185 234 294 351 423
#     4  12  28  49  72 101 140 192 247 290 342 413
#     4  10  23  43  67 106 144 178 230 293 364 431
#     4  10  25  47  70 106 137 192 232 296 348 422
#
# _framework density 26.229417000000002
#
# number of rings (size 3 to 8) (size 9 to 14) (size 15 to 20)
#    0.000    1.143    1.429    2.571   10.000    2.286 
#    2.571    0.000    0.000    0.000    0.000    0.000 
#    0.000    0.000    0.000    0.000    0.000    0.000 
#
# Total GULP energy -157130.128795 kJ/mol
# GULP energy per Si atom -5611.790314 kJ/mol
# Density = 2.616972 g / cm^3
# Si number density = 26.229417 Si / 1000 Ang^3
#
#
#
# Elastic Constant Matrix: (Units=GPa)
#
#
# Indices 1 2 3 4 5 6 
#
# 1 122.0026 34.5891 9.3372 0.0000 0.0000 0.0000
# 2 34.5891 118.2160 26.4776 0.0000 0.0000 0.0000
# 3 9.3372 26.4776 68.1894 0.0000 0.0000 0.0000
# 4 0.0000 0.0000 0.0000 39.0028 0.0000 0.0000
# 5 0.0000 0.0000 0.0000 0.0000 36.7415 0.0000
# 6 0.0000 0.0000 0.0000 0.0000 0.0000 39.5855
#
#
#
# Elastic Compliance Matrix: (Units=1/GPa)
#
#
# Indices 1 2 3 4 5 6 
#
# 1 0.008941 -0.002565 -0.000228 0.000000 0.000000 0.000000
# 2 -0.002565 0.010001 -0.003532 0.000000 0.000000 0.000000
# 3 -0.000228 -0.003532 0.016068 0.000000 0.000000 0.000000
# 4 0.000000 0.000000 0.000000 0.025639 0.000000 0.000000
# 5 0.000000 0.000000 0.000000 0.000000 0.027217 0.000000
# 6 0.000000 0.000000 0.000000 0.000000 0.000000 0.025262
#
#
# Mechanical properties :
#
#
# Convention : Reuss Voigt Hill
#
# Bulk Modulus (GPa) = 44.72472 49.91285 47.31879
# Shear Modulus (GPa) = 37.52869 38.93291 38.23080
#
# Velocity S-wave (km/s) = 3.78668 3.85687 3.82193
# Velocity P-wave (km/s) = 6.01722 6.23735 6.12828
#
# Compressibility (1/GPa) = 0.02235900
#
# Stress axis : x y z
#
# Youngs Moduli (GPa) = 111.84148 99.99340 62.23649
#
# Poissons Ratio (x) = 0.25648 0.01421
# Poissons Ratio (y) = 0.28687 0.21982
# Poissons Ratio (z) = 0.02554 0.35317
#
# Static dielectric constant tensor:
#      x y z
#    x 2.050520 0.000000 0.000000 
#    y 0.000000 2.058100 0.000000 
#    z 0.000000 0.000000 2.061690 
# 
# From -- ./inp_files/1396.got.cif
#   From: 2010.05.17/outbox.cif.g08.bks.cpg/sg33_1_cif.got.tgz:1396.got - 2010.06.03 17:15:25.
