data_PCOD9346018
_publ_section_title
;
Structure prediction by ZEFSAII (Michael W. Deem and Ramdas Pophale) SiO2 
 PCOD9346018
Probable space group: P N A 21
;
_chemical_formula_sum "Si O2"
_cell_formula_units_Z 20
_cell_length_a 8.796626
_cell_length_b 8.955983
_cell_length_c 9.482959
_cell_angle_alpha 90.000000
_cell_angle_beta 90.000000
_cell_angle_gamma 90.000000
_cell_volume 747.090581
_symmetry_space_group_name_H-M "P N A 21"
_symmetry_group_IT_number 33
_symmetry_cell_setting 'orthorhombic'
loop_
_space_group_symop_operation_xyz
x,y,z
-x,-y,1/2+z
1/2-x,1/2+y,1/2+z
1/2+x,1/2-y,z
loop_
_atom_site_type_symbol
_atom_site_label
_atom_site_fract_x
_atom_site_fract_y
_atom_site_fract_z
Si Si1 0.556049 0.605372 0.038500
Si Si2 0.287207 0.133857 0.424683
Si Si3 0.076124 0.829703 0.666753
Si Si4 0.238904 0.060335 0.792227
Si Si5 0.554226 0.170864 0.888043
O O1 0.537240 0.479586 0.162365
O O2 0.634642 0.767417 0.049503
O O3 0.394306 0.637291 0.957797
O O4 0.669730 0.522990 0.929790
O O5 0.368474 0.210470 0.285196
O O6 0.330964 0.962977 0.410132
O O7 0.014839 0.745290 0.530325
O O8 0.224772 0.935415 0.672561
O O9 0.408991 0.099687 0.818420
O O10 0.135278 0.207537 0.789464
#
# Coordination Sequence:
#
# PCOD9346018 Si02
#       5
#     4   4   4   4   4
#     4  10  23  41  63  96 130 168 217 264 321 392
#     4  11  23  42  67  98 129 170 224 266 317 396
#     4  10  24  44  66  90 136 174 206 274 334 368
#     4  10  23  41  63  96 130 168 217 264 321 392
#     4  11  23  42  67  98 129 170 224 266 317 396
#
# _framework density 26.770513000000001
#
# number of rings (size 3 to 8) (size 9 to 14) (size 15 to 20)
#    0.000    1.600    0.000    4.800    0.000   17.600 
#    0.000    0.000    0.000    0.000    0.000    0.000 
#    0.000    0.000    0.000    0.000    0.000    0.000 
#
# Total GULP energy -111482.226529 kJ/mol
# GULP energy per Si atom -5574.111326 kJ/mol
# Density = 2.670958 g / cm^3
# Si number density = 26.770513 Si / 1000 Ang^3
#
#
#
# Elastic Constant Matrix: (Units=GPa)
#
#
# Indices 1 2 3 4 5 6 
#
# 1 137.2331 22.7689 23.7109 0.0000 0.0000 0.0000
# 2 22.7689 163.1607 39.5708 0.0000 0.0000 0.0000
# 3 23.7109 39.5708 117.3616 0.0000 0.0000 0.0000
# 4 0.0000 0.0000 0.0000 45.3941 0.0000 0.0000
# 5 0.0000 0.0000 0.0000 0.0000 14.8908 0.0000
# 6 0.0000 0.0000 0.0000 0.0000 0.0000 0.6829
#
#
#
# Elastic Compliance Matrix: (Units=1/GPa)
#
#
# Indices 1 2 3 4 5 6 
#
# 1 0.007634 -0.000753 -0.001289 0.000000 0.000000 0.000000
# 2 -0.000753 0.006749 -0.002123 0.000000 0.000000 0.000000
# 3 -0.001289 -0.002123 0.009497 0.000000 0.000000 0.000000
# 4 0.000000 0.000000 0.000000 0.022029 0.000000 0.000000
# 5 0.000000 0.000000 0.000000 0.000000 0.067156 0.000000
# 6 0.000000 0.000000 0.000000 0.000000 0.000000 1.464254
#
#
# Mechanical properties :
#
#
# Convention : Reuss Voigt Hill
#
# Bulk Modulus (GPa) = 64.30612 65.53962 64.92287
# Shear Modulus (GPa) = 3.14301 34.30722 18.72511
#
# Velocity S-wave (km/s) = 1.08471 3.58373 2.64761
# Velocity P-wave (km/s) = 5.06381 6.45440 5.80093
#
# Compressibility (1/GPa) = 0.01555062
#
# Stress axis : x y z
#
# Youngs Moduli (GPa) = 130.98579 148.17049 105.29670
#
# Poissons Ratio (x) = 0.11155 0.13568
# Poissons Ratio (y) = 0.09861 0.22359
# Poissons Ratio (z) = 0.16878 0.31463
#
# Static dielectric constant tensor:
#      x y z
#    x 2.087790 0.000000 0.000000 
#    y 0.000000 2.100730 0.000000 
#    z 0.000000 0.000000 2.322500 
# 
# From -- ./inp_files/5709.got.cif
#   From: 2010.05.17/outbox.cif.g08.bks.cpg/sg33_3_cif.got.tgz:5709.got - 2010.06.03 17:15:25.
