data_PCOD9346435
_publ_section_title
;
Structure prediction by ZEFSAII (Michael W. Deem and Ramdas Pophale) SiO2 
 PCOD9346435
Probable space group: P N A 21
;
_chemical_formula_sum "Si O2"
_cell_formula_units_Z 24
_cell_length_a 9.367812
_cell_length_b 5.232537
_cell_length_c 18.825768
_cell_angle_alpha 90.000000
_cell_angle_beta 90.000000
_cell_angle_gamma 90.000000
_cell_volume 922.790631
_symmetry_space_group_name_H-M "P N A 21"
_symmetry_group_IT_number 33
_symmetry_cell_setting 'orthorhombic'
loop_
_space_group_symop_operation_xyz
x,y,z
-x,-y,1/2+z
1/2-x,1/2+y,1/2+z
1/2+x,1/2-y,z
loop_
_atom_site_type_symbol
_atom_site_label
_atom_site_fract_x
_atom_site_fract_y
_atom_site_fract_z
Si Si1 0.333785 0.358023 0.524940
Si Si2 0.730755 0.737498 0.305046
Si Si3 0.986148 0.405825 0.270104
Si Si4 0.998257 0.028985 0.144113
Si Si5 0.556637 0.027813 0.567496
Si Si6 0.483266 0.466950 0.385227
O O1 0.354164 0.491456 0.601652
O O2 0.397100 0.075710 0.537483
O O3 0.170389 0.394730 0.507960
O O4 0.436934 0.475308 0.466265
O O5 0.830073 0.532105 0.264513
O O6 0.628940 0.605394 0.363286
O O7 0.619642 0.903146 0.257633
O O8 0.849155 0.912157 0.342698
O O9 0.003934 0.154273 0.221246
O O10 0.996827 0.315583 0.351888
O O11 0.923697 0.251282 0.098819
O O12 0.930681 0.752987 0.127583
#
# Coordination Sequence:
#
# PCOD9346435 Si02
#       6
#     4   4   4   4   4   4
#     4  10  27  45  76 106 155 193 259 308 382 453
#     4  10  26  42  76 108 146 201 254 312 385 453
#     4  11  25  48  73 111 152 199 254 321 383 462
#     4  10  27  46  74 107 154 190 253 311 381 450
#     4  10  26  46  74 108 139 203 242 316 373 456
#     4  11  25  47  71 112 150 198 252 316 378 456
#
# _framework density 26.008068999999999
#
# number of rings (size 3 to 8) (size 9 to 14) (size 15 to 20)
#    1.000    0.667    0.000    1.000   14.000    5.333 
#    0.000    0.000    0.000    0.000    0.000    0.000 
#    0.000    0.000    0.000    0.000    0.000    0.000 
#
# Total GULP energy -134071.847608 kJ/mol
# GULP energy per Si atom -5586.326984 kJ/mol
# Density = 2.594887 g / cm^3
# Si number density = 26.008069 Si / 1000 Ang^3
#
#
#
# Elastic Constant Matrix: (Units=GPa)
#
#
# Indices 1 2 3 4 5 6 
#
# 1 140.1581 27.9880 14.4799 0.0000 0.0000 0.0000
# 2 27.9880 80.3761 16.8782 0.0000 0.0000 0.0000
# 3 14.4799 16.8782 83.2905 0.0000 0.0000 0.0000
# 4 0.0000 0.0000 0.0000 27.8034 0.0000 0.0000
# 5 0.0000 0.0000 0.0000 0.0000 26.1945 0.0000
# 6 0.0000 0.0000 0.0000 0.0000 0.0000 38.4066
#
#
#
# Elastic Compliance Matrix: (Units=1/GPa)
#
#
# Indices 1 2 3 4 5 6 
#
# 1 0.007723 -0.002514 -0.000833 0.000000 0.000000 0.000000
# 2 -0.002514 0.013813 -0.002362 0.000000 0.000000 0.000000
# 3 -0.000833 -0.002362 0.012630 0.000000 0.000000 0.000000
# 4 0.000000 0.000000 0.000000 0.035967 0.000000 0.000000
# 5 0.000000 0.000000 0.000000 0.000000 0.038176 0.000000
# 6 0.000000 0.000000 0.000000 0.000000 0.000000 0.026037
#
#
# Mechanical properties :
#
#
# Convention : Reuss Voigt Hill
#
# Bulk Modulus (GPa) = 43.96222 46.94632 45.45427
# Shear Modulus (GPa) = 32.60584 34.77946 33.69265
#
# Velocity S-wave (km/s) = 3.54458 3.66082 3.60317
# Velocity P-wave (km/s) = 5.80448 5.99655 5.90130
#
# Compressibility (1/GPa) = 0.02274680
#
# Stress axis : x y z
#
# Youngs Moduli (GPa) = 129.48426 72.39545 79.17870
#
# Poissons Ratio (x) = 0.18202 0.06597
# Poissons Ratio (y) = 0.32556 0.18702
# Poissons Ratio (z) = 0.10788 0.17100
#
# Static dielectric constant tensor:
#      x y z
#    x 2.045440 0.000000 0.000000 
#    y 0.000000 2.067230 0.000000 
#    z 0.000000 0.000000 2.065290 
# 
# From -- ./inp_files/9015.got.cif
#   From: 2010.05.17/outbox.cif.g08.bks.cpg/sg33_5_cif.got.tgz:9015.got - 2010.06.03 17:15:25.
