data_PCOD9346003
_publ_section_title
;
Structure prediction by ZEFSAII (Michael W. Deem and Ramdas Pophale) SiO2 
 PCOD9346003
Probable space group: P N A 21
;
_chemical_formula_sum "Si O2"
_cell_formula_units_Z 28
_cell_length_a 10.697094
_cell_length_b 5.687891
_cell_length_c 18.378735
_cell_angle_alpha 90.000000
_cell_angle_beta 90.000000
_cell_angle_gamma 90.000000
_cell_volume 1118.234001
_symmetry_space_group_name_H-M "P N A 21"
_symmetry_group_IT_number 33
_symmetry_cell_setting 'orthorhombic'
loop_
_space_group_symop_operation_xyz
x,y,z
-x,-y,1/2+z
1/2-x,1/2+y,1/2+z
1/2+x,1/2-y,z
loop_
_atom_site_type_symbol
_atom_site_label
_atom_site_fract_x
_atom_site_fract_y
_atom_site_fract_z
Si Si1 0.585923 0.259878 0.270920
Si Si2 0.271364 0.541627 0.322569
Si Si3 0.496407 0.479447 0.134021
Si Si4 0.739842 0.829321 0.595718
Si Si5 0.590292 0.871630 0.452809
Si Si6 0.597798 0.126240 0.706718
Si Si7 0.491566 0.368799 0.421011
O O1 0.721165 0.146844 0.264109
O O2 0.533714 0.456671 0.219131
O O3 0.584819 0.345182 0.353017
O O4 0.491992 0.052696 0.248150
O O5 0.157775 0.630907 0.373512
O O6 0.337062 0.734830 0.273112
O O7 0.362399 0.415692 0.379704
O O8 0.358844 0.380221 0.114829
O O9 0.608799 0.330650 0.097789
O O10 0.481423 0.758510 0.138454
O O11 0.694260 0.900298 0.515364
O O12 0.707638 0.015265 0.658479
O O13 0.527674 0.611922 0.461235
O O14 0.503514 0.108237 0.456548
#
# Coordination Sequence:
#
# PCOD9346003 Si02
#       7
#     4   4   4   4   4   4   4
#     4  10  23  40  65 113 134 186 246 313 387 443
#     4  11  22  43  75 105 146 195 247 328 379 461
#     4  11  24  47  73 108 152 196 257 323 388 465
#     4  11  28  46  74 106 151 209 258 316 388 474
#     4  11  29  47  69 109 147 209 254 308 387 467
#     4  11  23  43  74 108 150 192 259 324 389 449
#     4  11  25  46  70 103 150 189 249 312 382 455
#
# _framework density 25.039480000000001
#
# number of rings (size 3 to 8) (size 9 to 14) (size 15 to 20)
#    0.000    1.143    1.429    3.429    8.000    4.571 
#    0.000    0.000    0.000    0.000    0.000    0.000 
#    0.000    0.000    0.000    0.000    0.000    0.000 
#
# Total GULP energy -156006.641868 kJ/mol
# GULP energy per Si atom -5571.665781 kJ/mol
# Density = 2.498249 g / cm^3
# Si number density = 25.039480 Si / 1000 Ang^3
#
#
#
# Elastic Constant Matrix: (Units=GPa)
#
#
# Indices 1 2 3 4 5 6 
#
# 1 96.5777 43.9419 19.2401 0.0000 0.0000 0.0000
# 2 43.9419 96.8044 12.0612 0.0000 0.0000 0.0000
# 3 19.2401 12.0612 97.0546 0.0000 0.0000 0.0000
# 4 0.0000 0.0000 0.0000 8.5004 0.0000 0.0000
# 5 0.0000 0.0000 0.0000 0.0000 58.8326 0.0000
# 6 0.0000 0.0000 0.0000 0.0000 0.0000 -12.0271
#
#
#
# Elastic Compliance Matrix: (Units=1/GPa)
#
#
# Indices 1 2 3 4 5 6 
#
# 1 0.013396 -0.005840 -0.001930 0.000000 0.000000 0.000000
# 2 -0.005840 0.013039 -0.000463 0.000000 0.000000 0.000000
# 3 -0.001930 -0.000463 0.010744 0.000000 0.000000 0.000000
# 4 0.000000 0.000000 0.000000 0.117642 0.000000 0.000000
# 5 0.000000 0.000000 0.000000 0.000000 0.016997 0.000000
# 6 0.000000 0.000000 0.000000 0.000000 0.000000 -0.083146
#
#
# Mechanical properties :
#
#
# Convention : Reuss Voigt Hill
#
# Bulk Modulus (GPa) = 48.27912 48.99147 48.63529
# Shear Modulus (GPa) = 44.62623 25.40743 35.01683
#
# Velocity S-wave (km/s) = 4.22623 3.18888 3.74366
# Velocity P-wave (km/s) = 6.56794 5.75906 6.17675
#
# Compressibility (1/GPa) = 0.02071289
#
# Stress axis : x y z
#
# Youngs Moduli (GPa) = 74.64841 76.69395 93.07925
#
# Poissons Ratio (x) = 0.44792 0.17963
# Poissons Ratio (y) = 0.43598 0.04306
# Poissons Ratio (z) = 0.14406 0.03548
#
# Static dielectric constant tensor:
#      x y z
#    x 2.062500 0.000000 0.000000 
#    y 0.000000 2.300960 0.000000 
#    z 0.000000 0.000000 2.023510 
# 
# From -- ./inp_files/9059.got.cif
#   From: 2010.05.17/outbox.cif.g08.bks.cpg/sg33_5_cif.got.tgz:9059.got - 2010.06.03 17:15:25.
