data_PCOD9346081
_publ_section_title
;
Structure prediction by ZEFSAII (Michael W. Deem and Ramdas Pophale) SiO2 
 PCOD9346081
Probable space group: P N A 21
;
_chemical_formula_sum "Si O2"
_cell_formula_units_Z 20
_cell_length_a 24.137502
_cell_length_b 6.721222
_cell_length_c 5.173012
_cell_angle_alpha 90.000000
_cell_angle_beta 90.000000
_cell_angle_gamma 90.000000
_cell_volume 839.235891
_symmetry_space_group_name_H-M "P N A 21"
_symmetry_group_IT_number 33
_symmetry_cell_setting 'orthorhombic'
loop_
_space_group_symop_operation_xyz
x,y,z
-x,-y,1/2+z
1/2-x,1/2+y,1/2+z
1/2+x,1/2-y,z
loop_
_atom_site_type_symbol
_atom_site_label
_atom_site_fract_x
_atom_site_fract_y
_atom_site_fract_z
Si Si1 0.373207 0.527553 0.016150
Si Si2 0.192738 0.322290 0.805980
Si Si3 0.564712 0.139950 0.217861
Si Si4 0.738553 0.359296 0.324674
Si Si5 0.932796 0.366071 0.211788
O O1 0.360110 0.692604 0.236050
O O2 0.402391 0.341381 0.148287
O O3 0.406015 0.649473 0.791947
O O4 0.311133 0.487714 0.908540
O O5 0.199726 0.556083 0.849851
O O6 0.229370 0.304851 0.544813
O O7 0.220871 0.224923 0.052274
O O8 0.498864 0.176742 0.213343
O O9 0.578720 0.001936 0.462752
O O10 0.578128 0.998724 0.969929
#
# Coordination Sequence:
#
# PCOD9346081 Si02
#       5
#     4   4   4   4   4
#     4  10  26  42  74  98 138 186 236 282 368 410
#     4  10  23  43  63  95 131 176 231 279 343 411
#     4  10  24  44  67 101 140 180 233 292 352 430
#     4  10  23  43  63  95 131 176 231 279 343 411
#     4  10  24  44  67 101 140 180 233 292 352 430
#
# _framework density 23.831202000000001
#
# number of rings (size 3 to 8) (size 9 to 14) (size 15 to 20)
#    1.200    0.800    0.000    1.200    5.600    6.400 
#    0.000    0.000    0.000    0.000    0.000    0.000 
#    0.000    0.000    0.000    0.000    0.000    0.000 
#
# Total GULP energy -111394.163499 kJ/mol
# GULP energy per Si atom -5569.708175 kJ/mol
# Density = 2.377696 g / cm^3
# Si number density = 23.831202 Si / 1000 Ang^3
#
#
#
# Elastic Constant Matrix: (Units=GPa)
#
#
# Indices 1 2 3 4 5 6 
#
# 1 92.0532 68.0008 52.5839 0.0000 0.0000 0.0000
# 2 68.0008 104.3508 49.5498 0.0000 0.0000 0.0000
# 3 52.5839 49.5498 160.4912 0.0000 0.0000 0.0000
# 4 0.0000 0.0000 0.0000 33.6898 0.0000 0.0000
# 5 0.0000 0.0000 0.0000 0.0000 64.5690 0.0000
# 6 0.0000 0.0000 0.0000 0.0000 0.0000 58.0700
#
#
#
# Elastic Compliance Matrix: (Units=1/GPa)
#
#
# Indices 1 2 3 4 5 6 
#
# 1 0.022355 -0.012995 -0.003312 0.000000 0.000000 0.000000
# 2 -0.012995 0.018783 -0.001541 0.000000 0.000000 0.000000
# 3 -0.003312 -0.001541 0.007792 0.000000 0.000000 0.000000
# 4 0.000000 0.000000 0.000000 0.029683 0.000000 0.000000
# 5 0.000000 0.000000 0.000000 0.000000 0.015487 0.000000
# 6 0.000000 0.000000 0.000000 0.000000 0.000000 0.017221
#
#
# Mechanical properties :
#
#
# Convention : Reuss Voigt Hill
#
# Bulk Modulus (GPa) = 75.57005 77.46270 76.51637
# Shear Modulus (GPa) = 33.01878 43.71646 38.36762
#
# Velocity S-wave (km/s) = 3.72631 4.28766 4.01680
# Velocity P-wave (km/s) = 7.09177 7.55562 7.32736
#
# Compressibility (1/GPa) = 0.01323276
#
# Stress axis : x y z
#
# Youngs Moduli (GPa) = 44.73288 53.23916 128.33576
#
# Poissons Ratio (x) = 0.69184 0.42510
# Poissons Ratio (y) = 0.58130 0.19782
# Poissons Ratio (z) = 0.14817 0.08206
#
# Static dielectric constant tensor:
#      x y z
#    x 1.938520 0.000000 0.000000 
#    y 0.000000 1.949490 0.000000 
#    z 0.000000 0.000000 1.903290 
# 
# From -- ./inp_files/2355.got.cif
#   From: 2010.05.17/outbox.cif.g08.bks.cpg/sg33_2_cif.got.tgz:2355.got - 2010.06.03 17:15:25.
