data_PCOD9346454
_publ_section_title
;
Structure prediction by ZEFSAII (Michael W. Deem and Ramdas Pophale) SiO2 
 PCOD9346454
Probable space group: P N A 21
;
_chemical_formula_sum "Si O2"
_cell_formula_units_Z 16
_cell_length_a 9.461839
_cell_length_b 12.929605
_cell_length_c 4.930755
_cell_angle_alpha 90.000000
_cell_angle_beta 90.000000
_cell_angle_gamma 90.000000
_cell_volume 603.217920
_symmetry_space_group_name_H-M "P N A 21"
_symmetry_group_IT_number 33
_symmetry_cell_setting 'orthorhombic'
loop_
_space_group_symop_operation_xyz
x,y,z
-x,-y,1/2+z
1/2-x,1/2+y,1/2+z
1/2+x,1/2-y,z
loop_
_atom_site_type_symbol
_atom_site_label
_atom_site_fract_x
_atom_site_fract_y
_atom_site_fract_z
Si Si1 0.513177 0.255160 0.447870
Si Si2 0.477580 0.071746 0.130061
Si Si3 0.235573 0.638655 0.258391
Si Si4 0.076142 0.960536 0.644991
O O1 0.568803 0.167025 0.242360
O O2 0.630925 0.295951 0.655456
O O3 0.393340 0.196511 0.616018
O O4 0.447090 0.347950 0.269669
O O5 0.473888 0.982184 0.353576
O O6 0.321795 0.121450 0.064019
O O7 0.277587 0.520978 0.178459
O O8 0.029739 0.970945 0.334825
#
# Coordination Sequence:
#
# PCOD9346454 Si02
#       4
#     4   4   4   4
#     4  11  28  52  86 123 172 224 287 358 443 509
#     4  12  28  52  80 127 171 222 287 357 427 518
#     4  11  28  53  83 127 166 228 282 361 432 522
#     4  10  26  49  75 115 167 214 276 342 424 511
#
# _framework density 26.524407
#
# number of rings (size 3 to 8) (size 9 to 14) (size 15 to 20)
#    0.000    1.000    2.500    0.000   17.500    0.000 
#    4.500    0.000    0.000    0.000    0.000    0.000 
#    0.000    0.000    0.000    0.000    0.000    0.000 
#
# Total GULP energy -89545.510667 kJ/mol
# GULP energy per Si atom -5596.594417 kJ/mol
# Density = 2.646404 g / cm^3
# Si number density = 26.524407 Si / 1000 Ang^3
#
#
#
# Elastic Constant Matrix: (Units=GPa)
#
#
# Indices 1 2 3 4 5 6 
#
# 1 117.6294 65.5020 41.9195 0.0000 0.0000 0.0000
# 2 65.5020 212.4138 52.7118 0.0000 0.0000 0.0000
# 3 41.9195 52.7118 116.7620 0.0000 0.0000 0.0000
# 4 0.0000 0.0000 0.0000 70.1024 0.0000 0.0000
# 5 0.0000 0.0000 0.0000 0.0000 53.3310 0.0000
# 6 0.0000 0.0000 0.0000 0.0000 0.0000 56.3337
#
#
#
# Elastic Compliance Matrix: (Units=1/GPa)
#
#
# Indices 1 2 3 4 5 6 
#
# 1 0.010980 -0.002711 -0.002718 0.000000 0.000000 0.000000
# 2 -0.002711 0.005971 -0.001722 0.000000 0.000000 0.000000
# 3 -0.002718 -0.001722 0.010318 0.000000 0.000000 0.000000
# 4 0.000000 0.000000 0.000000 0.014265 0.000000 0.000000
# 5 0.000000 0.000000 0.000000 0.000000 0.018751 0.000000
# 6 0.000000 0.000000 0.000000 0.000000 0.000000 0.017751
#
#
# Mechanical properties :
#
#
# Convention : Reuss Voigt Hill
#
# Bulk Modulus (GPa) = 77.12681 85.23020 81.17851
# Shear Modulus (GPa) = 51.72743 55.06489 53.39616
#
# Velocity S-wave (km/s) = 4.42088 4.56127 4.49162
# Velocity P-wave (km/s) = 7.42965 7.74227 7.58757
#
# Compressibility (1/GPa) = 0.01296566
#
# Stress axis : x y z
#
# Youngs Moduli (GPa) = 91.07765 167.46810 96.92076
#
# Poissons Ratio (x) = 0.45406 0.26342
# Poissons Ratio (y) = 0.24694 0.16693
# Poissons Ratio (z) = 0.24754 0.28843
#
# Static dielectric constant tensor:
#      x y z
#    x 2.178560 0.000000 0.000000 
#    y 0.000000 2.063890 0.000000 
#    z 0.000000 0.000000 2.073240 
# 
# From -- ./inp_files/293.got.cif
#   From: 2010.05.17/outbox.cif.g08.bks.cpg/sg33_1_cif.got.tgz:293.got - 2010.06.03 17:15:25.
