data_PCOD9346136
_publ_section_title
;
Structure prediction by ZEFSAII (Michael W. Deem and Ramdas Pophale) SiO2 
 PCOD9346136
Probable space group: P N A 21
;
_chemical_formula_sum "Si O2"
_cell_formula_units_Z 24
_cell_length_a 5.044705
_cell_length_b 14.750889
_cell_length_c 12.571448
_cell_angle_alpha 90.000000
_cell_angle_beta 90.000000
_cell_angle_gamma 90.000000
_cell_volume 935.490267
_symmetry_space_group_name_H-M "P N A 21"
_symmetry_group_IT_number 33
_symmetry_cell_setting 'orthorhombic'
loop_
_space_group_symop_operation_xyz
x,y,z
-x,-y,1/2+z
1/2-x,1/2+y,1/2+z
1/2+x,1/2-y,z
loop_
_atom_site_type_symbol
_atom_site_label
_atom_site_fract_x
_atom_site_fract_y
_atom_site_fract_z
Si Si1 0.858377 0.315356 0.489160
Si Si2 0.301421 0.544124 0.435049
Si Si3 0.533448 0.687889 0.302712
Si Si4 0.247833 0.928579 0.125353
Si Si5 0.450013 0.814576 0.566070
Si Si6 0.020078 0.576245 0.777831
O O1 0.078299 0.235131 0.492919
O O2 0.981171 0.384176 0.578185
O O3 0.862981 0.368063 0.376569
O O4 0.525589 0.609033 0.389331
O O5 0.394551 0.475378 0.525863
O O6 0.068403 0.604623 0.491011
O O7 0.196651 0.486941 0.335315
O O8 0.258233 0.738232 0.314488
O O9 0.581412 0.645424 0.187892
O O10 0.301638 0.005798 0.212319
O O11 0.170723 0.764084 0.552602
O O12 0.433895 0.854902 0.685423
#
# Coordination Sequence:
#
# PCOD9346136 Si02
#       6
#     4   4   4   4   4   4
#     4  11  24  45  70 102 139 184 234 288 346 415
#     4  10  24  45  72 105 144 187 235 290 352 417
#     4  12  25  46  73 104 140 186 234 288 349 418
#     4  10  24  45  72 105 144 187 235 290 352 417
#     4  11  24  45  70 102 139 184 234 288 346 415
#     4  10  23  44  71 102 140 184 232 288 351 414
#
# _framework density 25.654996000000001
#
# number of rings (size 3 to 8) (size 9 to 14) (size 15 to 20)
#    0.000    1.333    0.000    4.000    0.000    8.000 
#    0.000   15.000    0.000    0.000    0.000    0.000 
#    0.000    0.000    0.000    0.000    0.000    0.000 
#
# Total GULP energy -134536.720857 kJ/mol
# GULP energy per Si atom -5605.696702 kJ/mol
# Density = 2.559660 g / cm^3
# Si number density = 25.654996 Si / 1000 Ang^3
#
#
#
# Elastic Constant Matrix: (Units=GPa)
#
#
# Indices 1 2 3 4 5 6 
#
# 1 77.1941 1.8988 42.6480 0.0000 0.0000 0.0000
# 2 1.8988 92.4009 65.5158 0.0000 0.0000 0.0000
# 3 42.6480 65.5158 182.3802 0.0000 0.0000 0.0000
# 4 0.0000 0.0000 0.0000 44.8191 0.0000 0.0000
# 5 0.0000 0.0000 0.0000 0.0000 27.9593 0.0000
# 6 0.0000 0.0000 0.0000 0.0000 0.0000 26.5156
#
#
#
# Elastic Compliance Matrix: (Units=1/GPa)
#
#
# Indices 1 2 3 4 5 6 
#
# 1 0.015479 0.003017 -0.004703 0.000000 0.000000 0.000000
# 2 0.003017 0.015109 -0.006133 0.000000 0.000000 0.000000
# 3 -0.004703 -0.006133 0.008786 0.000000 0.000000 0.000000
# 4 0.000000 0.000000 0.000000 0.022312 0.000000 0.000000
# 5 0.000000 0.000000 0.000000 0.000000 0.035766 0.000000
# 6 0.000000 0.000000 0.000000 0.000000 0.000000 0.037714
#
#
# Mechanical properties :
#
#
# Convention : Reuss Voigt Hill
#
# Bulk Modulus (GPa) = 42.13273 63.56670 52.84972
# Shear Modulus (GPa) = 31.50288 35.98632 33.74460
#
# Velocity S-wave (km/s) = 3.50800 3.74933 3.63067
# Velocity P-wave (km/s) = 5.73294 6.60111 6.18228
#
# Compressibility (1/GPa) = 0.02373452
#
# Stress axis : x y z
#
# Youngs Moduli (GPa) = 64.60547 66.18613 113.81791
#
# Poissons Ratio (x) = -0.19966 0.53531
# Poissons Ratio (y) = -0.19489 0.69804
# Poissons Ratio (z) = 0.30385 0.40592
#
# Static dielectric constant tensor:
#      x y z
#    x 2.013530 0.000000 0.000000 
#    y 0.000000 2.018830 0.000000 
#    z 0.000000 0.000000 2.026830 
# 
# From -- ./inp_files/5444.got.cif
#   From: 2010.05.17/outbox.cif.g08.bks.cpg/sg33_3_cif.got.tgz:5444.got - 2010.06.03 17:15:25.
