data_PCOD9346928
_publ_section_title
;
Structure prediction by ZEFSAII (Michael W. Deem and Ramdas Pophale) SiO2 
 PCOD9346928
Probable space group: P N A 21
;
_chemical_formula_sum "Si O2"
_cell_formula_units_Z 20
_cell_length_a 7.545989
_cell_length_b 15.587470
_cell_length_c 7.570261
_cell_angle_alpha 90.000000
_cell_angle_beta 90.000000
_cell_angle_gamma 90.000000
_cell_volume 890.435880
_symmetry_space_group_name_H-M "P N A 21"
_symmetry_group_IT_number 33
_symmetry_cell_setting 'orthorhombic'
loop_
_space_group_symop_operation_xyz
x,y,z
-x,-y,1/2+z
1/2-x,1/2+y,1/2+z
1/2+x,1/2-y,z
loop_
_atom_site_type_symbol
_atom_site_label
_atom_site_fract_x
_atom_site_fract_y
_atom_site_fract_z
Si Si1 0.491475 0.512149 0.308520
Si Si2 0.101349 0.868314 0.610025
Si Si3 0.378723 0.052205 0.282660
Si Si4 0.496063 0.816885 0.506129
Si Si5 0.853549 0.403783 0.683611
O O1 0.492020 0.443066 0.998458
O O2 0.699185 0.501853 0.265546
O O3 0.408963 0.415541 0.299355
O O4 0.353814 0.576017 0.211664
O O5 0.297975 0.852147 0.536214
O O6 0.004291 0.779057 0.580220
O O7 0.612644 0.902760 0.974394
O O8 0.385772 0.122878 0.130804
O O9 0.540386 0.986620 0.257874
O O10 0.428650 0.172460 0.807253
#
# Coordination Sequence:
#
# PCOD9346928 Si02
#       5
#     4   4   4   4   4
#     4  12  22  44  70 102 142 182 238 284 362 432
#     4  12  26  46  76 102 145 195 233 309 369 418
#     4  12  23  42  73 103 142 190 234 293 356 429
#     4  12  26  50  70 108 149 185 245 307 353 436
#     4  12  23  42  73 103 142 190 234 293 356 429
#
# _framework density 22.460908
#
# number of rings (size 3 to 8) (size 9 to 14) (size 15 to 20)
#    0.000    0.000    8.000    3.600    0.000    0.000 
#    3.600    0.000    0.000    0.000    0.000    0.000 
#    0.000    0.000    0.000    0.000    0.000    0.000 
#
# Total GULP energy -111680.130545 kJ/mol
# GULP energy per Si atom -5584.006527 kJ/mol
# Density = 2.240979 g / cm^3
# Si number density = 22.460908 Si / 1000 Ang^3
#
#
#
# Elastic Constant Matrix: (Units=GPa)
#
#
# Indices 1 2 3 4 5 6 
#
# 1 95.4441 29.9244 41.9444 0.0000 0.0000 0.0000
# 2 29.9244 106.1639 9.1852 0.0000 0.0000 0.0000
# 3 41.9444 9.1852 75.2407 0.0000 0.0000 0.0000
# 4 0.0000 0.0000 0.0000 34.8440 0.0000 0.0000
# 5 0.0000 0.0000 0.0000 0.0000 30.3068 0.0000
# 6 0.0000 0.0000 0.0000 0.0000 0.0000 22.1611
#
#
#
# Elastic Compliance Matrix: (Units=1/GPa)
#
#
# Indices 1 2 3 4 5 6 
#
# 1 0.015105 -0.003567 -0.007985 0.000000 0.000000 0.000000
# 2 -0.003567 0.010362 0.000723 0.000000 0.000000 0.000000
# 3 -0.007985 0.000723 0.017654 0.000000 0.000000 0.000000
# 4 0.000000 0.000000 0.000000 0.028699 0.000000 0.000000
# 5 0.000000 0.000000 0.000000 0.000000 0.032996 0.000000
# 6 0.000000 0.000000 0.000000 0.000000 0.000000 0.045124
#
#
# Mechanical properties :
#
#
# Convention : Reuss Voigt Hill
#
# Bulk Modulus (GPa) = 46.58984 48.77298 47.68141
# Shear Modulus (GPa) = 27.97181 30.51537 29.24359
#
# Velocity S-wave (km/s) = 3.53279 3.68992 3.61221
# Velocity P-wave (km/s) = 6.11788 6.31789 6.21869
#
# Compressibility (1/GPa) = 0.02146391
#
# Stress axis : x y z
#
# Youngs Moduli (GPa) = 66.20441 96.50503 56.64508
#
# Poissons Ratio (x) = 0.34420 0.45231
# Poissons Ratio (y) = 0.23613 -0.04097
# Poissons Ratio (z) = 0.52864 -0.06981
#
# Static dielectric constant tensor:
#      x y z
#    x 1.853840 0.000000 0.000000 
#    y 0.000000 1.866530 0.000000 
#    z 0.000000 0.000000 2.030720 
# 
# From -- ./inp_files/3213.got.cif
#   From: 2010.05.17/outbox.cif.g08.bks.cpg/sg33_2_cif.got.tgz:3213.got - 2010.06.03 17:15:25.
