data_PCOD9346542
_publ_section_title
;
Structure prediction by ZEFSAII (Michael W. Deem and Ramdas Pophale) SiO2 
 PCOD9346542
Probable space group: P N A 21
;
_chemical_formula_sum "Si O2"
_cell_formula_units_Z 32
_cell_length_a 10.524199
_cell_length_b 5.476280
_cell_length_c 21.603280
_cell_angle_alpha 90.000000
_cell_angle_beta 90.000000
_cell_angle_gamma 90.000000
_cell_volume 1245.071785
_symmetry_space_group_name_H-M "P N A 21"
_symmetry_group_IT_number 33
_symmetry_cell_setting 'orthorhombic'
loop_
_space_group_symop_operation_xyz
x,y,z
-x,-y,1/2+z
1/2-x,1/2+y,1/2+z
1/2+x,1/2-y,z
loop_
_atom_site_type_symbol
_atom_site_label
_atom_site_fract_x
_atom_site_fract_y
_atom_site_fract_z
Si Si1 0.035019 0.078682 0.689440
Si Si2 0.758176 0.193261 0.125210
Si Si3 0.136832 0.786466 0.084137
Si Si4 0.175111 0.200015 0.252301
Si Si5 0.657135 0.161336 0.801968
Si Si6 0.708952 0.773487 0.425964
Si Si7 0.537919 0.106769 0.371237
Si Si8 0.540660 0.506666 0.958553
O O1 0.132895 0.178999 0.741135
O O2 0.975276 0.240874 0.635053
O O3 0.098971 0.856597 0.650270
O O4 0.913637 0.022463 0.731758
O O5 0.719606 0.465360 0.101757
O O6 0.681090 0.154372 0.189255
O O7 0.719136 0.961114 0.083877
O O8 0.070113 0.839766 0.019384
O O9 0.112023 0.310510 0.311431
O O10 0.311656 0.102341 0.272818
O O11 0.764728 0.217117 0.853020
O O12 0.537397 0.127923 0.846608
O O13 0.602249 0.599779 0.455291
O O14 0.637397 0.033696 0.424106
O O15 0.846066 0.805661 0.456845
O O16 0.447640 0.314347 0.399131
#
# Coordination Sequence:
#
# PCOD9346542 Si02
#       8
#     4   4   4   4   4   4   4   4
#     4  11  23  44  75 107 152 203 260 332 404 481
#     4  11  25  47  71 108 147 200 263 331 396 475
#     4  11  29  48  75 107 150 210 276 329 402 477
#     4  11  22  41  71 110 154 198 258 328 415 488
#     4  12  22  43  76 117 159 208 259 346 419 509
#     4  12  26  48  75 114 159 209 275 333 419 493
#     4  12  24  44  74 114 157 204 264 332 418 491
#     4  12  29  49  77 113 158 220 273 345 401 502
#
# _framework density 25.701332000000001
#
# number of rings (size 3 to 8) (size 9 to 14) (size 15 to 20)
#    0.000    0.500    2.500    6.000    3.500    4.000 
#    0.000    0.000    0.000    0.000    0.000    0.000 
#    0.000    0.000    0.000    0.000    0.000    0.000 
#
# Total GULP energy -178760.648540 kJ/mol
# GULP energy per Si atom -5586.270267 kJ/mol
# Density = 2.564284 g / cm^3
# Si number density = 25.701332 Si / 1000 Ang^3
#
#
#
# Elastic Constant Matrix: (Units=GPa)
#
#
# Indices 1 2 3 4 5 6 
#
# 1 73.0666 19.1479 -7.5494 0.0000 0.0000 0.0000
# 2 19.1479 81.4482 21.2465 0.0000 0.0000 0.0000
# 3 -7.5494 21.2465 58.0077 0.0000 0.0000 0.0000
# 4 0.0000 0.0000 0.0000 39.4335 0.0000 0.0000
# 5 0.0000 0.0000 0.0000 0.0000 26.9598 0.0000
# 6 0.0000 0.0000 0.0000 0.0000 0.0000 29.0891
#
#
#
# Elastic Compliance Matrix: (Units=1/GPa)
#
#
# Indices 1 2 3 4 5 6 
#
# 1 0.015252 -0.004537 0.003647 0.000000 0.000000 0.000000
# 2 -0.004537 0.014924 -0.006057 0.000000 0.000000 0.000000
# 3 0.003647 -0.006057 0.019932 0.000000 0.000000 0.000000
# 4 0.000000 0.000000 0.000000 0.025359 0.000000 0.000000
# 5 0.000000 0.000000 0.000000 0.000000 0.037092 0.000000
# 6 0.000000 0.000000 0.000000 0.000000 0.000000 0.034377
#
#
# Mechanical properties :
#
#
# Convention : Reuss Voigt Hill
#
# Bulk Modulus (GPa) = 27.61339 30.91249 29.26294
# Shear Modulus (GPa) = 28.91809 31.07499 29.99654
#
# Velocity S-wave (km/s) = 3.35798 3.48096 3.42002
# Velocity P-wave (km/s) = 5.07956 5.31129 5.19672
#
# Compressibility (1/GPa) = 0.03621432
#
# Stress axis : x y z
#
# Youngs Moduli (GPa) = 65.56570 67.00483 50.17036
#
# Poissons Ratio (x) = 0.30399 -0.18296
# Poissons Ratio (y) = 0.29746 0.30387
# Poissons Ratio (z) = -0.23910 0.40583
#
# Static dielectric constant tensor:
#      x y z
#    x 2.067770 0.000000 0.000000 
#    y 0.000000 2.123050 0.000000 
#    z 0.000000 0.000000 2.022220 
# 
# From -- ./inp_files/9154.got.cif
#   From: 2010.05.17/outbox.cif.g08.bks.cpg/sg33_5_cif.got.tgz:9154.got - 2010.06.03 17:15:25.
