data_PCOD9346613
_publ_section_title
;
Structure prediction by ZEFSAII (Michael W. Deem and Ramdas Pophale) SiO2 
 PCOD9346613
Probable space group: P N A 21
;
_chemical_formula_sum "Si O2"
_cell_formula_units_Z 32
_cell_length_a 9.257582
_cell_length_b 9.070468
_cell_length_c 15.256898
_cell_angle_alpha 90.000000
_cell_angle_beta 90.000000
_cell_angle_gamma 90.000000
_cell_volume 1281.130899
_symmetry_space_group_name_H-M "P N A 21"
_symmetry_group_IT_number 33
_symmetry_cell_setting 'orthorhombic'
loop_
_space_group_symop_operation_xyz
x,y,z
-x,-y,1/2+z
1/2-x,1/2+y,1/2+z
1/2+x,1/2-y,z
loop_
_atom_site_type_symbol
_atom_site_label
_atom_site_fract_x
_atom_site_fract_y
_atom_site_fract_z
Si Si1 0.810361 0.275530 0.530480
Si Si2 0.719236 0.346417 0.808752
Si Si3 0.901413 0.812363 0.689025
Si Si4 0.970863 0.536406 0.780455
Si Si5 0.583776 0.188437 0.642291
Si Si6 0.240357 0.603634 0.853792
Si Si7 0.935420 0.142060 0.904583
Si Si8 0.319301 0.399566 0.086810
O O1 0.718804 0.152337 0.581130
O O2 0.794782 0.272306 0.425870
O O3 0.746915 0.438562 0.561593
O O4 0.967394 0.258006 0.571674
O O5 0.805918 0.498168 0.800716
O O6 0.642088 0.296281 0.719214
O O7 0.848321 0.235036 0.832152
O O8 0.602481 0.346234 0.884937
O O9 0.981547 0.707179 0.759345
O O10 0.782388 0.887528 0.751364
O O11 0.807838 0.702323 0.627321
O O12 0.032284 0.902941 0.644983
O O13 0.011899 0.442961 0.695522
O O14 0.092360 0.505864 0.853635
O O15 0.380925 0.523221 0.890988
O O16 0.878540 0.181685 0.999793
#
# Coordination Sequence:
#
# PCOD9346613 Si02
#       8
#     4   4   4   4   4   4   4   4
#     4  11  27  45  69 106 143 177 241 298 347 412
#     4  12  22  42  72 104 133 183 233 287 355 409
#     4  12  25  45  71  96 143 188 235 279 356 427
#     4  12  25  44  71 102 136 188 228 285 345 423
#     4  12  22  44  72  99 138 181 232 290 341 413
#     4  11  27  46  68 102 143 191 229 288 356 419
#     4  11  23  42  70 101 141 175 234 294 342 416
#     4  11  25  46  67 102 139 183 234 291 348 419
#
# _framework density 24.977931000000002
#
# number of rings (size 3 to 8) (size 9 to 14) (size 15 to 20)
#    0.000    0.500    6.250    0.750    5.250    1.000 
#    2.250    0.000    0.000    0.000    0.000    0.000 
#    0.000    0.000    0.000    0.000    0.000    0.000 
#
# Total GULP energy -178729.823908 kJ/mol
# GULP energy per Si atom -5585.306997 kJ/mol
# Density = 2.492108 g / cm^3
# Si number density = 24.977931 Si / 1000 Ang^3
#
#
#
# Elastic Constant Matrix: (Units=GPa)
#
#
# Indices 1 2 3 4 5 6 
#
# 1 113.9087 8.2241 14.3694 0.0000 0.0000 0.0000
# 2 8.2241 36.0566 15.9002 0.0000 0.0000 0.0000
# 3 14.3694 15.9002 93.9219 0.0000 0.0000 0.0000
# 4 0.0000 0.0000 0.0000 25.0608 0.0000 0.0000
# 5 0.0000 0.0000 0.0000 0.0000 37.5097 0.0000
# 6 0.0000 0.0000 0.0000 0.0000 0.0000 32.8439
#
#
#
# Elastic Compliance Matrix: (Units=1/GPa)
#
#
# Indices 1 2 3 4 5 6 
#
# 1 0.009033 -0.001568 -0.001117 0.000000 0.000000 0.000000
# 2 -0.001568 0.030244 -0.004880 0.000000 0.000000 0.000000
# 3 -0.001117 -0.004880 0.011644 0.000000 0.000000 0.000000
# 4 0.000000 0.000000 0.000000 0.039903 0.000000 0.000000
# 5 0.000000 0.000000 0.000000 0.000000 0.026660 0.000000
# 6 0.000000 0.000000 0.000000 0.000000 0.000000 0.030447
#
#
# Mechanical properties :
#
#
# Convention : Reuss Voigt Hill
#
# Bulk Modulus (GPa) = 27.93943 35.65272 31.79607
# Shear Modulus (GPa) = 28.57298 32.77580 30.67439
#
# Velocity S-wave (km/s) = 3.38587 3.62635 3.50817
# Velocity P-wave (km/s) = 5.14737 5.64256 5.40065
#
# Compressibility (1/GPa) = 0.03579171
#
# Stress axis : x y z
#
# Youngs Moduli (GPa) = 110.70495 33.06460 85.88017
#
# Poissons Ratio (x) = 0.05184 0.09589
# Poissons Ratio (y) = 0.17358 0.41911
# Poissons Ratio (z) = 0.12361 0.16136
#
# Static dielectric constant tensor:
#      x y z
#    x 1.990330 0.000000 0.000000 
#    y 0.000000 2.094010 0.000000 
#    z 0.000000 0.000000 1.999250 
# 
# From -- ./inp_files/7708.got.cif
#   From: 2010.05.17/outbox.cif.g08.bks.cpg/sg33_4_cif.got.tgz:7708.got - 2010.06.03 17:15:25.
