data_PCOD9346193
_publ_section_title
;
Structure prediction by ZEFSAII (Michael W. Deem and Ramdas Pophale) SiO2 
 PCOD9346193
Probable space group: P N A 21
;
_chemical_formula_sum "Si O2"
_cell_formula_units_Z 20
_cell_length_a 10.930247
_cell_length_b 13.617905
_cell_length_c 4.656629
_cell_angle_alpha 90.000000
_cell_angle_beta 90.000000
_cell_angle_gamma 90.000000
_cell_volume 693.125561
_symmetry_space_group_name_H-M "P N A 21"
_symmetry_group_IT_number 33
_symmetry_cell_setting 'orthorhombic'
loop_
_space_group_symop_operation_xyz
x,y,z
-x,-y,1/2+z
1/2-x,1/2+y,1/2+z
1/2+x,1/2-y,z
loop_
_atom_site_type_symbol
_atom_site_label
_atom_site_fract_x
_atom_site_fract_y
_atom_site_fract_z
Si Si1 0.686054 0.494019 0.697200
Si Si2 0.251776 0.220663 0.765629
Si Si3 0.443863 0.946626 0.949637
Si Si4 0.604878 0.608440 0.179231
Si Si5 0.995228 0.723262 0.547677
O O1 0.694277 0.377884 0.641280
O O2 0.808749 0.528088 0.853059
O O3 0.681366 0.542211 0.390990
O O4 0.579067 0.538269 0.906970
O O5 0.316748 0.299099 0.556024
O O6 0.368467 0.185171 0.955311
O O7 0.144943 0.280239 0.928254
O O8 0.477951 0.835413 0.851600
O O9 0.529147 0.024358 0.775159
O O10 0.521143 0.666847 0.413437
#
# Coordination Sequence:
#
# PCOD9346193 Si02
#       5
#     4   4   4   4   4
#     4  12  24  46  73 103 147 193 244 299 370 440
#     4  10  24  45  73 107 143 197 239 311 364 446
#     4  12  23  41  75 109 142 192 258 307 360 433
#     4  10  26  45  68 107 142 185 242 305 364 434
#     4  10  23  47  69 106 150 187 245 306 368 435
#
# _framework density 28.854796
#
# number of rings (size 3 to 8) (size 9 to 14) (size 15 to 20)
#    1.200    0.000    4.000    1.200    0.000    6.400 
#    0.000    0.000    0.000    0.000    0.000    0.000 
#    0.000    0.000    0.000    0.000    0.000    0.000 
#
# Total GULP energy -111454.581611 kJ/mol
# GULP energy per Si atom -5572.729081 kJ/mol
# Density = 2.878912 g / cm^3
# Si number density = 28.854796 Si / 1000 Ang^3
#
#
#
# Elastic Constant Matrix: (Units=GPa)
#
#
# Indices 1 2 3 4 5 6 
#
# 1 119.9857 32.0975 23.6703 0.0000 0.0000 0.0000
# 2 32.0975 197.3014 38.2251 0.0000 0.0000 0.0000
# 3 23.6703 38.2251 93.6673 0.0000 0.0000 0.0000
# 4 0.0000 0.0000 0.0000 47.6802 0.0000 0.0000
# 5 0.0000 0.0000 0.0000 0.0000 32.9162 0.0000
# 6 0.0000 0.0000 0.0000 0.0000 0.0000 49.4055
#
#
#
# Elastic Compliance Matrix: (Units=1/GPa)
#
#
# Indices 1 2 3 4 5 6 
#
# 1 0.008990 -0.001110 -0.001819 0.000000 0.000000 0.000000
# 2 -0.001110 0.005641 -0.002021 0.000000 0.000000 0.000000
# 3 -0.001819 -0.002021 0.011961 0.000000 0.000000 0.000000
# 4 0.000000 0.000000 0.000000 0.020973 0.000000 0.000000
# 5 0.000000 0.000000 0.000000 0.000000 0.030380 0.000000
# 6 0.000000 0.000000 0.000000 0.000000 0.000000 0.020241
#
#
# Mechanical properties :
#
#
# Convention : Reuss Voigt Hill
#
# Bulk Modulus (GPa) = 59.91365 66.54891 63.23128
# Shear Modulus (GPa) = 43.99494 47.13115 45.56305
#
# Velocity S-wave (km/s) = 3.90898 4.04591 3.97803
# Velocity P-wave (km/s) = 6.41735 6.70368 6.56208
#
# Compressibility (1/GPa) = 0.01669069
#
# Stress axis : x y z
#
# Youngs Moduli (GPa) = 111.23330 177.28581 83.60778
#
# Poissons Ratio (x) = 0.19682 0.15207
# Poissons Ratio (y) = 0.12349 0.16900
# Poissons Ratio (z) = 0.20231 0.35836
#
# Static dielectric constant tensor:
#      x y z
#    x 2.367290 0.000000 0.000000 
#    y 0.000000 2.412850 0.000000 
#    z 0.000000 0.000000 2.159800 
# 
# From -- ./inp_files/802.got.cif
#   From: 2010.05.17/outbox.cif.g08.bks.cpg/sg33_1_cif.got.tgz:802.got - 2010.06.03 17:15:25.
