data_PCOD9346859
_publ_section_title
;
Structure prediction by ZEFSAII (Michael W. Deem and Ramdas Pophale) SiO2 
 PCOD9346859
Probable space group: P N A 21
;
_chemical_formula_sum "Si O2"
_cell_formula_units_Z 16
_cell_length_a 10.165616
_cell_length_b 12.796734
_cell_length_c 4.883814
_cell_angle_alpha 90.000000
_cell_angle_beta 90.000000
_cell_angle_gamma 90.000000
_cell_volume 635.319168
_symmetry_space_group_name_H-M "P N A 21"
_symmetry_group_IT_number 33
_symmetry_cell_setting 'orthorhombic'
loop_
_space_group_symop_operation_xyz
x,y,z
-x,-y,1/2+z
1/2-x,1/2+y,1/2+z
1/2+x,1/2-y,z
loop_
_atom_site_type_symbol
_atom_site_label
_atom_site_fract_x
_atom_site_fract_y
_atom_site_fract_z
Si Si1 0.257234 0.207143 0.163090
Si Si2 0.182610 0.410933 0.852494
Si Si3 0.920952 0.975508 0.573787
Si Si4 0.906772 0.377983 0.650491
O O1 0.330285 0.200772 0.451066
O O2 0.121249 0.141755 0.155175
O O3 0.234426 0.321240 0.049914
O O4 0.349294 0.143314 0.950208
O O5 0.300125 0.453413 0.667497
O O6 0.062794 0.367219 0.670683
O O7 0.126871 0.507948 0.030068
O O8 0.955808 0.987749 0.256929
#
# Coordination Sequence:
#
# PCOD9346859 Si02
#       4
#     4   4   4   4
#     4  11  27  48  76 113 145 199 253 306 383 446
#     4  11  26  52  78 106 159 193 253 321 365 464
#     4  11  25  47  73 108 151 187 242 308 371 444
#     4  11  26  49  77 113 143 203 256 303 383 444
#
# _framework density 25.184191999999999
#
# number of rings (size 3 to 8) (size 9 to 14) (size 15 to 20)
#    0.000    1.000    0.000    6.000    3.500   12.000 
#    9.000    0.000    0.000    0.000    0.000    0.000 
#    0.000    0.000    0.000    0.000    0.000    0.000 
#
# Total GULP energy -89882.813402 kJ/mol
# GULP energy per Si atom -5617.675838 kJ/mol
# Density = 2.512687 g / cm^3
# Si number density = 25.184192 Si / 1000 Ang^3
#
#
#
# Elastic Constant Matrix: (Units=GPa)
#
#
# Indices 1 2 3 4 5 6 
#
# 1 88.8958 19.0918 3.5901 0.0000 0.0000 0.0000
# 2 19.0918 107.6879 1.7831 0.0000 0.0000 0.0000
# 3 3.5901 1.7831 72.4706 0.0000 0.0000 0.0000
# 4 0.0000 0.0000 0.0000 42.5676 0.0000 0.0000
# 5 0.0000 0.0000 0.0000 0.0000 49.8190 0.0000
# 6 0.0000 0.0000 0.0000 0.0000 0.0000 12.6547
#
#
#
# Elastic Compliance Matrix: (Units=1/GPa)
#
#
# Indices 1 2 3 4 5 6 
#
# 1 0.011715 -0.002068 -0.000529 0.000000 0.000000 0.000000
# 2 -0.002068 0.009655 -0.000135 0.000000 0.000000 0.000000
# 3 -0.000529 -0.000135 0.013828 0.000000 0.000000 0.000000
# 4 0.000000 0.000000 0.000000 0.023492 0.000000 0.000000
# 5 0.000000 0.000000 0.000000 0.000000 0.020073 0.000000
# 6 0.000000 0.000000 0.000000 0.000000 0.000000 0.079022
#
#
# Mechanical properties :
#
#
# Convention : Reuss Voigt Hill
#
# Bulk Modulus (GPa) = 33.63311 35.33156 34.48233
# Shear Modulus (GPa) = 28.87487 37.31421 33.09454
#
# Velocity S-wave (km/s) = 3.38974 3.85340 3.62898
# Velocity P-wave (km/s) = 5.35764 5.81876 5.59296
#
# Compressibility (1/GPa) = 0.02973261
#
# Stress axis : x y z
#
# Youngs Moduli (GPa) = 85.36308 103.57345 72.31574
#
# Poissons Ratio (x) = 0.21420 0.03829
# Poissons Ratio (y) = 0.17654 0.00977
# Poissons Ratio (z) = 0.04519 0.01399
#
# Static dielectric constant tensor:
#      x y z
#    x 1.987500 0.000000 0.000000 
#    y 0.000000 1.968360 0.000000 
#    z 0.000000 0.000000 1.919120 
# 
# From -- ./inp_files/286.got.cif
#   From: 2010.05.17/outbox.cif.g08.bks.cpg/sg33_1_cif.got.tgz:286.got - 2010.06.03 17:15:25.
