data_PCOD9346362
_publ_section_title
;
Structure prediction by ZEFSAII (Michael W. Deem and Ramdas Pophale) SiO2 
 PCOD9346362
Probable space group: P N A 21
;
_chemical_formula_sum "Si O2"
_cell_formula_units_Z 28
_cell_length_a 9.473358
_cell_length_b 12.650701
_cell_length_c 8.858031
_cell_angle_alpha 90.000000
_cell_angle_beta 90.000000
_cell_angle_gamma 90.000000
_cell_volume 1061.587355
_symmetry_space_group_name_H-M "P N A 21"
_symmetry_group_IT_number 33
_symmetry_cell_setting 'orthorhombic'
loop_
_space_group_symop_operation_xyz
x,y,z
-x,-y,1/2+z
1/2-x,1/2+y,1/2+z
1/2+x,1/2-y,z
loop_
_atom_site_type_symbol
_atom_site_label
_atom_site_fract_x
_atom_site_fract_y
_atom_site_fract_z
Si Si1 0.390379 0.467107 0.885770
Si Si2 0.417015 0.679725 0.017459
Si Si3 0.024226 0.648942 0.255640
Si Si4 0.802588 0.904409 0.379734
Si Si5 0.679385 0.186845 0.023952
Si Si6 0.174795 0.761879 0.810311
Si Si7 0.844948 0.459603 0.152400
O O1 0.390816 0.553733 0.018969
O O2 0.532296 0.249547 0.659911
O O3 0.289085 0.508057 0.754662
O O4 0.316861 0.359303 0.938890
O O5 0.549320 0.450157 0.835158
O O6 0.276120 0.727746 0.945932
O O7 0.538076 0.689213 0.887833
O O8 0.952655 0.645734 0.423926
O O9 0.970564 0.541067 0.180808
O O10 0.193023 0.645602 0.263009
O O11 0.837183 0.811406 0.499303
O O12 0.707332 0.979564 0.482306
O O13 0.726122 0.170613 0.196553
O O14 0.122929 0.659024 0.712795
#
# Coordination Sequence:
#
# PCOD9346362 Si02
#       7
#     4   4   4   4   4   4   4
#     4  10  24  47  75 109 145 190 250 305 378 445
#     4  11  27  48  71 111 149 194 243 315 375 449
#     4  11  26  46  72 109 145 190 245 318 368 438
#     4  11  24  43  75 103 140 194 242 304 364 446
#     4  10  24  48  73 103 143 190 245 304 367 454
#     4  10  25  47  72 101 147 199 245 298 374 456
#     4   9  24  47  68 104 147 191 252 296 372 448
#
# _framework density 26.375596999999999
#
# number of rings (size 3 to 8) (size 9 to 14) (size 15 to 20)
#    0.000    1.714    0.000    0.857   16.000    2.286 
#    2.571    0.000    0.000    0.000    0.000    0.000 
#    0.000    0.000    0.000    0.000    0.000    0.000 
#
# Total GULP energy -156710.184422 kJ/mol
# GULP energy per Si atom -5596.792301 kJ/mol
# Density = 2.631556 g / cm^3
# Si number density = 26.375597 Si / 1000 Ang^3
#
#
#
# Elastic Constant Matrix: (Units=GPa)
#
#
# Indices 1 2 3 4 5 6 
#
# 1 111.0622 11.4348 0.3634 0.0000 0.0000 0.0000
# 2 11.4348 75.5821 9.4604 0.0000 0.0000 0.0000
# 3 0.3634 9.4604 109.8534 0.0000 0.0000 0.0000
# 4 0.0000 0.0000 0.0000 30.7980 0.0000 0.0000
# 5 0.0000 0.0000 0.0000 0.0000 17.4507 0.0000
# 6 0.0000 0.0000 0.0000 0.0000 0.0000 31.5792
#
#
#
# Elastic Compliance Matrix: (Units=1/GPa)
#
#
# Indices 1 2 3 4 5 6 
#
# 1 0.009147 -0.001395 0.000090 0.000000 0.000000 0.000000
# 2 -0.001395 0.013588 -0.001166 0.000000 0.000000 0.000000
# 3 0.000090 -0.001166 0.009203 0.000000 0.000000 0.000000
# 4 0.000000 0.000000 0.000000 0.032470 0.000000 0.000000
# 5 0.000000 0.000000 0.000000 0.000000 0.057304 0.000000
# 6 0.000000 0.000000 0.000000 0.000000 0.000000 0.031666
#
#
# Mechanical properties :
#
#
# Convention : Reuss Voigt Hill
#
# Bulk Modulus (GPa) = 37.04187 37.66830 37.35509
# Shear Modulus (GPa) = 29.88307 34.31485 32.09896
#
# Velocity S-wave (km/s) = 3.36963 3.61086 3.49233
# Velocity P-wave (km/s) = 5.40497 5.63000 5.51863
#
# Compressibility (1/GPa) = 0.02699648
#
# Stress axis : x y z
#
# Youngs Moduli (GPa) = 109.32173 73.59648 108.65886
#
# Poissons Ratio (x) = 0.10268 -0.00977
# Poissons Ratio (y) = 0.15252 0.12664
# Poissons Ratio (z) = -0.00983 0.08578
#
# Static dielectric constant tensor:
#      x y z
#    x 2.025070 0.000000 0.000000 
#    y 0.000000 2.076930 0.000000 
#    z 0.000000 0.000000 2.127500 
# 
# From -- ./inp_files/6429.got.cif
#   From: 2010.05.17/outbox.cif.g08.bks.cpg/sg33_4_cif.got.tgz:6429.got - 2010.06.03 17:15:25.
