data_PCOD9346809
_publ_section_title
;
Structure prediction by ZEFSAII (Michael W. Deem and Ramdas Pophale) SiO2 
 PCOD9346809
Probable space group: P N A 21
;
_chemical_formula_sum "Si O2"
_cell_formula_units_Z 20
_cell_length_a 9.809647
_cell_length_b 8.741177
_cell_length_c 9.053419
_cell_angle_alpha 90.000000
_cell_angle_beta 90.000000
_cell_angle_gamma 90.000000
_cell_volume 776.311312
_symmetry_space_group_name_H-M "P N A 21"
_symmetry_group_IT_number 33
_symmetry_cell_setting 'orthorhombic'
loop_
_space_group_symop_operation_xyz
x,y,z
-x,-y,1/2+z
1/2-x,1/2+y,1/2+z
1/2+x,1/2-y,z
loop_
_atom_site_type_symbol
_atom_site_label
_atom_site_fract_x
_atom_site_fract_y
_atom_site_fract_z
Si Si1 0.737990 0.662475 0.980530
Si Si2 0.629273 0.201576 0.178542
Si Si3 0.926212 0.901582 0.325136
Si Si4 0.614473 0.592687 0.550544
Si Si5 0.987878 0.365103 0.660738
O O1 0.787236 0.741098 0.827513
O O2 0.670535 0.501798 0.929537
O O3 0.626889 0.762524 0.072989
O O4 0.875879 0.622962 0.064973
O O5 0.507624 0.308529 0.124512
O O6 0.747046 0.184935 0.056315
O O7 0.569388 0.031021 0.198240
O O8 0.072374 0.955965 0.387804
O O9 0.960475 0.723393 0.306961
O O10 0.880894 0.950549 0.161793
#
# Coordination Sequence:
#
# PCOD9346809 Si02
#       5
#     4   4   4   4   4
#     4  11  24  50  76 110 155 202 253 322 390 455
#     4  11  28  44  78 111 150 200 262 309 393 458
#     4  11  25  49  76 108 154 202 252 316 386 456
#     4  11  26  49  73 110 153 199 253 317 384 460
#     4  12  27  48  81 111 156 205 264 320 391 469
#
# _framework density 25.762861000000001
#
# number of rings (size 3 to 8) (size 9 to 14) (size 15 to 20)
#    0.000    0.800    2.000    4.800    8.400    3.200 
#    0.000    0.000    0.000    0.000    0.000    0.000 
#    0.000    0.000    0.000    0.000    0.000    0.000 
#
# Total GULP energy -111822.270858 kJ/mol
# GULP energy per Si atom -5591.113543 kJ/mol
# Density = 2.570422 g / cm^3
# Si number density = 25.762861 Si / 1000 Ang^3
#
#
#
# Elastic Constant Matrix: (Units=GPa)
#
#
# Indices 1 2 3 4 5 6 
#
# 1 141.7791 35.5547 7.8188 0.0000 0.0000 0.0000
# 2 35.5547 113.0181 4.8865 0.0000 0.0000 0.0000
# 3 7.8188 4.8865 62.9376 0.0000 0.0000 0.0000
# 4 0.0000 0.0000 0.0000 24.8881 0.0000 0.0000
# 5 0.0000 0.0000 0.0000 0.0000 53.0349 0.0000
# 6 0.0000 0.0000 0.0000 0.0000 0.0000 49.7323
#
#
#
# Elastic Compliance Matrix: (Units=1/GPa)
#
#
# Indices 1 2 3 4 5 6 
#
# 1 0.007694 -0.002387 -0.000771 0.000000 0.000000 0.000000
# 2 -0.002387 0.009619 -0.000450 0.000000 0.000000 0.000000
# 3 -0.000771 -0.000450 0.016019 0.000000 0.000000 0.000000
# 4 0.000000 0.000000 0.000000 0.040180 0.000000 0.000000
# 5 0.000000 0.000000 0.000000 0.000000 0.018855 0.000000
# 6 0.000000 0.000000 0.000000 0.000000 0.000000 0.020108
#
#
# Mechanical properties :
#
#
# Convention : Reuss Voigt Hill
#
# Bulk Modulus (GPa) = 38.29015 46.02832 42.15924
# Shear Modulus (GPa) = 38.94173 43.49605 41.21889
#
# Velocity S-wave (km/s) = 3.89208 4.11338 4.00426
# Velocity P-wave (km/s) = 5.92389 6.36119 6.14643
#
# Compressibility (1/GPa) = 0.02611637
#
# Stress axis : x y z
#
# Youngs Moduli (GPa) = 129.96483 103.96488 62.42415
#
# Poissons Ratio (x) = 0.24819 0.04810
# Poissons Ratio (y) = 0.31026 0.02811
# Poissons Ratio (z) = 0.10014 0.04681
#
# Static dielectric constant tensor:
#      x y z
#    x 2.001090 0.000000 0.000000 
#    y 0.000000 2.093350 0.000000 
#    z 0.000000 0.000000 2.200440 
# 
# From -- ./inp_files/2934.got.cif
#   From: 2010.05.17/outbox.cif.g08.bks.cpg/sg33_2_cif.got.tgz:2934.got - 2010.06.03 17:15:25.
