data_PCOD9346712
_publ_section_title
;
Structure prediction by ZEFSAII (Michael W. Deem and Ramdas Pophale) SiO2 
 PCOD9346712
Probable space group: P N A 21
;
_chemical_formula_sum "Si O2"
_cell_formula_units_Z 20
_cell_length_a 24.620810
_cell_length_b 5.647662
_cell_length_c 5.181953
_cell_angle_alpha 90.000000
_cell_angle_beta 90.000000
_cell_angle_gamma 90.000000
_cell_volume 720.550632
_symmetry_space_group_name_H-M "P N A 21"
_symmetry_group_IT_number 33
_symmetry_cell_setting 'orthorhombic'
loop_
_space_group_symop_operation_xyz
x,y,z
-x,-y,1/2+z
1/2-x,1/2+y,1/2+z
1/2+x,1/2-y,z
loop_
_atom_site_type_symbol
_atom_site_label
_atom_site_fract_x
_atom_site_fract_y
_atom_site_fract_z
Si Si1 0.285166 0.118221 0.772500
Si Si2 0.319580 0.615089 0.521584
Si Si3 0.117571 0.632105 0.594406
Si Si4 0.080372 0.380312 0.089400
Si Si5 0.018692 0.885562 0.461678
O O1 0.305419 0.360387 0.639957
O O2 0.318214 0.134764 0.044268
O O3 0.301312 0.860346 0.663205
O O4 0.220183 0.126100 0.776924
O O5 0.383757 0.653273 0.502237
O O6 0.101440 0.571497 0.883797
O O7 0.082476 0.857480 0.507197
O O8 0.094647 0.445123 0.382345
O O9 0.017031 0.337165 0.054591
O O10 0.996164 0.076094 0.665109
#
# Coordination Sequence:
#
# PCOD9346712 Si02
#       5
#     4   4   4   4   4
#     4  11  24  43  69 103 141 184 234 288 349 415
#     4  11  24  43  69 103 141 184 234 288 349 415
#     4  11  24  44  67  97 136 184 232 288 349 417
#     4  11  24  44  67  97 136 184 232 288 349 417
#     4  12  24  40  66 100 136 182 232 290 350 418
#
# _framework density 27.756547999999999
#
# number of rings (size 3 to 8) (size 9 to 14) (size 15 to 20)
#    0.000    0.800    0.000    7.200    0.000    8.000 
#    0.000    0.000    0.000    0.000    0.000    0.000 
#    0.000    0.000    0.000    0.000    0.000    0.000 
#
# Total GULP energy -111909.758559 kJ/mol
# GULP energy per Si atom -5595.487928 kJ/mol
# Density = 2.769337 g / cm^3
# Si number density = 27.756548 Si / 1000 Ang^3
#
#
#
# Elastic Constant Matrix: (Units=GPa)
#
#
# Indices 1 2 3 4 5 6 
#
# 1 79.5823 22.5244 34.7959 0.0000 0.0000 0.0000
# 2 22.5244 150.5596 54.4365 0.0000 0.0000 0.0000
# 3 34.7959 54.4365 70.1706 0.0000 0.0000 0.0000
# 4 0.0000 0.0000 0.0000 54.4267 0.0000 0.0000
# 5 0.0000 0.0000 0.0000 0.0000 47.7791 0.0000
# 6 0.0000 0.0000 0.0000 0.0000 0.0000 55.2464
#
#
#
# Elastic Compliance Matrix: (Units=1/GPa)
#
#
# Indices 1 2 3 4 5 6 
#
# 1 0.016092 0.000664 -0.008495 0.000000 0.000000 0.000000
# 2 0.000664 0.009259 -0.007512 0.000000 0.000000 0.000000
# 3 -0.008495 -0.007512 0.024291 0.000000 0.000000 0.000000
# 4 0.000000 0.000000 0.000000 0.018373 0.000000 0.000000
# 5 0.000000 0.000000 0.000000 0.000000 0.020930 0.000000
# 6 0.000000 0.000000 0.000000 0.000000 0.000000 0.018101
#
#
# Mechanical properties :
#
#
# Convention : Reuss Voigt Hill
#
# Bulk Modulus (GPa) = 52.75330 58.20290 55.47810
# Shear Modulus (GPa) = 34.71064 44.06084 39.38574
#
# Velocity S-wave (km/s) = 3.54013 3.98855 3.77101
# Velocity P-wave (km/s) = 5.97972 6.49815 6.24431
#
# Compressibility (1/GPa) = 0.01895616
#
# Stress axis : x y z
#
# Youngs Moduli (GPa) = 62.14351 108.00873 41.16817
#
# Poissons Ratio (x) = -0.07171 0.34970
# Poissons Ratio (y) = -0.04126 0.30924
# Poissons Ratio (z) = 0.52788 0.81133
#
# Static dielectric constant tensor:
#      x y z
#    x 2.163520 0.000000 0.000000 
#    y 0.000000 2.216260 0.000000 
#    z 0.000000 0.000000 2.172580 
# 
# From -- ./inp_files/2152.got.cif
#   From: 2010.05.17/outbox.cif.g08.bks.cpg/sg33_2_cif.got.tgz:2152.got - 2010.06.03 17:15:25.
