data_PCOD9346531
_publ_section_title
;
Structure prediction by ZEFSAII (Michael W. Deem and Ramdas Pophale) SiO2 
 PCOD9346531
Probable space group: P N A 21
;
_chemical_formula_sum "Si O2"
_cell_formula_units_Z 20
_cell_length_a 7.578825
_cell_length_b 13.583570
_cell_length_c 6.671637
_cell_angle_alpha 90.000000
_cell_angle_beta 90.000000
_cell_angle_gamma 90.000000
_cell_volume 686.828349
_symmetry_space_group_name_H-M "P N A 21"
_symmetry_group_IT_number 33
_symmetry_cell_setting 'orthorhombic'
loop_
_space_group_symop_operation_xyz
x,y,z
-x,-y,1/2+z
1/2-x,1/2+y,1/2+z
1/2+x,1/2-y,z
loop_
_atom_site_type_symbol
_atom_site_label
_atom_site_fract_x
_atom_site_fract_y
_atom_site_fract_z
Si Si1 0.396444 0.370457 0.254800
Si Si2 0.702294 0.035292 0.953441
Si Si3 0.907394 0.818635 0.154229
Si Si4 0.391471 0.200764 0.953838
Si Si5 0.613053 0.092720 0.542814
O O1 0.388046 0.441404 0.060274
O O2 0.531684 0.367772 0.441954
O O3 0.216400 0.417435 0.339497
O O4 0.371354 0.259497 0.163696
O O5 0.443435 0.873790 0.468508
O O6 0.588366 0.941135 0.021830
O O7 0.709921 0.028793 0.712489
O O8 0.068269 0.789339 0.299350
O O9 0.769322 0.848969 0.332283
O O10 0.866647 0.708289 0.077560
#
# Coordination Sequence:
#
# PCOD9346531 Si02
#       5
#     4   4   4   4   4
#     4  12  21  39  67  99 134 178 229 295 342 426
#     4  11  23  41  68 103 132 182 239 291 353 430
#     4  11  23  40  65 102 136 177 235 288 348 430
#     4  11  23  40  63  98 136 178 233 285 346 430
#     4  11  22  40  67 100 132 175 234 287 357 430
#
# _framework density 29.11936
#
# number of rings (size 3 to 8) (size 9 to 14) (size 15 to 20)
#    0.000    0.800    8.000    1.200    0.000    0.000 
#    0.000    0.000    4.400    0.000    0.000    0.000 
#    0.000    0.000    0.000    0.000    0.000    0.000 
#
# Total GULP energy -111452.136387 kJ/mol
# GULP energy per Si atom -5572.606819 kJ/mol
# Density = 2.905308 g / cm^3
# Si number density = 29.119360 Si / 1000 Ang^3
#
#
#
# Elastic Constant Matrix: (Units=GPa)
#
#
# Indices 1 2 3 4 5 6 
#
# 1 112.4340 38.7897 74.2872 0.0000 0.0000 0.0000
# 2 38.7897 115.0722 43.6060 0.0000 0.0000 0.0000
# 3 74.2872 43.6060 146.3148 0.0000 0.0000 0.0000
# 4 0.0000 0.0000 0.0000 47.6726 0.0000 0.0000
# 5 0.0000 0.0000 0.0000 0.0000 73.7453 0.0000
# 6 0.0000 0.0000 0.0000 0.0000 0.0000 45.3988
#
#
#
# Elastic Compliance Matrix: (Units=1/GPa)
#
#
# Indices 1 2 3 4 5 6 
#
# 1 0.013889 -0.002265 -0.006376 0.000000 0.000000 0.000000
# 2 -0.002265 0.010166 -0.001880 0.000000 0.000000 0.000000
# 3 -0.006376 -0.001880 0.010632 0.000000 0.000000 0.000000
# 4 0.000000 0.000000 0.000000 0.020976 0.000000 0.000000
# 5 0.000000 0.000000 0.000000 0.000000 0.013560 0.000000
# 6 0.000000 0.000000 0.000000 0.000000 0.000000 0.022027
#
#
# Mechanical properties :
#
#
# Convention : Reuss Voigt Hill
#
# Bulk Modulus (GPa) = 73.29164 76.35409 74.82286
# Shear Modulus (GPa) = 42.79300 47.83923 45.31611
#
# Velocity S-wave (km/s) = 3.83766 4.05763 3.94917
# Velocity P-wave (km/s) = 6.69782 6.94481 6.82244
#
# Compressibility (1/GPa) = 0.01364412
#
# Stress axis : x y z
#
# Youngs Moduli (GPa) = 72.00096 98.36609 94.05389
#
# Poissons Ratio (x) = 0.22284 0.59973
# Poissons Ratio (y) = 0.16311 0.17678
# Poissons Ratio (z) = 0.45911 0.18489
#
# Static dielectric constant tensor:
#      x y z
#    x 2.415410 0.000000 0.000000 
#    y 0.000000 2.512630 0.000000 
#    z 0.000000 0.000000 2.471430 
# 
# From -- ./inp_files/794.got.cif
#   From: 2010.05.17/outbox.cif.g08.bks.cpg/sg33_1_cif.got.tgz:794.got - 2010.06.03 17:15:25.
