data_PCOD9346931
_publ_section_title
;
Structure prediction by ZEFSAII (Michael W. Deem and Ramdas Pophale) SiO2 
 PCOD9346931
Probable space group: P N A 21
;
_chemical_formula_sum "Si O2"
_cell_formula_units_Z 32
_cell_length_a 20.595912
_cell_length_b 12.105914
_cell_length_c 5.586188
_cell_angle_alpha 90.000000
_cell_angle_beta 90.000000
_cell_angle_gamma 90.000000
_cell_volume 1392.817322
_symmetry_space_group_name_H-M "P N A 21"
_symmetry_group_IT_number 33
_symmetry_cell_setting 'orthorhombic'
loop_
_space_group_symop_operation_xyz
x,y,z
-x,-y,1/2+z
1/2-x,1/2+y,1/2+z
1/2+x,1/2-y,z
loop_
_atom_site_type_symbol
_atom_site_label
_atom_site_fract_x
_atom_site_fract_y
_atom_site_fract_z
Si Si1 0.537637 0.013970 0.278490
Si Si2 0.005129 0.931496 0.709055
Si Si3 0.904906 0.735156 0.637675
Si Si4 0.147574 0.845893 0.651533
Si Si5 0.654529 0.895939 0.445435
Si Si6 0.745369 0.477958 0.602572
Si Si7 0.344990 0.903536 0.280684
Si Si8 0.227670 0.257047 0.392901
O O1 0.598111 0.929174 0.259893
O O2 0.499828 0.990902 0.525662
O O3 0.567090 0.137174 0.302432
O O4 0.074312 0.868121 0.729387
O O5 0.948928 0.841721 0.662506
O O6 0.006473 0.005361 0.463174
O O7 0.901736 0.674480 0.380544
O O8 0.830402 0.759160 0.703184
O O9 0.151147 0.734473 0.491789
O O10 0.176104 0.963800 0.565198
O O11 0.205047 0.818198 0.837250
O O12 0.725039 0.938396 0.356901
O O13 0.637460 0.978771 0.663841
O O14 0.797578 0.562851 0.497519
O O15 0.746982 0.365504 0.459742
O O16 0.304888 0.827836 0.101188
#
# Coordination Sequence:
#
# PCOD9346931 Si02
#       8
#     4   4   4   4   4   4   4   4
#     4  12  26  45  76 112 151 206 260 329 403 477
#     4  12  33  57  80 115 167 223 273 325 410 505
#     4  12  27  49  77 113 154 209 268 334 406 481
#     4  12  26  50  73 119 154 217 267 335 405 490
#     4  12  25  45  70 114 156 192 264 337 402 477
#     4  12  25  44  74 112 151 199 262 335 400 476
#     4  12  22  46  78 113 154 199 266 332 420 459
#     4  12  26  44  82 110 157 203 272 339 398 479
#
# _framework density 22.975016
#
# number of rings (size 3 to 8) (size 9 to 14) (size 15 to 20)
#    0.000    0.000    6.250    3.000    3.500    5.000 
#    0.000    0.000    0.000    0.000    0.000    0.000 
#    0.000    0.000    0.000    0.000    0.000    0.000 
#
# Total GULP energy -178669.143199 kJ/mol
# GULP energy per Si atom -5583.410725 kJ/mol
# Density = 2.292272 g / cm^3
# Si number density = 22.975016 Si / 1000 Ang^3
#
#
#
# Elastic Constant Matrix: (Units=GPa)
#
#
# Indices 1 2 3 4 5 6 
#
# 1 129.0148 60.3341 51.5820 0.0000 0.0000 0.0000
# 2 60.3341 93.6216 27.8318 0.0000 0.0000 0.0000
# 3 51.5820 27.8318 87.6630 0.0000 0.0000 0.0000
# 4 0.0000 0.0000 0.0000 27.2640 0.0000 0.0000
# 5 0.0000 0.0000 0.0000 0.0000 28.7852 0.0000
# 6 0.0000 0.0000 0.0000 0.0000 0.0000 53.6508
#
#
#
# Elastic Compliance Matrix: (Units=1/GPa)
#
#
# Indices 1 2 3 4 5 6 
#
# 1 0.013180 -0.006833 -0.005586 0.000000 0.000000 0.000000
# 2 -0.006833 0.015337 -0.000849 0.000000 0.000000 0.000000
# 3 -0.005586 -0.000849 0.014963 0.000000 0.000000 0.000000
# 4 0.000000 0.000000 0.000000 0.036678 0.000000 0.000000
# 5 0.000000 0.000000 0.000000 0.000000 0.034740 0.000000
# 6 0.000000 0.000000 0.000000 0.000000 0.000000 0.018639
#
#
# Mechanical properties :
#
#
# Convention : Reuss Voigt Hill
#
# Bulk Modulus (GPa) = 59.01300 65.53281 62.27291
# Shear Modulus (GPa) = 30.17106 33.31009 31.74058
#
# Velocity S-wave (km/s) = 3.62776 3.81181 3.72092
# Velocity P-wave (km/s) = 6.57944 6.92521 6.75454
#
# Compressibility (1/GPa) = 0.01694542
#
# Stress axis : x y z
#
# Youngs Moduli (GPa) = 75.87327 65.20094 66.82936
#
# Poissons Ratio (x) = 0.44553 0.37329
# Poissons Ratio (y) = 0.51846 0.05671
# Poissons Ratio (z) = 0.42381 0.05533
#
# Static dielectric constant tensor:
#      x y z
#    x 1.906100 0.000000 0.000000 
#    y 0.000000 1.834410 0.000000 
#    z 0.000000 0.000000 1.971120 
# 
# From -- ./inp_files/2031.got.cif
#   From: 2010.05.17/outbox.cif.g08.bks.cpg/sg33_2_cif.got.tgz:2031.got - 2010.06.03 17:15:25.
