data_PCOD9346705
_publ_section_title
;
Structure prediction by ZEFSAII (Michael W. Deem and Ramdas Pophale) SiO2 
 PCOD9346705
Probable space group: P N A 21
;
_chemical_formula_sum "Si O2"
_cell_formula_units_Z 28
_cell_length_a 26.141453
_cell_length_b 6.516326
_cell_length_c 7.670376
_cell_angle_alpha 90.000000
_cell_angle_beta 90.000000
_cell_angle_gamma 90.000000
_cell_volume 1306.619633
_symmetry_space_group_name_H-M "P N A 21"
_symmetry_group_IT_number 33
_symmetry_cell_setting 'orthorhombic'
loop_
_space_group_symop_operation_xyz
x,y,z
-x,-y,1/2+z
1/2-x,1/2+y,1/2+z
1/2+x,1/2-y,z
loop_
_atom_site_type_symbol
_atom_site_label
_atom_site_fract_x
_atom_site_fract_y
_atom_site_fract_z
Si Si1 0.208570 0.255186 0.175830
Si Si2 0.053934 0.837531 0.558710
Si Si3 0.379209 0.994597 0.222903
Si Si4 0.177732 0.638157 0.029539
Si Si5 0.222100 0.416108 0.534139
Si Si6 0.617774 0.552018 0.228725
Si Si7 0.556989 0.368796 0.898496
O O1 0.218054 0.418804 0.326688
O O2 0.166744 0.095733 0.242548
O O3 0.187162 0.395328 0.023614
O O4 0.256466 0.126361 0.112848
O O5 0.082254 0.624452 0.602959
O O6 0.086782 0.946144 0.406624
O O7 0.051046 0.976107 0.733958
O O8 0.998131 0.806697 0.475305
O O9 0.351933 0.165650 0.347395
O O10 0.411867 0.828793 0.330455
O O11 0.333372 0.883611 0.117196
O O12 0.232206 0.749872 0.053475
O O13 0.140000 0.724722 0.176962
O O14 0.586090 0.473717 0.061468
#
# Coordination Sequence:
#
# PCOD9346705 Si02
#       7
#     4   4   4   4   4   4   4
#     4  11  24  42  69 104 144 192 242 292 363 434
#     4  12  27  48  76 106 143 192 247 303 370 436
#     4  12  26  47  74 106 145 193 243 303 367 441
#     4  11  24  42  70 105 147 188 241 294 357 440
#     4  11  25  43  67 106 144 196 240 298 361 437
#     4  11  24  46  73 105 148 189 234 305 365 428
#     4  12  26  48  77 106 145 190 249 303 369 436
#
# _framework density 21.429342999999999
#
# number of rings (size 3 to 8) (size 9 to 14) (size 15 to 20)
#    0.000    0.571    5.714    1.714    2.000    4.571 
#    2.571    0.000    0.000    0.000    0.000    0.000 
#    0.000    0.000    0.000    0.000    0.000    0.000 
#
# Total GULP energy -156380.892489 kJ/mol
# GULP energy per Si atom -5585.031875 kJ/mol
# Density = 2.138057 g / cm^3
# Si number density = 21.429343 Si / 1000 Ang^3
#
#
#
# Elastic Constant Matrix: (Units=GPa)
#
#
# Indices 1 2 3 4 5 6 
#
# 1 138.6648 49.3622 50.1161 0.0000 0.0000 0.0000
# 2 49.3622 74.0209 30.2086 0.0000 0.0000 0.0000
# 3 50.1161 30.2086 113.5281 0.0000 0.0000 0.0000
# 4 0.0000 0.0000 0.0000 33.9494 0.0000 0.0000
# 5 0.0000 0.0000 0.0000 0.0000 43.5205 0.0000
# 6 0.0000 0.0000 0.0000 0.0000 0.0000 20.9812
#
#
#
# Elastic Compliance Matrix: (Units=1/GPa)
#
#
# Indices 1 2 3 4 5 6 
#
# 1 0.010323 -0.005636 -0.003057 0.000000 0.000000 0.000000
# 2 -0.005636 0.018233 -0.002363 0.000000 0.000000 0.000000
# 3 -0.003057 -0.002363 0.010787 0.000000 0.000000 0.000000
# 4 0.000000 0.000000 0.000000 0.029456 0.000000 0.000000
# 5 0.000000 0.000000 0.000000 0.000000 0.022978 0.000000
# 6 0.000000 0.000000 0.000000 0.000000 0.000000 0.047662
#
#
# Mechanical properties :
#
#
# Convention : Reuss Voigt Hill
#
# Bulk Modulus (GPa) = 58.04269 65.06528 61.55398
# Shear Modulus (GPa) = 29.88732 32.79202 31.33967
#
# Velocity S-wave (km/s) = 3.73861 3.91607 3.82837
# Velocity P-wave (km/s) = 6.76614 7.13275 6.95186
#
# Compressibility (1/GPa) = 0.01722870
#
# Stress axis : x y z
#
# Youngs Moduli (GPa) = 96.87063 54.84566 92.70528
#
# Poissons Ratio (x) = 0.30913 0.28342
# Poissons Ratio (y) = 0.54600 0.21910
# Poissons Ratio (z) = 0.29616 0.12962
#
# Static dielectric constant tensor:
#      x y z
#    x 1.775620 0.000000 0.000000 
#    y 0.000000 1.765580 0.000000 
#    z 0.000000 0.000000 1.808040 
# 
# From -- ./inp_files/5165.got.cif
#   From: 2010.05.17/outbox.cif.g08.bks.cpg/sg33_3_cif.got.tgz:5165.got - 2010.06.03 17:15:25.
