data_PCOD9346611
_publ_section_title
;
Structure prediction by ZEFSAII (Michael W. Deem and Ramdas Pophale) SiO2 
 PCOD9346611
Probable space group: P N A 21
;
_chemical_formula_sum "Si O2"
_cell_formula_units_Z 20
_cell_length_a 15.479629
_cell_length_b 11.975814
_cell_length_c 4.936503
_cell_angle_alpha 90.000000
_cell_angle_beta 90.000000
_cell_angle_gamma 90.000000
_cell_volume 915.134641
_symmetry_space_group_name_H-M "P N A 21"
_symmetry_group_IT_number 33
_symmetry_cell_setting 'orthorhombic'
loop_
_space_group_symop_operation_xyz
x,y,z
-x,-y,1/2+z
1/2-x,1/2+y,1/2+z
1/2+x,1/2-y,z
loop_
_atom_site_type_symbol
_atom_site_label
_atom_site_fract_x
_atom_site_fract_y
_atom_site_fract_z
Si Si1 0.175683 0.108634 0.239660
Si Si2 0.990661 0.189422 0.059145
Si Si3 0.960925 0.443661 0.886127
Si Si4 0.285595 0.149984 0.751302
Si Si5 0.113638 0.870842 0.072319
O O1 0.211163 0.114755 0.542936
O O2 0.083530 0.164278 0.183866
O O3 0.165736 0.982219 0.134807
O O4 0.245512 0.166932 0.046098
O O5 0.920063 0.143489 0.269314
O O6 0.979831 0.321311 0.008255
O O7 0.969762 0.131092 0.772757
O O8 0.862669 0.440015 0.779802
O O9 0.020795 0.470579 0.628527
O O10 0.330294 0.262854 0.648309
#
# Coordination Sequence:
#
# PCOD9346611 Si02
#       5
#     4   4   4   4   4
#     4  12  24  41  67  94 123 165 212 263 319 371
#     4  11  23  42  66  93 122 168 219 253 310 389
#     4  11  23  42  66  92 131 175 210 255 318 387
#     4  11  25  41  60  97 128 157 208 266 313 367
#     4  11  23  44  63  88 130 165 203 265 316 372
#
# _framework density 21.854707999999999
#
# number of rings (size 3 to 8) (size 9 to 14) (size 15 to 20)
#    0.000    0.800    0.000    9.600    0.000    4.800 
#    0.000    0.000    0.000    0.000    0.000    0.000 
#    0.000    0.000    0.000    0.000    0.000    0.000 
#
# Total GULP energy -111955.907258 kJ/mol
# GULP energy per Si atom -5597.795363 kJ/mol
# Density = 2.180497 g / cm^3
# Si number density = 21.854708 Si / 1000 Ang^3
#
#
#
# Elastic Constant Matrix: (Units=GPa)
#
#
# Indices 1 2 3 4 5 6 
#
# 1 75.4515 23.5747 7.1475 0.0000 0.0000 0.0000
# 2 23.5747 45.1572 13.4274 0.0000 0.0000 0.0000
# 3 7.1475 13.4274 99.2673 0.0000 0.0000 0.0000
# 4 0.0000 0.0000 0.0000 16.1288 0.0000 0.0000
# 5 0.0000 0.0000 0.0000 0.0000 43.1405 0.0000
# 6 0.0000 0.0000 0.0000 0.0000 0.0000 27.2175
#
#
#
# Elastic Compliance Matrix: (Units=1/GPa)
#
#
# Indices 1 2 3 4 5 6 
#
# 1 0.015837 -0.008261 -0.000023 0.000000 0.000000 0.000000
# 2 -0.008261 0.027382 -0.003109 0.000000 0.000000 0.000000
# 3 -0.000023 -0.003109 0.010496 0.000000 0.000000 0.000000
# 4 0.000000 0.000000 0.000000 0.062001 0.000000 0.000000
# 5 0.000000 0.000000 0.000000 0.000000 0.023180 0.000000
# 6 0.000000 0.000000 0.000000 0.000000 0.000000 0.036741
#
#
# Mechanical properties :
#
#
# Convention : Reuss Voigt Hill
#
# Bulk Modulus (GPa) = 32.33193 34.24168 33.28681
# Shear Modulus (GPa) = 23.95414 29.01246 26.48330
#
# Velocity S-wave (km/s) = 3.31428 3.64746 3.48485
# Velocity P-wave (km/s) = 5.42882 5.78278 5.60859
#
# Compressibility (1/GPa) = 0.03092917
#
# Stress axis : x y z
#
# Youngs Moduli (GPa) = 63.14389 36.52030 95.27436
#
# Poissons Ratio (x) = 0.30169 0.00218
# Poissons Ratio (y) = 0.52163 0.29621
# Poissons Ratio (z) = 0.00144 0.11354
#
# Static dielectric constant tensor:
#      x y z
#    x 1.805680 0.000000 0.000000 
#    y 0.000000 1.786510 0.000000 
#    z 0.000000 0.000000 1.767360 
# 
# From -- ./inp_files/725.got.cif
#   From: 2010.05.17/outbox.cif.g08.bks.cpg/sg33_1_cif.got.tgz:725.got - 2010.06.03 17:15:25.
