data_PCOD9346169
_publ_section_title
;
Structure prediction by ZEFSAII (Michael W. Deem and Ramdas Pophale) SiO2 
 PCOD9346169
Probable space group: P N A 21
;
_chemical_formula_sum "Si O2"
_cell_formula_units_Z 28
_cell_length_a 18.916356
_cell_length_b 8.228794
_cell_length_c 6.749505
_cell_angle_alpha 90.000000
_cell_angle_beta 90.000000
_cell_angle_gamma 90.000000
_cell_volume 1050.619827
_symmetry_space_group_name_H-M "P N A 21"
_symmetry_group_IT_number 33
_symmetry_cell_setting 'orthorhombic'
loop_
_space_group_symop_operation_xyz
x,y,z
-x,-y,1/2+z
1/2-x,1/2+y,1/2+z
1/2+x,1/2-y,z
loop_
_atom_site_type_symbol
_atom_site_label
_atom_site_fract_x
_atom_site_fract_y
_atom_site_fract_z
Si Si1 0.289440 0.252465 0.032570
Si Si2 0.021680 0.348265 0.590214
Si Si3 0.110794 0.458925 0.090697
Si Si4 0.670646 0.078412 0.531644
Si Si5 0.259352 0.123349 0.596549
Si Si6 0.564052 0.352175 0.200993
Si Si7 0.562761 0.651978 0.420169
O O1 0.265144 0.432202 0.107011
O O2 0.374777 0.264751 0.038523
O O3 0.279029 0.065792 0.109459
O O4 0.263556 0.220848 0.806372
O O5 0.100800 0.389390 0.662409
O O6 0.970892 0.501079 0.552351
O O7 0.032320 0.249368 0.386764
O O8 0.977240 0.253135 0.753063
O O9 0.135195 0.476444 0.322574
O O10 0.162521 0.595988 0.005225
O O11 0.115127 0.263834 0.073846
O O12 0.709279 0.248857 0.486389
O O13 0.599334 0.505887 0.300615
O O14 0.498209 0.406441 0.067913
#
# Coordination Sequence:
#
# PCOD9346169 Si02
#       7
#     4   4   4   4   4   4   4
#     4  11  25  49  69 103 155 199 262 324 382 468
#     4  11  22  47  73 109 149 197 249 316 392 455
#     4  10  23  47  69 102 153 196 251 321 380 464
#     4  10  23  45  75 107 151 201 256 317 384 471
#     4  11  25  47  71 103 151 205 254 322 387 465
#     4  11  25  41  75 114 147 193 250 318 390 464
#     4  12  23  46  72 110 154 189 252 324 377 459
#
# _framework density 26.650932999999998
#
# number of rings (size 3 to 8) (size 9 to 14) (size 15 to 20)
#    0.000    1.143    4.286    2.571    2.000    4.571 
#    7.714    1.429    0.000    0.000    0.000    0.000 
#    0.000    0.000    0.000    0.000    0.000    0.000 
#
# Total GULP energy -156279.199815 kJ/mol
# GULP energy per Si atom -5581.399993 kJ/mol
# Density = 2.659027 g / cm^3
# Si number density = 26.650933 Si / 1000 Ang^3
#
#
#
# Elastic Constant Matrix: (Units=GPa)
#
#
# Indices 1 2 3 4 5 6 
#
# 1 98.4192 53.5663 -1.3886 0.0000 0.0000 0.0000
# 2 53.5663 188.7509 13.0259 0.0000 0.0000 0.0000
# 3 -1.3886 13.0259 77.5860 0.0000 0.0000 0.0000
# 4 0.0000 0.0000 0.0000 50.0975 0.0000 0.0000
# 5 0.0000 0.0000 0.0000 0.0000 35.0967 0.0000
# 6 0.0000 0.0000 0.0000 0.0000 0.0000 51.3317
#
#
#
# Elastic Compliance Matrix: (Units=1/GPa)
#
#
# Indices 1 2 3 4 5 6 
#
# 1 0.012066 -0.003479 0.000800 0.000000 0.000000 0.000000
# 2 -0.003479 0.006363 -0.001131 0.000000 0.000000 0.000000
# 3 0.000800 -0.001131 0.013093 0.000000 0.000000 0.000000
# 4 0.000000 0.000000 0.000000 0.019961 0.000000 0.000000
# 5 0.000000 0.000000 0.000000 0.000000 0.028493 0.000000
# 6 0.000000 0.000000 0.000000 0.000000 0.000000 0.019481
#
#
# Mechanical properties :
#
#
# Convention : Reuss Voigt Hill
#
# Bulk Modulus (GPa) = 41.83695 55.01815 48.42755
# Shear Modulus (GPa) = 43.46157 47.27537 45.36847
#
# Velocity S-wave (km/s) = 4.04266 4.21631 4.13040
# Velocity P-wave (km/s) = 6.12560 6.66272 6.39980
#
# Compressibility (1/GPa) = 0.02390232
#
# Stress axis : x y z
#
# Youngs Moduli (GPa) = 82.88028 157.14794 76.37634
#
# Poissons Ratio (x) = 0.54677 -0.06111
# Poissons Ratio (y) = 0.28837 0.08635
# Poissons Ratio (z) = -0.06631 0.17768
#
# Static dielectric constant tensor:
#      x y z
#    x 2.180470 0.000000 0.000000 
#    y 0.000000 2.191120 0.000000 
#    z 0.000000 0.000000 2.240780 
# 
# From -- ./inp_files/4765.got.cif
#   From: 2010.05.17/outbox.cif.g08.bks.cpg/sg33_3_cif.got.tgz:4765.got - 2010.06.03 17:15:25.
