data_PCOD9346228
_publ_section_title
;
Structure prediction by ZEFSAII (Michael W. Deem and Ramdas Pophale) SiO2 
 PCOD9346228
Probable space group: P N A 21
;
_chemical_formula_sum "Si O2"
_cell_formula_units_Z 28
_cell_length_a 8.993832
_cell_length_b 16.915304
_cell_length_c 7.517038
_cell_angle_alpha 90.000000
_cell_angle_beta 90.000000
_cell_angle_gamma 90.000000
_cell_volume 1143.592567
_symmetry_space_group_name_H-M "P N A 21"
_symmetry_group_IT_number 33
_symmetry_cell_setting 'orthorhombic'
loop_
_space_group_symop_operation_xyz
x,y,z
-x,-y,1/2+z
1/2-x,1/2+y,1/2+z
1/2+x,1/2-y,z
loop_
_atom_site_type_symbol
_atom_site_label
_atom_site_fract_x
_atom_site_fract_y
_atom_site_fract_z
Si Si1 0.512262 0.909589 0.088470
Si Si2 0.744543 0.472448 0.113088
Si Si3 0.322691 0.635655 0.143577
Si Si4 0.181423 0.675138 0.799802
Si Si5 0.475306 0.459341 0.885103
Si Si6 0.635411 0.680042 0.589004
Si Si7 0.399798 0.779643 0.362918
O O1 0.681001 0.922715 0.157405
O O2 0.450103 0.842611 0.218636
O O3 0.398447 0.981354 0.089155
O O4 0.545197 0.869853 0.896772
O O5 0.774708 0.378075 0.129154
O O6 0.663810 0.495256 0.300898
O O7 0.627899 0.496015 0.959521
O O8 0.468403 0.595192 0.221127
O O9 0.303444 0.713452 0.261704
O O10 0.315527 0.666333 0.941612
O O11 0.146403 0.766235 0.763535
O O12 0.427090 0.407298 0.057327
O O13 0.529721 0.733697 0.463688
O O14 0.799297 0.678360 0.508449
#
# Coordination Sequence:
#
# PCOD9346228 Si02
#       7
#     4   4   4   4   4   4   4
#     4  10  24  41  68  97 136 193 235 291 368 437
#     4  12  25  46  70 105 142 195 239 310 364 450
#     4   9  22  43  69  97 140 184 232 307 352 445
#     4  10  24  43  69 104 137 182 245 299 357 436
#     4  11  25  45  73 103 146 190 246 301 380 430
#     4  11  22  43  68  99 138 184 236 299 357 435
#     4  11  20  41  69  95 133 184 235 291 364 423
#
# _framework density 24.484244
#
# number of rings (size 3 to 8) (size 9 to 14) (size 15 to 20)
#    0.857    0.571    2.857    2.571    2.000    2.286 
#    5.143    0.000    0.000    0.000    0.000    0.000 
#    0.000    0.000    0.000    0.000    0.000    0.000 
#
# Total GULP energy -156306.297052 kJ/mol
# GULP energy per Si atom -5582.367752 kJ/mol
# Density = 2.442852 g / cm^3
# Si number density = 24.484244 Si / 1000 Ang^3
#
#
#
# Elastic Constant Matrix: (Units=GPa)
#
#
# Indices 1 2 3 4 5 6 
#
# 1 60.4814 17.9561 13.2946 0.0000 0.0000 0.0000
# 2 17.9561 48.9996 18.3597 0.0000 0.0000 0.0000
# 3 13.2946 18.3597 72.0025 0.0000 0.0000 0.0000
# 4 0.0000 0.0000 0.0000 36.0001 0.0000 0.0000
# 5 0.0000 0.0000 0.0000 0.0000 50.6877 0.0000
# 6 0.0000 0.0000 0.0000 0.0000 0.0000 38.2555
#
#
#
# Elastic Compliance Matrix: (Units=1/GPa)
#
#
# Indices 1 2 3 4 5 6 
#
# 1 0.018783 -0.006173 -0.001894 0.000000 0.000000 0.000000
# 2 -0.006173 0.024593 -0.005131 0.000000 0.000000 0.000000
# 3 -0.001894 -0.005131 0.015546 0.000000 0.000000 0.000000
# 4 0.000000 0.000000 0.000000 0.027778 0.000000 0.000000
# 5 0.000000 0.000000 0.000000 0.000000 0.019729 0.000000
# 6 0.000000 0.000000 0.000000 0.000000 0.000000 0.026140
#
#
# Mechanical properties :
#
#
# Convention : Reuss Voigt Hill
#
# Bulk Modulus (GPa) = 30.74489 31.18937 30.96713
# Shear Modulus (GPa) = 29.44500 33.78020 31.61260
#
# Velocity S-wave (km/s) = 3.47163 3.71842 3.59714
# Velocity P-wave (km/s) = 5.35293 5.58585 5.47063
#
# Compressibility (1/GPa) = 0.03252573
#
# Stress axis : x y z
#
# Youngs Moduli (GPa) = 53.23925 40.66169 64.32334
#
# Poissons Ratio (x) = 0.25102 0.12183
# Poissons Ratio (y) = 0.32867 0.33005
# Poissons Ratio (z) = 0.10083 0.20864
#
# Static dielectric constant tensor:
#      x y z
#    x 1.955330 0.000000 0.000000 
#    y 0.000000 1.972930 0.000000 
#    z 0.000000 0.000000 1.991500 
# 
# From -- ./inp_files/3340.got.cif
#   From: 2010.05.17/outbox.cif.g08.bks.cpg/sg33_2_cif.got.tgz:3340.got - 2010.06.03 17:15:25.
