data_PCOD9346501
_publ_section_title
;
Structure prediction by ZEFSAII (Michael W. Deem and Ramdas Pophale) SiO2 
 PCOD9346501
Probable space group: P N A 21
;
_chemical_formula_sum "Si O2"
_cell_formula_units_Z 32
_cell_length_a 19.430622
_cell_length_b 5.710825
_cell_length_c 12.125614
_cell_angle_alpha 90.000000
_cell_angle_beta 90.000000
_cell_angle_gamma 90.000000
_cell_volume 1345.517325
_symmetry_space_group_name_H-M "P N A 21"
_symmetry_group_IT_number 33
_symmetry_cell_setting 'orthorhombic'
loop_
_space_group_symop_operation_xyz
x,y,z
-x,-y,1/2+z
1/2-x,1/2+y,1/2+z
1/2+x,1/2-y,z
loop_
_atom_site_type_symbol
_atom_site_label
_atom_site_fract_x
_atom_site_fract_y
_atom_site_fract_z
Si Si1 0.576106 0.258447 0.386400
Si Si2 0.481994 0.457371 0.571982
Si Si3 0.809015 0.427010 0.987621
Si Si4 0.657410 0.616398 0.939147
Si Si5 0.183204 0.551919 0.111409
Si Si6 0.818755 0.059071 0.795373
Si Si7 0.965344 0.555015 0.682589
Si Si8 0.301405 0.260955 0.211532
O O1 0.538127 0.398968 0.479852
O O2 0.641638 0.121947 0.434770
O O3 0.607082 0.441649 0.299962
O O4 0.528813 0.083922 0.314904
O O5 0.409419 0.471982 0.504540
O O6 0.497636 0.710798 0.627098
O O7 0.482630 0.210133 0.642280
O O8 0.728242 0.491721 0.976701
O O9 0.815303 0.205084 0.907560
O O10 0.832786 0.395132 0.114309
O O11 0.653056 0.619679 0.806288
O O12 0.668828 0.878626 0.986413
O O13 0.184757 0.778096 0.189438
O O14 0.115995 0.421146 0.153668
O O15 0.255403 0.434982 0.137619
O O16 0.756147 0.881208 0.779987
#
# Coordination Sequence:
#
# PCOD9346501 Si02
#       8
#     4   4   4   4   4   4   4   4
#     4  12  26  47  70 107 144 196 242 305 373 448
#     4  11  29  45  74 105 145 194 255 295 367 444
#     4  12  25  40  74 103 142 180 251 297 374 438
#     4  11  22  45  62 105 137 189 234 311 356 430
#     4  11  21  40  72  99 136 190 244 287 364 450
#     4  12  21  42  74 104 141 191 237 300 363 445
#     4  11  23  48  74 100 138 197 246 295 358 447
#     4  12  23  39  68 107 141 177 237 312 367 420
#
# _framework density 23.782675000000001
#
# number of rings (size 3 to 8) (size 9 to 14) (size 15 to 20)
#    0.000    0.500    6.250    3.000    1.750    2.000 
#    0.000    1.250    0.000    0.000    0.000    0.000 
#    0.000    0.000    0.000    0.000    0.000    0.000 
#
# Total GULP energy -178780.248962 kJ/mol
# GULP energy per Si atom -5586.882780 kJ/mol
# Density = 2.372854 g / cm^3
# Si number density = 23.782675 Si / 1000 Ang^3
#
#
#
# Elastic Constant Matrix: (Units=GPa)
#
#
# Indices 1 2 3 4 5 6 
#
# 1 30.8344 13.9687 -6.9787 0.0000 0.0000 0.0000
# 2 13.9687 67.6229 4.6740 0.0000 0.0000 0.0000
# 3 -6.9787 4.6740 85.4728 0.0000 0.0000 0.0000
# 4 0.0000 0.0000 0.0000 37.1012 0.0000 0.0000
# 5 0.0000 0.0000 0.0000 0.0000 30.4101 0.0000
# 6 0.0000 0.0000 0.0000 0.0000 0.0000 20.0429
#
#
#
# Elastic Compliance Matrix: (Units=1/GPa)
#
#
# Indices 1 2 3 4 5 6 
#
# 1 0.036754 -0.007829 0.003429 0.000000 0.000000 0.000000
# 2 -0.007829 0.016512 -0.001542 0.000000 0.000000 0.000000
# 3 0.003429 -0.001542 0.012064 0.000000 0.000000 0.000000
# 4 0.000000 0.000000 0.000000 0.026953 0.000000 0.000000
# 5 0.000000 0.000000 0.000000 0.000000 0.032884 0.000000
# 6 0.000000 0.000000 0.000000 0.000000 0.000000 0.049893
#
#
# Mechanical properties :
#
#
# Convention : Reuss Voigt Hill
#
# Bulk Modulus (GPa) = 18.71078 23.02869 20.86974
# Shear Modulus (GPa) = 24.41885 28.99524 26.70704
#
# Velocity S-wave (km/s) = 3.20777 3.49546 3.35470
# Velocity P-wave (km/s) = 4.64803 5.09852 4.87848
#
# Compressibility (1/GPa) = 0.05344513
#
# Stress axis : x y z
#
# Youngs Moduli (GPa) = 27.20775 60.56284 82.89166
#
# Poissons Ratio (x) = 0.47416 -0.28424
# Poissons Ratio (y) = 0.21302 0.12783
# Poissons Ratio (z) = -0.09330 0.09340
#
# Static dielectric constant tensor:
#      x y z
#    x 1.926800 0.000000 0.000000 
#    y 0.000000 1.984450 0.000000 
#    z 0.000000 0.000000 1.974980 
# 
# From -- ./inp_files/7307.got.cif
#   From: 2010.05.17/outbox.cif.g08.bks.cpg/sg33_4_cif.got.tgz:7307.got - 2010.06.03 17:15:25.
