data_PCOD9346841
_publ_section_title
;
Structure prediction by ZEFSAII (Michael W. Deem and Ramdas Pophale) SiO2 
 PCOD9346841
Probable space group: P N A 21
;
_chemical_formula_sum "Si O2"
_cell_formula_units_Z 24
_cell_length_a 17.299136
_cell_length_b 6.537044
_cell_length_c 7.860807
_cell_angle_alpha 90.000000
_cell_angle_beta 90.000000
_cell_angle_gamma 90.000000
_cell_volume 888.941035
_symmetry_space_group_name_H-M "P N A 21"
_symmetry_group_IT_number 33
_symmetry_cell_setting 'orthorhombic'
loop_
_space_group_symop_operation_xyz
x,y,z
-x,-y,1/2+z
1/2-x,1/2+y,1/2+z
1/2+x,1/2-y,z
loop_
_atom_site_type_symbol
_atom_site_label
_atom_site_fract_x
_atom_site_fract_y
_atom_site_fract_z
Si Si1 0.967027 0.481049 0.613640
Si Si2 0.664179 0.449305 0.583876
Si Si3 0.035330 0.820325 0.424310
Si Si4 0.401727 0.360886 0.426593
Si Si5 0.198383 0.371965 0.206371
Si Si6 0.243325 0.453009 0.580248
O O1 0.977890 0.296781 0.747070
O O2 0.942722 0.356945 0.443162
O O3 0.892071 0.610112 0.673270
O O4 0.034456 0.634312 0.559640
O O5 0.608322 0.527861 0.436014
O O6 0.630122 0.567705 0.745356
O O7 0.751448 0.524725 0.557857
O O8 0.678026 0.212307 0.630254
O O9 0.963674 0.964754 0.468380
O O10 0.329006 0.360641 0.553004
O O11 0.216133 0.491075 0.383144
O O12 0.237675 0.147494 0.196917
#
# Coordination Sequence:
#
# PCOD9346841 Si02
#       6
#     4   4   4   4   4   4
#     4  12  26  48  77 117 162 207 263 331 413 486
#     4  11  26  46  73 113 145 208 265 325 398 483
#     4  12  27  46  79 114 159 210 266 334 407 484
#     4  11  25  47  73 110 159 206 257 336 402 483
#     4  11  25  46  76 111 155 208 262 337 402 485
#     4  11  25  45  78 107 156 205 271 327 406 487
#
# _framework density 26.998417
#
# number of rings (size 3 to 8) (size 9 to 14) (size 15 to 20)
#    0.000    0.667    3.333    3.000    2.333   12.000 
#    0.000    0.000    0.000    0.000    0.000    0.000 
#    0.000    0.000    0.000    0.000    0.000    0.000 
#
# Total GULP energy -134204.062273 kJ/mol
# GULP energy per Si atom -5591.835928 kJ/mol
# Density = 2.693697 g / cm^3
# Si number density = 26.998417 Si / 1000 Ang^3
#
#
#
# Elastic Constant Matrix: (Units=GPa)
#
#
# Indices 1 2 3 4 5 6 
#
# 1 89.6687 59.6923 12.1658 0.0000 0.0000 0.0000
# 2 59.6923 141.8128 46.0177 0.0000 0.0000 0.0000
# 3 12.1658 46.0177 92.5794 0.0000 0.0000 0.0000
# 4 0.0000 0.0000 0.0000 42.2242 0.0000 0.0000
# 5 0.0000 0.0000 0.0000 0.0000 31.8400 0.0000
# 6 0.0000 0.0000 0.0000 0.0000 0.0000 67.2845
#
#
#
# Elastic Compliance Matrix: (Units=1/GPa)
#
#
# Indices 1 2 3 4 5 6 
#
# 1 0.015656 -0.007061 0.001453 0.000000 0.000000 0.000000
# 2 -0.007061 0.011592 -0.004834 0.000000 0.000000 0.000000
# 3 0.001453 -0.004834 0.013014 0.000000 0.000000 0.000000
# 4 0.000000 0.000000 0.000000 0.023683 0.000000 0.000000
# 5 0.000000 0.000000 0.000000 0.000000 0.031407 0.000000
# 6 0.000000 0.000000 0.000000 0.000000 0.000000 0.014862
#
#
# Mechanical properties :
#
#
# Convention : Reuss Voigt Hill
#
# Bulk Modulus (GPa) = 51.61041 62.20140 56.90591
# Shear Modulus (GPa) = 36.34812 42.01540 39.18176
#
# Velocity S-wave (km/s) = 3.67318 3.94917 3.81368
# Velocity P-wave (km/s) = 6.09486 6.62446 6.36517
#
# Compressibility (1/GPa) = 0.01937594
#
# Stress axis : x y z
#
# Youngs Moduli (GPa) = 63.87445 86.26287 76.84268
#
# Poissons Ratio (x) = 0.60912 -0.11162
# Poissons Ratio (y) = 0.45103 0.37148
# Poissons Ratio (z) = -0.09278 0.41702
#
# Static dielectric constant tensor:
#      x y z
#    x 2.099980 0.000000 0.000000 
#    y 0.000000 2.147570 0.000000 
#    z 0.000000 0.000000 2.185780 
# 
# From -- ./inp_files/4626.got.cif
#   From: 2010.05.17/outbox.cif.g08.bks.cpg/sg33_3_cif.got.tgz:4626.got - 2010.06.03 17:15:25.
