data_PCOD9346963
_publ_section_title
;
Structure prediction by ZEFSAII (Michael W. Deem and Ramdas Pophale) SiO2 
 PCOD9346963
Probable space group: P N A 21
;
_chemical_formula_sum "Si O2"
_cell_formula_units_Z 24
_cell_length_a 9.138427
_cell_length_b 11.785475
_cell_length_c 9.393198
_cell_angle_alpha 90.000000
_cell_angle_beta 90.000000
_cell_angle_gamma 90.000000
_cell_volume 1011.654028
_symmetry_space_group_name_H-M "P N A 21"
_symmetry_group_IT_number 33
_symmetry_cell_setting 'orthorhombic'
loop_
_space_group_symop_operation_xyz
x,y,z
-x,-y,1/2+z
1/2-x,1/2+y,1/2+z
1/2+x,1/2-y,z
loop_
_atom_site_type_symbol
_atom_site_label
_atom_site_fract_x
_atom_site_fract_y
_atom_site_fract_z
Si Si1 0.595526 0.395005 0.856330
Si Si2 0.619063 0.006388 0.028872
Si Si3 0.039242 0.742394 0.921506
Si Si4 0.118259 0.699930 0.452112
Si Si5 0.709604 0.189464 0.226103
Si Si6 0.441032 0.539553 0.055307
O O1 0.754013 0.340658 0.848204
O O2 0.476682 0.297696 0.880488
O O3 0.563282 0.473936 0.723149
O O4 0.577497 0.471739 0.995095
O O5 0.656783 0.063111 0.182292
O O6 0.790066 0.998664 0.977185
O O7 0.497597 0.097616 0.977680
O O8 0.559264 0.881357 0.992443
O O9 0.190485 0.794243 0.864388
O O10 0.941193 0.744094 0.778274
O O11 0.963986 0.827908 0.029820
O O12 0.207964 0.750038 0.591436
#
# Coordination Sequence:
#
# PCOD9346963 Si02
#       6
#     4   4   4   4   4   4
#     4  12  28  49  79 112 159 206 264 327 405 472
#     4  12  27  47  77 116 153 210 268 324 402 479
#     4  12  28  48  79 114 159 212 271 332 404 491
#     4  12  26  48  80 114 156 208 261 332 398 489
#     4  12  24  52  76 114 159 209 267 331 413 475
#     4  12  29  50  75 114 160 207 267 334 400 482
#
# _framework density 23.723524999999999
#
# number of rings (size 3 to 8) (size 9 to 14) (size 15 to 20)
#    0.000    0.000    6.667    1.000    9.333    0.000 
#    0.000    0.000    0.000    0.000    0.000    0.000 
#    0.000    0.000    0.000    0.000    0.000    0.000 
#
# Total GULP energy -133920.263466 kJ/mol
# GULP energy per Si atom -5580.010978 kJ/mol
# Density = 2.366953 g / cm^3
# Si number density = 23.723525 Si / 1000 Ang^3
#
#
#
# Elastic Constant Matrix: (Units=GPa)
#
#
# Indices 1 2 3 4 5 6 
#
# 1 113.3146 47.9469 13.3691 0.0000 0.0000 0.0000
# 2 47.9469 133.3615 29.9053 0.0000 0.0000 0.0000
# 3 13.3691 29.9053 68.0158 0.0000 0.0000 0.0000
# 4 0.0000 0.0000 0.0000 35.2995 0.0000 0.0000
# 5 0.0000 0.0000 0.0000 0.0000 32.0956 0.0000
# 6 0.0000 0.0000 0.0000 0.0000 0.0000 49.9989
#
#
#
# Elastic Compliance Matrix: (Units=1/GPa)
#
#
# Indices 1 2 3 4 5 6 
#
# 1 0.010420 -0.003647 -0.000445 0.000000 0.000000 0.000000
# 2 -0.003647 0.009595 -0.003502 0.000000 0.000000 0.000000
# 3 -0.000445 -0.003502 0.016330 0.000000 0.000000 0.000000
# 4 0.000000 0.000000 0.000000 0.028329 0.000000 0.000000
# 5 0.000000 0.000000 0.000000 0.000000 0.031157 0.000000
# 6 0.000000 0.000000 0.000000 0.000000 0.000000 0.020000
#
#
# Mechanical properties :
#
#
# Convention : Reuss Voigt Hill
#
# Bulk Modulus (GPa) = 47.26328 55.23717 51.25022
# Shear Modulus (GPa) = 36.21333 38.37684 37.29508
#
# Velocity S-wave (km/s) = 3.91125 4.02639 3.96924
# Velocity P-wave (km/s) = 6.35318 6.70448 6.53119
#
# Compressibility (1/GPa) = 0.02115807
#
# Stress axis : x y z
#
# Youngs Moduli (GPa) = 95.96471 104.22361 61.23843
#
# Poissons Ratio (x) = 0.38007 0.02724
# Poissons Ratio (y) = 0.34995 0.21445
# Poissons Ratio (z) = 0.04269 0.36498
#
# Static dielectric constant tensor:
#      x y z
#    x 1.925770 0.000000 0.000000 
#    y 0.000000 1.927030 0.000000 
#    z 0.000000 0.000000 1.914220 
# 
# From -- ./inp_files/3058.got.cif
#   From: 2010.05.17/outbox.cif.g08.bks.cpg/sg33_2_cif.got.tgz:3058.got - 2010.06.03 17:15:25.
