data_PCOD9346464
_publ_section_title
;
Structure prediction by ZEFSAII (Michael W. Deem and Ramdas Pophale) SiO2 
 PCOD9346464
Probable space group: P N A 21
;
_chemical_formula_sum "Si O2"
_cell_formula_units_Z 28
_cell_length_a 18.811325
_cell_length_b 11.047719
_cell_length_c 4.811652
_cell_angle_alpha 90.000000
_cell_angle_beta 90.000000
_cell_angle_gamma 90.000000
_cell_volume 999.968261
_symmetry_space_group_name_H-M "P N A 21"
_symmetry_group_IT_number 33
_symmetry_cell_setting 'orthorhombic'
loop_
_space_group_symop_operation_xyz
x,y,z
-x,-y,1/2+z
1/2-x,1/2+y,1/2+z
1/2+x,1/2-y,z
loop_
_atom_site_type_symbol
_atom_site_label
_atom_site_fract_x
_atom_site_fract_y
_atom_site_fract_z
Si Si1 0.738250 0.408337 0.351950
Si Si2 0.224032 0.459179 0.330430
Si Si3 0.615300 0.260080 0.196634
Si Si4 0.507922 0.922074 0.539005
Si Si5 0.973152 0.923217 0.322789
Si Si6 0.582552 0.764075 0.124900
Si Si7 0.666875 0.707378 0.607698
O O1 0.782889 0.423089 0.633789
O O2 0.658102 0.358004 0.389435
O O3 0.770627 0.301508 0.161819
O O4 0.763211 0.519549 0.154956
O O5 0.165195 0.359665 0.251743
O O6 0.300757 0.416558 0.214611
O O7 0.541271 0.183120 0.168802
O O8 0.596710 0.359506 0.952123
O O9 0.569063 0.878392 0.325603
O O10 0.465285 0.000325 0.302685
O O11 0.011608 0.813395 0.165184
O O12 0.980204 0.028493 0.088777
O O13 0.641872 0.692053 0.297107
O O14 0.605793 0.758721 0.809531
#
# Coordination Sequence:
#
# PCOD9346464 Si02
#       7
#     4   4   4   4   4   4   4
#     4  11  26  45  74 107 141 197 232 299 378 412
#     4  11  26  45  74 107 141 197 232 299 378 412
#     4  10  28  50  72 110 154 180 260 302 342 470
#     4  11  26  45  74 107 141 197 232 299 378 412
#     4  11  26  45  74 107 141 197 232 299 378 412
#     4  11  24  43  68 105 141 179 243 295 350 447
#     4  11  24  43  68 105 141 179 243 295 350 447
#
# _framework density 28.000889000000001
#
# number of rings (size 3 to 8) (size 9 to 14) (size 15 to 20)
#    0.000    1.143    0.000    3.429   12.000    9.143 
#    0.000    0.000    0.000    0.000    0.000    0.000 
#    0.000    0.000    0.000    0.000    0.000    0.000 
#
# Total GULP energy -155994.310676 kJ/mol
# GULP energy per Si atom -5571.225381 kJ/mol
# Density = 2.793716 g / cm^3
# Si number density = 28.000889 Si / 1000 Ang^3
#
#
#
# Elastic Constant Matrix: (Units=GPa)
#
#
# Indices 1 2 3 4 5 6 
#
# 1 88.6739 25.2987 25.3495 0.0000 0.0000 0.0000
# 2 25.2987 72.0014 48.1733 0.0000 0.0000 0.0000
# 3 25.3495 48.1733 159.1695 0.0000 0.0000 0.0000
# 4 0.0000 0.0000 0.0000 38.7030 0.0000 0.0000
# 5 0.0000 0.0000 0.0000 0.0000 22.3689 0.0000
# 6 0.0000 0.0000 0.0000 0.0000 0.0000 34.9594
#
#
#
# Elastic Compliance Matrix: (Units=1/GPa)
#
#
# Indices 1 2 3 4 5 6 
#
# 1 0.012622 -0.003875 -0.000838 0.000000 0.000000 0.000000
# 2 -0.003875 0.018604 -0.005014 0.000000 0.000000 0.000000
# 3 -0.000838 -0.005014 0.007933 0.000000 0.000000 0.000000
# 4 0.000000 0.000000 0.000000 0.025838 0.000000 0.000000
# 5 0.000000 0.000000 0.000000 0.000000 0.044705 0.000000
# 6 0.000000 0.000000 0.000000 0.000000 0.000000 0.028605
#
#
# Mechanical properties :
#
#
# Convention : Reuss Voigt Hill
#
# Bulk Modulus (GPa) = 50.73975 57.49865 54.11920
# Shear Modulus (GPa) = 30.42689 33.94116 32.18402
#
# Velocity S-wave (km/s) = 3.30000 3.48537 3.39395
# Velocity P-wave (km/s) = 5.71665 6.06434 5.89306
#
# Compressibility (1/GPa) = 0.01970841
#
# Stress axis : x y z
#
# Youngs Moduli (GPa) = 79.22593 53.75057 126.04931
#
# Poissons Ratio (x) = 0.20826 0.10557
# Poissons Ratio (y) = 0.30697 0.63197
# Poissons Ratio (z) = 0.06636 0.26949
#
# Static dielectric constant tensor:
#      x y z
#    x 2.345640 0.000000 0.000000 
#    y 0.000000 2.447140 0.000000 
#    z 0.000000 0.000000 2.143030 
# 
# From -- ./inp_files/1740.got.cif
#   From: 2010.05.17/outbox.cif.g08.bks.cpg/sg33_1_cif.got.tgz:1740.got - 2010.06.03 17:15:25.
