data_PCOD9346007
_publ_section_title
;
Structure prediction by ZEFSAII (Michael W. Deem and Ramdas Pophale) SiO2 
 PCOD9346007
Probable space group: P N A 21
;
_chemical_formula_sum "Si O2"
_cell_formula_units_Z 32
_cell_length_a 9.080399
_cell_length_b 15.757042
_cell_length_c 11.146968
_cell_angle_alpha 90.000000
_cell_angle_beta 90.000000
_cell_angle_gamma 90.000000
_cell_volume 1594.910728
_symmetry_space_group_name_H-M "P N A 21"
_symmetry_group_IT_number 33
_symmetry_cell_setting 'orthorhombic'
loop_
_space_group_symop_operation_xyz
x,y,z
-x,-y,1/2+z
1/2-x,1/2+y,1/2+z
1/2+x,1/2-y,z
loop_
_atom_site_type_symbol
_atom_site_label
_atom_site_fract_x
_atom_site_fract_y
_atom_site_fract_z
Si Si1 0.858492 0.517854 0.512720
Si Si2 0.568840 0.160837 0.825619
Si Si3 0.188387 0.139226 0.422463
Si Si4 0.718811 0.787478 0.455354
Si Si5 0.346034 0.920710 0.085245
Si Si6 0.147114 0.807936 0.917735
Si Si7 0.162499 0.859372 0.643773
Si Si8 0.840261 0.919265 0.649804
O O1 0.876276 0.577252 0.396499
O O2 0.737190 0.445877 0.489492
O O3 0.803409 0.582268 0.615664
O O4 0.012294 0.473074 0.541220
O O5 0.401698 0.175510 0.865275
O O6 0.656863 0.240934 0.878060
O O7 0.599947 0.144238 0.687209
O O8 0.303993 0.213357 0.451746
O O9 0.195776 0.119983 0.279851
O O10 0.021735 0.169488 0.448521
O O11 0.654348 0.714401 0.543704
O O12 0.777256 0.860299 0.543619
O O13 0.231491 0.988800 0.139242
O O14 0.259985 0.871550 0.981626
O O15 0.166721 0.818612 0.774784
O O16 0.016268 0.916333 0.637445
#
# Coordination Sequence:
#
# PCOD9346007 Si02
#       8
#     4   4   4   4   4   4   4   4
#     4  11  24  41  67  93 138 168 231 272 341 400
#     4  11  25  42  65 101 132 180 220 287 340 403
#     4  11  23  43  65  98 132 176 222 279 332 411
#     4  11  21  42  68  97 131 169 230 277 337 408
#     4  12  26  43  65  98 141 179 221 285 350 401
#     4  11  25  41  69  96 137 174 228 273 343 398
#     4  10  23  40  67 101 125 177 222 282 332 402
#     4  11  21  40  68  96 132 169 226 281 333 405
#
# _framework density 20.063818000000001
#
# number of rings (size 3 to 8) (size 9 to 14) (size 15 to 20)
#    0.000    1.000    5.000    1.500    1.750    3.000 
#    0.000    1.250    0.000    0.000    0.000    0.000 
#    0.000    0.000    0.000    0.000    0.000    0.000 
#
# Total GULP energy -178902.301841 kJ/mol
# GULP energy per Si atom -5590.696933 kJ/mol
# Density = 2.001815 g / cm^3
# Si number density = 20.063818 Si / 1000 Ang^3
#
#
#
# Elastic Constant Matrix: (Units=GPa)
#
#
# Indices 1 2 3 4 5 6 
#
# 1 44.2773 6.0665 9.0572 0.0000 0.0000 0.0000
# 2 6.0665 59.4279 0.6228 0.0000 0.0000 0.0000
# 3 9.0572 0.6228 37.1802 0.0000 0.0000 0.0000
# 4 0.0000 0.0000 0.0000 26.6807 0.0000 0.0000
# 5 0.0000 0.0000 0.0000 0.0000 27.1886 0.0000
# 6 0.0000 0.0000 0.0000 0.0000 0.0000 41.4597
#
#
#
# Elastic Compliance Matrix: (Units=1/GPa)
#
#
# Indices 1 2 3 4 5 6 
#
# 1 0.024107 -0.002400 -0.005832 0.000000 0.000000 0.000000
# 2 -0.002400 0.017069 0.000299 0.000000 0.000000 0.000000
# 3 -0.005832 0.000299 0.028312 0.000000 0.000000 0.000000
# 4 0.000000 0.000000 0.000000 0.037480 0.000000 0.000000
# 5 0.000000 0.000000 0.000000 0.000000 0.036780 0.000000
# 6 0.000000 0.000000 0.000000 0.000000 0.000000 0.024120
#
#
# Mechanical properties :
#
#
# Convention : Reuss Voigt Hill
#
# Bulk Modulus (GPa) = 18.64949 19.15316 18.90133
# Shear Modulus (GPa) = 24.80061 27.40840 26.10450
#
# Velocity S-wave (km/s) = 3.51962 3.70004 3.61095
# Velocity P-wave (km/s) = 5.08254 5.27452 5.17942
#
# Compressibility (1/GPa) = 0.05362077
#
# Stress axis : x y z
#
# Youngs Moduli (GPa) = 41.48218 58.58587 35.32095
#
# Poissons Ratio (x) = 0.14059 0.20600
# Poissons Ratio (y) = 0.09955 -0.01055
# Poissons Ratio (z) = 0.24194 -0.01750
#
# Static dielectric constant tensor:
#      x y z
#    x 1.694230 0.000000 0.000000 
#    y 0.000000 1.684900 0.000000 
#    z 0.000000 0.000000 1.681110 
# 
# From -- ./inp_files/5973.got.cif
#   From: 2010.05.17/outbox.cif.g08.bks.cpg/sg33_3_cif.got.tgz:5973.got - 2010.06.03 17:15:25.
