data_PCOD9346582
_publ_section_title
;
Structure prediction by ZEFSAII (Michael W. Deem and Ramdas Pophale) SiO2 
 PCOD9346582
Probable space group: P N A 21
;
_chemical_formula_sum "Si O2"
_cell_formula_units_Z 28
_cell_length_a 11.825003
_cell_length_b 9.341216
_cell_length_c 11.173875
_cell_angle_alpha 90.000000
_cell_angle_beta 90.000000
_cell_angle_gamma 90.000000
_cell_volume 1234.265196
_symmetry_space_group_name_H-M "P N A 21"
_symmetry_group_IT_number 33
_symmetry_cell_setting 'orthorhombic'
loop_
_space_group_symop_operation_xyz
x,y,z
-x,-y,1/2+z
1/2-x,1/2+y,1/2+z
1/2+x,1/2-y,z
loop_
_atom_site_type_symbol
_atom_site_label
_atom_site_fract_x
_atom_site_fract_y
_atom_site_fract_z
Si Si1 0.091270 0.265858 0.621380
Si Si2 0.455883 0.013856 0.726210
Si Si3 0.183060 0.515949 0.459048
Si Si4 0.791489 0.413493 0.520906
Si Si5 0.552558 0.537164 0.994215
Si Si6 0.639535 0.668632 0.549996
Si Si7 0.404249 0.258265 0.303514
O O1 0.114865 0.387917 0.522040
O O2 0.206293 0.174545 0.608618
O O3 0.049478 0.358302 0.734624
O O4 0.991449 0.154092 0.590070
O O5 0.357541 0.021323 0.823386
O O6 0.398039 0.036776 0.598079
O O7 0.518047 0.864178 0.746414
O O8 0.314618 0.489080 0.485802
O O9 0.153635 0.670491 0.509914
O O10 0.723277 0.556309 0.486875
O O11 0.828777 0.318930 0.406475
O O12 0.484029 0.394304 0.021301
O O13 0.524555 0.617806 0.869513
O O14 0.660889 0.670353 0.693021
#
# Coordination Sequence:
#
# PCOD9346582 Si02
#       7
#     4   4   4   4   4   4   4
#     4  11  22  48  72 107 150 201 247 309 381 456
#     4  12  24  42  81 103 148 197 255 313 380 452
#     4  12  24  45  73 108 150 194 254 315 376 456
#     4  11  26  47  73 111 149 202 253 313 390 450
#     4  11  25  49  70 106 152 193 251 307 381 448
#     4  11  29  45  75 112 150 196 257 315 382 463
#     4  12  24  48  78 107 155 199 249 322 382 449
#
# _framework density 22.685562999999998
#
# number of rings (size 3 to 8) (size 9 to 14) (size 15 to 20)
#    0.000    0.571    5.714    0.857    2.000    4.571 
#    2.571    0.000    0.000    0.000    0.000    0.000 
#    0.000    0.000    0.000    0.000    0.000    0.000 
#
# Total GULP energy -156463.912621 kJ/mol
# GULP energy per Si atom -5587.996879 kJ/mol
# Density = 2.263393 g / cm^3
# Si number density = 22.685563 Si / 1000 Ang^3
#
#
#
# Elastic Constant Matrix: (Units=GPa)
#
#
# Indices 1 2 3 4 5 6 
#
# 1 136.5738 45.5395 55.0232 0.0000 0.0000 0.0000
# 2 45.5395 142.9518 43.8148 0.0000 0.0000 0.0000
# 3 55.0232 43.8148 62.0858 0.0000 0.0000 0.0000
# 4 0.0000 0.0000 0.0000 37.7815 0.0000 0.0000
# 5 0.0000 0.0000 0.0000 0.0000 21.1240 0.0000
# 6 0.0000 0.0000 0.0000 0.0000 0.0000 30.3711
#
#
#
# Elastic Compliance Matrix: (Units=1/GPa)
#
#
# Indices 1 2 3 4 5 6 
#
# 1 0.011441 -0.000685 -0.009656 0.000000 0.000000 0.000000
# 2 -0.000685 0.008967 -0.005721 0.000000 0.000000 0.000000
# 3 -0.009656 -0.005721 0.028702 0.000000 0.000000 0.000000
# 4 0.000000 0.000000 0.000000 0.026468 0.000000 0.000000
# 5 0.000000 0.000000 0.000000 0.000000 0.047340 0.000000
# 6 0.000000 0.000000 0.000000 0.000000 0.000000 0.032926
#
#
# Mechanical properties :
#
#
# Convention : Reuss Voigt Hill
#
# Bulk Modulus (GPa) = 58.87369 70.04071 64.45720
# Shear Modulus (GPa) = 25.82268 31.00426 28.41347
#
# Velocity S-wave (km/s) = 3.37751 3.70090 3.54289
# Velocity P-wave (km/s) = 6.42016 7.01454 6.72392
#
# Compressibility (1/GPa) = 0.01698552
#
# Stress axis : x y z
#
# Youngs Moduli (GPa) = 87.40799 111.51855 34.84138
#
# Poissons Ratio (x) = 0.07640 0.33642
# Poissons Ratio (y) = 0.05988 0.19933
# Poissons Ratio (z) = 0.84399 0.63800
#
# Static dielectric constant tensor:
#      x y z
#    x 1.890820 0.000000 0.000000 
#    y 0.000000 1.838390 0.000000 
#    z 0.000000 0.000000 1.867520 
# 
# From -- ./inp_files/6360.got.cif
#   From: 2010.05.17/outbox.cif.g08.bks.cpg/sg33_4_cif.got.tgz:6360.got - 2010.06.03 17:15:25.
