data_PCOD9346651
_publ_section_title
;
Structure prediction by ZEFSAII (Michael W. Deem and Ramdas Pophale) SiO2 
 PCOD9346651
Probable space group: P N A 21
;
_chemical_formula_sum "Si O2"
_cell_formula_units_Z 24
_cell_length_a 15.688613
_cell_length_b 12.241493
_cell_length_c 5.356588
_cell_angle_alpha 90.000000
_cell_angle_beta 90.000000
_cell_angle_gamma 90.000000
_cell_volume 1028.743686
_symmetry_space_group_name_H-M "P N A 21"
_symmetry_group_IT_number 33
_symmetry_cell_setting 'orthorhombic'
loop_
_space_group_symop_operation_xyz
x,y,z
-x,-y,1/2+z
1/2-x,1/2+y,1/2+z
1/2+x,1/2-y,z
loop_
_atom_site_type_symbol
_atom_site_label
_atom_site_fract_x
_atom_site_fract_y
_atom_site_fract_z
Si Si1 0.367270 0.500661 0.496770
Si Si2 0.115655 0.260476 0.475210
Si Si3 0.677997 0.133017 0.972278
Si Si4 0.735232 0.903181 0.856274
Si Si5 0.990760 0.148620 0.773763
Si Si6 0.644225 0.708278 0.634401
O O1 0.279229 0.543209 0.609838
O O2 0.424398 0.598527 0.392952
O O3 0.425602 0.449162 0.715337
O O4 0.358783 0.402181 0.300109
O O5 0.133104 0.338557 0.711719
O O6 0.186715 0.163949 0.477276
O O7 0.023495 0.207671 0.524978
O O8 0.129335 0.320171 0.212930
O O9 0.696702 0.004961 0.001730
O O10 0.770635 0.191531 0.967748
O O11 0.664345 0.813813 0.797221
O O12 0.938069 0.221529 0.963819
#
# Coordination Sequence:
#
# PCOD9346651 Si02
#       6
#     4   4   4   4   4   4
#     4  12  23  44  71 109 145 187 242 316 366 437
#     4  11  26  43  73 102 146 188 242 300 370 431
#     4  11  24  46  67 107 142 190 238 300 362 445
#     4  11  23  45  72 107 145 191 246 308 367 444
#     4  12  23  41  71 108 145 194 242 315 371 438
#     4  11  25  41  72 107 143 188 248 301 374 437
#
# _framework density 23.329426999999999
#
# number of rings (size 3 to 8) (size 9 to 14) (size 15 to 20)
#    0.000    0.667    3.333    6.000    2.333    2.667 
#    0.000    0.000    3.667    0.000    0.000    0.000 
#    0.000    0.000    0.000    0.000    0.000    0.000 
#
# Total GULP energy -134433.782913 kJ/mol
# GULP energy per Si atom -5601.407621 kJ/mol
# Density = 2.327633 g / cm^3
# Si number density = 23.329427 Si / 1000 Ang^3
#
#
#
# Elastic Constant Matrix: (Units=GPa)
#
#
# Indices 1 2 3 4 5 6 
#
# 1 84.5294 51.6070 53.1813 0.0000 0.0000 0.0000
# 2 51.6070 105.2873 34.7881 0.0000 0.0000 0.0000
# 3 53.1813 34.7881 111.4410 0.0000 0.0000 0.0000
# 4 0.0000 0.0000 0.0000 22.1767 0.0000 0.0000
# 5 0.0000 0.0000 0.0000 0.0000 53.1853 0.0000
# 6 0.0000 0.0000 0.0000 0.0000 0.0000 34.6630
#
#
#
# Elastic Compliance Matrix: (Units=1/GPa)
#
#
# Indices 1 2 3 4 5 6 
#
# 1 0.021657 -0.008029 -0.007829 0.000000 0.000000 0.000000
# 2 -0.008029 0.013566 -0.000404 0.000000 0.000000 0.000000
# 3 -0.007829 -0.000404 0.012835 0.000000 0.000000 0.000000
# 4 0.000000 0.000000 0.000000 0.045092 0.000000 0.000000
# 5 0.000000 0.000000 0.000000 0.000000 0.018802 0.000000
# 6 0.000000 0.000000 0.000000 0.000000 0.000000 0.028849
#
#
# Mechanical properties :
#
#
# Convention : Reuss Voigt Hill
#
# Bulk Modulus (GPa) = 64.36306 64.49006 64.42656
# Shear Modulus (GPa) = 28.01049 32.78377 30.39713
#
# Velocity S-wave (km/s) = 3.46880 3.75274 3.61356
# Velocity P-wave (km/s) = 6.61000 6.81767 6.71464
#
# Compressibility (1/GPa) = 0.01553686
#
# Stress axis : x y z
#
# Youngs Moduli (GPa) = 46.17347 73.71107 77.90935
#
# Poissons Ratio (x) = 0.59181 0.60995
# Poissons Ratio (y) = 0.37071 0.03144
# Poissons Ratio (z) = 0.36149 0.02975
#
# Static dielectric constant tensor:
#      x y z
#    x 1.866320 0.000000 0.000000 
#    y 0.000000 1.873890 0.000000 
#    z 0.000000 0.000000 1.945850 
# 
# From -- ./inp_files/1312.got.cif
#   From: 2010.05.17/outbox.cif.g08.bks.cpg/sg33_1_cif.got.tgz:1312.got - 2010.06.03 17:15:25.
