data_PCOD9346594
_publ_section_title
;
Structure prediction by ZEFSAII (Michael W. Deem and Ramdas Pophale) SiO2 
 PCOD9346594
Probable space group: P N A 21
;
_chemical_formula_sum "Si O2"
_cell_formula_units_Z 16
_cell_length_a 15.253317
_cell_length_b 4.921463
_cell_length_c 7.861444
_cell_angle_alpha 90.000000
_cell_angle_beta 90.000000
_cell_angle_gamma 90.000000
_cell_volume 590.147872
_symmetry_space_group_name_H-M "P N A 21"
_symmetry_group_IT_number 33
_symmetry_cell_setting 'orthorhombic'
loop_
_space_group_symop_operation_xyz
x,y,z
-x,-y,1/2+z
1/2-x,1/2+y,1/2+z
1/2+x,1/2-y,z
loop_
_atom_site_type_symbol
_atom_site_label
_atom_site_fract_x
_atom_site_fract_y
_atom_site_fract_z
Si Si1 0.084099 0.172404 0.078170
Si Si2 0.473993 0.201668 0.377893
Si Si3 0.667210 0.507779 0.635385
Si Si4 0.222823 0.517956 0.453848
O O1 0.060377 0.293638 0.262120
O O2 0.904474 0.154989 0.251955
O O3 0.181612 0.065296 0.042224
O O4 0.023758 0.909082 0.035583
O O5 0.248070 0.464757 0.259766
O O6 0.441233 0.911392 0.444257
O O7 0.671266 0.201718 0.567157
O O8 0.675403 0.695173 0.470382
#
# Coordination Sequence:
#
# PCOD9346594 Si02
#       4
#     4   4   4   4
#     4  11  24  43  65  96 131 169 217 272 326 389
#     4  11  24  43  65  96 131 169 217 272 326 389
#     4  11  23  41  63  92 129 169 214 266 318 383
#     4  11  23  41  63  92 129 169 214 266 318 383
#
# _framework density 27.11185
#
# number of rings (size 3 to 8) (size 9 to 14) (size 15 to 20)
#    0.000    1.000    0.000    9.000    0.000    6.000 
#    0.000    0.000    0.000    0.000    0.000    0.000 
#    0.000    0.000    0.000    0.000    0.000    0.000 
#
# Total GULP energy -89580.707314 kJ/mol
# GULP energy per Si atom -5598.794207 kJ/mol
# Density = 2.705014 g / cm^3
# Si number density = 27.111850 Si / 1000 Ang^3
#
#
#
# Elastic Constant Matrix: (Units=GPa)
#
#
# Indices 1 2 3 4 5 6 
#
# 1 59.5813 30.3389 11.5383 0.0000 0.0000 0.0000
# 2 30.3389 159.7811 15.7681 0.0000 0.0000 0.0000
# 3 11.5383 15.7681 83.5360 0.0000 0.0000 0.0000
# 4 0.0000 0.0000 0.0000 60.4037 0.0000 0.0000
# 5 0.0000 0.0000 0.0000 0.0000 47.9359 0.0000
# 6 0.0000 0.0000 0.0000 0.0000 0.0000 38.9596
#
#
#
# Elastic Compliance Matrix: (Units=1/GPa)
#
#
# Indices 1 2 3 4 5 6 
#
# 1 0.018893 -0.003393 -0.001969 0.000000 0.000000 0.000000
# 2 -0.003393 0.006987 -0.000850 0.000000 0.000000 0.000000
# 3 -0.001969 -0.000850 0.012403 0.000000 0.000000 0.000000
# 4 0.000000 0.000000 0.000000 0.016555 0.000000 0.000000
# 5 0.000000 0.000000 0.000000 0.000000 0.020861 0.000000
# 6 0.000000 0.000000 0.000000 0.000000 0.000000 0.025668
#
#
# Mechanical properties :
#
#
# Convention : Reuss Voigt Hill
#
# Bulk Modulus (GPa) = 38.67216 46.46545 42.56881
# Shear Modulus (GPa) = 40.84603 45.81005 43.32804
#
# Velocity S-wave (km/s) = 3.88567 4.11502 4.00199
# Velocity P-wave (km/s) = 5.86738 6.30503 6.09014
#
# Compressibility (1/GPa) = 0.02585840
#
# Stress axis : x y z
#
# Youngs Moduli (GPa) = 52.93013 143.12866 80.62346
#
# Poissons Ratio (x) = 0.48564 0.15875
# Poissons Ratio (y) = 0.17959 0.06854
# Poissons Ratio (z) = 0.10422 0.12168
#
# Static dielectric constant tensor:
#      x y z
#    x 2.341480 0.000000 0.000000 
#    y 0.000000 2.033680 0.000000 
#    z 0.000000 0.000000 2.096530 
# 
# From -- ./inp_files/6206.got.cif
#   From: 2010.05.17/outbox.cif.g08.bks.cpg/sg33_4_cif.got.tgz:6206.got - 2010.06.03 17:15:25.
