data_PCOD9346585
_publ_section_title
;
Structure prediction by ZEFSAII (Michael W. Deem and Ramdas Pophale) SiO2 
 PCOD9346585
Probable space group: P N A 21
;
_chemical_formula_sum "Si O2"
_cell_formula_units_Z 32
_cell_length_a 10.294238
_cell_length_b 6.662063
_cell_length_c 21.647424
_cell_angle_alpha 90.000000
_cell_angle_beta 90.000000
_cell_angle_gamma 90.000000
_cell_volume 1484.599000
_symmetry_space_group_name_H-M "P N A 21"
_symmetry_group_IT_number 33
_symmetry_cell_setting 'orthorhombic'
loop_
_space_group_symop_operation_xyz
x,y,z
-x,-y,1/2+z
1/2-x,1/2+y,1/2+z
1/2+x,1/2-y,z
loop_
_atom_site_type_symbol
_atom_site_label
_atom_site_fract_x
_atom_site_fract_y
_atom_site_fract_z
Si Si1 0.527423 0.815513 0.449820
Si Si2 0.107843 0.612599 0.862687
Si Si3 0.543049 0.943146 0.722723
Si Si4 0.593141 0.314576 0.638560
Si Si5 0.687459 0.157197 0.512258
Si Si6 0.596904 0.420825 0.062831
Si Si7 0.613641 0.414383 0.402284
Si Si8 0.227714 0.327306 0.164654
O O1 0.475120 0.708181 0.511265
O O2 0.586242 0.649359 0.404459
O O3 0.418588 0.940297 0.413425
O O4 0.633740 0.973981 0.472197
O O5 0.058055 0.546308 0.795981
O O6 0.262119 0.650336 0.861854
O O7 0.017536 0.799039 0.883277
O O8 0.662450 0.807338 0.697441
O O9 0.406725 0.845262 0.702042
O O10 0.552433 0.163411 0.692077
O O11 0.619972 0.179846 0.578220
O O12 0.489691 0.478860 0.615856
O O13 0.718194 0.447685 0.655398
O O14 0.656861 0.350061 0.471482
O O15 0.835057 0.105323 0.527340
O O16 0.697249 0.276546 0.098668
#
# Coordination Sequence:
#
# PCOD9346585 Si02
#       8
#     4   4   4   4   4   4   4   4
#     4  11  24  42  68 104 141 183 228 295 357 425
#     4  11  27  46  72 102 142 190 247 289 356 429
#     4  12  27  48  70 106 144 196 244 299 359 435
#     4  12  25  43  71 106 140 188 232 298 368 427
#     4  11  23  38  65 104 138 172 230 288 357 421
#     4  12  22  43  69 103 141 178 232 293 367 426
#     4  11  24  46  71 102 139 191 236 299 354 418
#     4  12  26  46  72 103 145 188 243 299 362 433
#
# _framework density 21.554639999999999
#
# number of rings (size 3 to 8) (size 9 to 14) (size 15 to 20)
#    0.000    0.500    3.750    4.500    3.500    3.000 
#    0.000    0.000    0.000    0.000    0.000    0.000 
#    0.000    0.000    0.000    0.000    0.000    0.000 
#
# Total GULP energy -179019.208011 kJ/mol
# GULP energy per Si atom -5594.350250 kJ/mol
# Density = 2.150558 g / cm^3
# Si number density = 21.554640 Si / 1000 Ang^3
#
#
#
# Elastic Constant Matrix: (Units=GPa)
#
#
# Indices 1 2 3 4 5 6 
#
# 1 102.7947 39.4613 8.8293 0.0000 0.0000 0.0000
# 2 39.4613 90.9441 24.4128 0.0000 0.0000 0.0000
# 3 8.8293 24.4128 82.0183 0.0000 0.0000 0.0000
# 4 0.0000 0.0000 0.0000 20.6868 0.0000 0.0000
# 5 0.0000 0.0000 0.0000 0.0000 28.5012 0.0000
# 6 0.0000 0.0000 0.0000 0.0000 0.0000 24.8467
#
#
#
# Elastic Compliance Matrix: (Units=1/GPa)
#
#
# Indices 1 2 3 4 5 6 
#
# 1 0.011678 -0.005140 0.000273 0.000000 0.000000 0.000000
# 2 -0.005140 0.014213 -0.003677 0.000000 0.000000 0.000000
# 3 0.000273 -0.003677 0.013258 0.000000 0.000000 0.000000
# 4 0.000000 0.000000 0.000000 0.048340 0.000000 0.000000
# 5 0.000000 0.000000 0.000000 0.000000 0.035086 0.000000
# 6 0.000000 0.000000 0.000000 0.000000 0.000000 0.040247
#
#
# Mechanical properties :
#
#
# Convention : Reuss Voigt Hill
#
# Bulk Modulus (GPa) = 45.33215 46.79597 46.06406
# Shear Modulus (GPa) = 26.70018 28.34385 27.52202
#
# Velocity S-wave (km/s) = 3.52336 3.63020 3.57718
# Velocity P-wave (km/s) = 6.13425 6.27125 6.20313
#
# Compressibility (1/GPa) = 0.02205940
#
# Stress axis : x y z
#
# Youngs Moduli (GPa) = 85.63092 70.35644 75.42869
#
# Poissons Ratio (x) = 0.36166 -0.02059
# Poissons Ratio (y) = 0.44018 0.27737
# Poissons Ratio (z) = -0.02337 0.25872
#
# Static dielectric constant tensor:
#      x y z
#    x 1.824790 0.000000 0.000000 
#    y 0.000000 1.796890 0.000000 
#    z 0.000000 0.000000 1.754680 
# 
# From -- ./inp_files/9104.got.cif
#   From: 2010.05.17/outbox.cif.g08.bks.cpg/sg33_5_cif.got.tgz:9104.got - 2010.06.03 17:15:25.
