data_PCOD9346751
_publ_section_title
;
Structure prediction by ZEFSAII (Michael W. Deem and Ramdas Pophale) SiO2 
 PCOD9346751
Probable space group: P N A 21
;
_chemical_formula_sum "Si O2"
_cell_formula_units_Z 28
_cell_length_a 24.580376
_cell_length_b 6.819761
_cell_length_c 7.775370
_cell_angle_alpha 90.000000
_cell_angle_beta 90.000000
_cell_angle_gamma 90.000000
_cell_volume 1303.403076
_symmetry_space_group_name_H-M "P N A 21"
_symmetry_group_IT_number 33
_symmetry_cell_setting 'orthorhombic'
loop_
_space_group_symop_operation_xyz
x,y,z
-x,-y,1/2+z
1/2-x,1/2+y,1/2+z
1/2+x,1/2-y,z
loop_
_atom_site_type_symbol
_atom_site_label
_atom_site_fract_x
_atom_site_fract_y
_atom_site_fract_z
Si Si1 0.441710 0.162439 0.416390
Si Si2 0.106076 0.981879 0.721529
Si Si3 0.812452 0.807077 0.483823
Si Si4 0.330562 0.107493 0.606248
Si Si5 0.051196 0.367942 0.611205
Si Si6 0.357339 0.126857 0.992128
Si Si7 0.260807 0.871816 0.146511
O O1 0.443911 0.356951 0.299759
O O2 0.381113 0.173950 0.492442
O O3 0.489545 0.156399 0.552639
O O4 0.445286 0.970119 0.297682
O O5 0.142716 0.078000 0.871777
O O6 0.082181 0.161407 0.613169
O O7 0.139441 0.821339 0.609984
O O8 0.832946 0.626058 0.595205
O O9 0.780992 0.951987 0.610540
O O10 0.774918 0.707354 0.335741
O O11 0.340168 0.175946 0.800163
O O12 0.271513 0.192904 0.553517
O O13 0.083977 0.521505 0.492424
O O14 0.316200 0.964041 0.070316
#
# Coordination Sequence:
#
# PCOD9346751 Si02
#       7
#     4   4   4   4   4   4   4
#     4  11  24  45  72 103 140 185 246 292 370 419
#     4  11  24  48  69 102 142 189 231 303 356 433
#     4  12  26  45  72 100 149 184 246 288 366 420
#     4  12  26  45  71 104 141 193 236 301 354 432
#     4  11  24  47  74  99 145 186 234 308 354 429
#     4  11  26  44  69 104 141 183 243 291 367 420
#     4  12  26  42  71 104 142 192 234 297 351 435
#
# _framework density 21.482227000000002
#
# number of rings (size 3 to 8) (size 9 to 14) (size 15 to 20)
#    0.000    0.571    5.714    1.714    4.000    4.571 
#    2.571    0.000    0.000    0.000    0.000    0.000 
#    0.000    0.000    0.000    0.000    0.000    0.000 
#
# Total GULP energy -156380.050703 kJ/mol
# GULP energy per Si atom -5585.001811 kJ/mol
# Density = 2.143333 g / cm^3
# Si number density = 21.482227 Si / 1000 Ang^3
#
#
#
# Elastic Constant Matrix: (Units=GPa)
#
#
# Indices 1 2 3 4 5 6 
#
# 1 60.3945 27.9906 28.8657 0.0000 0.0000 0.0000
# 2 27.9906 126.5356 33.5817 0.0000 0.0000 0.0000
# 3 28.8657 33.5817 65.5675 0.0000 0.0000 0.0000
# 4 0.0000 0.0000 0.0000 28.0962 0.0000 0.0000
# 5 0.0000 0.0000 0.0000 0.0000 20.6344 0.0000
# 6 0.0000 0.0000 0.0000 0.0000 0.0000 21.8376
#
#
#
# Elastic Compliance Matrix: (Units=1/GPa)
#
#
# Indices 1 2 3 4 5 6 
#
# 1 0.021696 -0.002621 -0.008209 0.000000 0.000000 0.000000
# 2 -0.002621 0.009463 -0.003693 0.000000 0.000000 0.000000
# 3 -0.008209 -0.003693 0.020757 0.000000 0.000000 0.000000
# 4 0.000000 0.000000 0.000000 0.035592 0.000000 0.000000
# 5 0.000000 0.000000 0.000000 0.000000 0.048463 0.000000
# 6 0.000000 0.000000 0.000000 0.000000 0.000000 0.045793
#
#
# Mechanical properties :
#
#
# Convention : Reuss Voigt Hill
#
# Bulk Modulus (GPa) = 43.72518 48.15263 45.93890
# Shear Modulus (GPa) = 22.89043 24.91760 23.90401
#
# Velocity S-wave (km/s) = 3.26782 3.40945 3.33939
# Velocity P-wave (km/s) = 5.88528 6.16140 6.02492
#
# Compressibility (1/GPa) = 0.02287012
#
# Stress axis : x y z
#
# Youngs Moduli (GPa) = 46.09139 105.67855 48.17675
#
# Poissons Ratio (x) = 0.27694 0.39550
# Poissons Ratio (y) = 0.12079 0.17791
# Poissons Ratio (z) = 0.37838 0.39025
#
# Static dielectric constant tensor:
#      x y z
#    x 1.796000 0.000000 0.000000 
#    y 0.000000 1.795800 0.000000 
#    z 0.000000 0.000000 1.796280 
# 
# From -- ./inp_files/5269.got.cif
#   From: 2010.05.17/outbox.cif.g08.bks.cpg/sg33_3_cif.got.tgz:5269.got - 2010.06.03 17:15:25.
