data_PCOD9346764
_publ_section_title
;
Structure prediction by ZEFSAII (Michael W. Deem and Ramdas Pophale) SiO2 
 PCOD9346764
Probable space group: P N A 21
;
_chemical_formula_sum "Si O2"
_cell_formula_units_Z 20
_cell_length_a 13.444004
_cell_length_b 4.717483
_cell_length_c 11.639452
_cell_angle_alpha 90.000000
_cell_angle_beta 90.000000
_cell_angle_gamma 90.000000
_cell_volume 738.195699
_symmetry_space_group_name_H-M "P N A 21"
_symmetry_group_IT_number 33
_symmetry_cell_setting 'orthorhombic'
loop_
_space_group_symop_operation_xyz
x,y,z
-x,-y,1/2+z
1/2-x,1/2+y,1/2+z
1/2+x,1/2-y,z
loop_
_atom_site_type_symbol
_atom_site_label
_atom_site_fract_x
_atom_site_fract_y
_atom_site_fract_z
Si Si1 0.707356 0.558601 0.039790
Si Si2 0.344358 0.151970 0.755964
Si Si3 0.848496 0.101016 0.013186
Si Si4 0.984908 0.227187 0.217343
Si Si5 0.877253 0.753256 0.320374
O O1 0.636976 0.688154 0.135459
O O2 0.774908 0.304881 0.084219
O O3 0.646016 0.386879 0.943626
O O4 0.788087 0.802009 0.000330
O O5 0.358489 0.275465 0.884774
O O6 0.408763 0.867928 0.741362
O O7 0.222819 0.160119 0.752844
O O8 0.947923 0.163705 0.087090
O O9 0.970359 0.923921 0.273301
O O10 0.908304 0.432293 0.291136
#
# Coordination Sequence:
#
# PCOD9346764 Si02
#       5
#     4   4   4   4   4
#     4  11  24  46  75  96 150 193 238 304 376 425
#     4  11  26  46  76 105 147 198 242 306 385 431
#     4  11  24  46  71 107 144 186 249 304 358 459
#     4  12  25  46  71 107 144 191 249 305 369 451
#     4  11  25  48  69 105 147 192 246 305 362 448
#
# _framework density 27.093088999999999
#
# number of rings (size 3 to 8) (size 9 to 14) (size 15 to 20)
#    0.000    0.800    4.000    2.400    2.800    6.400 
#    3.600    0.000    0.000    0.000    0.000    0.000 
#    0.000    0.000    0.000    0.000    0.000    0.000 
#
# Total GULP energy -111674.993889 kJ/mol
# GULP energy per Si atom -5583.749694 kJ/mol
# Density = 2.703142 g / cm^3
# Si number density = 27.093089 Si / 1000 Ang^3
#
#
#
# Elastic Constant Matrix: (Units=GPa)
#
#
# Indices 1 2 3 4 5 6 
#
# 1 125.3138 1.1449 24.6196 0.0000 0.0000 0.0000
# 2 1.1449 112.3369 20.1272 0.0000 0.0000 0.0000
# 3 24.6196 20.1272 131.3544 0.0000 0.0000 0.0000
# 4 0.0000 0.0000 0.0000 34.7872 0.0000 0.0000
# 5 0.0000 0.0000 0.0000 0.0000 52.6200 0.0000
# 6 0.0000 0.0000 0.0000 0.0000 0.0000 65.8705
#
#
#
# Elastic Compliance Matrix: (Units=1/GPa)
#
#
# Indices 1 2 3 4 5 6 
#
# 1 0.008289 0.000199 -0.001584 0.000000 0.000000 0.000000
# 2 0.000199 0.009158 -0.001441 0.000000 0.000000 0.000000
# 3 -0.001584 -0.001441 0.008131 0.000000 0.000000 0.000000
# 4 0.000000 0.000000 0.000000 0.028746 0.000000 0.000000
# 5 0.000000 0.000000 0.000000 0.000000 0.019004 0.000000
# 6 0.000000 0.000000 0.000000 0.000000 0.000000 0.015181
#
#
# Mechanical properties :
#
#
# Convention : Reuss Voigt Hill
#
# Bulk Modulus (GPa) = 50.18321 51.19873 50.69097
# Shear Modulus (GPa) = 49.60175 52.19643 50.89909
#
# Velocity S-wave (km/s) = 4.28341 4.39402 4.33907
# Velocity P-wave (km/s) = 6.55944 6.68443 6.62223
#
# Compressibility (1/GPa) = 0.01992698
#
# Stress axis : x y z
#
# Youngs Moduli (GPa) = 120.63621 109.19560 122.99124
#
# Poissons Ratio (x) = -0.02177 0.19484
# Poissons Ratio (y) = -0.02405 0.17718
# Poissons Ratio (z) = 0.19111 0.15731
#
# Static dielectric constant tensor:
#      x y z
#    x 2.285000 0.000000 0.000000 
#    y 0.000000 2.137420 0.000000 
#    z 0.000000 0.000000 2.191210 
# 
# From -- ./inp_files/6583.got.cif
#   From: 2010.05.17/outbox.cif.g08.bks.cpg/sg33_4_cif.got.tgz:6583.got - 2010.06.03 17:15:25.
