data_PCOD9346170
_publ_section_title
;
Structure prediction by ZEFSAII (Michael W. Deem and Ramdas Pophale) SiO2 
 PCOD9346170
Probable space group: P N A 21
;
_chemical_formula_sum "Si O2"
_cell_formula_units_Z 32
_cell_length_a 18.845150
_cell_length_b 6.575069
_cell_length_c 12.319751
_cell_angle_alpha 90.000000
_cell_angle_beta 90.000000
_cell_angle_gamma 90.000000
_cell_volume 1526.517697
_symmetry_space_group_name_H-M "P N A 21"
_symmetry_group_IT_number 33
_symmetry_cell_setting 'orthorhombic'
loop_
_space_group_symop_operation_xyz
x,y,z
-x,-y,1/2+z
1/2-x,1/2+y,1/2+z
1/2+x,1/2-y,z
loop_
_atom_site_type_symbol
_atom_site_label
_atom_site_fract_x
_atom_site_fract_y
_atom_site_fract_z
Si Si1 0.427641 0.964748 0.619120
Si Si2 0.662237 0.847799 0.558610
Si Si3 0.931858 0.648225 0.192361
Si Si4 0.204517 0.209718 0.191349
Si Si5 0.572358 0.464745 0.498045
Si Si6 0.162238 0.847802 0.058556
Si Si7 0.568144 0.351773 0.924805
Si Si8 0.295484 0.790285 0.925817
O O1 0.497298 0.010221 0.689386
O O2 0.395405 0.177811 0.580248
O O3 0.364429 0.850278 0.681024
O O4 0.443698 0.824347 0.514806
O O5 0.734829 0.751027 0.602440
O O6 0.604594 0.677807 0.536917
O O7 0.632100 0.008627 0.647063
O O8 0.679342 0.980614 0.452013
O O9 0.943699 0.824344 0.102359
O O10 0.919101 0.750000 0.308583
O O11 0.236373 0.250001 0.308584
O O12 0.179342 0.980617 0.165153
O O13 0.502700 0.510220 0.427780
O O14 0.635570 0.350274 0.436140
O O15 0.234831 0.751030 0.014727
O O16 0.132103 0.008631 0.970102
#
# Coordination Sequence:
#
# PCOD9346170 Si02
#       8
#     4   4   4   4   4   4   4   4
#     4  11  23  43  64  95 131 165 213 269 313 385
#     4  10  23  46  61  96 131 162 222 261 315 391
#     4  11  25  40  68  97 129 172 209 264 327 379
#     4  10  24  41  66  94 126 172 213 266 320 377
#     4  11  23  43  64  95 131 165 213 269 313 385
#     4  10  23  46  61  96 131 162 222 261 315 391
#     4  11  25  40  68  97 129 172 209 264 327 379
#     4  10  24  41  66  94 126 172 213 266 320 377
#
# _framework density 20.962745000000002
#
# number of rings (size 3 to 8) (size 9 to 14) (size 15 to 20)
#    0.000    1.500    2.500    0.750    7.000    0.000 
#    0.000    0.000    0.000    0.000    0.000    0.000 
#    0.000    0.000    0.000    0.000    0.000    0.000 
#
# Total GULP energy -178799.585131 kJ/mol
# GULP energy per Si atom -5587.487035 kJ/mol
# Density = 2.091503 g / cm^3
# Si number density = 20.962745 Si / 1000 Ang^3
#
#
#
# Elastic Constant Matrix: (Units=GPa)
#
#
# Indices 1 2 3 4 5 6 
#
# 1 79.2620 15.0907 -7.1142 0.0000 0.0000 0.0000
# 2 15.0907 61.2493 21.8852 0.0000 0.0000 0.0000
# 3 -7.1142 21.8852 56.2695 0.0000 0.0000 0.0000
# 4 0.0000 0.0000 0.0000 7.2259 0.0000 0.0000
# 5 0.0000 0.0000 0.0000 0.0000 12.6201 0.0000
# 6 0.0000 0.0000 0.0000 0.0000 0.0000 28.6088
#
#
#
# Elastic Compliance Matrix: (Units=1/GPa)
#
#
# Indices 1 2 3 4 5 6 
#
# 1 0.013828 -0.004682 0.003569 0.000000 0.000000 0.000000
# 2 -0.004682 0.020547 -0.008584 0.000000 0.000000 0.000000
# 3 0.003569 -0.008584 0.021561 0.000000 0.000000 0.000000
# 4 0.000000 0.000000 0.000000 0.138392 0.000000 0.000000
# 5 0.000000 0.000000 0.000000 0.000000 0.079239 0.000000
# 6 0.000000 0.000000 0.000000 0.000000 0.000000 0.034954
#
#
# Mechanical properties :
#
#
# Convention : Reuss Voigt Hill
#
# Bulk Modulus (GPa) = 27.36436 28.50047 27.93242
# Shear Modulus (GPa) = 14.70173 20.81890 17.76031
#
# Velocity S-wave (km/s) = 2.65113 3.15483 2.91388
# Velocity P-wave (km/s) = 4.73851 5.18612 4.96736
#
# Compressibility (1/GPa) = 0.03654388
#
# Stress axis : x y z
#
# Youngs Moduli (GPa) = 72.31570 48.66794 46.37921
#
# Poissons Ratio (x) = 0.22788 -0.16555
# Poissons Ratio (y) = 0.33861 0.39810
# Poissons Ratio (z) = -0.25813 0.41775
#
# Static dielectric constant tensor:
#      x y z
#    x 1.755990 0.000000 0.000000 
#    y 0.000000 1.752540 0.000000 
#    z 0.000000 0.000000 1.736320 
# 
# From -- ./inp_files/7210.got.cif
#   From: 2010.05.17/outbox.cif.g08.bks.cpg/sg33_4_cif.got.tgz:7210.got - 2010.06.03 17:15:25.
