data_PCOD9346016
_publ_section_title
;
Structure prediction by ZEFSAII (Michael W. Deem and Ramdas Pophale) SiO2 
 PCOD9346016
Probable space group: P N A 21
;
_chemical_formula_sum "Si O2"
_cell_formula_units_Z 32
_cell_length_a 18.916568
_cell_length_b 7.960534
_cell_length_c 8.543045
_cell_angle_alpha 90.000000
_cell_angle_beta 90.000000
_cell_angle_gamma 90.000000
_cell_volume 1286.462827
_symmetry_space_group_name_H-M "P N A 21"
_symmetry_group_IT_number 33
_symmetry_cell_setting 'orthorhombic'
loop_
_space_group_symop_operation_xyz
x,y,z
-x,-y,1/2+z
1/2-x,1/2+y,1/2+z
1/2+x,1/2-y,z
loop_
_atom_site_type_symbol
_atom_site_label
_atom_site_fract_x
_atom_site_fract_y
_atom_site_fract_z
Si Si1 0.620788 0.703389 0.773840
Si Si2 0.251274 0.374299 0.457885
Si Si3 0.000938 0.674963 0.963653
Si Si4 0.196165 0.263641 0.959342
Si Si5 0.564351 0.328650 0.777118
Si Si6 0.323112 0.351105 0.780121
Si Si7 0.555536 0.806633 0.456323
Si Si8 0.627703 0.269707 0.281931
O O1 0.702763 0.704150 0.816108
O O2 0.580239 0.775257 0.924562
O O3 0.593785 0.513929 0.749457
O O4 0.596809 0.796582 0.619007
O O5 0.271425 0.572610 0.459416
O O6 0.280676 0.308447 0.622945
O O7 0.171703 0.319653 0.421631
O O8 0.987002 0.478462 0.955986
O O9 0.953761 0.744076 0.819825
O O10 0.972583 0.752101 0.124722
O O11 0.133300 0.273258 0.832779
O O12 0.263624 0.371851 0.914012
O O13 0.158083 0.303831 0.121643
O O14 0.505096 0.329453 0.914577
O O15 0.382753 0.217901 0.828078
O O16 0.359443 0.531925 0.768643
#
# Coordination Sequence:
#
# PCOD9346016 Si02
#       8
#     4   4   4   4   4   4   4   4
#     4  11  23  42  66  91 124 165 208 253 309 372
#     4  10  23  41  62  90 122 159 205 256 307 365
#     4  12  25  41  63  93 127 161 205 258 310 365
#     4  10  23  41  62  90 122 159 205 256 307 365
#     4  11  23  42  66  91 124 165 208 253 309 372
#     4  11  23  40  63  90 123 163 206 253 308 370
#     4  12  25  41  63  93 127 161 205 258 310 365
#     4  11  23  40  63  90 123 163 206 253 308 370
#
# _framework density 24.874407999999999
#
# number of rings (size 3 to 8) (size 9 to 14) (size 15 to 20)
#    0.000    1.000    0.000    6.750    0.000   10.000 
#    0.000    0.000    0.000    0.000    0.000    0.000 
#    0.000    0.000    0.000    0.000    0.000    0.000 
#
# Total GULP energy -179360.300066 kJ/mol
# GULP energy per Si atom -5605.009377 kJ/mol
# Density = 2.481779 g / cm^3
# Si number density = 24.874408 Si / 1000 Ang^3
#
#
#
# Elastic Constant Matrix: (Units=GPa)
#
#
# Indices 1 2 3 4 5 6 
#
# 1 61.8906 -13.6851 8.5826 0.0000 0.0000 0.0000
# 2 -13.6851 39.6093 2.5000 0.0000 0.0000 0.0000
# 3 8.5826 2.5000 65.2256 0.0000 0.0000 0.0000
# 4 0.0000 0.0000 0.0000 27.8768 0.0000 0.0000
# 5 0.0000 0.0000 0.0000 0.0000 -9.8695 0.0000
# 6 0.0000 0.0000 0.0000 0.0000 0.0000 22.4217
#
#
#
# Elastic Compliance Matrix: (Units=1/GPa)
#
#
# Indices 1 2 3 4 5 6 
#
# 1 0.017924 0.006357 -0.002602 0.000000 0.000000 0.000000
# 2 0.006357 0.027562 -0.001893 0.000000 0.000000 0.000000
# 3 -0.002602 -0.001893 0.015746 0.000000 0.000000 0.000000
# 4 0.000000 0.000000 0.000000 0.035872 0.000000 0.000000
# 5 0.000000 0.000000 0.000000 0.000000 -0.101323 0.000000
# 6 0.000000 0.000000 0.000000 0.000000 0.000000 0.044600
#
#
# Mechanical properties :
#
#
# Convention : Reuss Voigt Hill
#
# Bulk Modulus (GPa) = 15.39483 17.94671 16.67077
# Shear Modulus (GPa) = 85.74836 19.37435 52.56136
#
# Velocity S-wave (km/s) = 5.87770 2.79388 4.60180
# Velocity P-wave (km/s) = 7.22950 4.19980 5.91202
#
# Compressibility (1/GPa) = 0.06495685
#
# Stress axis : x y z
#
# Youngs Moduli (GPa) = 55.79094 36.28126 63.50681
#
# Poissons Ratio (x) = -0.23064 0.16525
# Poissons Ratio (y) = -0.35467 0.12021
# Poissons Ratio (z) = 0.14518 0.06868
#
# Static dielectric constant tensor:
#      x y z
#    x 1.890090 0.000000 0.000000 
#    y 0.000000 1.936650 0.000000 
#    z 0.000000 0.000000 1.991360 
# 
# From -- ./inp_files/5026.got.cif
#   From: 2010.05.17/outbox.cif.g08.bks.cpg/sg33_3_cif.got.tgz:5026.got - 2010.06.03 17:15:25.
