data_PCOD9346946
_publ_section_title
;
Structure prediction by ZEFSAII (Michael W. Deem and Ramdas Pophale) SiO2 
 PCOD9346946
Probable space group: P N A 21
;
_chemical_formula_sum "Si O2"
_cell_formula_units_Z 20
_cell_length_a 27.533016
_cell_length_b 5.134614
_cell_length_c 5.295212
_cell_angle_alpha 90.000000
_cell_angle_beta 90.000000
_cell_angle_gamma 90.000000
_cell_volume 748.591584
_symmetry_space_group_name_H-M "P N A 21"
_symmetry_group_IT_number 33
_symmetry_cell_setting 'orthorhombic'
loop_
_space_group_symop_operation_xyz
x,y,z
-x,-y,1/2+z
1/2-x,1/2+y,1/2+z
1/2+x,1/2-y,z
loop_
_atom_site_type_symbol
_atom_site_label
_atom_site_fract_x
_atom_site_fract_y
_atom_site_fract_z
Si Si1 0.703315 0.510406 0.736720
Si Si2 0.585972 0.926717 0.229325
Si Si3 0.898504 0.914057 0.408643
Si Si4 0.308172 0.984294 0.953729
Si Si5 0.971133 0.075232 0.043832
O O1 0.659863 0.405142 0.911819
O O2 0.695075 0.816726 0.692257
O O3 0.758220 0.450378 0.812400
O O4 0.694567 0.324434 0.497672
O O5 0.639911 0.952544 0.339689
O O6 0.546427 0.857828 0.443956
O O7 0.587535 0.676291 0.050144
O O8 0.578205 0.171598 0.049945
O O9 0.920328 0.935085 0.125739
O O10 0.001039 0.049467 0.304959
#
# Coordination Sequence:
#
# PCOD9346946 Si02
#       5
#     4   4   4   4   4
#     4  12  24  43  73 114 162 211 269 330 409 498
#     4  12  27  52  81 117 164 212 275 345 416 496
#     4  12  27  52  81 117 164 212 275 345 416 496
#     4  12  24  43  73 114 162 211 269 330 409 498
#     4  12  28  58  84 124 164 224 284 356 424 502
#
# _framework density 26.716837000000002
#
# number of rings (size 3 to 8) (size 9 to 14) (size 15 to 20)
#    0.000    0.000    4.000    6.000    0.000    0.000 
#    7.200    0.000    0.000    0.000    0.000    0.000 
#    0.000    0.000    0.000    0.000    0.000    0.000 
#
# Total GULP energy -112060.232720 kJ/mol
# GULP energy per Si atom -5603.011636 kJ/mol
# Density = 2.665603 g / cm^3
# Si number density = 26.716837 Si / 1000 Ang^3
#
#
#
# Elastic Constant Matrix: (Units=GPa)
#
#
# Indices 1 2 3 4 5 6 
#
# 1 129.7072 9.7926 41.1139 0.0000 0.0000 0.0000
# 2 9.7926 129.1153 31.4489 0.0000 0.0000 0.0000
# 3 41.1139 31.4489 114.7353 0.0000 0.0000 0.0000
# 4 0.0000 0.0000 0.0000 50.5565 0.0000 0.0000
# 5 0.0000 0.0000 0.0000 0.0000 68.0081 0.0000
# 6 0.0000 0.0000 0.0000 0.0000 0.0000 34.6529
#
#
#
# Elastic Compliance Matrix: (Units=1/GPa)
#
#
# Indices 1 2 3 4 5 6 
#
# 1 0.008699 0.000107 -0.003146 0.000000 0.000000 0.000000
# 2 0.000107 0.008300 -0.002313 0.000000 0.000000 0.000000
# 3 -0.003146 -0.002313 0.010477 0.000000 0.000000 0.000000
# 4 0.000000 0.000000 0.000000 0.019780 0.000000 0.000000
# 5 0.000000 0.000000 0.000000 0.000000 0.014704 0.000000
# 6 0.000000 0.000000 0.000000 0.000000 0.000000 0.028858
#
#
# Mechanical properties :
#
#
# Convention : Reuss Voigt Hill
#
# Bulk Modulus (GPa) = 59.62890 59.80763 59.71827
# Shear Modulus (GPa) = 46.67902 50.05701 48.36802
#
# Velocity S-wave (km/s) = 4.18446 4.33322 4.25949
# Velocity P-wave (km/s) = 6.76118 6.88985 6.82582
#
# Compressibility (1/GPa) = 0.01677039
#
# Stress axis : x y z
#
# Youngs Moduli (GPa) = 114.95644 120.47626 95.44484
#
# Poissons Ratio (x) = -0.01284 0.30031
# Poissons Ratio (y) = -0.01226 0.22080
# Poissons Ratio (z) = 0.36170 0.27870
#
# Static dielectric constant tensor:
#      x y z
#    x 2.149300 0.000000 0.000000 
#    y 0.000000 2.042330 0.000000 
#    z 0.000000 0.000000 2.142590 
# 
# From -- ./inp_files/2477.got.cif
#   From: 2010.05.17/outbox.cif.g08.bks.cpg/sg33_2_cif.got.tgz:2477.got - 2010.06.03 17:15:25.
