data_PCOD9346541
_publ_section_title
;
Structure prediction by ZEFSAII (Michael W. Deem and Ramdas Pophale) SiO2 
 PCOD9346541
Probable space group: P N A 21
;
_chemical_formula_sum "Si O2"
_cell_formula_units_Z 20
_cell_length_a 5.205989
_cell_length_b 16.532943
_cell_length_c 8.946131
_cell_angle_alpha 90.000000
_cell_angle_beta 90.000000
_cell_angle_gamma 90.000000
_cell_volume 769.996353
_symmetry_space_group_name_H-M "P N A 21"
_symmetry_group_IT_number 33
_symmetry_cell_setting 'orthorhombic'
loop_
_space_group_symop_operation_xyz
x,y,z
-x,-y,1/2+z
1/2-x,1/2+y,1/2+z
1/2+x,1/2-y,z
loop_
_atom_site_type_symbol
_atom_site_label
_atom_site_fract_x
_atom_site_fract_y
_atom_site_fract_z
Si Si1 0.875978 0.134759 0.121840
Si Si2 0.368616 0.702318 0.895056
Si Si3 0.667156 0.533850 0.126761
Si Si4 0.639822 0.698058 0.285186
Si Si5 0.986934 0.432976 0.345570
O O1 0.621358 0.125750 0.223539
O O2 0.075341 0.188370 0.217698
O O3 0.855130 0.170047 0.958118
O O4 0.976718 0.042114 0.116290
O O5 0.645501 0.735777 0.943111
O O6 0.242706 0.615092 0.927815
O O7 0.573008 0.619301 0.187997
O O8 0.873685 0.506586 0.252704
O O9 0.806716 0.542691 0.968193
O O10 0.418826 0.763965 0.257644
#
# Coordination Sequence:
#
# PCOD9346541 Si02
#       5
#     4   4   4   4   4
#     4  11  24  46  81 111 150 208 262 324 393 490
#     4  11  22  41  68 108 144 189 244 314 383 456
#     4  11  27  48  78 112 158 211 272 325 402 478
#     4  12  30  51  77 118 165 207 263 339 412 473
#     4  11  25  46  76 109 151 205 271 322 390 485
#
# _framework density 25.974150000000002
#
# number of rings (size 3 to 8) (size 9 to 14) (size 15 to 20)
#    0.000    0.800    2.000    3.600   11.200    3.200 
#    0.000    0.000    0.000    0.000    0.000    0.000 
#    0.000    0.000    0.000    0.000    0.000    0.000 
#
# Total GULP energy -112150.989349 kJ/mol
# GULP energy per Si atom -5607.549467 kJ/mol
# Density = 2.591503 g / cm^3
# Si number density = 25.974150 Si / 1000 Ang^3
#
#
#
# Elastic Constant Matrix: (Units=GPa)
#
#
# Indices 1 2 3 4 5 6 
#
# 1 113.5638 17.3990 35.8734 0.0000 0.0000 0.0000
# 2 17.3990 111.6638 32.8360 0.0000 0.0000 0.0000
# 3 35.8734 32.8360 129.1177 0.0000 0.0000 0.0000
# 4 0.0000 0.0000 0.0000 50.2512 0.0000 0.0000
# 5 0.0000 0.0000 0.0000 0.0000 45.0550 0.0000
# 6 0.0000 0.0000 0.0000 0.0000 0.0000 50.7851
#
#
#
# Elastic Compliance Matrix: (Units=1/GPa)
#
#
# Indices 1 2 3 4 5 6 
#
# 1 0.009715 -0.000778 -0.002501 0.000000 0.000000 0.000000
# 2 -0.000778 0.009742 -0.002261 0.000000 0.000000 0.000000
# 3 -0.002501 -0.002261 0.009015 0.000000 0.000000 0.000000
# 4 0.000000 0.000000 0.000000 0.019900 0.000000 0.000000
# 5 0.000000 0.000000 0.000000 0.000000 0.022195 0.000000
# 6 0.000000 0.000000 0.000000 0.000000 0.000000 0.019691
#
#
# Mechanical properties :
#
#
# Convention : Reuss Voigt Hill
#
# Bulk Modulus (GPa) = 57.50384 58.50690 58.00537
# Shear Modulus (GPa) = 46.66992 47.10073 46.88532
#
# Velocity S-wave (km/s) = 4.24345 4.26299 4.25323
# Velocity P-wave (km/s) = 6.79677 6.84140 6.81912
#
# Compressibility (1/GPa) = 0.01739014
#
# Stress axis : x y z
#
# Youngs Moduli (GPa) = 102.93396 102.65215 110.92814
#
# Poissons Ratio (x) = 0.07989 0.27746
# Poissons Ratio (y) = 0.08011 0.25083
# Poissons Ratio (z) = 0.25746 0.23212
#
# Static dielectric constant tensor:
#      x y z
#    x 2.017540 0.000000 0.000000 
#    y 0.000000 2.055370 0.000000 
#    z 0.000000 0.000000 2.051690 
# 
# From -- ./inp_files/2652.got.cif
#   From: 2010.05.17/outbox.cif.g08.bks.cpg/sg33_2_cif.got.tgz:2652.got - 2010.06.03 17:15:25.
