data_PCOD9346692
_publ_section_title
;
Structure prediction by ZEFSAII (Michael W. Deem and Ramdas Pophale) SiO2 
 PCOD9346692
Probable space group: P N A 21
;
_chemical_formula_sum "Si O2"
_cell_formula_units_Z 28
_cell_length_a 16.973311
_cell_length_b 6.536695
_cell_length_c 11.001500
_cell_angle_alpha 90.000000
_cell_angle_beta 90.000000
_cell_angle_gamma 90.000000
_cell_volume 1220.609353
_symmetry_space_group_name_H-M "P N A 21"
_symmetry_group_IT_number 33
_symmetry_cell_setting 'orthorhombic'
loop_
_space_group_symop_operation_xyz
x,y,z
-x,-y,1/2+z
1/2-x,1/2+y,1/2+z
1/2+x,1/2-y,z
loop_
_atom_site_type_symbol
_atom_site_label
_atom_site_fract_x
_atom_site_fract_y
_atom_site_fract_z
Si Si1 0.595698 0.314380 0.271570
Si Si2 0.542446 0.101757 0.491132
Si Si3 0.307979 0.960865 0.624972
Si Si4 0.342930 0.278239 0.039085
Si Si5 0.048081 0.082999 0.690403
Si Si6 0.391501 0.909372 0.366976
Si Si7 0.227322 0.864453 0.267681
O O1 0.592927 0.261866 0.412458
O O2 0.621045 0.103274 0.211904
O O3 0.516257 0.418815 0.229447
O O4 0.662638 0.471337 0.232316
O O5 0.514909 0.228218 0.609424
O O6 0.598178 0.915048 0.531975
O O7 0.473005 0.028150 0.398582
O O8 0.236019 0.801153 0.618869
O O9 0.347342 0.943864 0.493900
O O10 0.275356 0.176413 0.673391
O O11 0.393502 0.457067 0.103818
O O12 0.307303 0.298697 0.901421
O O13 0.082868 0.187883 0.813063
O O14 0.316518 0.951480 0.278260
#
# Coordination Sequence:
#
# PCOD9346692 Si02
#       7
#     4   4   4   4   4   4   4
#     4  12  27  43  76 104 152 194 255 315 387 455
#     4  12  27  47  72 113 148 203 257 323 378 472
#     4  11  25  47  73 112 146 199 253 321 389 468
#     4  11  24  47  75 103 154 196 255 317 396 451
#     4  12  27  47  73 110 152 204 256 323 384 469
#     4  11  27  47  76 104 154 197 252 314 393 455
#     4  11  23  50  71 110 150 197 250 323 383 468
#
# _framework density 22.939364000000001
#
# number of rings (size 3 to 8) (size 9 to 14) (size 15 to 20)
#    0.000    0.571    4.286    2.571    8.000    0.000 
#    2.571    0.000    0.000    0.000    0.000    0.000 
#    0.000    0.000    0.000    0.000    0.000    0.000 
#
# Total GULP energy -156006.143994 kJ/mol
# GULP energy per Si atom -5571.648000 kJ/mol
# Density = 2.288715 g / cm^3
# Si number density = 22.939364 Si / 1000 Ang^3
#
#
#
# Elastic Constant Matrix: (Units=GPa)
#
#
# Indices 1 2 3 4 5 6 
#
# 1 104.2371 64.3134 42.1081 0.0000 0.0000 0.0000
# 2 64.3134 75.2111 60.7756 0.0000 0.0000 0.0000
# 3 42.1081 60.7756 100.8524 0.0000 0.0000 0.0000
# 4 0.0000 0.0000 0.0000 47.5103 0.0000 0.0000
# 5 0.0000 0.0000 0.0000 0.0000 31.0475 0.0000
# 6 0.0000 0.0000 0.0000 0.0000 0.0000 23.8678
#
#
#
# Elastic Compliance Matrix: (Units=1/GPa)
#
#
# Indices 1 2 3 4 5 6 
#
# 1 0.021114 -0.021306 0.004024 0.000000 0.000000 0.000000
# 2 -0.021306 0.047416 -0.019678 0.000000 0.000000 0.000000
# 3 0.004024 -0.019678 0.020094 0.000000 0.000000 0.000000
# 4 0.000000 0.000000 0.000000 0.021048 0.000000 0.000000
# 5 0.000000 0.000000 0.000000 0.000000 0.032209 0.000000
# 6 0.000000 0.000000 0.000000 0.000000 0.000000 0.041897
#
#
# Mechanical properties :
#
#
# Convention : Reuss Voigt Hill
#
# Bulk Modulus (GPa) = 68.01231 68.29940 68.15586
# Shear Modulus (GPa) = 19.04048 28.02535 23.53291
#
# Velocity S-wave (km/s) = 2.88416 3.49909 3.20640
# Velocity P-wave (km/s) = 6.38782 6.79437 6.59423
#
# Compressibility (1/GPa) = 0.01470322
#
# Stress axis : x y z
#
# Youngs Moduli (GPa) = 47.36296 21.08998 49.76676
#
# Poissons Ratio (x) = 0.44934 -0.20026
# Poissons Ratio (y) = 1.00911 0.97931
# Poissons Ratio (z) = -0.19059 0.41501
#
# Static dielectric constant tensor:
#      x y z
#    x 1.909680 0.000000 0.000000 
#    y 0.000000 1.842090 0.000000 
#    z 0.000000 0.000000 2.013100 
# 
# From -- ./inp_files/6975.got.cif
#   From: 2010.05.17/outbox.cif.g08.bks.cpg/sg33_4_cif.got.tgz:6975.got - 2010.06.03 17:15:25.
