data_PCOD9346564
_publ_section_title
;
Structure prediction by ZEFSAII (Michael W. Deem and Ramdas Pophale) SiO2 
 PCOD9346564
Probable space group: P N A 21
;
_chemical_formula_sum "Si O2"
_cell_formula_units_Z 24
_cell_length_a 13.962039
_cell_length_b 11.520971
_cell_length_c 6.799271
_cell_angle_alpha 90.000000
_cell_angle_beta 90.000000
_cell_angle_gamma 90.000000
_cell_volume 1093.705211
_symmetry_space_group_name_H-M "P N A 21"
_symmetry_group_IT_number 33
_symmetry_cell_setting 'orthorhombic'
loop_
_space_group_symop_operation_xyz
x,y,z
-x,-y,1/2+z
1/2-x,1/2+y,1/2+z
1/2+x,1/2-y,z
loop_
_atom_site_type_symbol
_atom_site_label
_atom_site_fract_x
_atom_site_fract_y
_atom_site_fract_z
Si Si1 0.776341 0.996280 0.423470
Si Si2 0.600131 0.506403 0.530287
Si Si3 0.790852 0.179133 0.733413
Si Si4 0.394951 0.078574 0.722158
Si Si5 0.910431 0.629621 0.431685
Si Si6 0.585617 0.356294 0.175287
O O1 0.663161 0.989181 0.391870
O O2 0.816383 0.899332 0.572238
O O3 0.833117 0.988019 0.218984
O O4 0.799333 0.117251 0.524559
O O5 0.647203 0.602763 0.387457
O O6 0.590616 0.387847 0.405154
O O7 0.498110 0.558700 0.594396
O O8 0.831412 0.306475 0.706759
O O9 0.683209 0.170764 0.814660
O O10 0.499663 0.115349 0.789044
O O11 0.393685 0.994286 0.535597
O O12 0.931972 0.726229 0.600473
#
# Coordination Sequence:
#
# PCOD9346564 Si02
#       6
#     4   4   4   4   4   4
#     4  11  24  45  73 106 141 190 248 301 362 439
#     4  11  22  44  72 110 139 190 242 299 367 431
#     4  11  25  47  72  99 145 192 245 299 362 452
#     4  12  26  47  73 107 151 195 242 308 386 442
#     4  12  26  48  70 110 151 193 248 310 377 453
#     4  11  23  41  76 106 147 184 247 307 358 441
#
# _framework density 21.943753000000001
#
# number of rings (size 3 to 8) (size 9 to 14) (size 15 to 20)
#    0.000    0.667    6.667    1.000    0.000    2.667 
#    6.000    0.000    0.000    0.000    0.000    0.000 
#    0.000    0.000    0.000    0.000    0.000    0.000 
#
# Total GULP energy -134281.852239 kJ/mol
# GULP energy per Si atom -5595.077177 kJ/mol
# Density = 2.189381 g / cm^3
# Si number density = 21.943753 Si / 1000 Ang^3
#
#
#
# Elastic Constant Matrix: (Units=GPa)
#
#
# Indices 1 2 3 4 5 6 
#
# 1 133.3763 27.7942 34.7523 0.0000 0.0000 0.0000
# 2 27.7942 114.7970 49.5117 0.0000 0.0000 0.0000
# 3 34.7523 49.5117 102.0670 0.0000 0.0000 0.0000
# 4 0.0000 0.0000 0.0000 15.0858 0.0000 0.0000
# 5 0.0000 0.0000 0.0000 0.0000 21.0410 0.0000
# 6 0.0000 0.0000 0.0000 0.0000 0.0000 25.9066
#
#
#
# Elastic Compliance Matrix: (Units=1/GPa)
#
#
# Indices 1 2 3 4 5 6 
#
# 1 0.008318 -0.001002 -0.002346 0.000000 0.000000 0.000000
# 2 -0.001002 0.011136 -0.005061 0.000000 0.000000 0.000000
# 3 -0.002346 -0.005061 0.013051 0.000000 0.000000 0.000000
# 4 0.000000 0.000000 0.000000 0.066287 0.000000 0.000000
# 5 0.000000 0.000000 0.000000 0.000000 0.047526 0.000000
# 6 0.000000 0.000000 0.000000 0.000000 0.000000 0.038600
#
#
# Mechanical properties :
#
#
# Convention : Reuss Voigt Hill
#
# Bulk Modulus (GPa) = 63.74543 63.81741 63.78142
# Shear Modulus (GPa) = 24.15851 28.28548 26.22199
#
# Velocity S-wave (km/s) = 3.32162 3.59416 3.46058
# Velocity P-wave (km/s) = 6.61993 6.80951 6.71539
#
# Compressibility (1/GPa) = 0.01568740
#
# Stress axis : x y z
#
# Youngs Moduli (GPa) = 120.22614 89.79530 76.62071
#
# Poissons Ratio (x) = 0.08998 0.17975
# Poissons Ratio (y) = 0.12047 0.38778
# Poissons Ratio (z) = 0.28205 0.45445
#
# Static dielectric constant tensor:
#      x y z
#    x 1.807690 0.000000 0.000000 
#    y 0.000000 1.808150 0.000000 
#    z 0.000000 0.000000 1.791500 
# 
# From -- ./inp_files/1273.got.cif
#   From: 2010.05.17/outbox.cif.g08.bks.cpg/sg33_1_cif.got.tgz:1273.got - 2010.06.03 17:15:25.
