data_PCOD9346644
_publ_section_title
;
Structure prediction by ZEFSAII (Michael W. Deem and Ramdas Pophale) SiO2 
 PCOD9346644
Probable space group: P N A 21
;
_chemical_formula_sum "Si O2"
_cell_formula_units_Z 24
_cell_length_a 27.777559
_cell_length_b 5.401824
_cell_length_c 7.050028
_cell_angle_alpha 90.000000
_cell_angle_beta 90.000000
_cell_angle_gamma 90.000000
_cell_volume 1057.853070
_symmetry_space_group_name_H-M "P N A 21"
_symmetry_group_IT_number 33
_symmetry_cell_setting 'orthorhombic'
loop_
_space_group_symop_operation_xyz
x,y,z
-x,-y,1/2+z
1/2-x,1/2+y,1/2+z
1/2+x,1/2-y,z
loop_
_atom_site_type_symbol
_atom_site_label
_atom_site_fract_x
_atom_site_fract_y
_atom_site_fract_z
Si Si1 0.457028 0.232355 0.933410
Si Si2 0.286691 0.489115 0.430958
Si Si3 0.050232 0.227742 0.677546
Si Si4 0.637335 0.767444 0.206055
Si Si5 0.806259 0.338915 0.090033
Si Si6 0.858737 0.627384 0.386144
O O1 0.506931 0.213994 0.820967
O O2 0.414637 0.304463 0.785138
O O3 0.459038 0.465178 0.076509
O O4 0.447228 0.965413 0.034372
O O5 0.331218 0.382445 0.553036
O O6 0.236591 0.473181 0.538462
O O7 0.283432 0.369686 0.223989
O O8 0.304855 0.767384 0.405761
O O9 0.099570 0.204453 0.798821
O O10 0.671301 0.769071 0.389556
O O11 0.628284 0.021586 0.090936
O O12 0.850318 0.431188 0.218341
#
# Coordination Sequence:
#
# PCOD9346644 Si02
#       6
#     4   4   4   4   4   4
#     4  12  27  47  75 106 147 190 241 305 365 441
#     4  11  25  39  71  97 145 186 244 299 358 436
#     4  12  27  47  75 106 147 188 245 299 371 437
#     4  11  25  43  70 101 142 188 241 300 368 427
#     4  11  23  45  63 106 138 191 241 299 363 429
#     4  11  25  43  70 100 143 185 244 300 363 436
#
# _framework density 22.687460999999999
#
# number of rings (size 3 to 8) (size 9 to 14) (size 15 to 20)
#    0.000    0.667    1.667    5.000    7.000    6.667 
#    0.000    0.000    0.000    0.000    0.000    0.000 
#    0.000    0.000    0.000    0.000    0.000    0.000 
#
# Total GULP energy -133960.991732 kJ/mol
# GULP energy per Si atom -5581.707989 kJ/mol
# Density = 2.263582 g / cm^3
# Si number density = 22.687461 Si / 1000 Ang^3
#
#
#
# Elastic Constant Matrix: (Units=GPa)
#
#
# Indices 1 2 3 4 5 6 
#
# 1 89.1274 -14.6102 26.7733 0.0000 0.0000 0.0000
# 2 -14.6102 47.2276 22.7400 0.0000 0.0000 0.0000
# 3 26.7733 22.7400 136.6790 0.0000 0.0000 0.0000
# 4 0.0000 0.0000 0.0000 27.2833 0.0000 0.0000
# 5 0.0000 0.0000 0.0000 0.0000 53.0031 0.0000
# 6 0.0000 0.0000 0.0000 0.0000 0.0000 29.4258
#
#
#
# Elastic Compliance Matrix: (Units=1/GPa)
#
#
# Indices 1 2 3 4 5 6 
#
# 1 0.013242 0.005811 -0.003561 0.000000 0.000000 0.000000
# 2 0.005811 0.025568 -0.005392 0.000000 0.000000 0.000000
# 3 -0.003561 -0.005392 0.008911 0.000000 0.000000 0.000000
# 4 0.000000 0.000000 0.000000 0.036652 0.000000 0.000000
# 5 0.000000 0.000000 0.000000 0.000000 0.018867 0.000000
# 6 0.000000 0.000000 0.000000 0.000000 0.000000 0.033984
#
#
# Mechanical properties :
#
#
# Convention : Reuss Voigt Hill
#
# Bulk Modulus (GPa) = 24.13280 38.09336 31.11308
# Shear Modulus (GPa) = 31.78225 37.81782 34.80004
#
# Velocity S-wave (km/s) = 3.74688 4.08720 3.92074
# Velocity P-wave (km/s) = 5.42024 6.25305 5.85148
#
# Compressibility (1/GPa) = 0.04143738
#
# Stress axis : x y z
#
# Youngs Moduli (GPa) = 75.51683 39.11129 112.22047
#
# Poissons Ratio (x) = -0.22728 0.39959
# Poissons Ratio (y) = -0.43883 0.60511
# Poissons Ratio (z) = 0.26889 0.21089
#
# Static dielectric constant tensor:
#      x y z
#    x 1.808020 0.000000 0.000000 
#    y 0.000000 1.982680 0.000000 
#    z 0.000000 0.000000 1.802470 
# 
# From -- ./inp_files/2365.got.cif
#   From: 2010.05.17/outbox.cif.g08.bks.cpg/sg33_2_cif.got.tgz:2365.got - 2010.06.03 17:15:25.
