data_PCOD9346290
_publ_section_title
;
Structure prediction by ZEFSAII (Michael W. Deem and Ramdas Pophale) SiO2 
 PCOD9346290
Probable space group: P N A 21
;
_chemical_formula_sum "Si O2"
_cell_formula_units_Z 20
_cell_length_a 10.493953
_cell_length_b 15.156747
_cell_length_c 4.909765
_cell_angle_alpha 90.000000
_cell_angle_beta 90.000000
_cell_angle_gamma 90.000000
_cell_volume 780.918698
_symmetry_space_group_name_H-M "P N A 21"
_symmetry_group_IT_number 33
_symmetry_cell_setting 'orthorhombic'
loop_
_space_group_symop_operation_xyz
x,y,z
-x,-y,1/2+z
1/2-x,1/2+y,1/2+z
1/2+x,1/2-y,z
loop_
_atom_site_type_symbol
_atom_site_label
_atom_site_fract_x
_atom_site_fract_y
_atom_site_fract_z
Si Si1 0.343864 0.463689 0.401610
Si Si2 0.389706 0.214288 0.062305
Si Si3 0.849109 0.667855 0.673839
Si Si4 0.520355 0.609231 0.397750
Si Si5 0.001388 0.561579 0.297792
O O1 0.214048 0.416132 0.321707
O O2 0.384904 0.564294 0.341983
O O3 0.379712 0.443295 0.710885
O O4 0.443522 0.409557 0.211075
O O5 0.256726 0.254970 0.165593
O O6 0.510326 0.199370 0.268075
O O7 0.381760 0.121035 0.908564
O O8 0.449438 0.288840 0.862825
O O9 0.885850 0.628984 0.373724
O O10 0.019926 0.519619 0.005935
#
# Coordination Sequence:
#
# PCOD9346290 Si02
#       5
#     4   4   4   4   4
#     4   9  18  35  60  95 132 167 211 276 328 386
#     4   9  21  42  67  99 132 177 224 278 328 401
#     4   9  21  42  67  97 135 173 224 271 339 395
#     4   9  18  35  60  93 130 169 218 269 326 384
#     4  10  24  44  66  92 135 178 217 268 337 396
#
# _framework density 25.610859999999999
#
# number of rings (size 3 to 8) (size 9 to 14) (size 15 to 20)
#    1.200    1.600    0.000    0.000    0.000    8.000 
#    0.000   12.000    0.000    0.000    0.000    0.000 
#    0.000    0.000    0.000    0.000    0.000    0.000 
#
# Total GULP energy -111358.614584 kJ/mol
# GULP energy per Si atom -5567.930729 kJ/mol
# Density = 2.555257 g / cm^3
# Si number density = 25.610860 Si / 1000 Ang^3
#
#
#
# Elastic Constant Matrix: (Units=GPa)
#
#
# Indices 1 2 3 4 5 6 
#
# 1 165.5674 31.0089 -1.1443 0.0000 0.0000 0.0000
# 2 31.0089 47.4423 -4.9557 0.0000 0.0000 0.0000
# 3 -1.1443 -4.9557 33.8229 0.0000 0.0000 0.0000
# 4 0.0000 0.0000 0.0000 34.3494 0.0000 0.0000
# 5 0.0000 0.0000 0.0000 0.0000 14.8012 0.0000
# 6 0.0000 0.0000 0.0000 0.0000 0.0000 47.0413
#
#
#
# Elastic Compliance Matrix: (Units=1/GPa)
#
#
# Indices 1 2 3 4 5 6 
#
# 1 0.006889 -0.004548 -0.000433 0.000000 0.000000 0.000000
# 2 -0.004548 0.024408 0.003422 0.000000 0.000000 0.000000
# 3 -0.000433 0.003422 0.030053 0.000000 0.000000 0.000000
# 4 0.000000 0.000000 0.000000 0.029113 0.000000 0.000000
# 5 0.000000 0.000000 0.000000 0.000000 0.067562 0.000000
# 6 0.000000 0.000000 0.000000 0.000000 0.000000 0.021258
#
#
# Mechanical properties :
#
#
# Convention : Reuss Voigt Hill
#
# Bulk Modulus (GPa) = 17.17263 32.96114 25.06689
# Shear Modulus (GPa) = 24.77579 34.03328 29.40454
#
# Velocity S-wave (km/s) = 3.11367 3.64931 3.39208
# Velocity P-wave (km/s) = 4.43242 5.53665 5.01502
#
# Compressibility (1/GPa) = 0.05823219
#
# Stress axis : x y z
#
# Youngs Moduli (GPa) = 145.16785 40.96985 33.27505
#
# Poissons Ratio (x) = 0.18632 0.01442
# Poissons Ratio (y) = 0.66018 -0.11388
# Poissons Ratio (z) = 0.06290 -0.14022
#
# Static dielectric constant tensor:
#      x y z
#    x 2.107300 0.000000 0.000000 
#    y 0.000000 2.091180 0.000000 
#    z 0.000000 0.000000 2.022570 
# 
# From -- ./inp_files/801.got.cif
#   From: 2010.05.17/outbox.cif.g08.bks.cpg/sg33_1_cif.got.tgz:801.got - 2010.06.03 17:15:25.
