data_PCOD9346884
_publ_section_title
;
Structure prediction by ZEFSAII (Michael W. Deem and Ramdas Pophale) SiO2 
 PCOD9346884
Probable space group: P N A 21
;
_chemical_formula_sum "Si O2"
_cell_formula_units_Z 24
_cell_length_a 13.900355
_cell_length_b 12.021589
_cell_length_c 6.204001
_cell_angle_alpha 90.000000
_cell_angle_beta 90.000000
_cell_angle_gamma 90.000000
_cell_volume 1036.715584
_symmetry_space_group_name_H-M "P N A 21"
_symmetry_group_IT_number 33
_symmetry_cell_setting 'orthorhombic'
loop_
_space_group_symop_operation_xyz
x,y,z
-x,-y,1/2+z
1/2-x,1/2+y,1/2+z
1/2+x,1/2-y,z
loop_
_atom_site_type_symbol
_atom_site_label
_atom_site_fract_x
_atom_site_fract_y
_atom_site_fract_z
Si Si1 0.728369 0.641707 0.537760
Si Si2 0.117303 0.275493 0.336757
Si Si3 0.982150 0.832782 0.181586
Si Si4 0.124853 0.984323 0.920855
Si Si5 0.057213 0.693122 0.515101
Si Si6 0.179891 0.480518 0.636553
O O1 0.797464 0.724897 0.667594
O O2 0.673255 0.560403 0.702300
O O3 0.642115 0.719736 0.459819
O O4 0.794601 0.575289 0.367537
O O5 0.104988 0.179742 0.512322
O O6 0.142798 0.385731 0.473076
O O7 0.017867 0.277819 0.204191
O O8 0.999965 0.711581 0.289741
O O9 0.949965 0.918815 0.365532
O O10 0.069683 0.886748 0.048728
O O11 0.214991 0.021646 0.061227
O O12 0.105381 0.580271 0.599105
#
# Coordination Sequence:
#
# PCOD9346884 Si02
#       6
#     4   4   4   4   4   4
#     4  11  25  50  71 112 146 198 254 309 390 449
#     4  11  28  46  72 109 148 200 250 312 377 457
#     4  12  26  46  76 113 148 198 254 319 382 455
#     4  11  26  45  74 109 148 191 251 318 376 453
#     4  12  27  46  78 103 152 199 254 316 377 464
#     4  11  28  47  73 106 154 196 253 316 382 458
#
# _framework density 23.150033000000001
#
# number of rings (size 3 to 8) (size 9 to 14) (size 15 to 20)
#    0.000    0.667    3.333    2.000   11.667    1.333 
#    0.000    0.000    0.000    0.000    0.000    0.000 
#    0.000    0.000    0.000    0.000    0.000    0.000 
#
# Total GULP energy -133996.132717 kJ/mol
# GULP energy per Si atom -5583.172197 kJ/mol
# Density = 2.309734 g / cm^3
# Si number density = 23.150033 Si / 1000 Ang^3
#
#
#
# Elastic Constant Matrix: (Units=GPa)
#
#
# Indices 1 2 3 4 5 6 
#
# 1 94.0577 35.1620 45.4329 0.0000 0.0000 0.0000
# 2 35.1620 74.6754 43.6998 0.0000 0.0000 0.0000
# 3 45.4329 43.6998 112.1293 0.0000 0.0000 0.0000
# 4 0.0000 0.0000 0.0000 27.7089 0.0000 0.0000
# 5 0.0000 0.0000 0.0000 0.0000 40.0045 0.0000
# 6 0.0000 0.0000 0.0000 0.0000 0.0000 28.8846
#
#
#
# Elastic Compliance Matrix: (Units=1/GPa)
#
#
# Indices 1 2 3 4 5 6 
#
# 1 0.014212 -0.004304 -0.004081 0.000000 0.000000 0.000000
# 2 -0.004304 0.018651 -0.005525 0.000000 0.000000 0.000000
# 3 -0.004081 -0.005525 0.012725 0.000000 0.000000 0.000000
# 4 0.000000 0.000000 0.000000 0.036089 0.000000 0.000000
# 5 0.000000 0.000000 0.000000 0.000000 0.024997 0.000000
# 6 0.000000 0.000000 0.000000 0.000000 0.000000 0.034620
#
#
# Mechanical properties :
#
#
# Convention : Reuss Voigt Hill
#
# Bulk Modulus (GPa) = 56.27976 58.82799 57.55388
# Shear Modulus (GPa) = 28.56527 29.75745 29.16136
#
# Velocity S-wave (km/s) = 3.51653 3.58916 3.55303
# Velocity P-wave (km/s) = 6.39153 6.53015 6.46121
#
# Compressibility (1/GPa) = 0.01776838
#
# Stress axis : x y z
#
# Youngs Moduli (GPa) = 70.36320 53.61663 78.58445
#
# Poissons Ratio (x) = 0.23074 0.32072
# Poissons Ratio (y) = 0.30282 0.43418
# Poissons Ratio (z) = 0.28717 0.29623
#
# Static dielectric constant tensor:
#      x y z
#    x 1.879100 0.000000 0.000000 
#    y 0.000000 1.867970 0.000000 
#    z 0.000000 0.000000 1.900750 
# 
# From -- ./inp_files/1330.got.cif
#   From: 2010.05.17/outbox.cif.g08.bks.cpg/sg33_1_cif.got.tgz:1330.got - 2010.06.03 17:15:25.
