data_PCOD9346465
_publ_section_title
;
Structure prediction by ZEFSAII (Michael W. Deem and Ramdas Pophale) SiO2 
 PCOD9346465
Probable space group: P N A 21
;
_chemical_formula_sum "Si O2"
_cell_formula_units_Z 32
_cell_length_a 8.299767
_cell_length_b 10.808768
_cell_length_c 19.903477
_cell_angle_alpha 90.000000
_cell_angle_beta 90.000000
_cell_angle_gamma 90.000000
_cell_volume 1785.546016
_symmetry_space_group_name_H-M "P N A 21"
_symmetry_group_IT_number 33
_symmetry_cell_setting 'orthorhombic'
loop_
_space_group_symop_operation_xyz
x,y,z
-x,-y,1/2+z
1/2-x,1/2+y,1/2+z
1/2+x,1/2-y,z
loop_
_atom_site_type_symbol
_atom_site_label
_atom_site_fract_x
_atom_site_fract_y
_atom_site_fract_z
Si Si1 0.126385 0.815424 0.526800
Si Si2 0.372946 0.679668 0.425329
Si Si3 0.372947 0.679668 0.924313
Si Si4 0.939249 0.407183 0.867056
Si Si5 0.069452 0.409634 0.253740
Si Si6 0.126385 0.815424 0.822842
Si Si7 0.939249 0.407183 0.482586
Si Si8 0.930548 0.590367 0.595902
O O1 0.250139 0.755716 0.473279
O O2 0.242190 0.886141 0.578044
O O3 0.993675 0.882464 0.479472
O O4 0.032493 0.705879 0.565943
O O5 0.252389 0.602932 0.379103
O O6 0.474685 0.776843 0.381133
O O7 0.250139 0.755716 0.876363
O O8 0.493675 0.617536 0.870170
O O9 0.252390 0.602932 0.970539
O O10 0.474686 0.776842 0.968509
O O11 0.978712 0.469636 0.796357
O O12 0.000000 0.500000 0.924821
O O13 0.257810 0.386140 0.271598
O O14 0.044281 0.420292 0.174821
O O15 0.967506 0.294122 0.283699
O O16 0.978712 0.469636 0.553285
#
# Coordination Sequence:
#
# PCOD9346465 Si02
#       8
#     4   4   4   4   4   4   4   4
#     4   9  17  33  54  81 107 132 176 232 263 308
#     4   9  18  33  55  83 101 132 186 226 254 304
#     4   9  18  33  55  83 101 132 186 226 254 304
#     4  11  19  36  56  79 108 139 180 223 267 316
#     4  11  21  34  53  80 114 144 170 217 282 325
#     4   9  17  33  54  81 107 132 176 232 263 308
#     4  11  19  36  56  79 108 139 180 223 267 316
#     4  11  21  34  53  80 114 144 170 217 282 325
#
# _framework density 17.921689000000001
#
# number of rings (size 3 to 8) (size 9 to 14) (size 15 to 20)
#    0.000    2.000    7.500    0.750    0.000    1.000 
#    0.000    1.250    0.000    0.000    0.000    0.000 
#    0.000    0.000    0.000    0.000    0.000    0.000 
#
# Total GULP energy -178225.229172 kJ/mol
# GULP energy per Si atom -5569.538412 kJ/mol
# Density = 1.788090 g / cm^3
# Si number density = 17.921689 Si / 1000 Ang^3
#
#
#
# Elastic Constant Matrix: (Units=GPa)
#
#
# Indices 1 2 3 4 5 6 
#
# 1 94.6595 25.5885 28.4753 0.0000 0.0000 0.0000
# 2 25.5885 43.2956 34.7477 0.0000 0.0000 0.0000
# 3 28.4753 34.7477 131.9388 0.0000 0.0000 0.0000
# 4 0.0000 0.0000 0.0000 96.4753 0.0000 0.0000
# 5 0.0000 0.0000 0.0000 0.0000 20.2544 0.0000
# 6 0.0000 0.0000 0.0000 0.0000 0.0000 35.7070
#
#
#
# Elastic Compliance Matrix: (Units=1/GPa)
#
#
# Indices 1 2 3 4 5 6 
#
# 1 0.012669 -0.006712 -0.000967 0.000000 0.000000 0.000000
# 2 -0.006712 0.032843 -0.007201 0.000000 0.000000 0.000000
# 3 -0.000967 -0.007201 0.009684 0.000000 0.000000 0.000000
# 4 0.000000 0.000000 0.000000 0.010365 0.000000 0.000000
# 5 0.000000 0.000000 0.000000 0.000000 0.049372 0.000000
# 6 0.000000 0.000000 0.000000 0.000000 0.000000 0.028006
#
#
# Mechanical properties :
#
#
# Convention : Reuss Voigt Hill
#
# Bulk Modulus (GPa) = 39.31195 49.72412 44.51803
# Shear Modulus (GPa) = 27.59703 42.55950 35.07827
#
# Velocity S-wave (km/s) = 3.92837 4.87843 4.42895
# Velocity P-wave (km/s) = 6.52374 7.71605 7.14481
#
# Compressibility (1/GPa) = 0.02543756
#
# Stress axis : x y z
#
# Youngs Moduli (GPa) = 78.93056 30.44759 103.25897
#
# Poissons Ratio (x) = 0.20437 0.09981
# Poissons Ratio (y) = 0.52978 0.74358
# Poissons Ratio (z) = 0.07630 0.21926
#
# Static dielectric constant tensor:
#      x y z
#    x 1.670730 0.000000 0.000000 
#    y 0.000000 1.637790 0.000000 
#    z 0.000000 0.000000 1.594980 
# 
# From -- ./inp_files/9005.got.cif
#   From: 2010.05.17/outbox.cif.g08.bks.cpg/sg33_5_cif.got.tgz:9005.got - 2010.06.03 17:15:25.
