data_PCOD9346696
_publ_section_title
;
Structure prediction by ZEFSAII (Michael W. Deem and Ramdas Pophale) SiO2 
 PCOD9346696
Probable space group: P N A 21
;
_chemical_formula_sum "Si O2"
_cell_formula_units_Z 20
_cell_length_a 8.870857
_cell_length_b 8.876674
_cell_length_c 9.487542
_cell_angle_alpha 90.000000
_cell_angle_beta 90.000000
_cell_angle_gamma 90.000000
_cell_volume 747.084215
_symmetry_space_group_name_H-M "P N A 21"
_symmetry_group_IT_number 33
_symmetry_cell_setting 'orthorhombic'
loop_
_space_group_symop_operation_xyz
x,y,z
-x,-y,1/2+z
1/2-x,1/2+y,1/2+z
1/2+x,1/2-y,z
loop_
_atom_site_type_symbol
_atom_site_label
_atom_site_fract_x
_atom_site_fract_y
_atom_site_fract_z
Si Si1 0.634944 0.729520 0.331780
Si Si2 0.647806 0.471009 0.755412
Si Si3 0.558195 0.787375 0.635137
Si Si4 0.813052 0.442117 0.388821
Si Si5 0.134860 0.335143 0.392420
O O1 0.499180 0.630954 0.272621
O O2 0.713964 0.853952 0.234108
O O3 0.570845 0.809275 0.470989
O O4 0.761593 0.612640 0.385986
O O5 0.596907 0.611642 0.661214
O O6 0.716179 0.561061 0.893282
O O7 0.668402 0.895654 0.723709
O O8 0.407002 0.822018 0.723962
O O9 0.682113 0.330274 0.442693
O O10 0.975424 0.392590 0.451710
#
# Coordination Sequence:
#
# PCOD9346696 Si02
#       5
#     4   4   4   4   4
#     4  12  23  39  69 101 127 179 219 262 347 385
#     4  11  24  40  63 101 132 164 226 275 313 402
#     4   9  23  42  70  89 137 176 216 264 340 380
#     4   9  18  38  64  90 133 168 220 268 314 400
#     4   9  18  41  62  85 131 171 203 279 318 367
#
# _framework density 26.770741000000001
#
# number of rings (size 3 to 8) (size 9 to 14) (size 15 to 20)
#    1.200    0.800    2.000    1.200    5.600    0.000 
#    0.000   10.000    0.000    0.000    0.000    0.000 
#    0.000    0.000    0.000    0.000    0.000    0.000 
#
# Total GULP energy -111603.831958 kJ/mol
# GULP energy per Si atom -5580.191598 kJ/mol
# Density = 2.670981 g / cm^3
# Si number density = 26.770741 Si / 1000 Ang^3
#
#
#
# Elastic Constant Matrix: (Units=GPa)
#
#
# Indices 1 2 3 4 5 6 
#
# 1 153.2997 59.0165 14.6264 0.0000 0.0000 0.0000
# 2 59.0165 156.5042 -3.9343 0.0000 0.0000 0.0000
# 3 14.6264 -3.9343 74.4849 0.0000 0.0000 0.0000
# 4 0.0000 0.0000 0.0000 16.9235 0.0000 0.0000
# 5 0.0000 0.0000 0.0000 0.0000 17.8570 0.0000
# 6 0.0000 0.0000 0.0000 0.0000 0.0000 72.2928
#
#
#
# Elastic Compliance Matrix: (Units=1/GPa)
#
#
# Indices 1 2 3 4 5 6 
#
# 1 0.007840 -0.002999 -0.001698 0.000000 0.000000 0.000000
# 2 -0.002999 0.007545 0.000987 0.000000 0.000000 0.000000
# 3 -0.001698 0.000987 0.013811 0.000000 0.000000 0.000000
# 4 0.000000 0.000000 0.000000 0.059090 0.000000 0.000000
# 5 0.000000 0.000000 0.000000 0.000000 0.056000 0.000000
# 6 0.000000 0.000000 0.000000 0.000000 0.000000 0.013833
#
#
# Mechanical properties :
#
#
# Convention : Reuss Voigt Hill
#
# Bulk Modulus (GPa) = 45.91932 58.18957 52.05444
# Shear Modulus (GPa) = 28.93576 42.38666 35.66121
#
# Velocity S-wave (km/s) = 3.29123 3.98341 3.65375
# Velocity P-wave (km/s) = 5.62432 6.55288 6.10627
#
# Compressibility (1/GPa) = 0.02177733
#
# Stress axis : x y z
#
# Youngs Moduli (GPa) = 127.55602 132.53255 72.40552
#
# Poissons Ratio (x) = 0.39746 0.12294
# Poissons Ratio (y) = 0.38254 -0.07150
# Poissons Ratio (z) = 0.21657 -0.13087
#
# Static dielectric constant tensor:
#      x y z
#    x 2.123670 0.000000 0.000000 
#    y 0.000000 2.078980 0.000000 
#    z 0.000000 0.000000 2.101650 
# 
# From -- ./inp_files/6241.got.cif
#   From: 2010.05.17/outbox.cif.g08.bks.cpg/sg33_4_cif.got.tgz:6241.got - 2010.06.03 17:15:25.
