data_PCOD9346665
_publ_section_title
;
Structure prediction by ZEFSAII (Michael W. Deem and Ramdas Pophale) SiO2 
 PCOD9346665
Probable space group: P N A 21
;
_chemical_formula_sum "Si O2"
_cell_formula_units_Z 24
_cell_length_a 11.042952
_cell_length_b 11.949825
_cell_length_c 7.960243
_cell_angle_alpha 90.000000
_cell_angle_beta 90.000000
_cell_angle_gamma 90.000000
_cell_volume 1050.444364
_symmetry_space_group_name_H-M "P N A 21"
_symmetry_group_IT_number 33
_symmetry_cell_setting 'orthorhombic'
loop_
_space_group_symop_operation_xyz
x,y,z
-x,-y,1/2+z
1/2-x,1/2+y,1/2+z
1/2+x,1/2-y,z
loop_
_atom_site_type_symbol
_atom_site_label
_atom_site_fract_x
_atom_site_fract_y
_atom_site_fract_z
Si Si1 0.975298 0.074467 0.860330
Si Si2 0.341220 0.683257 0.129591
Si Si3 0.861721 0.497434 0.618430
Si Si4 0.381194 0.915264 0.996258
Si Si5 0.252437 0.288215 0.976478
Si Si6 0.320931 0.565613 0.635648
O O1 0.884865 0.156617 0.960442
O O2 0.030957 0.135701 0.696510
O O3 0.902984 0.966464 0.794601
O O4 0.089214 0.049154 0.977149
O O5 0.250044 0.584624 0.083043
O O6 0.356782 0.783064 0.998254
O O7 0.280959 0.738630 0.295720
O O8 0.839905 0.613269 0.522101
O O9 0.984896 0.439371 0.562688
O O10 0.865137 0.528606 0.814891
O O11 0.286182 0.976193 0.119232
O O12 0.236549 0.188123 0.110503
#
# Coordination Sequence:
#
# PCOD9346665 Si02
#       6
#     4   4   4   4   4   4
#     4  11  23  46  74 104 149 187 241 297 361 433
#     4  11  24  49  74 104 146 192 236 304 365 429
#     4  12  27  49  74 109 148 192 243 297 369 429
#     4  12  26  48  73 108 145 192 244 295 360 440
#     4  11  24  44  75 106 142 190 234 300 361 429
#     4  11  26  44  76 105 144 191 242 293 370 424
#
# _framework density 22.847473000000001
#
# number of rings (size 3 to 8) (size 9 to 14) (size 15 to 20)
#    0.000    0.667    5.000    3.000    4.667    2.667 
#    0.000    0.000    0.000    0.000    0.000    0.000 
#    0.000    0.000    0.000    0.000    0.000    0.000 
#
# Total GULP energy -134414.757870 kJ/mol
# GULP energy per Si atom -5600.614911 kJ/mol
# Density = 2.279547 g / cm^3
# Si number density = 22.847473 Si / 1000 Ang^3
#
#
#
# Elastic Constant Matrix: (Units=GPa)
#
#
# Indices 1 2 3 4 5 6 
#
# 1 107.2263 46.7498 30.9217 0.0000 0.0000 0.0000
# 2 46.7498 153.5853 29.2080 0.0000 0.0000 0.0000
# 3 30.9217 29.2080 44.7709 0.0000 0.0000 0.0000
# 4 0.0000 0.0000 0.0000 25.1558 0.0000 0.0000
# 5 0.0000 0.0000 0.0000 0.0000 40.0374 0.0000
# 6 0.0000 0.0000 0.0000 0.0000 0.0000 28.1679
#
#
#
# Elastic Compliance Matrix: (Units=1/GPa)
#
#
# Indices 1 2 3 4 5 6 
#
# 1 0.012404 -0.002450 -0.006968 0.000000 0.000000 0.000000
# 2 -0.002450 0.007917 -0.003473 0.000000 0.000000 0.000000
# 3 -0.006968 -0.003473 0.029414 0.000000 0.000000 0.000000
# 4 0.000000 0.000000 0.000000 0.039752 0.000000 0.000000
# 5 0.000000 0.000000 0.000000 0.000000 0.024977 0.000000
# 6 0.000000 0.000000 0.000000 0.000000 0.000000 0.035501
#
#
# Mechanical properties :
#
#
# Convention : Reuss Voigt Hill
#
# Bulk Modulus (GPa) = 41.74920 57.70460 49.72690
# Shear Modulus (GPa) = 27.21337 31.91909 29.56623
#
# Velocity S-wave (km/s) = 3.45496 3.74177 3.60122
# Velocity P-wave (km/s) = 5.85050 6.63167 6.25330
#
# Compressibility (1/GPa) = 0.02395256
#
# Stress axis : x y z
#
# Youngs Moduli (GPa) = 80.61946 126.30482 33.99704
#
# Poissons Ratio (x) = 0.30950 0.23690
# Poissons Ratio (y) = 0.19755 0.11806
# Poissons Ratio (z) = 0.56178 0.43863
#
# Static dielectric constant tensor:
#      x y z
#    x 1.798690 0.000000 0.000000 
#    y 0.000000 1.839310 0.000000 
#    z 0.000000 0.000000 1.889800 
# 
# From -- ./inp_files/3046.got.cif
#   From: 2010.05.17/outbox.cif.g08.bks.cpg/sg33_2_cif.got.tgz:3046.got - 2010.06.03 17:15:25.
