data_PCOD9346144
_publ_section_title
;
Structure prediction by ZEFSAII (Michael W. Deem and Ramdas Pophale) SiO2 
 PCOD9346144
Probable space group: P N A 21
;
_chemical_formula_sum "Si O2"
_cell_formula_units_Z 20
_cell_length_a 11.506944
_cell_length_b 7.273145
_cell_length_c 9.581729
_cell_angle_alpha 90.000000
_cell_angle_beta 90.000000
_cell_angle_gamma 90.000000
_cell_volume 801.910923
_symmetry_space_group_name_H-M "P N A 21"
_symmetry_group_IT_number 33
_symmetry_cell_setting 'orthorhombic'
loop_
_space_group_symop_operation_xyz
x,y,z
-x,-y,1/2+z
1/2-x,1/2+y,1/2+z
1/2+x,1/2-y,z
loop_
_atom_site_type_symbol
_atom_site_label
_atom_site_fract_x
_atom_site_fract_y
_atom_site_fract_z
Si Si1 0.865431 0.964664 0.810070
Si Si2 0.071963 0.446871 0.309169
Si Si3 0.223238 0.007559 0.603174
Si Si4 0.421338 0.725805 0.319409
Si Si5 0.731606 0.896309 0.547198
O O1 0.932373 0.771615 0.794196
O O2 0.795557 0.007100 0.669271
O O3 0.780080 0.943668 0.941141
O O4 0.956626 0.122977 0.844734
O O5 0.154223 0.517254 0.182596
O O6 0.138899 0.497827 0.453162
O O7 0.954135 0.561424 0.305843
O O8 0.132486 0.136495 0.681679
O O9 0.185660 0.792966 0.615177
O O10 0.332223 0.675343 0.441703
#
# Coordination Sequence:
#
# PCOD9346144 Si02
#       5
#     4   4   4   4   4
#     4  11  23  40  67  97 127 180 222 275 341 400
#     4  10  24  43  65  99 131 178 221 280 336 406
#     4  10  23  45  65  99 136 174 223 279 341 396
#     4  11  23  45  68  94 139 175 225 279 336 406
#     4  10  23  45  65  97 139 169 227 285 332 404
#
# _framework density 24.940427
#
# number of rings (size 3 to 8) (size 9 to 14) (size 15 to 20)
#    0.000    1.600    2.000    1.200    2.800    3.200 
#   14.400    0.000    0.000    0.000    0.000    0.000 
#    0.000    0.000    0.000    0.000    0.000    0.000 
#
# Total GULP energy -112151.958463 kJ/mol
# GULP energy per Si atom -5607.597923 kJ/mol
# Density = 2.488366 g / cm^3
# Si number density = 24.940427 Si / 1000 Ang^3
#
#
#
# Elastic Constant Matrix: (Units=GPa)
#
#
# Indices 1 2 3 4 5 6 
#
# 1 71.4471 25.9052 29.0957 0.0000 0.0000 0.0000
# 2 25.9052 100.2852 -5.3665 0.0000 0.0000 0.0000
# 3 29.0957 -5.3665 124.4680 0.0000 0.0000 0.0000
# 4 0.0000 0.0000 0.0000 11.1660 0.0000 0.0000
# 5 0.0000 0.0000 0.0000 0.0000 15.7704 0.0000
# 6 0.0000 0.0000 0.0000 0.0000 0.0000 41.5373
#
#
#
# Elastic Compliance Matrix: (Units=1/GPa)
#
#
# Indices 1 2 3 4 5 6 
#
# 1 0.017460 -0.004740 -0.004286 0.000000 0.000000 0.000000
# 2 -0.004740 0.011281 0.001594 0.000000 0.000000 0.000000
# 3 -0.004286 0.001594 0.009105 0.000000 0.000000 0.000000
# 4 0.000000 0.000000 0.000000 0.089557 0.000000 0.000000
# 5 0.000000 0.000000 0.000000 0.000000 0.063410 0.000000
# 6 0.000000 0.000000 0.000000 0.000000 0.000000 0.024075
#
#
# Mechanical properties :
#
#
# Convention : Reuss Voigt Hill
#
# Bulk Modulus (GPa) = 43.50861 43.94098 43.72479
# Shear Modulus (GPa) = 21.06045 30.13248 25.59647
#
# Velocity S-wave (km/s) = 2.90906 3.47966 3.20707
# Velocity P-wave (km/s) = 5.36343 5.81383 5.59317
#
# Compressibility (1/GPa) = 0.02298396
#
# Stress axis : x y z
#
# Youngs Moduli (GPa) = 57.27318 88.64326 109.83225
#
# Poissons Ratio (x) = 0.42013 0.47072
# Poissons Ratio (y) = 0.27145 -0.17511
# Poissons Ratio (z) = 0.24546 -0.14133
#
# Static dielectric constant tensor:
#      x y z
#    x 1.949010 0.000000 0.000000 
#    y 0.000000 1.979640 0.000000 
#    z 0.000000 0.000000 1.958140 
# 
# From -- ./inp_files/3640.got.cif
#   From: 2010.05.17/outbox.cif.g08.bks.cpg/sg33_2_cif.got.tgz:3640.got - 2010.06.03 17:15:25.
