data_PCOD9346600
_publ_section_title
;
Structure prediction by ZEFSAII (Michael W. Deem and Ramdas Pophale) SiO2 
 PCOD9346600
Probable space group: P N A 21
;
_chemical_formula_sum "Si O2"
_cell_formula_units_Z 32
_cell_length_a 16.039570
_cell_length_b 15.033434
_cell_length_c 6.813652
_cell_angle_alpha 90.000000
_cell_angle_beta 90.000000
_cell_angle_gamma 90.000000
_cell_volume 1642.974660
_symmetry_space_group_name_H-M "P N A 21"
_symmetry_group_IT_number 33
_symmetry_cell_setting 'orthorhombic'
loop_
_space_group_symop_operation_xyz
x,y,z
-x,-y,1/2+z
1/2-x,1/2+y,1/2+z
1/2+x,1/2-y,z
loop_
_atom_site_type_symbol
_atom_site_label
_atom_site_fract_x
_atom_site_fract_y
_atom_site_fract_z
Si Si1 0.392860 0.007975 0.507540
Si Si2 0.444359 0.900020 0.160211
Si Si3 0.796288 0.533754 0.893598
Si Si4 0.483941 0.291715 0.594927
Si Si5 0.839052 0.183870 0.294092
Si Si6 0.033672 0.904395 0.488533
Si Si7 0.404797 0.590423 0.824723
Si Si8 0.216665 0.619619 0.717197
O O1 0.480705 0.033413 0.604380
O O2 0.356875 0.080861 0.355631
O O3 0.407784 0.922122 0.373113
O O4 0.327243 0.993533 0.679057
O O5 0.370841 0.914445 0.004557
O O6 0.485730 0.804700 0.154889
O O7 0.721492 0.604176 0.865447
O O8 0.782568 0.443576 0.022519
O O9 0.396536 0.290306 0.479864
O O10 0.478194 0.352209 0.786907
O O11 0.551645 0.331162 0.445003
O O12 0.796755 0.273802 0.207798
O O13 0.900605 0.145065 0.128596
O O14 0.947823 0.912666 0.610246
O O15 0.069277 0.000658 0.435323
O O16 0.306556 0.602177 0.812516
#
# Coordination Sequence:
#
# PCOD9346600 Si02
#       8
#     4   4   4   4   4   4   4   4
#     4  11  23  42  66  94 132 174 220 274 339 398
#     4  11  23  41  68  95 128 176 221 271 338 401
#     4  11  25  43  66  98 137 173 223 285 333 404
#     4  11  24  42  70  95 134 174 227 277 326 408
#     4  11  25  43  65  99 138 174 227 282 335 407
#     4  11  24  41  68  95 132 177 219 274 341 398
#     4  11  23  44  67  98 131 177 224 274 339 405
#     4  11  25  42  68  98 132 179 223 279 343 399
#
# _framework density 19.476866999999999
#
# number of rings (size 3 to 8) (size 9 to 14) (size 15 to 20)
#    0.000    1.000    3.750    2.250    3.500    5.000 
#    0.000    0.000    0.000    0.000    0.000    0.000 
#    0.000    0.000    0.000    0.000    0.000    0.000 
#
# Total GULP energy -178790.586772 kJ/mol
# GULP energy per Si atom -5587.205837 kJ/mol
# Density = 1.943254 g / cm^3
# Si number density = 19.476867 Si / 1000 Ang^3
#
#
#
# Elastic Constant Matrix: (Units=GPa)
#
#
# Indices 1 2 3 4 5 6 
#
# 1 64.7669 -1.4169 19.7049 0.0000 0.0000 0.0000
# 2 -1.4169 55.7829 28.6062 0.0000 0.0000 0.0000
# 3 19.7049 28.6062 92.2169 0.0000 0.0000 0.0000
# 4 0.0000 0.0000 0.0000 2.8937 0.0000 0.0000
# 5 0.0000 0.0000 0.0000 0.0000 23.5044 0.0000
# 6 0.0000 0.0000 0.0000 0.0000 0.0000 41.0031
#
#
#
# Elastic Compliance Matrix: (Units=1/GPa)
#
#
# Indices 1 2 3 4 5 6 
#
# 1 0.016850 0.002705 -0.004439 0.000000 0.000000 0.000000
# 2 0.002705 0.021752 -0.007325 0.000000 0.000000 0.000000
# 3 -0.004439 -0.007325 0.014065 0.000000 0.000000 0.000000
# 4 0.000000 0.000000 0.000000 0.345582 0.000000 0.000000
# 5 0.000000 0.000000 0.000000 0.000000 0.042545 0.000000
# 6 0.000000 0.000000 0.000000 0.000000 0.000000 0.024388
#
#
# Mechanical properties :
#
#
# Convention : Reuss Voigt Hill
#
# Bulk Modulus (GPa) = 28.94681 34.06166 31.50423
# Shear Modulus (GPa) = 10.10472 24.53839 17.32156
#
# Velocity S-wave (km/s) = 2.28020 3.55332 2.98542
# Velocity P-wave (km/s) = 4.67192 5.86183 5.30037
#
# Compressibility (1/GPa) = 0.03454613
#
# Stress axis : x y z
#
# Youngs Moduli (GPa) = 59.34777 45.97288 71.09833
#
# Poissons Ratio (x) = -0.12434 0.31564
# Poissons Ratio (y) = -0.16051 0.52083
# Poissons Ratio (z) = 0.26347 0.33677
#
# Static dielectric constant tensor:
#      x y z
#    x 1.658070 0.000000 0.000000 
#    y 0.000000 1.681770 0.000000 
#    z 0.000000 0.000000 1.673420 
# 
# From -- ./inp_files/1835.got.cif
#   From: 2010.05.17/outbox.cif.g08.bks.cpg/sg33_1_cif.got.tgz:1835.got - 2010.06.03 17:15:25.
