data_PCOD9346879
_publ_section_title
;
Structure prediction by ZEFSAII (Michael W. Deem and Ramdas Pophale) SiO2 
 PCOD9346879
Probable space group: P N A 21
;
_chemical_formula_sum "Si O2"
_cell_formula_units_Z 16
_cell_length_a 8.868796
_cell_length_b 11.701256
_cell_length_c 5.310634
_cell_angle_alpha 90.000000
_cell_angle_beta 90.000000
_cell_angle_gamma 90.000000
_cell_volume 551.116632
_symmetry_space_group_name_H-M "P N A 21"
_symmetry_group_IT_number 33
_symmetry_cell_setting 'orthorhombic'
loop_
_space_group_symop_operation_xyz
x,y,z
-x,-y,1/2+z
1/2-x,1/2+y,1/2+z
1/2+x,1/2-y,z
loop_
_atom_site_type_symbol
_atom_site_label
_atom_site_fract_x
_atom_site_fract_y
_atom_site_fract_z
Si Si1 0.311268 0.151050 0.856170
Si Si2 0.956480 0.816814 0.966692
Si Si3 0.622791 0.155316 0.063287
Si Si4 0.682533 0.521676 0.215509
O O1 0.196569 0.170531 0.627878
O O2 0.490588 0.163818 0.853592
O O3 0.248351 0.246234 0.049237
O O4 0.282737 0.029171 0.991313
O O5 0.958986 0.695806 0.820117
O O6 0.940670 0.923237 0.767716
O O7 0.098082 0.863566 0.127340
O O8 0.715236 0.047407 0.959849
#
# Coordination Sequence:
#
# PCOD9346879 Si02
#       4
#     4   4   4   4
#     4  11  26  47  79 118 159 220 266 350 420 497
#     4  11  25  51  81 113 167 219 269 354 424 489
#     4  11  28  48  75 125 159 216 275 342 418 506
#     4  11  25  48  81 116 163 215 282 338 424 500
#
# _framework density 29.031966000000001
#
# number of rings (size 3 to 8) (size 9 to 14) (size 15 to 20)
#    0.000    1.000    2.500    1.500    7.000   10.000 
#    0.000    2.500    0.000    0.000    0.000    0.000 
#    0.000    0.000    0.000    0.000    0.000    0.000 
#
# Total GULP energy -89518.922511 kJ/mol
# GULP energy per Si atom -5594.932657 kJ/mol
# Density = 2.896589 g / cm^3
# Si number density = 29.031966 Si / 1000 Ang^3
#
#
#
# Elastic Constant Matrix: (Units=GPa)
#
#
# Indices 1 2 3 4 5 6 
#
# 1 158.5204 55.1877 30.7236 0.0000 0.0000 0.0000
# 2 55.1877 95.7142 37.7092 0.0000 0.0000 0.0000
# 3 30.7236 37.7092 158.8468 0.0000 0.0000 0.0000
# 4 0.0000 0.0000 0.0000 55.3916 0.0000 0.0000
# 5 0.0000 0.0000 0.0000 0.0000 29.2803 0.0000
# 6 0.0000 0.0000 0.0000 0.0000 0.0000 55.2450
#
#
#
# Elastic Compliance Matrix: (Units=1/GPa)
#
#
# Indices 1 2 3 4 5 6 
#
# 1 0.007928 -0.004376 -0.000494 0.000000 0.000000 0.000000
# 2 -0.004376 0.013941 -0.002463 0.000000 0.000000 0.000000
# 3 -0.000494 -0.002463 0.006976 0.000000 0.000000 0.000000
# 4 0.000000 0.000000 0.000000 0.018053 0.000000 0.000000
# 5 0.000000 0.000000 0.000000 0.000000 0.034153 0.000000
# 6 0.000000 0.000000 0.000000 0.000000 0.000000 0.018101
#
#
# Mechanical properties :
#
#
# Convention : Reuss Voigt Hill
#
# Bulk Modulus (GPa) = 70.53570 73.36915 71.95242
# Shear Modulus (GPa) = 42.17788 47.28076 44.72932
#
# Velocity S-wave (km/s) = 3.81571 4.03994 3.92942
# Velocity P-wave (km/s) = 6.61524 6.86208 6.73979
#
# Compressibility (1/GPa) = 0.01417722
#
# Stress axis : x y z
#
# Youngs Moduli (GPa) = 126.13965 71.72837 143.35362
#
# Poissons Ratio (x) = 0.31390 0.07088
# Poissons Ratio (y) = 0.55202 0.35311
# Poissons Ratio (z) = 0.06237 0.17668
#
# Static dielectric constant tensor:
#      x y z
#    x 2.109750 0.000000 0.000000 
#    y 0.000000 2.333260 0.000000 
#    z 0.000000 0.000000 2.454310 
# 
# From -- ./inp_files/266.got.cif
#   From: 2010.05.17/outbox.cif.g08.bks.cpg/sg33_1_cif.got.tgz:266.got - 2010.06.03 17:15:25.
