data_PCOD9346281
_publ_section_title
;
Structure prediction by ZEFSAII (Michael W. Deem and Ramdas Pophale) SiO2 
 PCOD9346281
Probable space group: P N A 21
;
_chemical_formula_sum "Si O2"
_cell_formula_units_Z 28
_cell_length_a 8.884871
_cell_length_b 8.026688
_cell_length_c 15.910872
_cell_angle_alpha 90.000000
_cell_angle_beta 90.000000
_cell_angle_gamma 90.000000
_cell_volume 1134.701139
_symmetry_space_group_name_H-M "P N A 21"
_symmetry_group_IT_number 33
_symmetry_cell_setting 'orthorhombic'
loop_
_space_group_symop_operation_xyz
x,y,z
-x,-y,1/2+z
1/2-x,1/2+y,1/2+z
1/2+x,1/2-y,z
loop_
_atom_site_type_symbol
_atom_site_label
_atom_site_fract_x
_atom_site_fract_y
_atom_site_fract_z
Si Si1 0.793357 0.562169 0.686760
Si Si2 0.599896 0.010363 0.896373
Si Si3 0.574503 0.668921 0.396296
Si Si4 0.498383 0.307006 0.092010
Si Si5 0.041067 0.635230 0.079284
Si Si6 0.336442 0.372083 0.363176
Si Si7 0.779962 0.067169 0.544599
O O1 0.634282 0.604145 0.642979
O O2 0.941087 0.654392 0.647955
O O3 0.845385 0.380979 0.657125
O O4 0.764981 0.601953 0.782240
O O5 0.481635 0.150261 0.864088
O O6 0.758874 0.102961 0.878605
O O7 0.604265 0.819569 0.862483
O O8 0.589320 0.977602 0.998204
O O9 0.562038 0.700356 0.496899
O O10 0.463685 0.517043 0.368918
O O11 0.660058 0.394229 0.076828
O O12 0.070725 0.822060 0.049377
O O13 0.866734 0.613647 0.095173
O O14 0.238509 0.406519 0.447172
#
# Coordination Sequence:
#
# PCOD9346281 Si02
#       7
#     4   4   4   4   4   4   4
#     4  12  24  43  69 103 143 178 235 308 371 416
#     4  11  25  42  74 102 139 192 245 296 353 442
#     4  11  23  47  70 103 139 193 245 291 350 451
#     4  11  22  41  68  97 136 183 239 288 354 434
#     4  11  22  42  73 102 139 188 248 297 360 437
#     4  10  28  44  74 107 149 186 243 305 379 421
#     4  10  24  43  72 102 137 194 245 291 353 451
#
# _framework density 24.676099000000001
#
# number of rings (size 3 to 8) (size 9 to 14) (size 15 to 20)
#    0.000    1.143    2.857    1.714   16.000    0.000 
#    2.571    1.429    0.000    0.000    0.000    0.000 
#    0.000    0.000    0.000    0.000    0.000    0.000 
#
# Total GULP energy -156334.010635 kJ/mol
# GULP energy per Si atom -5583.357523 kJ/mol
# Density = 2.461993 g / cm^3
# Si number density = 24.676099 Si / 1000 Ang^3
#
#
#
# Elastic Constant Matrix: (Units=GPa)
#
#
# Indices 1 2 3 4 5 6 
#
# 1 122.0171 51.1554 21.6525 0.0000 0.0000 0.0000
# 2 51.1554 141.9092 15.6065 0.0000 0.0000 0.0000
# 3 21.6525 15.6065 63.3942 0.0000 0.0000 0.0000
# 4 0.0000 0.0000 0.0000 11.9930 0.0000 0.0000
# 5 0.0000 0.0000 0.0000 0.0000 21.6488 0.0000
# 6 0.0000 0.0000 0.0000 0.0000 0.0000 56.0053
#
#
#
# Elastic Compliance Matrix: (Units=1/GPa)
#
#
# Indices 1 2 3 4 5 6 
#
# 1 0.010059 -0.003339 -0.002614 0.000000 0.000000 0.000000
# 2 -0.003339 0.008351 -0.000916 0.000000 0.000000 0.000000
# 3 -0.002614 -0.000916 0.016892 0.000000 0.000000 0.000000
# 4 0.000000 0.000000 0.000000 0.083382 0.000000 0.000000
# 5 0.000000 0.000000 0.000000 0.000000 0.046192 0.000000
# 6 0.000000 0.000000 0.000000 0.000000 0.000000 0.017855
#
#
# Mechanical properties :
#
#
# Convention : Reuss Voigt Hill
#
# Bulk Modulus (GPa) = 46.36809 56.01659 51.19234
# Shear Modulus (GPa) = 24.55108 33.85649 29.20379
#
# Velocity S-wave (km/s) = 3.15768 3.70812 3.44391
# Velocity P-wave (km/s) = 5.66799 6.40965 6.05019
#
# Compressibility (1/GPa) = 0.02156656
#
# Stress axis : x y z
#
# Youngs Moduli (GPa) = 99.41217 119.74666 59.19802
#
# Poissons Ratio (x) = 0.39979 0.15473
# Poissons Ratio (y) = 0.33190 0.05420
# Poissons Ratio (z) = 0.25984 0.10963
#
# Static dielectric constant tensor:
#      x y z
#    x 1.923920 0.000000 0.000000 
#    y 0.000000 2.272850 0.000000 
#    z 0.000000 0.000000 2.041590 
# 
# From -- ./inp_files/8479.got.cif
#   From: 2010.05.17/outbox.cif.g08.bks.cpg/sg33_5_cif.got.tgz:8479.got - 2010.06.03 17:15:25.
