data_PCOD9346115
_publ_section_title
;
Structure prediction by ZEFSAII (Michael W. Deem and Ramdas Pophale) SiO2 
 PCOD9346115
Probable space group: P N A 21
;
_chemical_formula_sum "Si O2"
_cell_formula_units_Z 24
_cell_length_a 28.514834
_cell_length_b 5.542819
_cell_length_c 7.045454
_cell_angle_alpha 90.000000
_cell_angle_beta 90.000000
_cell_angle_gamma 90.000000
_cell_volume 1113.552067
_symmetry_space_group_name_H-M "P N A 21"
_symmetry_group_IT_number 33
_symmetry_cell_setting 'orthorhombic'
loop_
_space_group_symop_operation_xyz
x,y,z
-x,-y,1/2+z
1/2-x,1/2+y,1/2+z
1/2+x,1/2-y,z
loop_
_atom_site_type_symbol
_atom_site_label
_atom_site_fract_x
_atom_site_fract_y
_atom_site_fract_z
Si Si1 0.452105 0.868564 0.890830
Si Si2 0.899245 0.345429 0.187824
Si Si3 0.699623 0.065650 0.639022
Si Si4 0.044270 0.736745 0.065901
Si Si5 0.713497 0.568384 0.410218
Si Si6 0.115666 0.995460 0.341805
O O1 0.399556 0.769375 0.857293
O O2 0.464547 0.001631 0.696376
O O3 0.494142 0.698934 0.969249
O O4 0.441209 0.042222 0.065740
O O5 0.853673 0.515630 0.204580
O O6 0.920048 0.294263 0.392687
O O7 0.885760 0.119160 0.053216
O O8 0.706290 0.327264 0.539272
O O9 0.737089 0.051476 0.807230
O O10 0.710900 0.831220 0.508214
O O11 0.072929 0.902084 0.212246
O O12 0.667861 0.555462 0.271080
#
# Coordination Sequence:
#
# PCOD9346115 Si02
#       6
#     4   4   4   4   4   4
#     4  11  22  42  60  92 130 171 220 277 326 403
#     4  10  23  44  62  92 132 169 223 270 336 394
#     4  11  24  44  71  99 137 176 222 283 339 406
#     4  11  24  38  65  93 126 179 221 274 337 401
#     4  11  24  45  69 102 135 176 224 280 342 404
#     4  10  25  41  63  92 134 167 222 276 332 402
#
# _framework density 21.552654
#
# number of rings (size 3 to 8) (size 9 to 14) (size 15 to 20)
#    0.000    1.333    3.333    1.000    4.667    2.667 
#    0.000    0.000    0.000    0.000    0.000    0.000 
#    0.000    0.000    0.000    0.000    0.000    0.000 
#
# Total GULP energy -133634.372369 kJ/mol
# GULP energy per Si atom -5568.098849 kJ/mol
# Density = 2.150360 g / cm^3
# Si number density = 21.552654 Si / 1000 Ang^3
#
#
#
# Elastic Constant Matrix: (Units=GPa)
#
#
# Indices 1 2 3 4 5 6 
#
# 1 112.7895 3.3547 32.7850 0.0000 0.0000 0.0000
# 2 3.3547 54.7587 4.4147 0.0000 0.0000 0.0000
# 3 32.7850 4.4147 76.0915 0.0000 0.0000 0.0000
# 4 0.0000 0.0000 0.0000 5.2763 0.0000 0.0000
# 5 0.0000 0.0000 0.0000 0.0000 40.2535 0.0000
# 6 0.0000 0.0000 0.0000 0.0000 0.0000 31.4152
#
#
#
# Elastic Compliance Matrix: (Units=1/GPa)
#
#
# Indices 1 2 3 4 5 6 
#
# 1 0.010139 -0.000270 -0.004353 0.000000 0.000000 0.000000
# 2 -0.000270 0.018355 -0.000948 0.000000 0.000000 0.000000
# 3 -0.004353 -0.000948 0.015073 0.000000 0.000000 0.000000
# 4 0.000000 0.000000 0.000000 0.189527 0.000000 0.000000
# 5 0.000000 0.000000 0.000000 0.000000 0.024843 0.000000
# 6 0.000000 0.000000 0.000000 0.000000 0.000000 0.031832
#
#
# Mechanical properties :
#
#
# Convention : Reuss Voigt Hill
#
# Bulk Modulus (GPa) = 30.84176 36.08316 33.46246
# Shear Modulus (GPa) = 16.04008 28.92802 22.48405
#
# Velocity S-wave (km/s) = 2.73101 3.66758 3.23339
# Velocity P-wave (km/s) = 4.92804 5.89178 5.43133
#
# Compressibility (1/GPa) = 0.03242357
#
# Stress axis : x y z
#
# Youngs Moduli (GPa) = 98.62492 54.48116 66.34534
#
# Poissons Ratio (x) = 0.01472 0.28880
# Poissons Ratio (y) = 0.02665 0.06293
# Poissons Ratio (z) = 0.42932 0.05167
#
# Static dielectric constant tensor:
#      x y z
#    x 1.821690 0.000000 0.000000 
#    y 0.000000 1.883940 0.000000 
#    z 0.000000 0.000000 1.807260 
# 
# From -- ./inp_files/2480.got.cif
#   From: 2010.05.17/outbox.cif.g08.bks.cpg/sg33_2_cif.got.tgz:2480.got - 2010.06.03 17:15:25.
