data_PCOD9346489
_publ_section_title
;
Structure prediction by ZEFSAII (Michael W. Deem and Ramdas Pophale) SiO2 
 PCOD9346489
Probable space group: P N A 21
;
_chemical_formula_sum "Si O2"
_cell_formula_units_Z 32
_cell_length_a 9.747239
_cell_length_b 19.598905
_cell_length_c 7.714852
_cell_angle_alpha 90.000000
_cell_angle_beta 90.000000
_cell_angle_gamma 90.000000
_cell_volume 1473.808381
_symmetry_space_group_name_H-M "P N A 21"
_symmetry_group_IT_number 33
_symmetry_cell_setting 'orthorhombic'
loop_
_space_group_symop_operation_xyz
x,y,z
-x,-y,1/2+z
1/2-x,1/2+y,1/2+z
1/2+x,1/2-y,z
loop_
_atom_site_type_symbol
_atom_site_label
_atom_site_fract_x
_atom_site_fract_y
_atom_site_fract_z
Si Si1 0.671635 0.965906 0.493580
Si Si2 0.573947 0.541811 0.890032
Si Si3 0.086883 0.536978 0.889514
Si Si4 0.832245 0.045419 0.993345
Si Si5 0.217233 0.683137 0.475690
Si Si6 0.519184 0.691042 0.903417
Si Si7 0.703220 0.818297 0.900529
Si Si8 0.464514 0.311545 0.980332
O O1 0.621718 0.961953 0.688610
O O2 0.664261 0.890505 0.413672
O O3 0.827860 0.990307 0.490374
O O4 0.573016 0.021445 0.408032
O O5 0.627916 0.541511 0.694532
O O6 0.578848 0.618304 0.961746
O O7 0.420568 0.513293 0.899377
O O8 0.139686 0.609613 0.959689
O O9 0.174534 0.474594 0.969279
O O10 0.884679 0.119129 0.930651
O O11 0.209828 0.681525 0.688072
O O12 0.376777 0.690138 0.423699
O O13 0.122436 0.746111 0.422050
O O14 0.606911 0.756093 0.957566
O O15 0.360105 0.692892 0.956161
O O16 0.527345 0.689425 0.691905
#
# Coordination Sequence:
#
# PCOD9346489 Si02
#       8
#     4   4   4   4   4   4   4   4
#     4  11  23  39  59  87 118 151 193 241 291 342
#     4  11  21  37  61  87 115 152 192 236 287 340
#     4  11  23  39  59  87 118 151 193 241 291 342
#     4  11  21  37  61  87 115 152 192 236 287 340
#     4   9  18  33  54  82 113 145 190 239 277 330
#     4   9  18  32  54  83 112 146 191 237 279 329
#     4   9  18  33  54  82 113 145 190 239 277 330
#     4   9  18  32  54  83 112 146 191 237 279 329
#
# _framework density 21.712454999999999
#
# number of rings (size 3 to 8) (size 9 to 14) (size 15 to 20)
#    0.000    2.000    2.500    1.500    3.500    0.000 
#    0.000    0.000    0.000    9.000    0.000    0.000 
#    0.000    0.000    0.000    0.000    0.000    0.000 
#
# Total GULP energy -178812.073090 kJ/mol
# GULP energy per Si atom -5587.877284 kJ/mol
# Density = 2.166304 g / cm^3
# Si number density = 21.712455 Si / 1000 Ang^3
#
#
#
# Elastic Constant Matrix: (Units=GPa)
#
#
# Indices 1 2 3 4 5 6 
#
# 1 69.5478 46.5591 -0.8190 0.0000 0.0000 0.0000
# 2 46.5591 159.2707 4.8609 0.0000 0.0000 0.0000
# 3 -0.8190 4.8609 33.3773 0.0000 0.0000 0.0000
# 4 0.0000 0.0000 0.0000 6.8473 0.0000 0.0000
# 5 0.0000 0.0000 0.0000 0.0000 25.2302 0.0000
# 6 0.0000 0.0000 0.0000 0.0000 0.0000 43.7758
#
#
#
# Elastic Compliance Matrix: (Units=1/GPa)
#
#
# Indices 1 2 3 4 5 6 
#
# 1 0.017926 -0.005277 0.001208 0.000000 0.000000 0.000000
# 2 -0.005277 0.007860 -0.001274 0.000000 0.000000 0.000000
# 3 0.001208 -0.001274 0.030176 0.000000 0.000000 0.000000
# 4 0.000000 0.000000 0.000000 0.146043 0.000000 0.000000
# 5 0.000000 0.000000 0.000000 0.000000 0.039635 0.000000
# 6 0.000000 0.000000 0.000000 0.000000 0.000000 0.022844
#
#
# Mechanical properties :
#
#
# Convention : Reuss Voigt Hill
#
# Bulk Modulus (GPa) = 22.08690 40.37755 31.23223
# Shear Modulus (GPa) = 17.22591 29.27697 23.25144
#
# Velocity S-wave (km/s) = 2.81973 3.67603 3.27598
# Velocity P-wave (km/s) = 4.56023 6.05430 5.35958
#
# Compressibility (1/GPa) = 0.04527571
#
# Stress axis : x y z
#
# Youngs Moduli (GPa) = 55.78635 127.22463 33.13920
#
# Poissons Ratio (x) = 0.67136 -0.04004
# Poissons Ratio (y) = 0.29438 0.04223
# Poissons Ratio (z) = -0.06741 0.16211
#
# Static dielectric constant tensor:
#      x y z
#    x 1.745330 0.000000 0.000000 
#    y 0.000000 1.774290 0.000000 
#    z 0.000000 0.000000 1.842440 
# 
# From -- ./inp_files/6081.got.cif
#   From: 2010.05.17/outbox.cif.g08.bks.cpg/sg33_4_cif.got.tgz:6081.got - 2010.06.03 17:15:25.
