data_PCOD9346598
_publ_section_title
;
Structure prediction by ZEFSAII (Michael W. Deem and Ramdas Pophale) SiO2 
 PCOD9346598
Probable space group: P N A 21
;
_chemical_formula_sum "Si O2"
_cell_formula_units_Z 24
_cell_length_a 7.175621
_cell_length_b 16.760846
_cell_length_c 8.815184
_cell_angle_alpha 90.000000
_cell_angle_beta 90.000000
_cell_angle_gamma 90.000000
_cell_volume 1060.197583
_symmetry_space_group_name_H-M "P N A 21"
_symmetry_group_IT_number 33
_symmetry_cell_setting 'orthorhombic'
loop_
_space_group_symop_operation_xyz
x,y,z
-x,-y,1/2+z
1/2-x,1/2+y,1/2+z
1/2+x,1/2-y,z
loop_
_atom_site_type_symbol
_atom_site_label
_atom_site_fract_x
_atom_site_fract_y
_atom_site_fract_z
Si Si1 0.642732 0.060770 0.568730
Si Si2 0.142732 0.439230 0.221268
Si Si3 0.845745 0.301707 0.220945
Si Si4 0.345745 0.198293 0.569053
Si Si5 0.522594 0.641177 0.216593
Si Si6 0.977405 0.141177 0.073405
O O1 0.679989 0.037695 0.394999
O O2 0.528782 0.143817 0.569284
O O3 0.834828 0.074689 0.656536
O O4 0.500000 0.000000 0.644999
O O5 0.028782 0.356183 0.220714
O O6 0.334828 0.425311 0.133461
O O7 0.810881 0.275534 0.394999
O O8 0.881727 0.226362 0.113779
O O9 0.672212 0.353614 0.162279
O O10 0.381727 0.273638 0.676219
O O11 0.172212 0.146386 0.627719
O O12 0.492377 0.633659 0.394999
#
# Coordination Sequence:
#
# PCOD9346598 Si02
#       6
#     4   4   4   4   4   4
#     4  11  25  44  67  94 132 172 214 268 327 385
#     4  11  25  44  67  94 132 172 214 268 327 385
#     4  11  23  41  66  94 128 171 215 263 321 382
#     4  11  23  41  66  94 128 171 215 263 321 382
#     4  12  24  39  66  98 129 167 216 268 319 382
#     4  12  24  39  66  98 129 167 216 268 319 382
#
# _framework density 22.637291999999999
#
# number of rings (size 3 to 8) (size 9 to 14) (size 15 to 20)
#    0.000    0.667    3.333    5.000    0.000    5.333 
#    0.000    0.000    0.000    0.000    0.000    0.000 
#    0.000    0.000    0.000    0.000    0.000    0.000 
#
# Total GULP energy -134460.251002 kJ/mol
# GULP energy per Si atom -5602.510458 kJ/mol
# Density = 2.258577 g / cm^3
# Si number density = 22.637292 Si / 1000 Ang^3
#
#
#
# Elastic Constant Matrix: (Units=GPa)
#
#
# Indices 1 2 3 4 5 6 
#
# 1 117.8092 -3.0949 17.7687 0.0000 0.0000 0.0000
# 2 -3.0949 41.8138 -0.4786 0.0000 0.0000 0.0000
# 3 17.7687 -0.4786 103.3541 0.0000 0.0000 0.0000
# 4 0.0000 0.0000 0.0000 29.1426 0.0000 0.0000
# 5 0.0000 0.0000 0.0000 0.0000 31.5578 0.0000
# 6 0.0000 0.0000 0.0000 0.0000 0.0000 38.7528
#
#
#
# Elastic Compliance Matrix: (Units=1/GPa)
#
#
# Indices 1 2 3 4 5 6 
#
# 1 0.008731 0.000629 -0.001498 0.000000 0.000000 0.000000
# 2 0.000629 0.023962 0.000003 0.000000 0.000000 0.000000
# 3 -0.001498 0.000003 0.009933 0.000000 0.000000 0.000000
# 4 0.000000 0.000000 0.000000 0.034314 0.000000 0.000000
# 5 0.000000 0.000000 0.000000 0.000000 0.031688 0.000000
# 6 0.000000 0.000000 0.000000 0.000000 0.000000 0.025805
#
#
# Mechanical properties :
#
#
# Convention : Reuss Voigt Hill
#
# Bulk Modulus (GPa) = 24.45375 32.37418 28.41396
# Shear Modulus (GPa) = 33.37873 36.47611 34.92742
#
# Velocity S-wave (km/s) = 3.84409 4.01849 3.93226
# Velocity P-wave (km/s) = 5.52527 5.98860 5.76159
#
# Compressibility (1/GPa) = 0.04089353
#
# Stress axis : x y z
#
# Youngs Moduli (GPa) = 114.53737 41.73251 100.67412
#
# Poissons Ratio (x) = -0.02625 0.15082
# Poissons Ratio (y) = -0.07205 -0.00028
# Poissons Ratio (z) = 0.17159 -0.00012
#
# Static dielectric constant tensor:
#      x y z
#    x 1.827000 0.000000 0.000000 
#    y 0.000000 1.884110 0.000000 
#    z 0.000000 0.000000 1.762240 
# 
# From -- ./inp_files/2658.got.cif
#   From: 2010.05.17/outbox.cif.g08.bks.cpg/sg33_2_cif.got.tgz:2658.got - 2010.06.03 17:15:25.
