data_PCOD9346188
_publ_section_title
;
Structure prediction by ZEFSAII (Michael W. Deem and Ramdas Pophale) SiO2 
 PCOD9346188
Probable space group: P N A 21
;
_chemical_formula_sum "Si O2"
_cell_formula_units_Z 28
_cell_length_a 10.348831
_cell_length_b 6.442263
_cell_length_c 19.779906
_cell_angle_alpha 90.000000
_cell_angle_beta 90.000000
_cell_angle_gamma 90.000000
_cell_volume 1318.724178
_symmetry_space_group_name_H-M "P N A 21"
_symmetry_group_IT_number 33
_symmetry_cell_setting 'orthorhombic'
loop_
_space_group_symop_operation_xyz
x,y,z
-x,-y,1/2+z
1/2-x,1/2+y,1/2+z
1/2+x,1/2-y,z
loop_
_atom_site_type_symbol
_atom_site_label
_atom_site_fract_x
_atom_site_fract_y
_atom_site_fract_z
Si Si1 0.741127 0.778751 0.674180
Si Si2 0.170578 0.857313 0.966990
Si Si3 0.813886 0.947609 0.060554
Si Si4 0.051846 0.432846 0.614212
Si Si5 0.492886 0.740480 0.497855
Si Si6 0.514623 0.141097 0.240778
Si Si7 0.550031 0.092570 0.397450
O O1 0.729196 0.582578 0.624432
O O2 0.695799 0.978056 0.631495
O O3 0.627543 0.763521 0.730232
O O4 0.877889 0.792088 0.709535
O O5 0.304677 0.872359 0.925142
O O6 0.050878 0.766550 0.923926
O O7 0.206104 0.693404 0.025667
O O8 0.125826 0.081361 0.994333
O O9 0.927732 0.790558 0.083193
O O10 0.878457 0.103129 0.007199
O O11 0.995588 0.603536 0.562182
O O12 0.984934 0.449073 0.687257
O O13 0.501087 0.880365 0.431667
O O14 0.545228 0.086205 0.316908
#
# Coordination Sequence:
#
# PCOD9346188 Si02
#       7
#     4   4   4   4   4   4   4
#     4   9  23  41  73  97 142 178 232 287 356 417
#     4  12  26  43  74 104 143 189 240 303 356 432
#     4  11  23  43  70 110 133 184 235 304 351 419
#     4   9  22  42  66 101 136 176 233 295 348 412
#     4  11  24  43  70 102 141 184 240 297 351 415
#     4  10  23  47  66 100 142 185 226 288 352 433
#     4  12  27  47  69 104 149 188 240 288 366 434
#
# _framework density 21.232642999999999
#
# number of rings (size 3 to 8) (size 9 to 14) (size 15 to 20)
#    0.857    0.571    2.857    0.857    8.000    0.000 
#    5.143    0.000    0.000    0.000    0.000    0.000 
#    0.000    0.000    0.000    0.000    0.000    0.000 
#
# Total GULP energy -156338.858221 kJ/mol
# GULP energy per Si atom -5583.530651 kJ/mol
# Density = 2.118432 g / cm^3
# Si number density = 21.232643 Si / 1000 Ang^3
#
#
#
# Elastic Constant Matrix: (Units=GPa)
#
#
# Indices 1 2 3 4 5 6 
#
# 1 71.7503 -6.4694 -14.1340 0.0000 0.0000 0.0000
# 2 -6.4694 52.2409 10.5668 0.0000 0.0000 0.0000
# 3 -14.1340 10.5668 89.6238 0.0000 0.0000 0.0000
# 4 0.0000 0.0000 0.0000 19.9061 0.0000 0.0000
# 5 0.0000 0.0000 0.0000 0.0000 18.8477 0.0000
# 6 0.0000 0.0000 0.0000 0.0000 0.0000 40.9242
#
#
#
# Elastic Compliance Matrix: (Units=1/GPa)
#
#
# Indices 1 2 3 4 5 6 
#
# 1 0.014478 0.001364 0.002123 0.000000 0.000000 0.000000
# 2 0.001364 0.019738 -0.002112 0.000000 0.000000 0.000000
# 3 0.002123 -0.002112 0.011742 0.000000 0.000000 0.000000
# 4 0.000000 0.000000 0.000000 0.050236 0.000000 0.000000
# 5 0.000000 0.000000 0.000000 0.000000 0.053057 0.000000
# 6 0.000000 0.000000 0.000000 0.000000 0.000000 0.024435
#
#
# Mechanical properties :
#
#
# Convention : Reuss Voigt Hill
#
# Bulk Modulus (GPa) = 20.53135 21.50465 21.01800
# Shear Modulus (GPa) = 26.71319 30.84570 28.77944
#
# Velocity S-wave (km/s) = 3.55085 3.81563 3.68562
# Velocity P-wave (km/s) = 5.14801 5.43711 5.29453
#
# Compressibility (1/GPa) = 0.04870599
#
# Stress axis : x y z
#
# Youngs Moduli (GPa) = 69.06895 50.66321 85.16796
#
# Poissons Ratio (x) = -0.06909 -0.18077
# Poissons Ratio (y) = -0.09418 0.17989
# Poissons Ratio (z) = -0.14660 0.10701
#
# Static dielectric constant tensor:
#      x y z
#    x 1.845600 0.000000 0.000000 
#    y 0.000000 1.758170 0.000000 
#    z 0.000000 0.000000 1.743240 
# 
# From -- ./inp_files/9025.got.cif
#   From: 2010.05.17/outbox.cif.g08.bks.cpg/sg33_5_cif.got.tgz:9025.got - 2010.06.03 17:15:25.
