data_PCOD9346836
_publ_section_title
;
Structure prediction by ZEFSAII (Michael W. Deem and Ramdas Pophale) SiO2 
 PCOD9346836
Probable space group: P N A 21
;
_chemical_formula_sum "Si O2"
_cell_formula_units_Z 20
_cell_length_a 7.435616
_cell_length_b 20.588202
_cell_length_c 5.209019
_cell_angle_alpha 90.000000
_cell_angle_beta 90.000000
_cell_angle_gamma 90.000000
_cell_volume 797.427696
_symmetry_space_group_name_H-M "P N A 21"
_symmetry_group_IT_number 33
_symmetry_cell_setting 'orthorhombic'
loop_
_space_group_symop_operation_xyz
x,y,z
-x,-y,1/2+z
1/2-x,1/2+y,1/2+z
1/2+x,1/2-y,z
loop_
_atom_site_type_symbol
_atom_site_label
_atom_site_fract_x
_atom_site_fract_y
_atom_site_fract_z
Si Si1 0.122349 0.560781 0.970900
Si Si2 0.269267 0.936822 0.232020
Si Si3 0.441421 0.300611 0.226650
Si Si4 0.449436 0.839807 0.605888
Si Si5 0.577006 0.364054 0.712924
O O1 0.239148 0.496722 0.926519
O O2 0.080358 0.608436 0.735666
O O3 0.229190 0.605010 0.172877
O O4 0.920881 0.538371 0.038692
O O5 0.361654 0.872788 0.355700
O O6 0.074775 0.917080 0.138128
O O7 0.448097 0.228495 0.107210
O O8 0.235486 0.323770 0.262286
O O9 0.542987 0.308211 0.498575
O O10 0.533761 0.343434 0.002782
#
# Coordination Sequence:
#
# PCOD9346836 Si02
#       5
#     4   4   4   4   4
#     4  12  25  45  76 101 148 194 239 304 366 428
#     4  11  26  46  69 109 144 191 245 300 362 441
#     4  11  26  47  71 109 144 190 240 302 354 439
#     4  11  25  45  72 103 149 186 244 296 363 427
#     4  11  28  47  74 108 145 187 246 294 367 427
#
# _framework density 25.080645000000001
#
# number of rings (size 3 to 8) (size 9 to 14) (size 15 to 20)
#    0.000    0.800    4.000    1.200    8.400    6.400 
#    0.000    0.000    0.000    0.000    0.000    0.000 
#    0.000    0.000    0.000    0.000    0.000    0.000 
#
# Total GULP energy -111846.028156 kJ/mol
# GULP energy per Si atom -5592.301408 kJ/mol
# Density = 2.502356 g / cm^3
# Si number density = 25.080645 Si / 1000 Ang^3
#
#
#
# Elastic Constant Matrix: (Units=GPa)
#
#
# Indices 1 2 3 4 5 6 
#
# 1 110.1867 19.3527 19.2259 0.0000 0.0000 0.0000
# 2 19.3527 91.6956 5.8117 0.0000 0.0000 0.0000
# 3 19.2259 5.8117 68.4685 0.0000 0.0000 0.0000
# 4 0.0000 0.0000 0.0000 26.0823 0.0000 0.0000
# 5 0.0000 0.0000 0.0000 0.0000 33.6272 0.0000
# 6 0.0000 0.0000 0.0000 0.0000 0.0000 32.5802
#
#
#
# Elastic Compliance Matrix: (Units=1/GPa)
#
#
# Indices 1 2 3 4 5 6 
#
# 1 0.009867 -0.001917 -0.002608 0.000000 0.000000 0.000000
# 2 -0.001917 0.011337 -0.000424 0.000000 0.000000 0.000000
# 3 -0.002608 -0.000424 0.015374 0.000000 0.000000 0.000000
# 4 0.000000 0.000000 0.000000 0.038340 0.000000 0.000000
# 5 0.000000 0.000000 0.000000 0.000000 0.029738 0.000000
# 6 0.000000 0.000000 0.000000 0.000000 0.000000 0.030693
#
#
# Mechanical properties :
#
#
# Convention : Reuss Voigt Hill
#
# Bulk Modulus (GPa) = 37.48175 39.90351 38.69263
# Shear Modulus (GPa) = 32.43782 33.52198 32.97990
#
# Velocity S-wave (km/s) = 3.60021 3.65988 3.63016
# Velocity P-wave (km/s) = 5.67969 5.81414 5.74731
#
# Compressibility (1/GPa) = 0.02667965
#
# Stress axis : x y z
#
# Youngs Moduli (GPa) = 101.34494 88.20555 65.04673
#
# Poissons Ratio (x) = 0.16911 0.16964
# Poissons Ratio (y) = 0.19430 0.02758
# Poissons Ratio (z) = 0.26431 0.03740
#
# Static dielectric constant tensor:
#      x y z
#    x 1.958540 0.000000 0.000000 
#    y 0.000000 2.013170 0.000000 
#    z 0.000000 0.000000 2.070950 
# 
# From -- ./inp_files/414.got.cif
#   From: 2010.05.17/outbox.cif.g08.bks.cpg/sg33_1_cif.got.tgz:414.got - 2010.06.03 17:15:25.
