data_PCOD9346299
_publ_section_title
;
Structure prediction by ZEFSAII (Michael W. Deem and Ramdas Pophale) SiO2 
 PCOD9346299
Probable space group: P N A 21
;
_chemical_formula_sum "Si O2"
_cell_formula_units_Z 20
_cell_length_a 23.391654
_cell_length_b 5.470191
_cell_length_c 5.404206
_cell_angle_alpha 90.000000
_cell_angle_beta 90.000000
_cell_angle_gamma 90.000000
_cell_volume 691.504988
_symmetry_space_group_name_H-M "P N A 21"
_symmetry_group_IT_number 33
_symmetry_cell_setting 'orthorhombic'
loop_
_space_group_symop_operation_xyz
x,y,z
-x,-y,1/2+z
1/2-x,1/2+y,1/2+z
1/2+x,1/2-y,z
loop_
_atom_site_type_symbol
_atom_site_label
_atom_site_fract_x
_atom_site_fract_y
_atom_site_fract_z
Si Si1 0.219782 0.372522 0.407770
Si Si2 0.424238 0.066255 0.099218
Si Si3 0.879793 0.933973 0.854671
Si Si4 0.825133 0.383808 0.409433
Si Si5 0.522817 0.376195 0.039584
O O1 0.187233 0.112517 0.379755
O O2 0.199763 0.474346 0.670569
O O3 0.288014 0.363160 0.392381
O O4 0.194029 0.512419 0.172343
O O5 0.392673 0.103812 0.362516
O O6 0.491510 0.116430 0.076504
O O7 0.396866 0.299247 0.952552
O O8 0.407779 0.799647 0.998454
O O9 0.909860 0.897916 0.588423
O O10 0.495313 0.522341 0.273446
#
# Coordination Sequence:
#
# PCOD9346299 Si02
#       5
#     4   4   4   4   4
#     4  11  24  42  67  99 134 176 222 275 333 396
#     4  10  24  45  69 100 136 176 224 276 333 397
#     4  10  24  45  69 100 136 176 224 276 333 397
#     4  11  24  42  67  99 134 176 222 275 333 396
#     4  10  24  44  70 100 136 178 224 276 334 396
#
# _framework density 28.922419999999999
#
# number of rings (size 3 to 8) (size 9 to 14) (size 15 to 20)
#    0.000    1.600    0.000    2.400    0.000   25.600 
#    0.000    0.000    0.000    0.000    0.000    0.000 
#    0.000    0.000    0.000    0.000    0.000    0.000 
#
# Total GULP energy -111995.023520 kJ/mol
# GULP energy per Si atom -5599.751176 kJ/mol
# Density = 2.885659 g / cm^3
# Si number density = 28.922420 Si / 1000 Ang^3
#
#
#
# Elastic Constant Matrix: (Units=GPa)
#
#
# Indices 1 2 3 4 5 6 
#
# 1 120.8811 28.4034 30.1388 0.0000 0.0000 0.0000
# 2 28.4034 137.8893 76.9115 0.0000 0.0000 0.0000
# 3 30.1388 76.9115 175.4375 0.0000 0.0000 0.0000
# 4 0.0000 0.0000 0.0000 77.9974 0.0000 0.0000
# 5 0.0000 0.0000 0.0000 0.0000 46.2983 0.0000
# 6 0.0000 0.0000 0.0000 0.0000 0.0000 54.8181
#
#
#
# Elastic Compliance Matrix: (Units=1/GPa)
#
#
# Indices 1 2 3 4 5 6 
#
# 1 0.008811 -0.001285 -0.000950 0.000000 0.000000 0.000000
# 2 -0.001285 0.009787 -0.004070 0.000000 0.000000 0.000000
# 3 -0.000950 -0.004070 0.007648 0.000000 0.000000 0.000000
# 4 0.000000 0.000000 0.000000 0.012821 0.000000 0.000000
# 5 0.000000 0.000000 0.000000 0.000000 0.021599 0.000000
# 6 0.000000 0.000000 0.000000 0.000000 0.000000 0.018242
#
#
# Mechanical properties :
#
#
# Convention : Reuss Voigt Hill
#
# Bulk Modulus (GPa) = 73.33769 78.34614 75.84192
# Shear Modulus (GPa) = 52.04885 55.73973 53.89429
#
# Velocity S-wave (km/s) = 4.24677 4.39477 4.32140
# Velocity P-wave (km/s) = 7.03268 7.27318 7.15394
#
# Compressibility (1/GPa) = 0.01363555
#
# Stress axis : x y z
#
# Youngs Moduli (GPa) = 113.48833 102.17712 130.76138
#
# Poissons Ratio (x) = 0.13129 0.12428
# Poissons Ratio (y) = 0.14582 0.53218
# Poissons Ratio (z) = 0.10786 0.41584
#
# Static dielectric constant tensor:
#      x y z
#    x 2.362830 0.000000 0.000000 
#    y 0.000000 2.320210 0.000000 
#    z 0.000000 0.000000 2.263100 
# 
# From -- ./inp_files/2348.got.cif
#   From: 2010.05.17/outbox.cif.g08.bks.cpg/sg33_2_cif.got.tgz:2348.got - 2010.06.03 17:15:25.
