data_PCOD9346199
_publ_section_title
;
Structure prediction by ZEFSAII (Michael W. Deem and Ramdas Pophale) SiO2 
 PCOD9346199
Probable space group: P N A 21
;
_chemical_formula_sum "Si O2"
_cell_formula_units_Z 28
_cell_length_a 10.041750
_cell_length_b 5.259492
_cell_length_c 19.527471
_cell_angle_alpha 90.000000
_cell_angle_beta 90.000000
_cell_angle_gamma 90.000000
_cell_volume 1031.333691
_symmetry_space_group_name_H-M "P N A 21"
_symmetry_group_IT_number 33
_symmetry_cell_setting 'orthorhombic'
loop_
_space_group_symop_operation_xyz
x,y,z
-x,-y,1/2+z
1/2-x,1/2+y,1/2+z
1/2+x,1/2-y,z
loop_
_atom_site_type_symbol
_atom_site_label
_atom_site_fract_x
_atom_site_fract_y
_atom_site_fract_z
Si Si1 0.735846 0.205646 0.546360
Si Si2 0.098609 0.783690 0.588560
Si Si3 0.934864 0.321805 0.341699
Si Si4 0.915408 0.560169 0.477693
Si Si5 0.488679 0.537346 0.721989
Si Si6 0.245927 0.278480 0.766588
Si Si7 0.226660 0.553811 0.409570
O O1 0.665624 0.442463 0.582001
O O2 0.880075 0.319229 0.525761
O O3 0.704036 0.949049 0.587869
O O4 0.679821 0.138436 0.470286
O O5 0.002995 0.742664 0.523727
O O6 0.010860 0.785926 0.657025
O O7 0.979747 0.502931 0.403655
O O8 0.835115 0.475492 0.292935
O O9 0.040565 0.195890 0.291413
O O10 0.856863 0.103223 0.382223
O O11 0.780349 0.704781 0.454132
O O12 0.365758 0.345320 0.715564
O O13 0.630230 0.401407 0.736968
O O14 0.313411 0.166737 0.835421
#
# Coordination Sequence:
#
# PCOD9346199 Si02
#       7
#     4   4   4   4   4   4   4
#     4  11  25  47  72 113 156 201 273 334 414 492
#     4  12  29  45  79 115 159 223 266 341 425 503
#     4   9  22  43  74 113 157 211 279 340 415 483
#     4  10  23  47  76 113 159 208 276 345 413 492
#     4  11  27  50  78 119 168 225 275 345 421 515
#     4  10  24  49  78 114 164 216 280 346 415 504
#     4   9  20  45  73 115 153 210 267 349 407 485
#
# _framework density 27.149315000000001
#
# number of rings (size 3 to 8) (size 9 to 14) (size 15 to 20)
#    0.000    1.714    1.429    0.000    6.000   11.429 
#    0.000    0.000    0.000    0.000    0.000    0.000 
#    0.000    0.000    0.000    0.000    0.000    0.000 
#
# Total GULP energy -156628.090849 kJ/mol
# GULP energy per Si atom -5593.860387 kJ/mol
# Density = 2.708752 g / cm^3
# Si number density = 27.149315 Si / 1000 Ang^3
#
#
#
# Elastic Constant Matrix: (Units=GPa)
#
#
# Indices 1 2 3 4 5 6 
#
# 1 31.5733 16.0584 38.3392 0.0000 0.0000 0.0000
# 2 16.0584 138.2368 35.4295 0.0000 0.0000 0.0000
# 3 38.3392 35.4295 127.1443 0.0000 0.0000 0.0000
# 4 0.0000 0.0000 0.0000 53.0957 0.0000 0.0000
# 5 0.0000 0.0000 0.0000 0.0000 40.6358 0.0000
# 6 0.0000 0.0000 0.0000 0.0000 0.0000 57.3497
#
#
#
# Elastic Compliance Matrix: (Units=1/GPa)
#
#
# Indices 1 2 3 4 5 6 
#
# 1 0.050537 -0.002116 -0.014649 0.000000 0.000000 0.000000
# 2 -0.002116 0.007879 -0.001557 0.000000 0.000000 0.000000
# 3 -0.014649 -0.001557 0.012716 0.000000 0.000000 0.000000
# 4 0.000000 0.000000 0.000000 0.018834 0.000000 0.000000
# 5 0.000000 0.000000 0.000000 0.000000 0.024609 0.000000
# 6 0.000000 0.000000 0.000000 0.000000 0.000000 0.017437
#
#
# Mechanical properties :
#
#
# Convention : Reuss Voigt Hill
#
# Bulk Modulus (GPa) = 28.99658 52.95651 40.97654
# Shear Modulus (GPa) = 27.75405 44.02473 35.88939
#
# Velocity S-wave (km/s) = 3.20077 4.03125 3.63977
# Velocity P-wave (km/s) = 4.93594 6.41997 5.72623
#
# Compressibility (1/GPa) = 0.03448683
#
# Stress axis : x y z
#
# Youngs Moduli (GPa) = 19.78735 126.92053 78.63822
#
# Poissons Ratio (x) = 0.26858 1.15200
# Poissons Ratio (y) = 0.04187 0.12247
# Poissons Ratio (z) = 0.28987 0.19767
#
# Static dielectric constant tensor:
#      x y z
#    x 2.431010 0.000000 0.000000 
#    y 0.000000 2.127480 0.000000 
#    z 0.000000 0.000000 2.112020 
# 
# From -- ./inp_files/8653.got.cif
#   From: 2010.05.17/outbox.cif.g08.bks.cpg/sg33_5_cif.got.tgz:8653.got - 2010.06.03 17:15:25.
