data_PCOD9346243
_publ_section_title
;
Structure prediction by ZEFSAII (Michael W. Deem and Ramdas Pophale) SiO2 
 PCOD9346243
Probable space group: P N A 21
;
_chemical_formula_sum "Si O2"
_cell_formula_units_Z 28
_cell_length_a 22.380091
_cell_length_b 6.557512
_cell_length_c 8.158170
_cell_angle_alpha 90.000000
_cell_angle_beta 90.000000
_cell_angle_gamma 90.000000
_cell_volume 1197.274390
_symmetry_space_group_name_H-M "P N A 21"
_symmetry_group_IT_number 33
_symmetry_cell_setting 'orthorhombic'
loop_
_space_group_symop_operation_xyz
x,y,z
-x,-y,1/2+z
1/2-x,1/2+y,1/2+z
1/2+x,1/2-y,z
loop_
_atom_site_type_symbol
_atom_site_label
_atom_site_fract_x
_atom_site_fract_y
_atom_site_fract_z
Si Si1 0.582433 0.355093 0.426640
Si Si2 0.779693 0.717309 0.453308
Si Si3 0.365438 0.503678 0.272029
Si Si4 0.188959 0.003119 0.229497
Si Si5 0.366462 0.158566 0.494971
Si Si6 0.501023 0.048828 0.592966
Si Si7 0.018496 0.183469 0.910740
O O1 0.611005 0.444762 0.593580
O O2 0.634449 0.359351 0.294344
O O3 0.551920 0.142164 0.474149
O O4 0.529967 0.510628 0.378487
O O5 0.806063 0.870816 0.315452
O O6 0.770108 0.857371 0.612515
O O7 0.724245 0.595397 0.380376
O O8 0.830276 0.550413 0.492721
O O9 0.360545 0.267562 0.318006
O O10 0.416364 0.586452 0.398543
O O11 0.162885 0.817588 0.121940
O O12 0.435288 0.124723 0.541144
O O13 0.515403 0.146774 0.767961
O O14 0.497526 0.805564 0.575600
#
# Coordination Sequence:
#
# PCOD9346243 Si02
#       7
#     4   4   4   4   4   4   4
#     4  11  25  42  68 102 142 176 227 288 352 421
#     4  11  27  48  70  99 136 182 244 284 346 413
#     4  10  24  42  67 100 136 179 231 283 350 412
#     4  11  28  48  72  99 137 187 236 292 346 412
#     4  11  23  45  72  96 139 183 225 288 346 413
#     4  11  24  39  67 101 138 179 224 278 355 420
#     4  11  23  40  64 103 138 180 223 281 347 421
#
# _framework density 23.386451999999998
#
# number of rings (size 3 to 8) (size 9 to 14) (size 15 to 20)
#    0.000    1.143    4.286    0.000    8.000    1.143 
#    0.000    0.000    0.000    0.000    0.000    0.000 
#    0.000    0.000    0.000    0.000    0.000    0.000 
#
# Total GULP energy -156806.358051 kJ/mol
# GULP energy per Si atom -5600.227073 kJ/mol
# Density = 2.333322 g / cm^3
# Si number density = 23.386452 Si / 1000 Ang^3
#
#
#
# Elastic Constant Matrix: (Units=GPa)
#
#
# Indices 1 2 3 4 5 6 
#
# 1 87.0321 14.6003 15.0320 0.0000 0.0000 0.0000
# 2 14.6003 75.3436 24.3858 0.0000 0.0000 0.0000
# 3 15.0320 24.3858 60.5103 0.0000 0.0000 0.0000
# 4 0.0000 0.0000 0.0000 26.2738 0.0000 0.0000
# 5 0.0000 0.0000 0.0000 0.0000 34.0702 0.0000
# 6 0.0000 0.0000 0.0000 0.0000 0.0000 29.2640
#
#
#
# Elastic Compliance Matrix: (Units=1/GPa)
#
#
# Indices 1 2 3 4 5 6 
#
# 1 0.012168 -0.001587 -0.002383 0.000000 0.000000 0.000000
# 2 -0.001587 0.015470 -0.005840 0.000000 0.000000 0.000000
# 3 -0.002383 -0.005840 0.019472 0.000000 0.000000 0.000000
# 4 0.000000 0.000000 0.000000 0.038061 0.000000 0.000000
# 5 0.000000 0.000000 0.000000 0.000000 0.029351 0.000000
# 6 0.000000 0.000000 0.000000 0.000000 0.000000 0.034172
#
#
# Mechanical properties :
#
#
# Convention : Reuss Voigt Hill
#
# Bulk Modulus (GPa) = 36.37768 36.76910 36.57339
# Shear Modulus (GPa) = 28.17260 29.17945 28.67603
#
# Velocity S-wave (km/s) = 3.47458 3.53612 3.50549
# Velocity P-wave (km/s) = 5.62901 5.69462 5.66191
#
# Compressibility (1/GPa) = 0.02748939
#
# Stress axis : x y z
#
# Youngs Moduli (GPa) = 82.18405 64.64006 51.35605
#
# Poissons Ratio (x) = 0.10255 0.12240
# Poissons Ratio (y) = 0.13039 0.29994
# Poissons Ratio (z) = 0.19587 0.37753
#
# Static dielectric constant tensor:
#      x y z
#    x 1.848370 0.000000 0.000000 
#    y 0.000000 1.857220 0.000000 
#    z 0.000000 0.000000 1.941100 
# 
# From -- ./inp_files/5146.got.cif
#   From: 2010.05.17/outbox.cif.g08.bks.cpg/sg33_3_cif.got.tgz:5146.got - 2010.06.03 17:15:25.
