data_PCOD9346944
_publ_section_title
;
Structure prediction by ZEFSAII (Michael W. Deem and Ramdas Pophale) SiO2 
 PCOD9346944
Probable space group: P N A 21
;
_chemical_formula_sum "Si O2"
_cell_formula_units_Z 28
_cell_length_a 7.222343
_cell_length_b 24.494289
_cell_length_c 5.570202
_cell_angle_alpha 90.000000
_cell_angle_beta 90.000000
_cell_angle_gamma 90.000000
_cell_volume 985.403028
_symmetry_space_group_name_H-M "P N A 21"
_symmetry_group_IT_number 33
_symmetry_cell_setting 'orthorhombic'
loop_
_space_group_symop_operation_xyz
x,y,z
-x,-y,1/2+z
1/2-x,1/2+y,1/2+z
1/2+x,1/2-y,z
loop_
_atom_site_type_symbol
_atom_site_label
_atom_site_fract_x
_atom_site_fract_y
_atom_site_fract_z
Si Si1 0.048443 0.471176 0.407260
Si Si2 0.319345 0.841874 0.386419
Si Si3 0.666727 0.748386 0.029009
Si Si4 0.586552 0.491959 0.126951
Si Si5 0.081774 0.241821 0.182372
Si Si6 0.358527 0.122710 0.610491
Si Si7 0.934966 0.877967 0.484870
O O1 0.257816 0.470984 0.501503
O O2 0.957471 0.501486 0.643382
O O3 0.948985 0.412697 0.401651
O O4 0.431091 0.795471 0.525484
O O5 0.155611 0.875058 0.506834
O O6 0.203289 0.804847 0.191146
O O7 0.476212 0.883236 0.303462
O O8 0.665452 0.738689 0.734884
O O9 0.418204 0.741736 0.979765
O O10 0.643915 0.812702 0.073236
O O11 0.443877 0.490881 0.901308
O O12 0.633035 0.427752 0.144070
O O13 0.120923 0.183060 0.067507
O O14 0.160769 0.109246 0.727390
#
# Coordination Sequence:
#
# PCOD9346944 Si02
#       7
#     4   4   4   4   4   4   4
#     4  12  28  53  80 117 160 204 277 343 401 483
#     4  12  25  48  67 111 161 193 256 323 383 484
#     4  12  24  42  71 109 151 200 253 310 387 478
#     4  12  29  54  83 118 160 211 278 348 408 483
#     4  12  24  42  71 108 152 199 253 313 385 480
#     4  12  26  47  79 109 151 209 256 323 407 472
#     4  12  26  48  79 108 155 210 259 322 411 476
#
# _framework density 28.414766
#
# number of rings (size 3 to 8) (size 9 to 14) (size 15 to 20)
#    0.000    0.000    5.714    4.286    2.000    4.571 
#    0.000    0.000    0.000    0.000    0.000    0.000 
#    0.000    0.000    0.000    0.000    0.000    0.000 
#
# Total GULP energy -156305.063077 kJ/mol
# GULP energy per Si atom -5582.323681 kJ/mol
# Density = 2.835009 g / cm^3
# Si number density = 28.414766 Si / 1000 Ang^3
#
#
#
# Elastic Constant Matrix: (Units=GPa)
#
#
# Indices 1 2 3 4 5 6 
#
# 1 126.6391 -3.3978 33.9269 0.0000 0.0000 0.0000
# 2 -3.3978 75.1208 14.6784 0.0000 0.0000 0.0000
# 3 33.9269 14.6784 87.3766 0.0000 0.0000 0.0000
# 4 0.0000 0.0000 0.0000 436.3318 0.0000 0.0000
# 5 0.0000 0.0000 0.0000 0.0000 95.8659 0.0000
# 6 0.0000 0.0000 0.0000 0.0000 0.0000 11.3335
#
#
#
# Elastic Compliance Matrix: (Units=1/GPa)
#
#
# Indices 1 2 3 4 5 6 
#
# 1 0.008903 0.001115 -0.003644 0.000000 0.000000 0.000000
# 2 0.001115 0.013903 -0.002768 0.000000 0.000000 0.000000
# 3 -0.003644 -0.002768 0.013325 0.000000 0.000000 0.000000
# 4 0.000000 0.000000 0.000000 0.002292 0.000000 0.000000
# 5 0.000000 0.000000 0.000000 0.000000 0.010431 0.000000
# 6 0.000000 0.000000 0.000000 0.000000 0.000000 0.088234
#
#
# Mechanical properties :
#
#
# Convention : Reuss Voigt Hill
#
# Bulk Modulus (GPa) = 39.16178 42.17239 40.66708
# Shear Modulus (GPa) = 32.01128 124.96818 78.48973
#
# Velocity S-wave (km/s) = 3.36009 6.63894 5.26145
# Velocity P-wave (km/s) = 5.37268 8.58145 7.15915
#
# Compressibility (1/GPa) = 0.02553510
#
# Stress axis : x y z
#
# Youngs Moduli (GPa) = 112.32677 71.92560 75.04871
#
# Poissons Ratio (x) = -0.08018 0.27348
# Poissons Ratio (y) = -0.12521 0.20777
# Poissons Ratio (z) = 0.40932 0.19912
#
# Static dielectric constant tensor:
#      x y z
#    x 4.163080 0.000000 0.000000 
#    y 0.000000 1.792500 0.000000 
#    z 0.000000 0.000000 2.303100 
# 
# From -- ./inp_files/546.got.cif
#   From: 2010.05.17/outbox.cif.g08.bks.cpg/sg33_1_cif.got.tgz:546.got - 2010.06.03 17:15:25.
