data_PCOD9346676
_publ_section_title
;
Structure prediction by ZEFSAII (Michael W. Deem and Ramdas Pophale) SiO2 
 PCOD9346676
Probable space group: P N A 21
;
_chemical_formula_sum "Si O2"
_cell_formula_units_Z 24
_cell_length_a 14.371221
_cell_length_b 8.041455
_cell_length_c 9.173120
_cell_angle_alpha 90.000000
_cell_angle_beta 90.000000
_cell_angle_gamma 90.000000
_cell_volume 1060.096447
_symmetry_space_group_name_H-M "P N A 21"
_symmetry_group_IT_number 33
_symmetry_cell_setting 'orthorhombic'
loop_
_space_group_symop_operation_xyz
x,y,z
-x,-y,1/2+z
1/2-x,1/2+y,1/2+z
1/2+x,1/2-y,z
loop_
_atom_site_type_symbol
_atom_site_label
_atom_site_fract_x
_atom_site_fract_y
_atom_site_fract_z
Si Si1 0.429486 0.213212 0.847420
Si Si2 0.910709 0.927171 0.723380
Si Si3 0.863391 0.703225 0.445216
Si Si4 0.258081 0.122213 0.705408
Si Si5 0.383913 0.316343 0.178217
Si Si6 0.731962 0.869029 0.912419
O O1 0.423304 0.374381 0.741470
O O2 0.537050 0.169411 0.870417
O O3 0.359333 0.081753 0.774654
O O4 0.395700 0.259805 0.011080
O O5 0.876887 0.838923 0.573513
O O6 0.833903 0.887331 0.845439
O O7 0.014471 0.855708 0.742928
O O8 0.789867 0.768615 0.329975
O O9 0.817476 0.528515 0.488459
O O10 0.261887 0.237065 0.559675
O O11 0.182300 0.976793 0.685318
O O12 0.333406 0.185993 0.282167
#
# Coordination Sequence:
#
# PCOD9346676 Si02
#       6
#     4   4   4   4   4   4
#     4  11  24  45  73 101 141 185 237 294 357 417
#     4  11  23  47  72  96 142 188 229 299 354 422
#     4  11  26  45  69 101 141 181 242 292 351 429
#     4  12  23  41  69 103 133 184 234 283 356 427
#     4  11  26  45  71 101 142 186 235 292 360 424
#     4  12  26  43  68 106 139 178 237 298 356 421
#
# _framework density 22.639448999999999
#
# number of rings (size 3 to 8) (size 9 to 14) (size 15 to 20)
#    0.000    0.667    5.000    2.000    2.333    6.667 
#    0.000    0.000    0.000    0.000    0.000    0.000 
#    0.000    0.000    0.000    0.000    0.000    0.000 
#
# Total GULP energy -133987.152499 kJ/mol
# GULP energy per Si atom -5582.798021 kJ/mol
# Density = 2.258792 g / cm^3
# Si number density = 22.639449 Si / 1000 Ang^3
#
#
#
# Elastic Constant Matrix: (Units=GPa)
#
#
# Indices 1 2 3 4 5 6 
#
# 1 174.3993 15.9139 62.4957 0.0000 0.0000 0.0000
# 2 15.9139 20.2653 15.8013 0.0000 0.0000 0.0000
# 3 62.4957 15.8013 83.8641 0.0000 0.0000 0.0000
# 4 0.0000 0.0000 0.0000 28.0753 0.0000 0.0000
# 5 0.0000 0.0000 0.0000 0.0000 -96.7227 0.0000
# 6 0.0000 0.0000 0.0000 0.0000 0.0000 20.6688
#
#
#
# Elastic Compliance Matrix: (Units=1/GPa)
#
#
# Indices 1 2 3 4 5 6 
#
# 1 0.007884 -0.001887 -0.005520 0.000000 0.000000 0.000000
# 2 -0.001887 0.058295 -0.009577 0.000000 0.000000 0.000000
# 3 -0.005520 -0.009577 0.017842 0.000000 0.000000 0.000000
# 4 0.000000 0.000000 0.000000 0.035619 0.000000 0.000000
# 5 0.000000 0.000000 0.000000 0.000000 -0.010339 0.000000
# 6 0.000000 0.000000 0.000000 0.000000 0.000000 0.048382
#
#
# Mechanical properties :
#
#
# Convention : Reuss Voigt Hill
#
# Bulk Modulus (GPa) = 19.97905 51.88340 35.93123
# Shear Modulus (GPa) = 23.99976 2.69214 13.34595
#
# Velocity S-wave (km/s) = 3.25943 1.09166 2.43060
# Velocity P-wave (km/s) = 4.79679 4.95540 4.87674
#
# Compressibility (1/GPa) = 0.05005242
#
# Stress axis : x y z
#
# Youngs Moduli (GPa) = 126.83653 17.15413 56.04815
#
# Poissons Ratio (x) = 0.03238 0.30937
# Poissons Ratio (y) = 0.23940 0.53678
# Poissons Ratio (z) = 0.70010 0.16429
#
# Static dielectric constant tensor:
#      x y z
#    x 1.962390 0.000000 0.000000 
#    y 0.000000 1.895480 0.000000 
#    z 0.000000 0.000000 1.934100 
# 
# From -- ./inp_files/4262.got.cif
#   From: 2010.05.17/outbox.cif.g08.bks.cpg/sg33_3_cif.got.tgz:4262.got - 2010.06.03 17:15:25.
