data_PCOD9346921
_publ_section_title
;
Structure prediction by ZEFSAII (Michael W. Deem and Ramdas Pophale) SiO2 
 PCOD9346921
Probable space group: P N A 21
;
_chemical_formula_sum "Si O2"
_cell_formula_units_Z 20
_cell_length_a 9.197251
_cell_length_b 10.207407
_cell_length_c 8.197078
_cell_angle_alpha 90.000000
_cell_angle_beta 90.000000
_cell_angle_gamma 90.000000
_cell_volume 769.542373
_symmetry_space_group_name_H-M "P N A 21"
_symmetry_group_IT_number 33
_symmetry_cell_setting 'orthorhombic'
loop_
_space_group_symop_operation_xyz
x,y,z
-x,-y,1/2+z
1/2-x,1/2+y,1/2+z
1/2+x,1/2-y,z
loop_
_atom_site_type_symbol
_atom_site_label
_atom_site_fract_x
_atom_site_fract_y
_atom_site_fract_z
Si Si1 0.667121 0.998387 0.510820
Si Si2 0.480299 0.738667 0.540968
Si Si3 0.331697 0.726673 0.066002
Si Si4 0.276074 0.324303 0.247064
Si Si5 0.907518 0.114248 0.718347
O O1 0.728716 0.040632 0.333583
O O2 0.583090 0.132330 0.559393
O O3 0.800875 0.002787 0.641894
O O4 0.566851 0.874444 0.511880
O O5 0.557188 0.679063 0.700414
O O6 0.319812 0.786606 0.589893
O O7 0.204506 0.762141 0.193019
O O8 0.452537 0.622194 0.101413
O O9 0.254912 0.720826 0.891435
O O10 0.482032 0.358109 0.892557
#
# Coordination Sequence:
#
# PCOD9346921 Si02
#       5
#     4   4   4   4   4
#     4   8  23  36  60  81 122 154 186 230 312 336
#     4  12  20  39  63  88 116 152 201 244 282 350
#     4   8  18  39  55  77 122 148 181 239 294 340
#     4   9  22  35  60  88 115 151 195 241 283 349
#     4   9  19  35  58  84 113 151 193 238 285 347
#
# _framework density 25.989471000000002
#
# number of rings (size 3 to 8) (size 9 to 14) (size 15 to 20)
#    2.400    0.000    0.000    3.600    2.800    0.000 
#    0.000   12.000    0.000    0.000    0.000    0.000 
#    0.000    0.000    0.000    0.000    0.000    0.000 
#
# Total GULP energy -111423.568587 kJ/mol
# GULP energy per Si atom -5571.178429 kJ/mol
# Density = 2.593032 g / cm^3
# Si number density = 25.989471 Si / 1000 Ang^3
#
#
#
# Elastic Constant Matrix: (Units=GPa)
#
#
# Indices 1 2 3 4 5 6 
#
# 1 80.8689 14.0841 9.8952 0.0000 0.0000 0.0000
# 2 14.0841 78.7396 12.3604 0.0000 0.0000 0.0000
# 3 9.8952 12.3604 107.3070 0.0000 0.0000 0.0000
# 4 0.0000 0.0000 0.0000 21.9743 0.0000 0.0000
# 5 0.0000 0.0000 0.0000 0.0000 45.2301 0.0000
# 6 0.0000 0.0000 0.0000 0.0000 0.0000 32.4714
#
#
#
# Elastic Compliance Matrix: (Units=1/GPa)
#
#
# Indices 1 2 3 4 5 6 
#
# 1 0.012855 -0.002152 -0.000938 0.000000 0.000000 0.000000
# 2 -0.002152 0.013294 -0.001333 0.000000 0.000000 0.000000
# 3 -0.000938 -0.001333 0.009559 0.000000 0.000000 0.000000
# 4 0.000000 0.000000 0.000000 0.045508 0.000000 0.000000
# 5 0.000000 0.000000 0.000000 0.000000 0.022109 0.000000
# 6 0.000000 0.000000 0.000000 0.000000 0.000000 0.030796
#
#
# Mechanical properties :
#
#
# Convention : Reuss Voigt Hill
#
# Bulk Modulus (GPa) = 37.22547 37.73275 37.47911
# Shear Modulus (GPa) = 32.91175 35.30689 34.10932
#
# Velocity S-wave (km/s) = 3.56244 3.68979 3.62668
# Velocity P-wave (km/s) = 5.59247 5.71863 5.65590
#
# Compressibility (1/GPa) = 0.02686333
#
# Stress axis : x y z
#
# Youngs Moduli (GPa) = 77.78931 75.22024 104.61302
#
# Poissons Ratio (x) = 0.16189 0.09808
# Poissons Ratio (y) = 0.16742 0.13943
# Poissons Ratio (z) = 0.07293 0.10026
#
# Static dielectric constant tensor:
#      x y z
#    x 1.979670 0.000000 0.000000 
#    y 0.000000 2.130980 0.000000 
#    z 0.000000 0.000000 2.106050 
# 
# From -- ./inp_files/3083.got.cif
#   From: 2010.05.17/outbox.cif.g08.bks.cpg/sg33_2_cif.got.tgz:3083.got - 2010.06.03 17:15:25.
