data_PCOD9346157
_publ_section_title
;
Structure prediction by ZEFSAII (Michael W. Deem and Ramdas Pophale) SiO2 
 PCOD9346157
Probable space group: P N A 21
;
_chemical_formula_sum "Si O2"
_cell_formula_units_Z 28
_cell_length_a 22.652880
_cell_length_b 6.701188
_cell_length_c 7.944831
_cell_angle_alpha 90.000000
_cell_angle_beta 90.000000
_cell_angle_gamma 90.000000
_cell_volume 1206.034940
_symmetry_space_group_name_H-M "P N A 21"
_symmetry_group_IT_number 33
_symmetry_cell_setting 'orthorhombic'
loop_
_space_group_symop_operation_xyz
x,y,z
-x,-y,1/2+z
1/2-x,1/2+y,1/2+z
1/2+x,1/2-y,z
loop_
_atom_site_type_symbol
_atom_site_label
_atom_site_fract_x
_atom_site_fract_y
_atom_site_fract_z
Si Si1 0.765302 0.362624 0.662810
Si Si2 0.350398 0.394793 0.254410
Si Si3 0.481583 0.293428 0.784149
Si Si4 0.897277 0.806336 0.476117
Si Si5 0.194111 0.480024 0.799954
Si Si6 0.618179 0.038913 0.302850
Si Si7 0.931451 0.872837 0.998620
O O1 0.712977 0.505779 0.725194
O O2 0.778222 0.422459 0.469960
O O3 0.822460 0.414570 0.774470
O O4 0.743213 0.136301 0.692166
O O5 0.376500 0.466049 0.436318
O O6 0.340806 0.163337 0.221808
O O7 0.396829 0.478488 0.120821
O O8 0.535934 0.275123 0.915262
O O9 0.510896 0.303595 0.600554
O O10 0.450372 0.500712 0.835479
O O11 0.436360 0.112635 0.797069
O O12 0.854082 0.682341 0.353389
O O13 0.885336 0.698513 0.650601
O O14 0.610033 0.184494 0.460718
#
# Coordination Sequence:
#
# PCOD9346157 Si02
#       7
#     4   4   4   4   4   4   4
#     4  10  25  42  68 103 133 189 237 294 350 426
#     4  10  24  44  68  96 139 184 232 293 346 421
#     4  11  24  42  68 104 140 183 234 290 353 426
#     4   9  22  44  64  99 134 184 230 282 353 421
#     4  10  23  45  70  95 141 180 239 290 359 417
#     4  11  24  42  71 101 140 182 236 291 359 420
#     4  11  26  43  69 104 141 186 234 290 358 429
#
# _framework density 23.216574000000001
#
# number of rings (size 3 to 8) (size 9 to 14) (size 15 to 20)
#    0.000    1.714    0.000    1.714    4.000   17.143 
#    0.000    0.000    0.000    0.000    0.000    0.000 
#    0.000    0.000    0.000    0.000    0.000    0.000 
#
# Total GULP energy -156656.589903 kJ/mol
# GULP energy per Si atom -5594.878211 kJ/mol
# Density = 2.316373 g / cm^3
# Si number density = 23.216574 Si / 1000 Ang^3
#
#
#
# Elastic Constant Matrix: (Units=GPa)
#
#
# Indices 1 2 3 4 5 6 
#
# 1 89.3004 21.1147 -3.5046 0.0000 0.0000 0.0000
# 2 21.1147 116.8392 9.0339 0.0000 0.0000 0.0000
# 3 -3.5046 9.0339 29.5527 0.0000 0.0000 0.0000
# 4 0.0000 0.0000 0.0000 16.9880 0.0000 0.0000
# 5 0.0000 0.0000 0.0000 0.0000 28.3834 0.0000
# 6 0.0000 0.0000 0.0000 0.0000 0.0000 50.0817
#
#
#
# Elastic Compliance Matrix: (Units=1/GPa)
#
#
# Indices 1 2 3 4 5 6 
#
# 1 0.011825 -0.002300 0.002105 0.000000 0.000000 0.000000
# 2 -0.002300 0.009213 -0.003089 0.000000 0.000000 0.000000
# 3 0.002105 -0.003089 0.035032 0.000000 0.000000 0.000000
# 4 0.000000 0.000000 0.000000 0.058865 0.000000 0.000000
# 5 0.000000 0.000000 0.000000 0.000000 0.035232 0.000000
# 6 0.000000 0.000000 0.000000 0.000000 0.000000 0.019967
#
#
# Mechanical properties :
#
#
# Convention : Reuss Voigt Hill
#
# Bulk Modulus (GPa) = 20.20101 32.10893 26.15497
# Shear Modulus (GPa) = 25.87971 33.02719 29.45345
#
# Velocity S-wave (km/s) = 3.34235 3.77579 3.56566
# Velocity P-wave (km/s) = 4.85953 5.73315 5.31432
#
# Compressibility (1/GPa) = 0.04950247
#
# Stress axis : x y z
#
# Youngs Moduli (GPa) = 84.57007 108.53991 28.54553
#
# Poissons Ratio (x) = 0.24960 -0.06009
# Poissons Ratio (y) = 0.19448 0.08818
# Poissons Ratio (z) = -0.17804 0.33529
#
# Static dielectric constant tensor:
#      x y z
#    x 1.830140 0.000000 0.000000 
#    y 0.000000 1.873380 0.000000 
#    z 0.000000 0.000000 1.957940 
# 
# From -- ./inp_files/5174.got.cif
#   From: 2010.05.17/outbox.cif.g08.bks.cpg/sg33_3_cif.got.tgz:5174.got - 2010.06.03 17:15:25.
