data_PCOD9346998
_publ_section_title
;
Structure prediction by ZEFSAII (Michael W. Deem and Ramdas Pophale) SiO2 
 PCOD9346998
Probable space group: P N A 21
;
_chemical_formula_sum "Si O2"
_cell_formula_units_Z 24
_cell_length_a 9.221288
_cell_length_b 9.324266
_cell_length_c 10.574152
_cell_angle_alpha 90.000000
_cell_angle_beta 90.000000
_cell_angle_gamma 90.000000
_cell_volume 909.184011
_symmetry_space_group_name_H-M "P N A 21"
_symmetry_group_IT_number 33
_symmetry_cell_setting 'orthorhombic'
loop_
_space_group_symop_operation_xyz
x,y,z
-x,-y,1/2+z
1/2-x,1/2+y,1/2+z
1/2+x,1/2-y,z
loop_
_atom_site_type_symbol
_atom_site_label
_atom_site_fract_x
_atom_site_fract_y
_atom_site_fract_z
Si Si1 0.244451 0.501060 0.138490
Si Si2 0.528067 0.423320 0.441908
Si Si3 0.296693 0.827562 0.189752
Si Si4 0.801831 0.257010 0.323428
Si Si5 0.543373 0.707403 0.353159
Si Si6 0.928545 0.415866 0.077979
O O1 0.236290 0.668889 0.166720
O O2 0.250507 0.385605 0.249851
O O3 0.098879 0.454073 0.064695
O O4 0.398989 0.507444 0.066462
O O5 0.666330 0.345769 0.375682
O O6 0.410030 0.297401 0.433631
O O7 0.450787 0.567966 0.391420
O O8 0.445620 0.806328 0.265479
O O9 0.172003 0.877448 0.283451
O O10 0.334231 0.938367 0.079425
O O11 0.889029 0.345893 0.214700
O O12 0.603295 0.802316 0.467916
#
# Coordination Sequence:
#
# PCOD9346998 Si02
#       6
#     4   4   4   4   4   4
#     4  12  27  48  74 118 154 207 259 319 403 465
#     4  12  27  47  76 116 152 201 263 321 392 474
#     4  12  27  48  77 114 157 203 266 324 390 478
#     4  12  26  48  77 111 153 201 260 325 386 474
#     4  12  26  49  79 112 154 206 261 328 395 472
#     4  12  27  48  81 113 154 206 263 327 402 467
#
# _framework density 26.397296999999998
#
# number of rings (size 3 to 8) (size 9 to 14) (size 15 to 20)
#    0.000    0.000    8.333    1.000    2.333    1.333 
#    3.000    0.000    0.000    0.000    0.000    0.000 
#    0.000    0.000    0.000    0.000    0.000    0.000 
#
# Total GULP energy -134184.078853 kJ/mol
# GULP energy per Si atom -5591.003286 kJ/mol
# Density = 2.633722 g / cm^3
# Si number density = 26.397297 Si / 1000 Ang^3
#
#
#
# Elastic Constant Matrix: (Units=GPa)
#
#
# Indices 1 2 3 4 5 6 
#
# 1 90.2844 6.9684 12.2585 0.0000 0.0000 0.0000
# 2 6.9684 135.4271 14.0278 0.0000 0.0000 0.0000
# 3 12.2585 14.0278 44.4065 0.0000 0.0000 0.0000
# 4 0.0000 0.0000 0.0000 43.1731 0.0000 0.0000
# 5 0.0000 0.0000 0.0000 0.0000 32.7275 0.0000
# 6 0.0000 0.0000 0.0000 0.0000 0.0000 29.8550
#
#
#
# Elastic Compliance Matrix: (Units=1/GPa)
#
#
# Indices 1 2 3 4 5 6 
#
# 1 0.011517 -0.000272 -0.003093 0.000000 0.000000 0.000000
# 2 -0.000272 0.007640 -0.002338 0.000000 0.000000 0.000000
# 3 -0.003093 -0.002338 0.024112 0.000000 0.000000 0.000000
# 4 0.000000 0.000000 0.000000 0.023163 0.000000 0.000000
# 5 0.000000 0.000000 0.000000 0.000000 0.030555 0.000000
# 6 0.000000 0.000000 0.000000 0.000000 0.000000 0.033495
#
#
# Mechanical properties :
#
#
# Convention : Reuss Voigt Hill
#
# Bulk Modulus (GPa) = 31.38594 37.40303 34.39449
# Shear Modulus (GPa) = 32.78461 36.94202 34.86331
#
# Velocity S-wave (km/s) = 3.52798 3.74500 3.63811
# Velocity P-wave (km/s) = 5.33959 5.73585 5.54126
#
# Compressibility (1/GPa) = 0.03186140
#
# Stress axis : x y z
#
# Youngs Moduli (GPa) = 86.82722 130.88545 41.47340
#
# Poissons Ratio (x) = 0.03563 0.12829
# Poissons Ratio (y) = 0.02363 0.09698
# Poissons Ratio (z) = 0.26859 0.30606
#
# Static dielectric constant tensor:
#      x y z
#    x 2.094980 0.000000 0.000000 
#    y 0.000000 2.072920 0.000000 
#    z 0.000000 0.000000 2.641550 
# 
# From -- ./inp_files/5746.got.cif
#   From: 2010.05.17/outbox.cif.g08.bks.cpg/sg33_3_cif.got.tgz:5746.got - 2010.06.03 17:15:25.
