data_PCOD9346978
_publ_section_title
;
Structure prediction by ZEFSAII (Michael W. Deem and Ramdas Pophale) SiO2 
 PCOD9346978
Probable space group: P N A 21
;
_chemical_formula_sum "Si O2"
_cell_formula_units_Z 16
_cell_length_a 6.228845
_cell_length_b 12.191531
_cell_length_c 8.062882
_cell_angle_alpha 90.000000
_cell_angle_beta 90.000000
_cell_angle_gamma 90.000000
_cell_volume 612.288461
_symmetry_space_group_name_H-M "P N A 21"
_symmetry_group_IT_number 33
_symmetry_cell_setting 'orthorhombic'
loop_
_space_group_symop_operation_xyz
x,y,z
-x,-y,1/2+z
1/2-x,1/2+y,1/2+z
1/2+x,1/2-y,z
loop_
_atom_site_type_symbol
_atom_site_label
_atom_site_fract_x
_atom_site_fract_y
_atom_site_fract_z
Si Si1 0.980474 0.719842 0.012870
Si Si2 0.474133 0.804558 0.386475
Si Si3 0.096323 0.901123 0.557245
Si Si4 0.733501 0.017931 0.403461
O O1 0.731326 0.756913 0.953396
O O2 0.975536 0.749990 0.206725
O O3 0.947861 0.589666 0.990705
O O4 0.268524 0.880710 0.413643
O O5 0.486637 0.720027 0.541356
O O6 0.661264 0.893209 0.383737
O O7 0.205888 0.927688 0.729954
O O8 0.944220 0.003172 0.515349
#
# Coordination Sequence:
#
# PCOD9346978 Si02
#       4
#     4   4   4   4
#     4  12  28  51  79 116 165 218 273 342 418 497
#     4  12  25  50  77 108 164 216 271 349 415 495
#     4  12  26  49  77 114 158 217 277 341 423 499
#     4  12  29  46  81 118 161 217 281 340 426 497
#
# _framework density 26.131477
#
# number of rings (size 3 to 8) (size 9 to 14) (size 15 to 20)
#    0.000    0.000    5.000    3.000   10.500    0.000 
#    0.000    0.000    0.000    0.000    0.000    0.000 
#    0.000    0.000    0.000    0.000    0.000    0.000 
#
# Total GULP energy -89230.977641 kJ/mol
# GULP energy per Si atom -5576.936103 kJ/mol
# Density = 2.607200 g / cm^3
# Si number density = 26.131477 Si / 1000 Ang^3
#
#
#
# Elastic Constant Matrix: (Units=GPa)
#
#
# Indices 1 2 3 4 5 6 
#
# 1 143.0740 43.8324 22.1715 0.0000 0.0000 0.0000
# 2 43.8324 100.7938 32.9235 0.0000 0.0000 0.0000
# 3 22.1715 32.9235 80.0410 0.0000 0.0000 0.0000
# 4 0.0000 0.0000 0.0000 45.8712 0.0000 0.0000
# 5 0.0000 0.0000 0.0000 0.0000 26.5335 0.0000
# 6 0.0000 0.0000 0.0000 0.0000 0.0000 69.8586
#
#
#
# Elastic Compliance Matrix: (Units=1/GPa)
#
#
# Indices 1 2 3 4 5 6 
#
# 1 0.008122 -0.003231 -0.000921 0.000000 0.000000 0.000000
# 2 -0.003231 0.012747 -0.004348 0.000000 0.000000 0.000000
# 3 -0.000921 -0.004348 0.014537 0.000000 0.000000 0.000000
# 4 0.000000 0.000000 0.000000 0.021800 0.000000 0.000000
# 5 0.000000 0.000000 0.000000 0.000000 0.037688 0.000000
# 6 0.000000 0.000000 0.000000 0.000000 0.000000 0.014315
#
#
# Mechanical properties :
#
#
# Convention : Reuss Voigt Hill
#
# Bulk Modulus (GPa) = 54.33079 57.97374 56.15227
# Shear Modulus (GPa) = 37.78027 43.45141 40.61584
#
# Velocity S-wave (km/s) = 3.80646 4.08217 3.94672
# Velocity P-wave (km/s) = 6.33682 6.66726 6.50414
#
# Compressibility (1/GPa) = 0.01840577
#
# Stress axis : x y z
#
# Youngs Moduli (GPa) = 123.12224 78.45165 68.78942
#
# Poissons Ratio (x) = 0.25350 0.06333
# Poissons Ratio (y) = 0.39785 0.29910
# Poissons Ratio (z) = 0.11336 0.34111
#
# Static dielectric constant tensor:
#      x y z
#    x 2.291970 0.000000 0.000000 
#    y 0.000000 2.128800 0.000000 
#    z 0.000000 0.000000 1.975870 
# 
# From -- ./inp_files/2586.got.cif
#   From: 2010.05.17/outbox.cif.g08.bks.cpg/sg33_2_cif.got.tgz:2586.got - 2010.06.03 17:15:25.
