data_PCOD9346134
_publ_section_title
;
Structure prediction by ZEFSAII (Michael W. Deem and Ramdas Pophale) SiO2 
 PCOD9346134
Probable space group: P N A 21
;
_chemical_formula_sum "Si O2"
_cell_formula_units_Z 24
_cell_length_a 11.509048
_cell_length_b 8.008679
_cell_length_c 10.045364
_cell_angle_alpha 90.000000
_cell_angle_beta 90.000000
_cell_angle_gamma 90.000000
_cell_volume 925.904013
_symmetry_space_group_name_H-M "P N A 21"
_symmetry_group_IT_number 33
_symmetry_cell_setting 'orthorhombic'
loop_
_space_group_symop_operation_xyz
x,y,z
-x,-y,1/2+z
1/2-x,1/2+y,1/2+z
1/2+x,1/2-y,z
loop_
_atom_site_type_symbol
_atom_site_label
_atom_site_fract_x
_atom_site_fract_y
_atom_site_fract_z
Si Si1 0.828737 0.915189 0.851650
Si Si2 0.474489 0.183866 0.471366
Si Si3 0.525321 0.974927 0.705885
Si Si4 0.410698 0.380656 0.086536
Si Si5 0.165086 0.972246 0.062779
Si Si6 0.761705 0.544689 0.796292
O O1 0.952891 0.820672 0.885471
O O2 0.760826 0.742715 0.827239
O O3 0.800119 0.007028 0.714215
O O4 0.831196 0.059061 0.963276
O O5 0.442175 0.040119 0.363699
O O6 0.368781 0.280724 0.537583
O O7 0.549716 0.118765 0.596989
O O8 0.573893 0.809373 0.633721
O O9 0.383714 0.982705 0.722309
O O10 0.542520 0.431648 0.057912
O O11 0.350615 0.484719 0.206094
O O12 0.244494 0.034738 0.941493
#
# Coordination Sequence:
#
# PCOD9346134 Si02
#       6
#     4   4   4   4   4   4
#     4  10  24  45  71 109 140 206 249 306 393 460
#     4  10  23  44  70 105 151 194 248 318 382 452
#     4  11  24  46  70 115 151 194 254 320 385 455
#     4  11  22  46  76 103 158 197 249 323 395 447
#     4  11  21  47  72  96 153 199 249 314 385 454
#     4  11  24  44  73 108 147 192 265 303 372 478
#
# _framework density 25.920614
#
# number of rings (size 3 to 8) (size 9 to 14) (size 15 to 20)
#    0.000    1.333    5.000    1.000    4.667    2.667 
#    0.000    0.000    0.000    0.000    0.000    0.000 
#    0.000    0.000    0.000    0.000    0.000    0.000 
#
# Total GULP energy -133737.424102 kJ/mol
# GULP energy per Si atom -5572.392671 kJ/mol
# Density = 2.586162 g / cm^3
# Si number density = 25.920614 Si / 1000 Ang^3
#
#
#
# Elastic Constant Matrix: (Units=GPa)
#
#
# Indices 1 2 3 4 5 6 
#
# 1 69.3186 6.6019 31.5368 0.0000 0.0000 0.0000
# 2 6.6019 42.5473 46.0733 0.0000 0.0000 0.0000
# 3 31.5368 46.0733 195.8080 0.0000 0.0000 0.0000
# 4 0.0000 0.0000 0.0000 39.3955 0.0000 0.0000
# 5 0.0000 0.0000 0.0000 0.0000 40.1149 0.0000
# 6 0.0000 0.0000 0.0000 0.0000 0.0000 30.3677
#
#
#
# Elastic Compliance Matrix: (Units=1/GPa)
#
#
# Indices 1 2 3 4 5 6 
#
# 1 0.015572 0.000402 -0.002603 0.000000 0.000000 0.000000
# 2 0.000402 0.031550 -0.007488 0.000000 0.000000 0.000000
# 3 -0.002603 -0.007488 0.007288 0.000000 0.000000 0.000000
# 4 0.000000 0.000000 0.000000 0.025384 0.000000 0.000000
# 5 0.000000 0.000000 0.000000 0.000000 0.024928 0.000000
# 6 0.000000 0.000000 0.000000 0.000000 0.000000 0.032930
#
#
# Mechanical properties :
#
#
# Convention : Reuss Voigt Hill
#
# Bulk Modulus (GPa) = 28.54526 52.89978 40.72252
# Shear Modulus (GPa) = 29.63719 36.87307 33.25513
#
# Velocity S-wave (km/s) = 3.38506 3.77575 3.58573
# Velocity P-wave (km/s) = 5.12978 6.28180 5.73479
#
# Compressibility (1/GPa) = 0.03503209
#
# Stress axis : x y z
#
# Youngs Moduli (GPa) = 64.21818 31.69590 137.20762
#
# Poissons Ratio (x) = -0.01274 0.35710
# Poissons Ratio (y) = -0.02582 1.02746
# Poissons Ratio (z) = 0.16714 0.23735
#
# Static dielectric constant tensor:
#      x y z
#    x 2.191880 0.000000 0.000000 
#    y 0.000000 2.105650 0.000000 
#    z 0.000000 0.000000 2.112380 
# 
# From -- ./inp_files/4238.got.cif
#   From: 2010.05.17/outbox.cif.g08.bks.cpg/sg33_3_cif.got.tgz:4238.got - 2010.06.03 17:15:25.
