data_PCOD9346415
_publ_section_title
;
Structure prediction by ZEFSAII (Michael W. Deem and Ramdas Pophale) SiO2 
 PCOD9346415
Probable space group: P N A 21
;
_chemical_formula_sum "Si O2"
_cell_formula_units_Z 32
_cell_length_a 13.187054
_cell_length_b 7.789944
_cell_length_c 12.618309
_cell_angle_alpha 90.000000
_cell_angle_beta 90.000000
_cell_angle_gamma 90.000000
_cell_volume 1296.233611
_symmetry_space_group_name_H-M "P N A 21"
_symmetry_group_IT_number 33
_symmetry_cell_setting 'orthorhombic'
loop_
_space_group_symop_operation_xyz
x,y,z
-x,-y,1/2+z
1/2-x,1/2+y,1/2+z
1/2+x,1/2-y,z
loop_
_atom_site_type_symbol
_atom_site_label
_atom_site_fract_x
_atom_site_fract_y
_atom_site_fract_z
Si Si1 0.595090 0.197397 0.800150
Si Si2 0.561320 0.614315 0.142148
Si Si3 0.253646 0.799872 0.030528
Si Si4 0.753047 0.500684 0.823550
Si Si5 0.404548 0.056385 0.141683
Si Si6 0.421642 0.218648 0.934734
Si Si7 0.086341 0.098123 0.443202
Si Si8 0.899893 0.728648 0.725561
O O1 0.508570 0.272506 0.720048
O O2 0.675736 0.349882 0.797777
O O3 0.539167 0.172748 0.912523
O O4 0.634478 0.014870 0.755187
O O5 0.667480 0.706087 0.117393
O O6 0.589856 0.417429 0.173495
O O7 0.497891 0.604237 0.033228
O O8 0.352687 0.905615 0.071289
O O9 0.212576 0.895552 0.925860
O O10 0.303396 0.625156 0.994212
O O11 0.853357 0.405638 0.865363
O O12 0.789981 0.637654 0.735620
O O13 0.520910 0.100218 0.170841
O O14 0.386372 0.209330 0.057238
O O15 0.411567 0.410676 0.894989
O O16 0.070496 0.232971 0.348609
#
# Coordination Sequence:
#
# PCOD9346415 Si02
#       8
#     4   4   4   4   4   4   4   4
#     4  12  25  44  75 104 148 196 237 306 366 437
#     4  12  25  45  74 104 148 191 243 300 375 433
#     4  10  25  46  66 105 144 188 240 298 362 442
#     4  10  25  47  69 105 147 187 241 298 363 439
#     4  11  24  44  72 104 146 193 241 297 368 437
#     4  11  23  46  70 107 149 188 247 302 359 438
#     4  11  23  47  71 106 146 192 243 305 362 434
#     4  11  24  45  77 107 146 195 242 304 365 448
#
# _framework density 24.686904999999999
#
# number of rings (size 3 to 8) (size 9 to 14) (size 15 to 20)
#    0.000    1.000    5.000    0.750    1.750    1.000 
#    6.750    0.000    0.000    0.000    0.000    0.000 
#    0.000    0.000    0.000    0.000    0.000    0.000 
#
# Total GULP energy -178502.035637 kJ/mol
# GULP energy per Si atom -5578.188614 kJ/mol
# Density = 2.463072 g / cm^3
# Si number density = 24.686905 Si / 1000 Ang^3
#
#
#
# Elastic Constant Matrix: (Units=GPa)
#
#
# Indices 1 2 3 4 5 6 
#
# 1 88.4830 35.6655 49.1526 0.0000 0.0000 0.0000
# 2 35.6655 62.7795 35.9226 0.0000 0.0000 0.0000
# 3 49.1526 35.9226 76.2794 0.0000 0.0000 0.0000
# 4 0.0000 0.0000 0.0000 40.0006 0.0000 0.0000
# 5 0.0000 0.0000 0.0000 0.0000 27.8157 0.0000
# 6 0.0000 0.0000 0.0000 0.0000 0.0000 37.9753
#
#
#
# Elastic Compliance Matrix: (Units=1/GPa)
#
#
# Indices 1 2 3 4 5 6 
#
# 1 0.018729 -0.005112 -0.009661 0.000000 0.000000 0.000000
# 2 -0.005112 0.023200 -0.007632 0.000000 0.000000 0.000000
# 3 -0.009661 -0.007632 0.022929 0.000000 0.000000 0.000000
# 4 0.000000 0.000000 0.000000 0.025000 0.000000 0.000000
# 5 0.000000 0.000000 0.000000 0.000000 0.035951 0.000000
# 6 0.000000 0.000000 0.000000 0.000000 0.000000 0.026333
#
#
# Mechanical properties :
#
#
# Convention : Reuss Voigt Hill
#
# Bulk Modulus (GPa) = 49.87898 52.11371 50.99635
# Shear Modulus (GPa) = 24.55400 28.27840 26.41620
#
# Velocity S-wave (km/s) = 3.15718 3.38817 3.27471
# Velocity P-wave (km/s) = 5.79127 6.03837 5.91611
#
# Compressibility (1/GPa) = 0.02004853
#
# Stress axis : x y z
#
# Youngs Moduli (GPa) = 53.39348 43.10407 43.61288
#
# Poissons Ratio (x) = 0.22035 0.42135
# Poissons Ratio (y) = 0.27294 0.33283
# Poissons Ratio (z) = 0.51584 0.32895
#
# Static dielectric constant tensor:
#      x y z
#    x 1.979010 0.000000 0.000000 
#    y 0.000000 1.941580 0.000000 
#    z 0.000000 0.000000 2.014030 
# 
# From -- ./inp_files/7964.got.cif
#   From: 2010.05.17/outbox.cif.g08.bks.cpg/sg33_4_cif.got.tgz:7964.got - 2010.06.03 17:15:25.
