data_PCOD9346416
_publ_section_title
;
Structure prediction by ZEFSAII (Michael W. Deem and Ramdas Pophale) SiO2 
 PCOD9346416
Probable space group: P N A 21
;
_chemical_formula_sum "Si O2"
_cell_formula_units_Z 32
_cell_length_a 30.119252
_cell_length_b 6.818815
_cell_length_c 7.484922
_cell_angle_alpha 90.000000
_cell_angle_beta 90.000000
_cell_angle_gamma 90.000000
_cell_volume 1537.235371
_symmetry_space_group_name_H-M "P N A 21"
_symmetry_group_IT_number 33
_symmetry_cell_setting 'orthorhombic'
loop_
_space_group_symop_operation_xyz
x,y,z
-x,-y,1/2+z
1/2-x,1/2+y,1/2+z
1/2+x,1/2-y,z
loop_
_atom_site_type_symbol
_atom_site_label
_atom_site_fract_x
_atom_site_fract_y
_atom_site_fract_z
Si Si1 0.042974 0.415897 0.011890
Si Si2 0.174515 0.199208 0.690242
Si Si3 0.254116 0.459464 0.644360
Si Si4 0.841990 0.849775 0.784788
Si Si5 0.986081 0.764668 0.143184
Si Si6 0.943559 0.929476 0.792504
Si Si7 0.141151 0.467917 0.987821
Si Si8 0.200968 0.792909 0.813615
O O1 0.043524 0.257115 0.170139
O O2 0.004468 0.572540 0.042717
O O3 0.038277 0.306847 0.822496
O O4 0.090466 0.523338 0.020377
O O5 0.223708 0.288030 0.727218
O O6 0.163694 0.228520 0.484427
O O7 0.142989 0.321234 0.818637
O O8 0.173415 0.969316 0.730053
O O9 0.301285 0.506594 0.735999
O O10 0.225218 0.656106 0.669879
O O11 0.263577 0.393875 0.443743
O O12 0.890421 0.950242 0.772481
O O13 0.841224 0.666181 0.649254
O O14 0.957264 0.884975 0.998040
O O15 0.027480 0.893463 0.214017
O O16 0.171440 0.650996 0.936925
#
# Coordination Sequence:
#
# PCOD9346416 Si02
#       8
#     4   4   4   4   4   4   4   4
#     4  11  24  43  70 101 137 171 224 277 338 406
#     4  11  24  45  68  99 134 180 223 280 331 399
#     4  11  24  41  66  96 135 175 223 268 334 396
#     4  11  24  45  67  98 136 175 227 275 333 407
#     4  12  23  45  69  98 133 177 219 279 339 403
#     4  11  25  44  70  99 135 178 223 281 342 405
#     4  10  25  46  66  99 137 175 220 279 335 399
#     4  11  25  43  68  96 133 179 219 277 332 391
#
# _framework density 20.816590999999999
#
# number of rings (size 3 to 8) (size 9 to 14) (size 15 to 20)
#    0.000    1.000    5.000    0.750    5.250    0.000 
#    6.750    0.000    0.000    0.000    0.000    0.000 
#    0.000    0.000    0.000    0.000    0.000    0.000 
#
# Total GULP energy -178832.630992 kJ/mol
# GULP energy per Si atom -5588.519719 kJ/mol
# Density = 2.076921 g / cm^3
# Si number density = 20.816591 Si / 1000 Ang^3
#
#
#
# Elastic Constant Matrix: (Units=GPa)
#
#
# Indices 1 2 3 4 5 6 
#
# 1 75.5451 12.2696 -0.6019 0.0000 0.0000 0.0000
# 2 12.2696 46.2088 11.6460 0.0000 0.0000 0.0000
# 3 -0.6019 11.6460 87.8493 0.0000 0.0000 0.0000
# 4 0.0000 0.0000 0.0000 16.5227 0.0000 0.0000
# 5 0.0000 0.0000 0.0000 0.0000 19.9751 0.0000
# 6 0.0000 0.0000 0.0000 0.0000 0.0000 21.1237
#
#
#
# Elastic Compliance Matrix: (Units=1/GPa)
#
#
# Indices 1 2 3 4 5 6 
#
# 1 0.013865 -0.003833 0.000603 0.000000 0.000000 0.000000
# 2 -0.003833 0.023449 -0.003135 0.000000 0.000000 0.000000
# 3 0.000603 -0.003135 0.011803 0.000000 0.000000 0.000000
# 4 0.000000 0.000000 0.000000 0.060523 0.000000 0.000000
# 5 0.000000 0.000000 0.000000 0.000000 0.050062 0.000000
# 6 0.000000 0.000000 0.000000 0.000000 0.000000 0.047340
#
#
# Mechanical properties :
#
#
# Convention : Reuss Voigt Hill
#
# Bulk Modulus (GPa) = 27.48301 28.47006 27.97653
# Shear Modulus (GPa) = 21.56098 23.94359 22.75228
#
# Velocity S-wave (km/s) = 3.22181 3.39516 3.30962
# Velocity P-wave (km/s) = 5.20300 5.39220 5.29845
#
# Compressibility (1/GPa) = 0.03638612
#
# Stress axis : x y z
#
# Youngs Moduli (GPa) = 72.12650 42.64602 84.72539
#
# Poissons Ratio (x) = 0.16348 -0.05110
# Poissons Ratio (y) = 0.27649 0.26560
# Poissons Ratio (z) = -0.04350 0.13369
#
# Static dielectric constant tensor:
#      x y z
#    x 1.766330 0.000000 0.000000 
#    y 0.000000 1.723510 0.000000 
#    z 0.000000 0.000000 1.727640 
# 
# From -- ./inp_files/5367.got.cif
#   From: 2010.05.17/outbox.cif.g08.bks.cpg/sg33_3_cif.got.tgz:5367.got - 2010.06.03 17:15:25.
