data_PCOD9346766
_publ_section_title
;
Structure prediction by ZEFSAII (Michael W. Deem and Ramdas Pophale) SiO2 
 PCOD9346766
Probable space group: P N A 21
;
_chemical_formula_sum "Si O2"
_cell_formula_units_Z 24
_cell_length_a 17.769465
_cell_length_b 6.506191
_cell_length_c 8.905986
_cell_angle_alpha 90.000000
_cell_angle_beta 90.000000
_cell_angle_gamma 90.000000
_cell_volume 1029.634697
_symmetry_space_group_name_H-M "P N A 21"
_symmetry_group_IT_number 33
_symmetry_cell_setting 'orthorhombic'
loop_
_space_group_symop_operation_xyz
x,y,z
-x,-y,1/2+z
1/2-x,1/2+y,1/2+z
1/2+x,1/2-y,z
loop_
_atom_site_type_symbol
_atom_site_label
_atom_site_fract_x
_atom_site_fract_y
_atom_site_fract_z
Si Si1 0.275549 0.917297 0.306110
Si Si2 0.109773 0.485062 0.578785
Si Si3 0.837605 0.759819 0.821448
Si Si4 0.032404 0.783625 0.101055
Si Si5 0.946477 0.118010 0.934661
Si Si6 0.683119 0.914127 0.117262
O O1 0.359835 0.933862 0.243285
O O2 0.234162 0.717018 0.235471
O O3 0.232959 0.123439 0.250316
O O4 0.274678 0.965669 0.483976
O O5 0.171794 0.374269 0.472352
O O6 0.099217 0.720403 0.534676
O O7 0.029565 0.379286 0.545272
O O8 0.863554 0.589225 0.705156
O O9 0.892357 0.941546 0.868759
O O10 0.025228 0.780369 0.281501
O O11 0.118019 0.735519 0.056745
O O12 0.008056 0.003037 0.034428
#
# Coordination Sequence:
#
# PCOD9346766 Si02
#       6
#     4   4   4   4   4   4
#     4  12  27  46  74 112 142 202 251 308 377 452
#     4  11  26  46  71 105 149 195 245 308 372 447
#     4  11  24  46  71  98 152 187 239 312 363 437
#     4  11  27  44  75 106 150 196 246 309 369 443
#     4  11  26  48  70 108 148 192 244 305 365 445
#     4  12  28  48  77 109 149 198 251 310 382 448
#
# _framework density 23.309238000000001
#
# number of rings (size 3 to 8) (size 9 to 14) (size 15 to 20)
#    0.000    0.667    5.000    0.000   11.667    0.000 
#    0.000    0.000    0.000    0.000    0.000    0.000 
#    0.000    0.000    0.000    0.000    0.000    0.000 
#
# Total GULP energy -133946.794229 kJ/mol
# GULP energy per Si atom -5581.116426 kJ/mol
# Density = 2.325618 g / cm^3
# Si number density = 23.309238 Si / 1000 Ang^3
#
#
#
# Elastic Constant Matrix: (Units=GPa)
#
#
# Indices 1 2 3 4 5 6 
#
# 1 79.3232 36.9572 21.3917 0.0000 0.0000 0.0000
# 2 36.9572 124.4574 43.2298 0.0000 0.0000 0.0000
# 3 21.3917 43.2298 81.7236 0.0000 0.0000 0.0000
# 4 0.0000 0.0000 0.0000 43.9418 0.0000 0.0000
# 5 0.0000 0.0000 0.0000 0.0000 31.2170 0.0000
# 6 0.0000 0.0000 0.0000 0.0000 0.0000 33.2249
#
#
#
# Elastic Compliance Matrix: (Units=1/GPa)
#
#
# Indices 1 2 3 4 5 6 
#
# 1 0.014869 -0.003753 -0.001907 0.000000 0.000000 0.000000
# 2 -0.003753 0.010791 -0.004726 0.000000 0.000000 0.000000
# 3 -0.001907 -0.004726 0.015235 0.000000 0.000000 0.000000
# 4 0.000000 0.000000 0.000000 0.022757 0.000000 0.000000
# 5 0.000000 0.000000 0.000000 0.000000 0.032034 0.000000
# 6 0.000000 0.000000 0.000000 0.000000 0.000000 0.030098
#
#
# Mechanical properties :
#
#
# Convention : Reuss Voigt Hill
#
# Bulk Modulus (GPa) = 49.69131 54.29572 51.99352
# Shear Modulus (GPa) = 32.62344 33.93845 33.28094
#
# Velocity S-wave (km/s) = 3.74517 3.81991 3.78272
# Velocity P-wave (km/s) = 6.32980 6.54216 6.43685
#
# Compressibility (1/GPa) = 0.02012424
#
# Stress axis : x y z
#
# Youngs Moduli (GPa) = 67.25184 92.67164 65.63719
#
# Poissons Ratio (x) = 0.34780 0.12516
# Poissons Ratio (y) = 0.25240 0.31018
# Poissons Ratio (z) = 0.12824 0.43794
#
# Static dielectric constant tensor:
#      x y z
#    x 1.896190 0.000000 0.000000 
#    y 0.000000 1.847440 0.000000 
#    z 0.000000 0.000000 1.935410 
# 
# From -- ./inp_files/4628.got.cif
#   From: 2010.05.17/outbox.cif.g08.bks.cpg/sg33_3_cif.got.tgz:4628.got - 2010.06.03 17:15:25.
