data_PCOD9346716
_publ_section_title
;
Structure prediction by ZEFSAII (Michael W. Deem and Ramdas Pophale) SiO2 
 PCOD9346716
Probable space group: P N A 21
;
_chemical_formula_sum "Si O2"
_cell_formula_units_Z 24
_cell_length_a 18.947343
_cell_length_b 7.229910
_cell_length_c 6.950833
_cell_angle_alpha 90.000000
_cell_angle_beta 90.000000
_cell_angle_gamma 90.000000
_cell_volume 952.177824
_symmetry_space_group_name_H-M "P N A 21"
_symmetry_group_IT_number 33
_symmetry_cell_setting 'orthorhombic'
loop_
_space_group_symop_operation_xyz
x,y,z
-x,-y,1/2+z
1/2-x,1/2+y,1/2+z
1/2+x,1/2-y,z
loop_
_atom_site_type_symbol
_atom_site_label
_atom_site_fract_x
_atom_site_fract_y
_atom_site_fract_z
Si Si1 0.481128 0.660907 0.357810
Si Si2 0.403555 0.084814 0.802315
Si Si3 0.653538 0.842459 0.685058
Si Si4 0.266478 0.910988 0.614628
Si Si5 0.323153 0.737252 0.234304
Si Si6 0.998953 0.258831 0.301235
O O1 0.534602 0.780906 0.226227
O O2 0.402020 0.668233 0.278210
O O3 0.482220 0.747683 0.571678
O O4 0.506034 0.449980 0.372263
O O5 0.340854 0.997019 0.679871
O O6 0.447493 0.909594 0.882412
O O7 0.369562 0.211311 0.969337
O O8 0.718171 0.717348 0.752575
O O9 0.582760 0.822808 0.809525
O O10 0.674581 0.054331 0.658757
O O11 0.216372 0.090717 0.600998
O O12 0.283438 0.774882 0.437237
#
# Coordination Sequence:
#
# PCOD9346716 Si02
#       6
#     4   4   4   4   4   4
#     4  11  25  43  70 104 137 186 237 292 350 428
#     4  11  25  45  69 104 141 183 237 294 352 425
#     4  11  26  44  70 101 141 186 234 298 355 434
#     4  12  26  47  68 106 141 188 236 294 366 434
#     4  12  26  46  72 100 144 187 239 296 366 434
#     4  11  24  43  71 101 140 180 239 290 357 423
#
# _framework density 25.205376000000001
#
# number of rings (size 3 to 8) (size 9 to 14) (size 15 to 20)
#    0.000    0.667    6.667    0.000    4.667    2.667 
#    0.000    0.000    0.000    0.000    0.000    0.000 
#    0.000    0.000    0.000    0.000    0.000    0.000 
#
# Total GULP energy -134252.701127 kJ/mol
# GULP energy per Si atom -5593.862547 kJ/mol
# Density = 2.514801 g / cm^3
# Si number density = 25.205376 Si / 1000 Ang^3
#
#
#
# Elastic Constant Matrix: (Units=GPa)
#
#
# Indices 1 2 3 4 5 6 
#
# 1 189.8166 64.8173 24.1158 0.0000 0.0000 0.0000
# 2 64.8173 161.4748 -5.3981 0.0000 0.0000 0.0000
# 3 24.1158 -5.3981 48.0203 0.0000 0.0000 0.0000
# 4 0.0000 0.0000 0.0000 30.6304 0.0000 0.0000
# 5 0.0000 0.0000 0.0000 0.0000 17.9091 0.0000
# 6 0.0000 0.0000 0.0000 0.0000 0.0000 57.8165
#
#
#
# Elastic Compliance Matrix: (Units=1/GPa)
#
#
# Indices 1 2 3 4 5 6 
#
# 1 0.006695 -0.002811 -0.003678 0.000000 0.000000 0.000000
# 2 -0.002811 0.007396 0.002243 0.000000 0.000000 0.000000
# 3 -0.003678 0.002243 0.022924 0.000000 0.000000 0.000000
# 4 0.000000 0.000000 0.000000 0.032647 0.000000 0.000000
# 5 0.000000 0.000000 0.000000 0.000000 0.055837 0.000000
# 6 0.000000 0.000000 0.000000 0.000000 0.000000 0.017296
#
#
# Mechanical properties :
#
#
# Convention : Reuss Voigt Hill
#
# Bulk Modulus (GPa) = 35.05905 62.93130 48.99518
# Shear Modulus (GPa) = 31.09536 42.32300 36.70918
#
# Velocity S-wave (km/s) = 3.51619 4.10216 3.82042
# Velocity P-wave (km/s) = 5.51582 6.88902 6.24031
#
# Compressibility (1/GPa) = 0.02852330
#
# Stress axis : x y z
#
# Youngs Moduli (GPa) = 149.35912 135.20725 43.62261
#
# Poissons Ratio (x) = 0.38000 0.16046
# Poissons Ratio (y) = 0.41977 -0.09784
# Poissons Ratio (z) = 0.54939 -0.30325
#
# Static dielectric constant tensor:
#      x y z
#    x 2.010150 0.000000 0.000000 
#    y 0.000000 1.915660 0.000000 
#    z 0.000000 0.000000 2.173930 
# 
# From -- ./inp_files/4627.got.cif
#   From: 2010.05.17/outbox.cif.g08.bks.cpg/sg33_3_cif.got.tgz:4627.got - 2010.06.03 17:15:25.
