data_PCOD9346698
_publ_section_title
;
Structure prediction by ZEFSAII (Michael W. Deem and Ramdas Pophale) SiO2 
 PCOD9346698
Probable space group: P N A 21
;
_chemical_formula_sum "Si O2"
_cell_formula_units_Z 32
_cell_length_a 26.411457
_cell_length_b 6.726595
_cell_length_c 8.823869
_cell_angle_alpha 90.000000
_cell_angle_beta 90.000000
_cell_angle_gamma 90.000000
_cell_volume 1567.641283
_symmetry_space_group_name_H-M "P N A 21"
_symmetry_group_IT_number 33
_symmetry_cell_setting 'orthorhombic'
loop_
_space_group_symop_operation_xyz
x,y,z
-x,-y,1/2+z
1/2-x,1/2+y,1/2+z
1/2+x,1/2-y,z
loop_
_atom_site_type_symbol
_atom_site_label
_atom_site_fract_x
_atom_site_fract_y
_atom_site_fract_z
Si Si1 0.358940 0.309534 0.073350
Si Si2 0.203552 0.110404 0.080996
Si Si3 0.925934 0.507016 0.238541
Si Si4 0.766056 0.058646 0.258226
Si Si5 0.612867 0.097603 0.066112
Si Si6 0.824512 0.278005 0.742159
Si Si7 0.019224 0.216930 0.233183
Si Si8 0.952138 0.901903 0.066395
O O1 0.320616 0.431653 0.179618
O O2 0.406400 0.447402 0.031339
O O3 0.381652 0.121306 0.161532
O O4 0.331539 0.236927 0.921818
O O5 0.239921 0.236250 0.195842
O O6 0.161712 0.268451 0.024526
O O7 0.175653 0.941819 0.176975
O O8 0.227486 0.992987 0.936890
O O9 0.913725 0.520820 0.415216
O O10 0.978533 0.392410 0.210517
O O11 0.930870 0.723881 0.167696
O O12 0.728765 0.883966 0.203138
O O13 0.572251 0.224899 0.158928
O O14 0.632727 0.916165 0.168482
O O15 0.994961 0.023099 0.156132
O O16 0.026390 0.181406 0.410484
#
# Coordination Sequence:
#
# PCOD9346698 Si02
#       8
#     4   4   4   4   4   4   4   4
#     4  11  24  43  66  98 129 175 227 274 342 407
#     4  11  25  42  68  95 131 176 223 277 343 405
#     4  11  24  42  68  95 134 179 220 280 336 405
#     4  11  24  44  63  99 129 175 225 277 342 413
#     4  11  24  43  65  99 135 174 227 279 341 410
#     4  11  25  43  67  96 133 174 221 284 340 405
#     4  11  24  42  66 100 134 175 228 276 341 407
#     4  11  24  41  67  96 133 178 223 283 341 406
#
# _framework density 20.412831000000001
#
# number of rings (size 3 to 8) (size 9 to 14) (size 15 to 20)
#    0.000    1.000    1.250    4.500    1.750   11.000 
#    0.000    0.000    0.000    0.000    0.000    0.000 
#    0.000    0.000    0.000    0.000    0.000    0.000 
#
# Total GULP energy -178878.568999 kJ/mol
# GULP energy per Si atom -5589.955281 kJ/mol
# Density = 2.036637 g / cm^3
# Si number density = 20.412831 Si / 1000 Ang^3
#
#
#
# Elastic Constant Matrix: (Units=GPa)
#
#
# Indices 1 2 3 4 5 6 
#
# 1 59.2953 9.0275 10.2038 0.0000 0.0000 0.0000
# 2 9.0275 76.5252 25.8193 0.0000 0.0000 0.0000
# 3 10.2038 25.8193 98.0853 0.0000 0.0000 0.0000
# 4 0.0000 0.0000 0.0000 40.3959 0.0000 0.0000
# 5 0.0000 0.0000 0.0000 0.0000 38.0875 0.0000
# 6 0.0000 0.0000 0.0000 0.0000 0.0000 13.2965
#
#
#
# Elastic Compliance Matrix: (Units=1/GPa)
#
#
# Indices 1 2 3 4 5 6 
#
# 1 0.017344 -0.001577 -0.001389 0.000000 0.000000 0.000000
# 2 -0.001577 0.014485 -0.003649 0.000000 0.000000 0.000000
# 3 -0.001389 -0.003649 0.011300 0.000000 0.000000 0.000000
# 4 0.000000 0.000000 0.000000 0.024755 0.000000 0.000000
# 5 0.000000 0.000000 0.000000 0.000000 0.026255 0.000000
# 6 0.000000 0.000000 0.000000 0.000000 0.000000 0.075208
#
#
# Mechanical properties :
#
#
# Convention : Reuss Voigt Hill
#
# Bulk Modulus (GPa) = 33.44654 36.00078 34.72366
# Shear Modulus (GPa) = 25.96813 30.94633 28.45723
#
# Velocity S-wave (km/s) = 3.57059 3.89784 3.73780
# Velocity P-wave (km/s) = 5.78095 6.15891 5.97292
#
# Compressibility (1/GPa) = 0.02989846
#
# Stress axis : x y z
#
# Youngs Moduli (GPa) = 57.65707 69.03812 88.49407
#
# Poissons Ratio (x) = 0.10890 0.12292
# Poissons Ratio (y) = 0.09095 0.32289
# Poissons Ratio (z) = 0.08009 0.25190
#
# Static dielectric constant tensor:
#      x y z
#    x 1.720200 0.000000 0.000000 
#    y 0.000000 1.709180 0.000000 
#    z 0.000000 0.000000 1.699780 
# 
# From -- ./inp_files/5361.got.cif
#   From: 2010.05.17/outbox.cif.g08.bks.cpg/sg33_3_cif.got.tgz:5361.got - 2010.06.03 17:15:25.
