data_PCOD9346218
_publ_section_title
;
Structure prediction by ZEFSAII (Michael W. Deem and Ramdas Pophale) SiO2 
 PCOD9346218
Probable space group: P N A 21
;
_chemical_formula_sum "Si O2"
_cell_formula_units_Z 28
_cell_length_a 9.024246
_cell_length_b 5.229863
_cell_length_c 25.999544
_cell_angle_alpha 90.000000
_cell_angle_beta 90.000000
_cell_angle_gamma 90.000000
_cell_volume 1227.063306
_symmetry_space_group_name_H-M "P N A 21"
_symmetry_group_IT_number 33
_symmetry_cell_setting 'orthorhombic'
loop_
_space_group_symop_operation_xyz
x,y,z
-x,-y,1/2+z
1/2-x,1/2+y,1/2+z
1/2+x,1/2-y,z
loop_
_atom_site_type_symbol
_atom_site_label
_atom_site_fract_x
_atom_site_fract_y
_atom_site_fract_z
Si Si1 0.042182 0.021679 0.748180
Si Si2 0.290396 0.023103 0.209105
Si Si3 0.639878 0.603569 0.459211
Si Si4 0.575286 0.039709 0.927789
Si Si5 0.481444 0.464358 0.369204
Si Si6 0.123374 0.524407 0.589557
Si Si7 0.546606 0.531963 0.052050
O O1 0.147937 0.788842 0.731551
O O2 0.011284 0.994249 0.808901
O O3 0.123433 0.287359 0.735569
O O4 0.884767 0.003257 0.719265
O O5 0.327245 0.019785 0.148856
O O6 0.584434 0.894481 0.453289
O O7 0.806023 0.540995 0.473895
O O8 0.633467 0.496493 0.400965
O O9 0.516846 0.469154 0.493940
O O10 0.605464 0.299297 0.894984
O O11 0.572475 0.806092 0.889420
O O12 0.277440 0.497551 0.557996
O O13 0.014509 0.287888 0.578543
O O14 0.038344 0.787074 0.576571
#
# Coordination Sequence:
#
# PCOD9346218 Si02
#       7
#     4   4   4   4   4   4   4
#     4  12  27  44  76 102 139 184 235 282 359 412
#     4  12  26  48  69 102 136 181 234 297 346 412
#     4  10  26  41  70  96 143 170 229 266 339 404
#     4  10  24  40  65  93 141 173 216 270 327 390
#     4  10  26  40  69  97 142 171 227 268 337 406
#     4  12  26  47  71 100 138 179 236 295 349 408
#     4  12  27  44  76 102 139 184 235 282 359 412
#
# _framework density 22.818705999999999
#
# number of rings (size 3 to 8) (size 9 to 14) (size 15 to 20)
#    0.857    0.000    0.000    6.000   10.000    0.000 
#    0.000    0.000    0.000    0.000    0.000    0.000 
#    0.000    0.000    0.000    0.000    0.000    0.000 
#
# Total GULP energy -156493.669285 kJ/mol
# GULP energy per Si atom -5589.059617 kJ/mol
# Density = 2.276677 g / cm^3
# Si number density = 22.818706 Si / 1000 Ang^3
#
#
#
# Elastic Constant Matrix: (Units=GPa)
#
#
# Indices 1 2 3 4 5 6 
#
# 1 89.0039 20.0410 -16.9312 0.0000 0.0000 0.0000
# 2 20.0410 117.3068 10.8032 0.0000 0.0000 0.0000
# 3 -16.9312 10.8032 81.9769 0.0000 0.0000 0.0000
# 4 0.0000 0.0000 0.0000 32.8759 0.0000 0.0000
# 5 0.0000 0.0000 0.0000 0.0000 27.3862 0.0000
# 6 0.0000 0.0000 0.0000 0.0000 0.0000 19.3171
#
#
#
# Elastic Compliance Matrix: (Units=1/GPa)
#
#
# Indices 1 2 3 4 5 6 
#
# 1 0.012311 -0.002366 0.002855 0.000000 0.000000 0.000000
# 2 -0.002366 0.009084 -0.001686 0.000000 0.000000 0.000000
# 3 0.002855 -0.001686 0.013010 0.000000 0.000000 0.000000
# 4 0.000000 0.000000 0.000000 0.030417 0.000000 0.000000
# 5 0.000000 0.000000 0.000000 0.000000 0.036515 0.000000
# 6 0.000000 0.000000 0.000000 0.000000 0.000000 0.051768
#
#
# Mechanical properties :
#
#
# Convention : Reuss Voigt Hill
#
# Bulk Modulus (GPa) = 31.23948 35.12374 33.18161
# Shear Modulus (GPa) = 30.08953 34.20747 32.14850
#
# Velocity S-wave (km/s) = 3.63524 3.87602 3.75756
# Velocity P-wave (km/s) = 5.59821 5.95460 5.77916
#
# Compressibility (1/GPa) = 0.03201078
#
# Stress axis : x y z
#
# Youngs Moduli (GPa) = 81.22634 110.08178 76.86218
#
# Poissons Ratio (x) = 0.26047 -0.21941
# Poissons Ratio (y) = 0.19220 0.12958
# Poissons Ratio (z) = -0.23186 0.18558
#
# Static dielectric constant tensor:
#      x y z
#    x 1.931710 0.000000 0.000000 
#    y 0.000000 1.850000 0.000000 
#    z 0.000000 0.000000 1.857370 
# 
# From -- ./inp_files/9340.got.cif
#   From: 2010.05.17/outbox.cif.g08.bks.cpg/sg33_5_cif.got.tgz:9340.got - 2010.06.03 17:15:25.
