data_PCOD9346051
_publ_section_title
;
Structure prediction by ZEFSAII (Michael W. Deem and Ramdas Pophale) SiO2 
 PCOD9346051
Probable space group: P N A 21
;
_chemical_formula_sum "Si O2"
_cell_formula_units_Z 24
_cell_length_a 8.197714
_cell_length_b 14.240927
_cell_length_c 8.047914
_cell_angle_alpha 90.000000
_cell_angle_beta 90.000000
_cell_angle_gamma 90.000000
_cell_volume 939.537999
_symmetry_space_group_name_H-M "P N A 21"
_symmetry_group_IT_number 33
_symmetry_cell_setting 'orthorhombic'
loop_
_space_group_symop_operation_xyz
x,y,z
-x,-y,1/2+z
1/2-x,1/2+y,1/2+z
1/2+x,1/2-y,z
loop_
_atom_site_type_symbol
_atom_site_label
_atom_site_fract_x
_atom_site_fract_y
_atom_site_fract_z
Si Si1 0.112347 0.436593 0.925280
Si Si2 0.919860 0.279730 0.036453
Si Si3 0.581771 0.454007 0.321743
Si Si4 0.757936 0.274677 0.399323
Si Si5 0.553059 0.118044 0.548992
Si Si6 0.874260 0.896824 0.449710
O O1 0.286509 0.486590 0.926918
O O2 0.091210 0.397450 0.740502
O O3 0.074043 0.350714 0.047439
O O4 0.983330 0.518504 0.964033
O O5 0.839499 0.270546 0.217216
O O6 0.788387 0.335793 0.925064
O O7 0.984550 0.182844 0.962256
O O8 0.604371 0.347835 0.387520
O O9 0.636415 0.444637 0.131206
O O10 0.420754 0.517575 0.330318
O O11 0.696201 0.175781 0.462710
O O12 0.889777 0.321285 0.520201
#
# Coordination Sequence:
#
# PCOD9346051 Si02
#       6
#     4   4   4   4   4   4
#     4  11  25  45  68  99 135 181 234 288 348 429
#     4  11  24  43  69  97 132 180 231 282 348 422
#     4  10  24  42  64  94 132 173 222 278 344 411
#     4  10  23  42  65  96 132 178 224 285 355 418
#     4  11  24  43  67  97 135 177 228 288 356 423
#     4  11  24  43  67  97 132 175 223 281 345 413
#
# _framework density 25.544471000000001
#
# number of rings (size 3 to 8) (size 9 to 14) (size 15 to 20)
#    0.000    1.333    0.000    6.000    0.000   14.667 
#    0.000    0.000    0.000    0.000    0.000    0.000 
#    0.000    0.000    0.000    0.000    0.000    0.000 
#
# Total GULP energy -134504.664926 kJ/mol
# GULP energy per Si atom -5604.361039 kJ/mol
# Density = 2.548633 g / cm^3
# Si number density = 25.544471 Si / 1000 Ang^3
#
#
#
# Elastic Constant Matrix: (Units=GPa)
#
#
# Indices 1 2 3 4 5 6 
#
# 1 68.4650 34.4827 16.1535 0.0000 0.0000 0.0000
# 2 34.4827 149.7443 32.7961 0.0000 0.0000 0.0000
# 3 16.1535 32.7961 78.1174 0.0000 0.0000 0.0000
# 4 0.0000 0.0000 0.0000 31.3038 0.0000 0.0000
# 5 0.0000 0.0000 0.0000 0.0000 33.9607 0.0000
# 6 0.0000 0.0000 0.0000 0.0000 0.0000 71.3132
#
#
#
# Elastic Compliance Matrix: (Units=1/GPa)
#
#
# Indices 1 2 3 4 5 6 
#
# 1 0.016812 -0.003425 -0.002039 0.000000 0.000000 0.000000
# 2 -0.003425 0.008052 -0.002672 0.000000 0.000000 0.000000
# 3 -0.002039 -0.002672 0.014345 0.000000 0.000000 0.000000
# 4 0.000000 0.000000 0.000000 0.031945 0.000000 0.000000
# 5 0.000000 0.000000 0.000000 0.000000 0.029446 0.000000
# 6 0.000000 0.000000 0.000000 0.000000 0.000000 0.014023
#
#
# Mechanical properties :
#
#
# Convention : Reuss Voigt Hill
#
# Bulk Modulus (GPa) = 43.59744 51.46571 47.53158
# Shear Modulus (GPa) = 36.09083 41.50848 38.79966
#
# Velocity S-wave (km/s) = 3.76288 4.03544 3.90154
# Velocity P-wave (km/s) = 5.99862 6.47335 6.24050
#
# Compressibility (1/GPa) = 0.02293713
#
# Stress axis : x y z
#
# Youngs Moduli (GPa) = 59.48144 124.19276 69.71224
#
# Poissons Ratio (x) = 0.42535 0.14211
# Poissons Ratio (y) = 0.20372 0.18629
# Poissons Ratio (z) = 0.12126 0.33187
#
# Static dielectric constant tensor:
#      x y z
#    x 2.120010 0.000000 0.000000 
#    y 0.000000 1.978250 0.000000 
#    z 0.000000 0.000000 1.941320 
# 
# From -- ./inp_files/3192.got.cif
#   From: 2010.05.17/outbox.cif.g08.bks.cpg/sg33_2_cif.got.tgz:3192.got - 2010.06.03 17:15:25.
