data_PCOD9346624
_publ_section_title
;
Structure prediction by ZEFSAII (Michael W. Deem and Ramdas Pophale) SiO2 
 PCOD9346624
Probable space group: P N A 21
;
_chemical_formula_sum "Si O2"
_cell_formula_units_Z 24
_cell_length_a 4.899837
_cell_length_b 30.919937
_cell_length_c 6.570710
_cell_angle_alpha 90.000000
_cell_angle_beta 90.000000
_cell_angle_gamma 90.000000
_cell_volume 995.479986
_symmetry_space_group_name_H-M "P N A 21"
_symmetry_group_IT_number 33
_symmetry_cell_setting 'orthorhombic'
loop_
_space_group_symop_operation_xyz
x,y,z
-x,-y,1/2+z
1/2-x,1/2+y,1/2+z
1/2+x,1/2-y,z
loop_
_atom_site_type_symbol
_atom_site_label
_atom_site_fract_x
_atom_site_fract_y
_atom_site_fract_z
Si Si1 0.293818 0.449344 0.496350
Si Si2 0.722098 0.722372 0.646789
Si Si3 0.121989 0.340249 0.848788
Si Si4 0.367494 0.618102 0.558190
Si Si5 0.289956 0.040115 0.784848
Si Si6 0.554850 0.138190 0.379405
O O1 0.588227 0.448028 0.599833
O O2 0.218761 0.407134 0.365687
O O3 0.258980 0.491393 0.356855
O O4 0.086618 0.453543 0.687402
O O5 0.271065 0.793220 0.414680
O O6 0.418882 0.737491 0.690354
O O7 0.816035 0.680205 0.770991
O O8 0.333815 0.372622 0.963922
O O9 0.085196 0.350442 0.614975
O O10 0.822036 0.347806 0.936499
O O11 0.243755 0.627912 0.783418
O O12 0.272792 0.571392 0.475350
#
# Coordination Sequence:
#
# PCOD9346624 Si02
#       6
#     4   4   4   4   4   4
#     4  12  26  43  70 106 148 198 248 297 367 428
#     4  11  26  46  70 106 141 182 239 308 376 448
#     4  11  24  45  72 102 142 185 240 299 364 446
#     4  11  23  43  70 105 145 186 243 298 350 435
#     4  12  24  45  67 106 154 192 248 300 352 437
#     4  11  25  46  77 105 142 193 244 298 377 442
#
# _framework density 24.108972999999999
#
# number of rings (size 3 to 8) (size 9 to 14) (size 15 to 20)
#    0.000    0.667    3.333    4.000    0.000   12.000 
#    0.000    0.000    0.000    0.000    0.000    0.000 
#    0.000    0.000    0.000    0.000    0.000    0.000 
#
# Total GULP energy -134229.738121 kJ/mol
# GULP energy per Si atom -5592.905755 kJ/mol
# Density = 2.405410 g / cm^3
# Si number density = 24.108973 Si / 1000 Ang^3
#
#
#
# Elastic Constant Matrix: (Units=GPa)
#
#
# Indices 1 2 3 4 5 6 
#
# 1 69.5207 11.4377 25.1352 0.0000 0.0000 0.0000
# 2 11.4377 124.9609 43.6634 0.0000 0.0000 0.0000
# 3 25.1352 43.6634 145.3135 0.0000 0.0000 0.0000
# 4 0.0000 0.0000 0.0000 50.8872 0.0000 0.0000
# 5 0.0000 0.0000 0.0000 0.0000 29.6438 0.0000
# 6 0.0000 0.0000 0.0000 0.0000 0.0000 37.2519
#
#
#
# Elastic Compliance Matrix: (Units=1/GPa)
#
#
# Indices 1 2 3 4 5 6 
#
# 1 0.015376 -0.000534 -0.002499 0.000000 0.000000 0.000000
# 2 -0.000534 0.008960 -0.002600 0.000000 0.000000 0.000000
# 3 -0.002499 -0.002600 0.008095 0.000000 0.000000 0.000000
# 4 0.000000 0.000000 0.000000 0.019651 0.000000 0.000000
# 5 0.000000 0.000000 0.000000 0.000000 0.033734 0.000000
# 6 0.000000 0.000000 0.000000 0.000000 0.000000 0.026844
#
#
# Mechanical properties :
#
#
# Convention : Reuss Voigt Hill
#
# Bulk Modulus (GPa) = 47.24890 55.58533 51.41711
# Shear Modulus (GPa) = 38.17350 40.86049 39.51700
#
# Velocity S-wave (km/s) = 3.98348 4.12129 4.05297
# Velocity P-wave (km/s) = 6.38734 6.76407 6.57840
#
# Compressibility (1/GPa) = 0.02116452
#
# Stress axis : x y z
#
# Youngs Moduli (GPa) = 65.03806 111.60948 123.53101
#
# Poissons Ratio (x) = 0.05961 0.30871
# Poissons Ratio (y) = 0.03474 0.32116
# Poissons Ratio (z) = 0.16253 0.29017
#
# Static dielectric constant tensor:
#      x y z
#    x 1.917050 0.000000 0.000000 
#    y 0.000000 1.935690 0.000000 
#    z 0.000000 0.000000 1.983560 
# 
# From -- ./inp_files/230.got.cif
#   From: 2010.05.17/outbox.cif.g08.bks.cpg/sg33_1_cif.got.tgz:230.got - 2010.06.03 17:15:25.
