data_PCOD9346444
_publ_section_title
;
Structure prediction by ZEFSAII (Michael W. Deem and Ramdas Pophale) SiO2 
 PCOD9346444
Probable space group: P N A 21
;
_chemical_formula_sum "Si O2"
_cell_formula_units_Z 20
_cell_length_a 23.846949
_cell_length_b 6.255144
_cell_length_c 4.954718
_cell_angle_alpha 90.000000
_cell_angle_beta 90.000000
_cell_angle_gamma 90.000000
_cell_volume 739.075960
_symmetry_space_group_name_H-M "P N A 21"
_symmetry_group_IT_number 33
_symmetry_cell_setting 'orthorhombic'
loop_
_space_group_symop_operation_xyz
x,y,z
-x,-y,1/2+z
1/2-x,1/2+y,1/2+z
1/2+x,1/2-y,z
loop_
_atom_site_type_symbol
_atom_site_label
_atom_site_fract_x
_atom_site_fract_y
_atom_site_fract_z
Si Si1 0.661170 0.709164 0.013070
Si Si2 0.500005 0.338991 0.874780
Si Si3 0.752024 0.500098 0.624441
Si Si4 0.413851 0.999897 0.124477
Si Si5 0.161163 0.208975 0.235829
O O1 0.630708 0.500096 0.124424
O O2 0.700509 0.831927 0.231319
O O3 0.709775 0.610587 0.826915
O O4 0.621800 0.860491 0.837676
O O5 0.491591 0.500246 0.625032
O O6 0.549392 0.173590 0.789238
O O7 0.450621 0.173407 0.959819
O O8 0.799495 0.668263 0.517587
O O9 0.709766 0.389622 0.421992
O O10 0.378207 0.860301 0.911232
#
# Coordination Sequence:
#
# PCOD9346444 Si02
#       5
#     4   4   4   4   4
#     4  11  27  49  79 120 169 220 270 342 413 510
#     4  12  32  64  88 122 172 220 290 382 436 508
#     4  10  26  47  76 124 170 215 274 326 416 512
#     4  12  32  55  88 128 156 227 296 344 440 508
#     4  11  27  49  79 120 169 220 270 342 413 510
#
# _framework density 27.060818000000001
#
# number of rings (size 3 to 8) (size 9 to 14) (size 15 to 20)
#    0.000    0.800    0.000    2.400   19.600    9.600 
#    7.200    0.000    0.000    0.000    0.000    0.000 
#    0.000    0.000    0.000    0.000    0.000    0.000 
#
# Total GULP energy -111883.998098 kJ/mol
# GULP energy per Si atom -5594.199905 kJ/mol
# Density = 2.699923 g / cm^3
# Si number density = 27.060818 Si / 1000 Ang^3
#
#
#
# Elastic Constant Matrix: (Units=GPa)
#
#
# Indices 1 2 3 4 5 6 
#
# 1 182.3450 160.7104 87.6675 0.0000 0.0000 0.0000
# 2 160.7104 252.1855 102.2686 0.0000 0.0000 0.0000
# 3 87.6675 102.2686 138.9513 0.0000 0.0000 0.0000
# 4 0.0000 0.0000 0.0000 82.5145 0.0000 0.0000
# 5 0.0000 0.0000 0.0000 0.0000 50.2394 0.0000
# 6 0.0000 0.0000 0.0000 0.0000 0.0000 0.2902
#
#
#
# Elastic Compliance Matrix: (Units=1/GPa)
#
#
# Indices 1 2 3 4 5 6 
#
# 1 0.013380 -0.007275 -0.003088 0.000000 0.000000 0.000000
# 2 -0.007275 0.009608 -0.002481 0.000000 0.000000 0.000000
# 3 -0.003088 -0.002481 0.010971 0.000000 0.000000 0.000000
# 4 0.000000 0.000000 0.000000 0.012119 0.000000 0.000000
# 5 0.000000 0.000000 0.000000 0.000000 0.019905 0.000000
# 6 0.000000 0.000000 0.000000 0.000000 0.000000 3.446483
#
#
# Mechanical properties :
#
#
# Convention : Reuss Voigt Hill
#
# Bulk Modulus (GPa) = 120.89904 141.64163 131.27034
# Shear Modulus (GPa) = 1.41207 41.46449 21.43828
#
# Velocity S-wave (km/s) = 0.72315 3.91867 2.81770
# Velocity P-wave (km/s) = 6.74322 8.53992 7.69419
#
# Compressibility (1/GPa) = 0.00827136
#
# Stress axis : x y z
#
# Youngs Moduli (GPa) = 74.73793 104.08499 91.14766
#
# Poissons Ratio (x) = 0.75718 0.28143
# Poissons Ratio (y) = 0.54369 0.22618
# Poissons Ratio (z) = 0.23077 0.25828
#
# Static dielectric constant tensor:
#      x y z
#    x 2.080010 0.000000 0.000000 
#    y 0.000000 2.470780 0.000000 
#    z 0.000000 0.000000 2.374550 
# 
# From -- ./inp_files/2160.got.cif
#   From: 2010.05.17/outbox.cif.g08.bks.cpg/sg33_2_cif.got.tgz:2160.got - 2010.06.03 17:15:25.
