data_PCOD9346261
_publ_section_title
;
Structure prediction by ZEFSAII (Michael W. Deem and Ramdas Pophale) SiO2 
 PCOD9346261
Probable space group: P N A 21
;
_chemical_formula_sum "Si O2"
_cell_formula_units_Z 28
_cell_length_a 22.224880
_cell_length_b 5.336281
_cell_length_c 10.503219
_cell_angle_alpha 90.000000
_cell_angle_beta 90.000000
_cell_angle_gamma 90.000000
_cell_volume 1245.662919
_symmetry_space_group_name_H-M "P N A 21"
_symmetry_group_IT_number 33
_symmetry_cell_setting 'orthorhombic'
loop_
_space_group_symop_operation_xyz
x,y,z
-x,-y,1/2+z
1/2-x,1/2+y,1/2+z
1/2+x,1/2-y,z
loop_
_atom_site_type_symbol
_atom_site_label
_atom_site_fract_x
_atom_site_fract_y
_atom_site_fract_z
Si Si1 0.822841 0.978494 0.364140
Si Si2 0.385843 0.826254 0.159690
Si Si3 0.522354 0.477434 0.482851
Si Si4 0.920117 0.370182 0.393228
Si Si5 0.314995 0.953995 0.924292
Si Si6 0.908619 0.751293 0.578172
Si Si7 0.631720 0.557796 0.322744
O O1 0.834234 0.838255 0.230486
O O2 0.756381 0.012121 0.416951
O O3 0.863034 0.832307 0.466596
O O4 0.857900 0.238621 0.355833
O O5 0.434319 0.671173 0.078323
O O6 0.425076 0.940252 0.275532
O O7 0.349930 0.000777 0.058364
O O8 0.478851 0.301319 0.399000
O O9 0.476306 0.656304 0.554333
O O10 0.568333 0.613451 0.390173
O O11 0.913137 0.459584 0.540907
O O12 0.337207 0.169912 0.825038
O O13 0.330371 0.660695 0.896422
O O14 0.883683 0.897427 0.697937
#
# Coordination Sequence:
#
# PCOD9346261 Si02
#       7
#     4   4   4   4   4   4   4
#     4  10  25  46  68 103 134 193 237 298 367 430
#     4  10  25  44  71 102 143 188 242 301 372 442
#     4  10  25  41  68 104 138 183 233 296 365 435
#     4  10  24  42  72 103 138 194 240 299 375 443
#     4  11  28  46  72 103 143 186 246 298 361 435
#     4  10  25  42  71  99 144 182 239 295 361 441
#     4  11  28  45  70 108 138 188 239 297 363 430
#
# _framework density 22.477989000000001
#
# number of rings (size 3 to 8) (size 9 to 14) (size 15 to 20)
#    0.000    1.714    0.000    0.000   26.000    0.000 
#    0.000    0.000    0.000    0.000    0.000    0.000 
#    0.000    0.000    0.000    0.000    0.000    0.000 
#
# Total GULP energy -156010.538568 kJ/mol
# GULP energy per Si atom -5571.804949 kJ/mol
# Density = 2.242683 g / cm^3
# Si number density = 22.477989 Si / 1000 Ang^3
#
#
#
# Elastic Constant Matrix: (Units=GPa)
#
#
# Indices 1 2 3 4 5 6 
#
# 1 312.9212 16.5999 -18.9023 0.0000 0.0000 0.0000
# 2 16.5999 42.7538 -13.7084 0.0000 0.0000 0.0000
# 3 -18.9023 -13.7084 69.8681 0.0000 0.0000 0.0000
# 4 0.0000 0.0000 0.0000 23.1246 0.0000 0.0000
# 5 0.0000 0.0000 0.0000 0.0000 22.2923 0.0000
# 6 0.0000 0.0000 0.0000 0.0000 0.0000 -99.3869
#
#
#
# Elastic Compliance Matrix: (Units=1/GPa)
#
#
# Indices 1 2 3 4 5 6 
#
# 1 0.003293 -0.001060 0.000683 0.000000 0.000000 0.000000
# 2 -0.001060 0.025301 0.004677 0.000000 0.000000 0.000000
# 3 0.000683 0.004677 0.015415 0.000000 0.000000 0.000000
# 4 0.000000 0.000000 0.000000 0.043244 0.000000 0.000000
# 5 0.000000 0.000000 0.000000 0.000000 0.044859 0.000000
# 6 0.000000 0.000000 0.000000 0.000000 0.000000 -0.010062
#
#
# Mechanical properties :
#
#
# Convention : Reuss Voigt Hill
#
# Bulk Modulus (GPa) = 19.00744 43.72462 31.36603
# Shear Modulus (GPa) = 38.17217 18.64290 28.40754
#
# Velocity S-wave (km/s) = 4.12540 2.88303 3.55884
# Velocity P-wave (km/s) = 5.58267 5.52964 5.55622
#
# Compressibility (1/GPa) = 0.05261099
#
# Stress axis : x y z
#
# Youngs Moduli (GPa) = 303.65939 39.52432 64.87100
#
# Poissons Ratio (x) = 0.04188 -0.04431
# Poissons Ratio (y) = 0.32176 -0.30343
# Poissons Ratio (z) = -0.20741 -0.18487
#
# Static dielectric constant tensor:
#      x y z
#    x 1.777120 0.000000 0.000000 
#    y 0.000000 2.330050 0.000000 
#    z 0.000000 0.000000 1.888570 
# 
# From -- ./inp_files/7131.got.cif
#   From: 2010.05.17/outbox.cif.g08.bks.cpg/sg33_4_cif.got.tgz:7131.got - 2010.06.03 17:15:25.
