data_PCOD9346204
_publ_section_title
;
Structure prediction by ZEFSAII (Michael W. Deem and Ramdas Pophale) SiO2 
 PCOD9346204
Probable space group: P N A 21
;
_chemical_formula_sum "Si O2"
_cell_formula_units_Z 20
_cell_length_a 8.919695
_cell_length_b 9.641835
_cell_length_c 8.587457
_cell_angle_alpha 90.000000
_cell_angle_beta 90.000000
_cell_angle_gamma 90.000000
_cell_volume 738.540430
_symmetry_space_group_name_H-M "P N A 21"
_symmetry_group_IT_number 33
_symmetry_cell_setting 'orthorhombic'
loop_
_space_group_symop_operation_xyz
x,y,z
-x,-y,1/2+z
1/2-x,1/2+y,1/2+z
1/2+x,1/2-y,z
loop_
_atom_site_type_symbol
_atom_site_label
_atom_site_fract_x
_atom_site_fract_y
_atom_site_fract_z
Si Si1 0.969894 0.348094 0.998370
Si Si2 0.502084 0.559341 0.858224
Si Si3 0.157885 0.138836 0.661119
Si Si4 0.740199 0.651858 0.631972
Si Si5 0.691948 0.056732 0.723316
O O1 0.060384 0.408130 0.850867
O O2 0.095259 0.291888 0.119661
O O3 0.850762 0.222306 0.990653
O O4 0.877327 0.468552 0.083014
O O5 0.587339 0.412257 0.825211
O O6 0.628649 0.658110 0.778098
O O7 0.336411 0.529112 0.784976
O O8 0.468459 0.613247 0.029839
O O9 0.225786 0.288836 0.661950
O O10 0.268642 0.013405 0.619825
#
# Coordination Sequence:
#
# PCOD9346204 Si02
#       5
#     4   4   4   4   4
#     4  12  27  48  73 111 146 195 242 308 366 446
#     4  10  23  48  71 108 145 193 245 300 370 433
#     4  10  24  44  76 102 147 189 243 304 363 439
#     4  10  25  47  72 102 151 186 246 299 366 435
#     4  12  27  45  76 109 147 191 250 301 373 437
#
# _framework density 27.080438999999998
#
# number of rings (size 3 to 8) (size 9 to 14) (size 15 to 20)
#    1.200    0.000    2.000    2.400    5.600    1.600 
#    0.000    0.000    0.000    0.000    0.000    0.000 
#    0.000    0.000    0.000    0.000    0.000    0.000 
#
# Total GULP energy -111619.354458 kJ/mol
# GULP energy per Si atom -5580.967723 kJ/mol
# Density = 2.701880 g / cm^3
# Si number density = 27.080439 Si / 1000 Ang^3
#
#
#
# Elastic Constant Matrix: (Units=GPa)
#
#
# Indices 1 2 3 4 5 6 
#
# 1 125.9751 45.3918 33.7094 0.0000 0.0000 0.0000
# 2 45.3918 131.9789 42.3534 0.0000 0.0000 0.0000
# 3 33.7094 42.3534 92.3021 0.0000 0.0000 0.0000
# 4 0.0000 0.0000 0.0000 26.6199 0.0000 0.0000
# 5 0.0000 0.0000 0.0000 0.0000 58.2712 0.0000
# 6 0.0000 0.0000 0.0000 0.0000 0.0000 1.3535
#
#
#
# Elastic Compliance Matrix: (Units=1/GPa)
#
#
# Indices 1 2 3 4 5 6 
#
# 1 0.009460 -0.002515 -0.002301 0.000000 0.000000 0.000000
# 2 -0.002515 0.009554 -0.003465 0.000000 0.000000 0.000000
# 3 -0.002301 -0.003465 0.013264 0.000000 0.000000 0.000000
# 4 0.000000 0.000000 0.000000 0.037566 0.000000 0.000000
# 5 0.000000 0.000000 0.000000 0.000000 0.017161 0.000000
# 6 0.000000 0.000000 0.000000 0.000000 0.000000 0.738849
#
#
# Mechanical properties :
#
#
# Convention : Reuss Voigt Hill
#
# Bulk Modulus (GPa) = 63.63046 65.90727 64.76886
# Shear Modulus (GPa) = 5.89862 32.50235 19.20049
#
# Velocity S-wave (km/s) = 1.47747 3.46817 2.66563
# Velocity P-wave (km/s) = 5.14377 6.35830 5.78301
#
# Compressibility (1/GPa) = 0.01571574
#
# Stress axis : x y z
#
# Youngs Moduli (GPa) = 105.70788 104.66680 75.39013
#
# Poissons Ratio (x) = 0.26327 0.17345
# Poissons Ratio (y) = 0.26589 0.26126
# Poissons Ratio (z) = 0.24320 0.36271
#
# Static dielectric constant tensor:
#      x y z
#    x 2.015250 0.000000 0.000000 
#    y 0.000000 2.133860 0.000000 
#    z 0.000000 0.000000 2.211840 
# 
# From -- ./inp_files/3033.got.cif
#   From: 2010.05.17/outbox.cif.g08.bks.cpg/sg33_2_cif.got.tgz:3033.got - 2010.06.03 17:15:25.
