data_PCOD9346588
_publ_section_title
;
Structure prediction by ZEFSAII (Michael W. Deem and Ramdas Pophale) SiO2 
 PCOD9346588
Probable space group: P N A 21
;
_chemical_formula_sum "Si O2"
_cell_formula_units_Z 32
_cell_length_a 10.365652
_cell_length_b 22.777862
_cell_length_c 5.469718
_cell_angle_alpha 90.000000
_cell_angle_beta 90.000000
_cell_angle_gamma 90.000000
_cell_volume 1291.440845
_symmetry_space_group_name_H-M "P N A 21"
_symmetry_group_IT_number 33
_symmetry_cell_setting 'orthorhombic'
loop_
_space_group_symop_operation_xyz
x,y,z
-x,-y,1/2+z
1/2-x,1/2+y,1/2+z
1/2+x,1/2-y,z
loop_
_atom_site_type_symbol
_atom_site_label
_atom_site_fract_x
_atom_site_fract_y
_atom_site_fract_z
Si Si1 0.358712 0.438607 0.766530
Si Si2 0.662418 0.156370 0.615198
Si Si3 0.616116 0.728825 0.952531
Si Si4 0.193045 0.622125 0.291682
Si Si5 0.631799 0.261861 0.801751
Si Si6 0.612618 0.443324 0.505742
Si Si7 0.935201 0.354948 0.287496
Si Si8 0.993866 0.853929 0.638401
O O1 0.236704 0.401702 0.679613
O O2 0.461739 0.456136 0.558676
O O3 0.324921 0.497674 0.906511
O O4 0.440638 0.393630 0.933223
O O5 0.754525 0.215799 0.609862
O O6 0.590543 0.190205 0.836510
O O7 0.584356 0.150757 0.367089
O O8 0.482311 0.724683 0.099289
O O9 0.622463 0.788833 0.806274
O O10 0.614339 0.669951 0.793947
O O11 0.253425 0.687343 0.283821
O O12 0.115175 0.614516 0.542756
O O13 0.312525 0.578513 0.245285
O O14 0.113724 0.614299 0.040451
O O15 0.569538 0.293929 0.044625
O O16 0.603508 0.391383 0.305347
#
# Coordination Sequence:
#
# PCOD9346588 Si02
#       8
#     4   4   4   4   4   4   4   4
#     4  12  25  45  75 117 152 198 270 342 419 466
#     4  11  24  48  66 114 163 200 262 333 396 495
#     4  11  23  42  66 110 148 203 245 323 404 468
#     4  12  24  48  68 109 156 211 262 318 384 482
#     4  11  23  39  69 106 156 200 246 316 413 473
#     4  12  25  44  78 113 154 205 274 342 419 475
#     4  11  29  42  71 109 155 217 264 300 402 492
#     4  12  21  40  71 112 150 194 247 330 407 479
#
# _framework density 24.778525999999999
#
# number of rings (size 3 to 8) (size 9 to 14) (size 15 to 20)
#    0.000    0.500    7.500    0.750    5.250    1.000 
#    0.000    0.000    0.000    6.000    0.000    0.000 
#    0.000    0.000    0.000    0.000    0.000    0.000 
#
# Total GULP energy -178562.075301 kJ/mol
# GULP energy per Si atom -5580.064853 kJ/mol
# Density = 2.472213 g / cm^3
# Si number density = 24.778526 Si / 1000 Ang^3
#
#
#
# Elastic Constant Matrix: (Units=GPa)
#
#
# Indices 1 2 3 4 5 6 
#
# 1 71.3989 27.9779 45.0137 0.0000 0.0000 0.0000
# 2 27.9779 103.4663 52.9906 0.0000 0.0000 0.0000
# 3 45.0137 52.9906 129.6515 0.0000 0.0000 0.0000
# 4 0.0000 0.0000 0.0000 33.5958 0.0000 0.0000
# 5 0.0000 0.0000 0.0000 0.0000 36.4916 0.0000
# 6 0.0000 0.0000 0.0000 0.0000 0.0000 29.0170
#
#
#
# Elastic Compliance Matrix: (Units=1/GPa)
#
#
# Indices 1 2 3 4 5 6 
#
# 1 0.018299 -0.002143 -0.005477 0.000000 0.000000 0.000000
# 2 -0.002143 0.012475 -0.004355 0.000000 0.000000 0.000000
# 3 -0.005477 -0.004355 0.011394 0.000000 0.000000 0.000000
# 4 0.000000 0.000000 0.000000 0.029766 0.000000 0.000000
# 5 0.000000 0.000000 0.000000 0.000000 0.027404 0.000000
# 6 0.000000 0.000000 0.000000 0.000000 0.000000 0.034463
#
#
# Mechanical properties :
#
#
# Convention : Reuss Voigt Hill
#
# Bulk Modulus (GPa) = 54.89002 61.83124 58.36063
# Shear Modulus (GPa) = 30.52096 31.72317 31.12206
#
# Velocity S-wave (km/s) = 3.51344 3.58197 3.54787
# Velocity P-wave (km/s) = 6.21766 6.48961 6.35509
#
# Compressibility (1/GPa) = 0.01821825
#
# Stress axis : x y z
#
# Youngs Moduli (GPa) = 54.64873 80.16251 87.76198
#
# Poissons Ratio (x) = 0.17178 0.48070
# Poissons Ratio (y) = 0.11710 0.38217
# Poissons Ratio (z) = 0.29933 0.34908
#
# Static dielectric constant tensor:
#      x y z
#    x 2.277230 0.000000 0.000000 
#    y 0.000000 1.953340 0.000000 
#    z 0.000000 0.000000 2.146480 
# 
# From -- ./inp_files/1160.got.cif
#   From: 2010.05.17/outbox.cif.g08.bks.cpg/sg33_1_cif.got.tgz:1160.got - 2010.06.03 17:15:25.
