data_PCOD9346301
_publ_section_title
;
Structure prediction by ZEFSAII (Michael W. Deem and Ramdas Pophale) SiO2 
 PCOD9346301
Probable space group: P N A 21
;
_chemical_formula_sum "Si O2"
_cell_formula_units_Z 20
_cell_length_a 11.445148
_cell_length_b 9.681205
_cell_length_c 7.382805
_cell_angle_alpha 90.000000
_cell_angle_beta 90.000000
_cell_angle_gamma 90.000000
_cell_volume 818.035643
_symmetry_space_group_name_H-M "P N A 21"
_symmetry_group_IT_number 33
_symmetry_cell_setting 'orthorhombic'
loop_
_space_group_symop_operation_xyz
x,y,z
-x,-y,1/2+z
1/2-x,1/2+y,1/2+z
1/2+x,1/2-y,z
loop_
_atom_site_type_symbol
_atom_site_label
_atom_site_fract_x
_atom_site_fract_y
_atom_site_fract_z
Si Si1 0.768421 0.998987 0.683170
Si Si2 0.436417 0.279250 0.614059
Si Si3 0.364606 0.515122 0.066621
Si Si4 0.904642 0.290041 0.029217
Si Si5 0.610576 0.009867 0.998735
O O1 0.713951 0.866326 0.588743
O O2 0.835516 0.109837 0.561281
O O3 0.856216 0.962975 0.847815
O O4 0.660434 0.059369 0.803562
O O5 0.556699 0.361851 0.634739
O O6 0.402137 0.227623 0.813212
O O7 0.438901 0.145652 0.487019
O O8 0.228284 0.505476 0.117398
O O9 0.416176 0.364266 0.104574
O O10 0.014828 0.386553 0.070336
#
# Coordination Sequence:
#
# PCOD9346301 Si02
#       5
#     4   4   4   4   4
#     4   9  24  45  66 106 136 185 241 293 364 422
#     4  11  24  46  73 101 147 192 240 302 360 434
#     4   9  25  44  68 104 145 183 240 295 369 420
#     4  11  23  45  75 101 144 189 250 291 357 441
#     4  10  24  44  70 102 140 189 235 303 364 419
#
# _framework density 24.448813000000001
#
# number of rings (size 3 to 8) (size 9 to 14) (size 15 to 20)
#    1.200    0.800    0.000    1.200    8.400    3.200 
#   10.800    0.000    0.000    0.000    0.000    0.000 
#    0.000    0.000    0.000    0.000    0.000    0.000 
#
# Total GULP energy -111723.627355 kJ/mol
# GULP energy per Si atom -5586.181368 kJ/mol
# Density = 2.439317 g / cm^3
# Si number density = 24.448813 Si / 1000 Ang^3
#
#
#
# Elastic Constant Matrix: (Units=GPa)
#
#
# Indices 1 2 3 4 5 6 
#
# 1 90.8885 84.8988 14.9073 0.0000 0.0000 0.0000
# 2 84.8988 170.9340 24.2854 0.0000 0.0000 0.0000
# 3 14.9073 24.2854 49.4197 0.0000 0.0000 0.0000
# 4 0.0000 0.0000 0.0000 30.2939 0.0000 0.0000
# 5 0.0000 0.0000 0.0000 0.0000 27.6037 0.0000
# 6 0.0000 0.0000 0.0000 0.0000 0.0000 34.6419
#
#
#
# Elastic Compliance Matrix: (Units=1/GPa)
#
#
# Indices 1 2 3 4 5 6 
#
# 1 0.020599 -0.010050 -0.001275 0.000000 0.000000 0.000000
# 2 -0.010050 0.011193 -0.002469 0.000000 0.000000 0.000000
# 3 -0.001275 -0.002469 0.021833 0.000000 0.000000 0.000000
# 4 0.000000 0.000000 0.000000 0.033010 0.000000 0.000000
# 5 0.000000 0.000000 0.000000 0.000000 0.036227 0.000000
# 6 0.000000 0.000000 0.000000 0.000000 0.000000 0.028867
#
#
# Mechanical properties :
#
#
# Convention : Reuss Voigt Hill
#
# Bulk Modulus (GPa) = 38.40667 62.15834 50.28251
# Shear Modulus (GPa) = 26.59650 30.98461 28.79056
#
# Velocity S-wave (km/s) = 3.30183 3.56381 3.43532
# Velocity P-wave (km/s) = 5.50265 6.51256 6.02879
#
# Compressibility (1/GPa) = 0.02603714
#
# Stress axis : x y z
#
# Youngs Moduli (GPa) = 48.54513 89.34503 45.80318
#
# Poissons Ratio (x) = 0.89792 0.05840
# Poissons Ratio (y) = 0.48788 0.11307
# Poissons Ratio (z) = 0.06190 0.22055
#
# Static dielectric constant tensor:
#      x y z
#    x 1.945520 0.000000 0.000000 
#    y 0.000000 1.943030 0.000000 
#    z 0.000000 0.000000 2.002890 
# 
# From -- ./inp_files/3695.got.cif
#   From: 2010.05.17/outbox.cif.g08.bks.cpg/sg33_2_cif.got.tgz:3695.got - 2010.06.03 17:15:25.
