data_PCOD9346354
_publ_section_title
;
Structure prediction by ZEFSAII (Michael W. Deem and Ramdas Pophale) SiO2 
 PCOD9346354
Probable space group: P N A 21
;
_chemical_formula_sum "Si O2"
_cell_formula_units_Z 20
_cell_length_a 8.397426
_cell_length_b 8.916490
_cell_length_c 10.227037
_cell_angle_alpha 90.000000
_cell_angle_beta 90.000000
_cell_angle_gamma 90.000000
_cell_volume 765.755173
_symmetry_space_group_name_H-M "P N A 21"
_symmetry_group_IT_number 33
_symmetry_cell_setting 'orthorhombic'
loop_
_space_group_symop_operation_xyz
x,y,z
-x,-y,1/2+z
1/2-x,1/2+y,1/2+z
1/2+x,1/2-y,z
loop_
_atom_site_type_symbol
_atom_site_label
_atom_site_fract_x
_atom_site_fract_y
_atom_site_fract_z
Si Si1 0.437967 0.249894 0.922960
Si Si2 0.757963 0.321465 0.515237
Si Si3 0.182159 0.245169 0.106366
Si Si4 0.454510 0.421471 0.670697
Si Si5 0.442717 0.917591 0.850868
O O1 0.444209 0.389472 0.825550
O O2 0.391091 0.089006 0.866180
O O3 0.367025 0.264098 0.070082
O O4 0.623471 0.227014 0.958552
O O5 0.628288 0.414558 0.600315
O O6 0.658816 0.195678 0.438628
O O7 0.866535 0.223992 0.612048
O O8 0.877295 0.396483 0.408020
O O9 0.108217 0.362195 0.207273
O O10 0.140504 0.074306 0.143103
#
# Coordination Sequence:
#
# PCOD9346354 Si02
#       5
#     4   4   4   4   4
#     4  12  29  48  77 113 155 203 260 320 386 461
#     4  10  24  46  80 106 152 202 254 318 384 460
#     4  12  29  48  77 113 155 203 260 320 386 461
#     4  11  26  48  76 112 153 200 260 315 388 459
#     4  11  26  48  76 112 153 200 260 315 388 459
#
# _framework density 26.118006999999999
#
# number of rings (size 3 to 8) (size 9 to 14) (size 15 to 20)
#    0.000    0.800    2.000    2.400   14.000    6.400 
#    0.000    0.000    0.000    0.000    0.000    0.000 
#    0.000    0.000    0.000    0.000    0.000    0.000 
#
# Total GULP energy -111762.434427 kJ/mol
# GULP energy per Si atom -5588.121721 kJ/mol
# Density = 2.605856 g / cm^3
# Si number density = 26.118007 Si / 1000 Ang^3
#
#
#
# Elastic Constant Matrix: (Units=GPa)
#
#
# Indices 1 2 3 4 5 6 
#
# 1 92.3759 37.0871 45.1815 0.0000 0.0000 0.0000
# 2 37.0871 161.2071 43.6232 0.0000 0.0000 0.0000
# 3 45.1815 43.6232 121.4758 0.0000 0.0000 0.0000
# 4 0.0000 0.0000 0.0000 26.1072 0.0000 0.0000
# 5 0.0000 0.0000 0.0000 0.0000 39.8895 0.0000
# 6 0.0000 0.0000 0.0000 0.0000 0.0000 29.7363
#
#
#
# Elastic Compliance Matrix: (Units=1/GPa)
#
#
# Indices 1 2 3 4 5 6 
#
# 1 0.013778 -0.001975 -0.004415 0.000000 0.000000 0.000000
# 2 -0.001975 0.007154 -0.001835 0.000000 0.000000 0.000000
# 3 -0.004415 -0.001835 0.010533 0.000000 0.000000 0.000000
# 4 0.000000 0.000000 0.000000 0.038304 0.000000 0.000000
# 5 0.000000 0.000000 0.000000 0.000000 0.025069 0.000000
# 6 0.000000 0.000000 0.000000 0.000000 0.000000 0.033629
#
#
# Mechanical properties :
#
#
# Convention : Reuss Voigt Hill
#
# Bulk Modulus (GPa) = 66.59815 69.64915 68.12365
# Shear Modulus (GPa) = 33.35086 35.75773 34.55430
#
# Velocity S-wave (km/s) = 3.57729 3.70413 3.64126
# Velocity P-wave (km/s) = 6.52817 6.70963 6.61952
#
# Compressibility (1/GPa) = 0.01501543
#
# Stress axis : x y z
#
# Youngs Moduli (GPa) = 72.58084 139.78245 94.93885
#
# Poissons Ratio (x) = 0.27606 0.41918
# Poissons Ratio (y) = 0.14334 0.17417
# Poissons Ratio (z) = 0.32046 0.25643
#
# Static dielectric constant tensor:
#      x y z
#    x 2.053940 0.000000 0.000000 
#    y 0.000000 1.842340 0.000000 
#    z 0.000000 0.000000 2.178770 
# 
# From -- ./inp_files/2941.got.cif
#   From: 2010.05.17/outbox.cif.g08.bks.cpg/sg33_2_cif.got.tgz:2941.got - 2010.06.03 17:15:25.
