data_PCOD9346338
_publ_section_title
;
Structure prediction by ZEFSAII (Michael W. Deem and Ramdas Pophale) SiO2 
 PCOD9346338
Probable space group: P N A 21
;
_chemical_formula_sum "Si O2"
_cell_formula_units_Z 24
_cell_length_a 20.331056
_cell_length_b 6.793547
_cell_length_c 7.136923
_cell_angle_alpha 90.000000
_cell_angle_beta 90.000000
_cell_angle_gamma 90.000000
_cell_volume 985.751694
_symmetry_space_group_name_H-M "P N A 21"
_symmetry_group_IT_number 33
_symmetry_cell_setting 'orthorhombic'
loop_
_space_group_symop_operation_xyz
x,y,z
-x,-y,1/2+z
1/2-x,1/2+y,1/2+z
1/2+x,1/2-y,z
loop_
_atom_site_type_symbol
_atom_site_label
_atom_site_fract_x
_atom_site_fract_y
_atom_site_fract_z
Si Si1 0.756298 0.896588 0.121100
Si Si2 0.034232 0.906966 0.805538
Si Si3 0.859103 0.191994 0.997839
Si Si4 0.727103 0.307057 0.042586
Si Si5 0.884507 0.340731 0.586857
Si Si6 0.415311 0.699644 0.569546
O O1 0.774515 0.784206 0.312181
O O2 0.692232 0.807137 0.020330
O O3 0.816896 0.984891 0.001850
O O4 0.725743 0.111367 0.172365
O O5 0.081691 0.845281 0.636563
O O6 0.060419 0.778117 0.977039
O O7 0.960961 0.861987 0.742125
O O8 0.049353 0.124943 0.879973
O O9 0.804307 0.355885 0.066411
O O10 0.882590 0.272205 0.800989
O O11 0.596039 0.068343 0.063942
O O12 0.843184 0.901034 0.579636
#
# Coordination Sequence:
#
# PCOD9346338 Si02
#       6
#     4   4   4   4   4   4
#     4   8  15  36  70  97 136 176 235 303 366 423
#     4  12  27  44  70 106 144 198 245 298 373 451
#     4   9  20  43  72 102 139 182 246 305 364 435
#     4   8  15  37  68  95 134 178 233 301 359 426
#     4  10  24  46  70 103 147 190 239 308 368 448
#     4  11  25  46  70  99 150 188 244 303 364 441
#
# _framework density 24.346903999999999
#
# number of rings (size 3 to 8) (size 9 to 14) (size 15 to 20)
#    1.000    1.333    1.667    0.000    4.667    0.000 
#    3.000    0.000    0.000    0.000    0.000    0.000 
#    0.000    0.000    0.000    0.000    0.000    0.000 
#
# Total GULP energy -133621.219994 kJ/mol
# GULP energy per Si atom -5567.550833 kJ/mol
# Density = 2.429149 g / cm^3
# Si number density = 24.346904 Si / 1000 Ang^3
#
#
#
# Elastic Constant Matrix: (Units=GPa)
#
#
# Indices 1 2 3 4 5 6 
#
# 1 163.4020 44.1333 62.1119 0.0000 0.0000 0.0000
# 2 44.1333 91.2506 42.2445 0.0000 0.0000 0.0000
# 3 62.1119 42.2445 128.4055 0.0000 0.0000 0.0000
# 4 0.0000 0.0000 0.0000 36.7265 0.0000 0.0000
# 5 0.0000 0.0000 0.0000 0.0000 49.8316 0.0000
# 6 0.0000 0.0000 0.0000 0.0000 0.0000 19.3348
#
#
#
# Elastic Compliance Matrix: (Units=1/GPa)
#
#
# Indices 1 2 3 4 5 6 
#
# 1 0.007930 -0.002430 -0.003037 0.000000 0.000000 0.000000
# 2 -0.002430 0.013672 -0.003323 0.000000 0.000000 0.000000
# 3 -0.003037 -0.003323 0.010350 0.000000 0.000000 0.000000
# 4 0.000000 0.000000 0.000000 0.027228 0.000000 0.000000
# 5 0.000000 0.000000 0.000000 0.000000 0.020068 0.000000
# 6 0.000000 0.000000 0.000000 0.000000 0.000000 0.051720
#
#
# Mechanical properties :
#
#
# Convention : Reuss Voigt Hill
#
# Bulk Modulus (GPa) = 69.56928 75.55974 72.56451
# Shear Modulus (GPa) = 32.60762 36.81649 34.71206
#
# Velocity S-wave (km/s) = 3.66360 3.89287 3.77998
# Velocity P-wave (km/s) = 6.82145 7.16296 6.99429
#
# Compressibility (1/GPa) = 0.01437416
#
# Stress axis : x y z
#
# Youngs Moduli (GPa) = 126.09670 73.14096 96.61913
#
# Poissons Ratio (x) = 0.17771 0.29341
# Poissons Ratio (y) = 0.30638 0.32104
# Poissons Ratio (z) = 0.38292 0.24303
#
# Static dielectric constant tensor:
#      x y z
#    x 1.984290 0.000000 0.000000 
#    y 0.000000 2.014320 0.000000 
#    z 0.000000 0.000000 1.916390 
# 
# From -- ./inp_files/4919.got.cif
#   From: 2010.05.17/outbox.cif.g08.bks.cpg/sg33_3_cif.got.tgz:4919.got - 2010.06.03 17:15:25.
