data_PCOD9346694
_publ_section_title
;
Structure prediction by ZEFSAII (Michael W. Deem and Ramdas Pophale) SiO2 
 PCOD9346694
Probable space group: P N A 21
;
_chemical_formula_sum "Si O2"
_cell_formula_units_Z 24
_cell_length_a 14.367830
_cell_length_b 12.854353
_cell_length_c 5.492213
_cell_angle_alpha 90.000000
_cell_angle_beta 90.000000
_cell_angle_gamma 90.000000
_cell_volume 1014.352198
_symmetry_space_group_name_H-M "P N A 21"
_symmetry_group_IT_number 33
_symmetry_cell_setting 'orthorhombic'
loop_
_space_group_symop_operation_xyz
x,y,z
-x,-y,1/2+z
1/2-x,1/2+y,1/2+z
1/2+x,1/2-y,z
loop_
_atom_site_type_symbol
_atom_site_label
_atom_site_fract_x
_atom_site_fract_y
_atom_site_fract_z
Si Si1 0.955708 0.213058 0.746960
Si Si2 0.541218 0.956419 0.156234
Si Si3 0.717185 0.964140 0.861580
Si Si4 0.204584 0.738932 0.580515
Si Si5 0.657710 0.382219 0.738760
Si Si6 0.794608 0.102746 0.471442
O O1 0.971179 0.333510 0.686891
O O2 0.887688 0.161984 0.550951
O O3 0.053375 0.156343 0.763553
O O4 0.889779 0.209102 0.983855
O O5 0.512754 0.006811 0.413006
O O6 0.648377 0.979855 0.087613
O O7 0.675759 0.870423 0.702707
O O8 0.733341 0.067135 0.704208
O O9 0.811544 0.912168 0.964967
O O10 0.272440 0.702090 0.361396
O O11 0.249300 0.819260 0.772876
O O12 0.673656 0.491347 0.872237
#
# Coordination Sequence:
#
# PCOD9346694 Si02
#       6
#     4   4   4   4   4   4
#     4  12  27  50  75 118 152 208 267 331 396 482
#     4  12  28  52  83 117 165 211 266 334 402 493
#     4  11  25  52  71 115 155 209 267 330 406 477
#     4  11  23  51  75 109 159 207 260 341 390 486
#     4  11  27  47  81 112 153 208 270 327 411 477
#     4  11  26  44  83 107 160 201 264 335 401 475
#
# _framework density 23.660419000000001
#
# number of rings (size 3 to 8) (size 9 to 14) (size 15 to 20)
#    0.000    0.667    3.333    2.000    7.000    5.333 
#    6.000    0.000    0.000    0.000    0.000    0.000 
#    0.000    0.000    0.000    0.000    0.000    0.000 
#
# Total GULP energy -134350.131318 kJ/mol
# GULP energy per Si atom -5597.922138 kJ/mol
# Density = 2.360657 g / cm^3
# Si number density = 23.660419 Si / 1000 Ang^3
#
#
#
# Elastic Constant Matrix: (Units=GPa)
#
#
# Indices 1 2 3 4 5 6 
#
# 1 13.9624 -3.7151 -0.8871 0.0000 0.0000 0.0000
# 2 -3.7151 142.8512 38.1325 0.0000 0.0000 0.0000
# 3 -0.8871 38.1325 101.0687 0.0000 0.0000 0.0000
# 4 0.0000 0.0000 0.0000 59.9403 0.0000 0.0000
# 5 0.0000 0.0000 0.0000 0.0000 32.5698 0.0000
# 6 0.0000 0.0000 0.0000 0.0000 0.0000 41.3078
#
#
#
# Elastic Compliance Matrix: (Units=1/GPa)
#
#
# Indices 1 2 3 4 5 6 
#
# 1 0.072120 0.001898 -0.000083 0.000000 0.000000 0.000000
# 2 0.001898 0.007834 -0.002939 0.000000 0.000000 0.000000
# 3 -0.000083 -0.002939 0.011002 0.000000 0.000000 0.000000
# 4 0.000000 0.000000 0.000000 0.016683 0.000000 0.000000
# 5 0.000000 0.000000 0.000000 0.000000 0.030703 0.000000
# 6 0.000000 0.000000 0.000000 0.000000 0.000000 0.024208
#
#
# Mechanical properties :
#
#
# Convention : Reuss Voigt Hill
#
# Bulk Modulus (GPa) = 11.27289 36.10477 23.68883
# Shear Modulus (GPa) = 25.72409 41.72038 33.72223
#
# Velocity S-wave (km/s) = 3.30088 4.20372 3.77936
# Velocity P-wave (km/s) = 4.39346 6.23333 5.39244
#
# Compressibility (1/GPa) = 0.08870839
#
# Stress axis : x y z
#
# Youngs Moduli (GPa) = 13.86569 127.64521 90.88893
#
# Poissons Ratio (x) = -0.24224 0.00754
# Poissons Ratio (y) = -0.02631 0.26713
# Poissons Ratio (z) = 0.00115 0.37517
#
# Static dielectric constant tensor:
#      x y z
#    x 1.889070 0.000000 0.000000 
#    y 0.000000 1.853560 0.000000 
#    z 0.000000 0.000000 2.061970 
# 
# From -- ./inp_files/1331.got.cif
#   From: 2010.05.17/outbox.cif.g08.bks.cpg/sg33_1_cif.got.tgz:1331.got - 2010.06.03 17:15:25.
