data_PCOD9346989
_publ_section_title
;
Structure prediction by ZEFSAII (Michael W. Deem and Ramdas Pophale) SiO2 
 PCOD9346989
Probable space group: P N A 21
;
_chemical_formula_sum "Si O2"
_cell_formula_units_Z 24
_cell_length_a 8.685027
_cell_length_b 20.727116
_cell_length_c 5.156628
_cell_angle_alpha 90.000000
_cell_angle_beta 90.000000
_cell_angle_gamma 90.000000
_cell_volume 928.273288
_symmetry_space_group_name_H-M "P N A 21"
_symmetry_group_IT_number 33
_symmetry_cell_setting 'orthorhombic'
loop_
_space_group_symop_operation_xyz
x,y,z
-x,-y,1/2+z
1/2-x,1/2+y,1/2+z
1/2+x,1/2-y,z
loop_
_atom_site_type_symbol
_atom_site_label
_atom_site_fract_x
_atom_site_fract_y
_atom_site_fract_z
Si Si1 0.966526 0.770189 0.759520
Si Si2 0.912596 0.600418 0.305848
Si Si3 0.096949 0.831335 0.271748
Si Si4 0.439954 0.535618 0.394607
Si Si5 0.147898 0.656575 0.704891
Si Si6 0.160761 0.534877 0.035764
O O1 0.053037 0.778264 0.484310
O O2 0.009198 0.697074 0.843403
O O3 0.792833 0.794244 0.713401
O O4 0.037976 0.813525 0.987490
O O5 0.775887 0.650422 0.264163
O O6 0.842573 0.540016 0.464413
O O7 0.058009 0.633451 0.447832
O O8 0.986455 0.559979 0.071778
O O9 0.005775 0.892947 0.380326
O O10 0.468096 0.503775 0.671359
O O11 0.267564 0.536697 0.288305
O O12 0.213211 0.591837 0.841467
#
# Coordination Sequence:
#
# PCOD9346989 Si02
#       6
#     4   4   4   4   4   4
#     4  12  30  53  81 111 157 211 266 318 390 468
#     4  12  28  46  79 114 162 199 264 324 405 461
#     4  12  28  50  80 115 153 206 259 322 388 471
#     4  12  26  46  78 112 157 203 256 321 398 467
#     4  12  29  52  77 112 154 210 263 326 388 477
#     4  12  27  45  77 112 157 203 254 329 395 466
#
# _framework density 25.854457
#
# number of rings (size 3 to 8) (size 9 to 14) (size 15 to 20)
#    0.000    0.000    5.000    3.000   11.667    0.000 
#    0.000    0.000    0.000    0.000    0.000    0.000 
#    0.000    0.000    0.000    0.000    0.000    0.000 
#
# Total GULP energy -134344.875387 kJ/mol
# GULP energy per Si atom -5597.703141 kJ/mol
# Density = 2.579561 g / cm^3
# Si number density = 25.854457 Si / 1000 Ang^3
#
#
#
# Elastic Constant Matrix: (Units=GPa)
#
#
# Indices 1 2 3 4 5 6 
#
# 1 146.2164 45.2933 56.4201 0.0000 0.0000 0.0000
# 2 45.2933 114.7310 25.7319 0.0000 0.0000 0.0000
# 3 56.4201 25.7319 44.9968 0.0000 0.0000 0.0000
# 4 0.0000 0.0000 0.0000 46.1487 0.0000 0.0000
# 5 0.0000 0.0000 0.0000 0.0000 52.2703 0.0000
# 6 0.0000 0.0000 0.0000 0.0000 0.0000 65.3322
#
#
#
# Elastic Compliance Matrix: (Units=1/GPa)
#
#
# Indices 1 2 3 4 5 6 
#
# 1 0.013555 -0.001766 -0.015986 0.000000 0.000000 0.000000
# 2 -0.001766 0.010228 -0.003635 0.000000 0.000000 0.000000
# 3 -0.015986 -0.003635 0.044347 0.000000 0.000000 0.000000
# 4 0.000000 0.000000 0.000000 0.021669 0.000000 0.000000
# 5 0.000000 0.000000 0.000000 0.000000 0.019131 0.000000
# 6 0.000000 0.000000 0.000000 0.000000 0.000000 0.015306
#
#
# Mechanical properties :
#
#
# Convention : Reuss Voigt Hill
#
# Bulk Modulus (GPa) = 39.43817 62.31498 50.87658
# Shear Modulus (GPa) = 28.49606 44.65015 36.57310
#
# Velocity S-wave (km/s) = 3.32350 4.16020 3.76517
# Velocity P-wave (km/s) = 5.47855 6.87248 6.21472
#
# Compressibility (1/GPa) = 0.02535615
#
# Stress axis : x y z
#
# Youngs Moduli (GPa) = 73.77561 97.76674 22.54942
#
# Poissons Ratio (x) = 0.17263 0.36047
# Poissons Ratio (y) = 0.13027 0.08197
# Poissons Ratio (z) = 1.17938 0.35541
#
# Static dielectric constant tensor:
#      x y z
#    x 2.066300 0.000000 0.000000 
#    y 0.000000 2.068300 0.000000 
#    z 0.000000 0.000000 2.087170 
# 
# From -- ./inp_files/395.got.cif
#   From: 2010.05.17/outbox.cif.g08.bks.cpg/sg33_1_cif.got.tgz:395.got - 2010.06.03 17:15:25.
