data_PCOD9346096
_publ_section_title
;
Structure prediction by ZEFSAII (Michael W. Deem and Ramdas Pophale) SiO2 
 PCOD9346096
Probable space group: P N A 21
;
_chemical_formula_sum "Si O2"
_cell_formula_units_Z 28
_cell_length_a 10.406672
_cell_length_b 11.267000
_cell_length_c 9.223815
_cell_angle_alpha 90.000000
_cell_angle_beta 90.000000
_cell_angle_gamma 90.000000
_cell_volume 1081.510511
_symmetry_space_group_name_H-M "P N A 21"
_symmetry_group_IT_number 33
_symmetry_cell_setting 'orthorhombic'
loop_
_space_group_symop_operation_xyz
x,y,z
-x,-y,1/2+z
1/2-x,1/2+y,1/2+z
1/2+x,1/2-y,z
loop_
_atom_site_type_symbol
_atom_site_label
_atom_site_fract_x
_atom_site_fract_y
_atom_site_fract_z
Si Si1 0.062440 0.222818 0.114740
Si Si2 0.692182 0.650435 0.482751
Si Si3 0.019304 0.412081 0.330773
Si Si4 0.596358 0.084542 0.638057
Si Si5 0.766896 0.951007 0.203990
Si Si6 0.632756 0.526954 0.003737
Si Si7 0.596621 0.727276 0.183497
O O1 0.051415 0.281572 0.272566
O O2 0.098790 0.085736 0.101690
O O3 0.170988 0.292181 0.022894
O O4 0.919375 0.233493 0.050242
O O5 0.714826 0.820647 0.166278
O O6 0.650567 0.648244 0.316294
O O7 0.903540 0.472820 0.244415
O O8 0.138883 0.488652 0.271773
O O9 0.000372 0.427561 0.500069
O O10 0.729083 0.080769 0.551660
O O11 0.531529 0.196076 0.718923
O O12 0.810633 0.025726 0.065617
O O13 0.863673 0.976218 0.339610
O O14 0.553816 0.642820 0.051036
#
# Coordination Sequence:
#
# PCOD9346096 Si02
#       7
#     4   4   4   4   4   4   4
#     4  11  24  44  75 104 148 193 244 304 380 440
#     4  11  25  45  75 104 151 194 241 310 377 438
#     4   9  21  40  69 100 133 190 242 301 358 440
#     4  10  23  43  69 100 145 190 253 298 370 451
#     4   9  22  47  64 100 145 183 245 302 358 444
#     4  11  24  43  70 102 146 186 243 309 371 439
#     4  11  25  44  72 106 142 198 246 308 370 462
#
# _framework density 25.889717999999998
#
# number of rings (size 3 to 8) (size 9 to 14) (size 15 to 20)
#    0.000    1.714    1.429    0.857    8.000    4.571 
#   10.286    0.000    0.000    0.000    0.000    0.000 
#    0.000    0.000    0.000    0.000    0.000    0.000 
#
# Total GULP energy -156442.338329 kJ/mol
# GULP energy per Si atom -5587.226369 kJ/mol
# Density = 2.583079 g / cm^3
# Si number density = 25.889718 Si / 1000 Ang^3
#
#
#
# Elastic Constant Matrix: (Units=GPa)
#
#
# Indices 1 2 3 4 5 6 
#
# 1 88.6900 15.6187 14.0425 0.0000 0.0000 0.0000
# 2 15.6187 141.9532 52.7115 0.0000 0.0000 0.0000
# 3 14.0425 52.7115 137.1747 0.0000 0.0000 0.0000
# 4 0.0000 0.0000 0.0000 26.2196 0.0000 0.0000
# 5 0.0000 0.0000 0.0000 0.0000 27.1620 0.0000
# 6 0.0000 0.0000 0.0000 0.0000 0.0000 33.4460
#
#
#
# Elastic Compliance Matrix: (Units=1/GPa)
#
#
# Indices 1 2 3 4 5 6 
#
# 1 0.011575 -0.000972 -0.000811 0.000000 0.000000 0.000000
# 2 -0.000972 0.008299 -0.003089 0.000000 0.000000 0.000000
# 3 -0.000811 -0.003089 0.008560 0.000000 0.000000 0.000000
# 4 0.000000 0.000000 0.000000 0.038139 0.000000 0.000000
# 5 0.000000 0.000000 0.000000 0.000000 0.036816 0.000000
# 6 0.000000 0.000000 0.000000 0.000000 0.000000 0.029899
#
#
# Mechanical properties :
#
#
# Convention : Reuss Voigt Hill
#
# Bulk Modulus (GPa) = 53.51068 59.17370 56.34219
# Shear Modulus (GPa) = 33.49782 36.39522 34.94652
#
# Velocity S-wave (km/s) = 3.60094 3.75344 3.67798
# Velocity P-wave (km/s) = 6.16462 6.45679 6.31239
#
# Compressibility (1/GPa) = 0.01868786
#
# Stress axis : x y z
#
# Youngs Moduli (GPa) = 86.39376 120.50026 116.82013
#
# Poissons Ratio (x) = 0.11716 0.09478
# Poissons Ratio (y) = 0.08400 0.36090
# Poissons Ratio (z) = 0.07009 0.37227
#
# Static dielectric constant tensor:
#      x y z
#    x 2.190100 0.000000 0.000000 
#    y 0.000000 2.069510 0.000000 
#    z 0.000000 0.000000 2.086670 
# 
# From -- ./inp_files/5833.got.cif
#   From: 2010.05.17/outbox.cif.g08.bks.cpg/sg33_3_cif.got.tgz:5833.got - 2010.06.03 17:15:25.
