data_PCOD9346127
_publ_section_title
;
Structure prediction by ZEFSAII (Michael W. Deem and Ramdas Pophale) SiO2 
 PCOD9346127
Probable space group: P N A 21
;
_chemical_formula_sum "Si O2"
_cell_formula_units_Z 20
_cell_length_a 10.338908
_cell_length_b 6.935601
_cell_length_c 11.168777
_cell_angle_alpha 90.000000
_cell_angle_beta 90.000000
_cell_angle_gamma 90.000000
_cell_volume 800.874362
_symmetry_space_group_name_H-M "P N A 21"
_symmetry_group_IT_number 33
_symmetry_cell_setting 'orthorhombic'
loop_
_space_group_symop_operation_xyz
x,y,z
-x,-y,1/2+z
1/2-x,1/2+y,1/2+z
1/2+x,1/2-y,z
loop_
_atom_site_type_symbol
_atom_site_label
_atom_site_fract_x
_atom_site_fract_y
_atom_site_fract_z
Si Si1 0.412829 0.217570 0.854240
Si Si2 0.521455 0.388269 0.637232
Si Si3 0.212717 0.064593 0.439251
Si Si4 0.233542 0.888641 0.784389
Si Si5 0.608763 0.247979 0.067989
O O1 0.370546 0.440661 0.846933
O O2 0.489830 0.213426 0.727444
O O3 0.293259 0.073872 0.849242
O O4 0.488228 0.198198 0.979554
O O5 0.616390 0.326685 0.529362
O O6 0.611578 0.540606 0.709296
O O7 0.406826 0.518571 0.579420
O O8 0.286220 0.890536 0.504143
O O9 0.301713 0.216375 0.372970
O O10 0.353151 0.813708 0.702763
#
# Coordination Sequence:
#
# PCOD9346127 Si02
#       5
#     4   4   4   4   4
#     4  11  23  43  68 101 134 189 228 294 355 422
#     4  10  23  46  67 102 141 183 234 291 359 423
#     4  10  23  44  67 102 136 179 238 290 347 437
#     4  11  24  43  70 103 139 188 235 293 354 428
#     4  10  23  44  68  98 140 179 233 290 353 414
#
# _framework density 24.972705000000001
#
# number of rings (size 3 to 8) (size 9 to 14) (size 15 to 20)
#    0.000    1.600    2.000    1.200    5.600    0.000 
#   18.000    0.000    0.000    0.000    0.000    0.000 
#    0.000    0.000    0.000    0.000    0.000    0.000 
#
# Total GULP energy -111431.973530 kJ/mol
# GULP energy per Si atom -5571.598677 kJ/mol
# Density = 2.491587 g / cm^3
# Si number density = 24.972705 Si / 1000 Ang^3
#
#
#
# Elastic Constant Matrix: (Units=GPa)
#
#
# Indices 1 2 3 4 5 6 
#
# 1 56.7269 30.7501 13.6297 0.0000 0.0000 0.0000
# 2 30.7501 63.0942 33.6904 0.0000 0.0000 0.0000
# 3 13.6297 33.6904 60.1368 0.0000 0.0000 0.0000
# 4 0.0000 0.0000 0.0000 27.8371 0.0000 0.0000
# 5 0.0000 0.0000 0.0000 0.0000 35.3197 0.0000
# 6 0.0000 0.0000 0.0000 0.0000 0.0000 25.3407
#
#
#
# Elastic Compliance Matrix: (Units=1/GPa)
#
#
# Indices 1 2 3 4 5 6 
#
# 1 0.024064 -0.012579 0.001593 0.000000 0.000000 0.000000
# 2 -0.012579 0.029189 -0.013502 0.000000 0.000000 0.000000
# 3 0.001593 -0.013502 0.023832 0.000000 0.000000 0.000000
# 4 0.000000 0.000000 0.000000 0.035923 0.000000 0.000000
# 5 0.000000 0.000000 0.000000 0.000000 0.028313 0.000000
# 6 0.000000 0.000000 0.000000 0.000000 0.000000 0.039462
#
#
# Mechanical properties :
#
#
# Convention : Reuss Voigt Hill
#
# Bulk Modulus (GPa) = 35.57429 37.34423 36.45926
# Shear Modulus (GPa) = 20.90924 24.49202 22.70063
#
# Velocity S-wave (km/s) = 2.89672 3.13509 3.01826
# Velocity P-wave (km/s) = 5.04621 5.30015 5.17474
#
# Compressibility (1/GPa) = 0.02811019
#
# Stress axis : x y z
#
# Youngs Moduli (GPa) = 41.55564 34.25909 41.96067
#
# Poissons Ratio (x) = 0.43093 -0.06684
# Poissons Ratio (y) = 0.52271 0.56655
# Poissons Ratio (z) = -0.06620 0.46256
#
# Static dielectric constant tensor:
#      x y z
#    x 2.052120 0.000000 0.000000 
#    y 0.000000 1.907430 0.000000 
#    z 0.000000 0.000000 2.096380 
# 
# From -- ./inp_files/6237.got.cif
#   From: 2010.05.17/outbox.cif.g08.bks.cpg/sg33_4_cif.got.tgz:6237.got - 2010.06.03 17:15:25.
