data_PCOD9346723
_publ_section_title
;
Structure prediction by ZEFSAII (Michael W. Deem and Ramdas Pophale) SiO2 
 PCOD9346723
Probable space group: P N A 21
;
_chemical_formula_sum "Si O2"
_cell_formula_units_Z 32
_cell_length_a 13.342472
_cell_length_b 6.727071
_cell_length_c 17.233768
_cell_angle_alpha 90.000000
_cell_angle_beta 90.000000
_cell_angle_gamma 90.000000
_cell_volume 1546.829883
_symmetry_space_group_name_H-M "P N A 21"
_symmetry_group_IT_number 33
_symmetry_cell_setting 'orthorhombic'
loop_
_space_group_symop_operation_xyz
x,y,z
-x,-y,1/2+z
1/2-x,1/2+y,1/2+z
1/2+x,1/2-y,z
loop_
_atom_site_type_symbol
_atom_site_label
_atom_site_fract_x
_atom_site_fract_y
_atom_site_fract_z
Si Si1 0.336237 0.555875 0.153060
Si Si2 0.645116 0.200869 0.134243
Si Si3 0.956302 0.249649 0.240433
Si Si4 0.788909 0.254051 0.862898
Si Si5 0.227086 0.461448 0.708272
Si Si6 0.092270 0.255257 0.957254
Si Si7 0.445063 0.907723 0.891961
Si Si8 0.590468 0.475345 0.480653
O O1 0.225826 0.461355 0.162449
O O2 0.411855 0.464610 0.216686
O O3 0.325667 0.790343 0.158771
O O4 0.375950 0.493254 0.068834
O O5 0.538201 0.185639 0.176263
O O6 0.694097 0.410552 0.159512
O O7 0.634330 0.189500 0.041899
O O8 0.860072 0.393001 0.238078
O O9 0.009971 0.274471 0.322688
O O10 0.779343 0.147594 0.780394
O O11 0.855579 0.452403 0.861353
O O12 0.679519 0.296416 0.897283
O O13 0.839338 0.099843 0.922834
O O14 0.019079 0.068918 0.969385
O O15 0.028146 0.440270 0.924495
O O16 0.408548 0.755080 0.957324
#
# Coordination Sequence:
#
# PCOD9346723 Si02
#       8
#     4   4   4   4   4   4   4   4
#     4  11  25  41  68 100 133 177 229 272 337 408
#     4  11  24  44  66  95 141 175 222 284 328 398
#     4  11  24  46  65  98 134 175 223 282 330 403
#     4  11  24  47  67 100 135 172 231 282 333 405
#     4  11  26  43  70  96 133 183 223 274 343 400
#     4  11  24  44  66 102 138 174 225 288 329 400
#     4  11  26  42  73  97 135 179 223 279 344 400
#     4  11  25  43  69 100 133 181 224 277 344 402
#
# _framework density 20.687474000000002
#
# number of rings (size 3 to 8) (size 9 to 14) (size 15 to 20)
#    0.000    1.000    3.750    1.500    5.250    5.000 
#    0.000    0.000    0.000    0.000    0.000    0.000 
#    0.000    0.000    0.000    0.000    0.000    0.000 
#
# Total GULP energy -179024.918260 kJ/mol
# GULP energy per Si atom -5594.528696 kJ/mol
# Density = 2.064039 g / cm^3
# Si number density = 20.687474 Si / 1000 Ang^3
#
#
#
# Elastic Constant Matrix: (Units=GPa)
#
#
# Indices 1 2 3 4 5 6 
#
# 1 75.7903 19.9373 7.3631 0.0000 0.0000 0.0000
# 2 19.9373 64.5221 9.6140 0.0000 0.0000 0.0000
# 3 7.3631 9.6140 73.3858 0.0000 0.0000 0.0000
# 4 0.0000 0.0000 0.0000 28.8801 0.0000 0.0000
# 5 0.0000 0.0000 0.0000 0.0000 29.9851 0.0000
# 6 0.0000 0.0000 0.0000 0.0000 0.0000 8.3314
#
#
#
# Elastic Compliance Matrix: (Units=1/GPa)
#
#
# Indices 1 2 3 4 5 6 
#
# 1 0.014417 -0.004324 -0.000880 0.000000 0.000000 0.000000
# 2 -0.004324 0.017104 -0.001807 0.000000 0.000000 0.000000
# 3 -0.000880 -0.001807 0.013952 0.000000 0.000000 0.000000
# 4 0.000000 0.000000 0.000000 0.034626 0.000000 0.000000
# 5 0.000000 0.000000 0.000000 0.000000 0.033350 0.000000
# 6 0.000000 0.000000 0.000000 0.000000 0.000000 0.120028
#
#
# Mechanical properties :
#
#
# Convention : Reuss Voigt Hill
#
# Bulk Modulus (GPa) = 31.79533 31.94745 31.87139
# Shear Modulus (GPa) = 19.38119 25.22491 22.30305
#
# Velocity S-wave (km/s) = 3.06413 3.49568 3.28700
# Velocity P-wave (km/s) = 5.28406 5.63644 5.46309
#
# Compressibility (1/GPa) = 0.03145116
#
# Stress axis : x y z
#
# Youngs Moduli (GPa) = 69.36157 58.46641 71.67616
#
# Poissons Ratio (x) = 0.25280 0.06308
# Poissons Ratio (y) = 0.29990 0.12951
# Poissons Ratio (z) = 0.06104 0.10564
#
# Static dielectric constant tensor:
#      x y z
#    x 1.729670 0.000000 0.000000 
#    y 0.000000 1.712380 0.000000 
#    z 0.000000 0.000000 1.723830 
# 
# From -- ./inp_files/8761.got.cif
#   From: 2010.05.17/outbox.cif.g08.bks.cpg/sg33_5_cif.got.tgz:8761.got - 2010.06.03 17:15:25.
