data_PCOD9346802
_publ_section_title
;
Structure prediction by ZEFSAII (Michael W. Deem and Ramdas Pophale) SiO2 
 PCOD9346802
Probable space group: P N A 21
;
_chemical_formula_sum "Si O2"
_cell_formula_units_Z 20
_cell_length_a 10.648549
_cell_length_b 9.572314
_cell_length_c 7.384574
_cell_angle_alpha 90.000000
_cell_angle_beta 90.000000
_cell_angle_gamma 90.000000
_cell_volume 752.718893
_symmetry_space_group_name_H-M "P N A 21"
_symmetry_group_IT_number 33
_symmetry_cell_setting 'orthorhombic'
loop_
_space_group_symop_operation_xyz
x,y,z
-x,-y,1/2+z
1/2-x,1/2+y,1/2+z
1/2+x,1/2-y,z
loop_
_atom_site_type_symbol
_atom_site_label
_atom_site_fract_x
_atom_site_fract_y
_atom_site_fract_z
Si Si1 0.674557 0.227256 0.801910
Si Si2 0.036345 0.514031 0.743342
Si Si3 0.434583 0.382936 0.789170
Si Si4 0.710575 0.995916 0.399601
Si Si5 0.064161 0.838965 0.720771
O O1 0.609064 0.089734 0.882175
O O2 0.557725 0.307391 0.705390
O O3 0.803830 0.173958 0.712200
O O4 0.457766 0.178925 0.272625
O O5 0.116952 0.475518 0.565264
O O6 0.892731 0.468078 0.744889
O O7 0.456615 0.548020 0.770369
O O8 0.426638 0.348275 0.002731
O O9 0.811152 0.103246 0.320261
O O10 0.782665 0.850826 0.436648
#
# Coordination Sequence:
#
# PCOD9346802 Si02
#       5
#     4   4   4   4   4
#     4  11  24  49  74 104 150 201 241 318 370 451
#     4  12  26  48  76 106 152 198 257 309 381 451
#     4  11  26  48  76 109 154 194 252 309 386 443
#     4  11  28  47  73 111 148 201 254 316 378 454
#     4  11  28  46  77 110 150 198 254 310 383 453
#
# _framework density 26.570343000000001
#
# number of rings (size 3 to 8) (size 9 to 14) (size 15 to 20)
#    0.000    0.800    4.000    0.000   14.000    4.800 
#    0.000    0.000    0.000    0.000    0.000    0.000 
#    0.000    0.000    0.000    0.000    0.000    0.000 
#
# Total GULP energy -111779.320660 kJ/mol
# GULP energy per Si atom -5588.966033 kJ/mol
# Density = 2.650987 g / cm^3
# Si number density = 26.570343 Si / 1000 Ang^3
#
#
#
# Elastic Constant Matrix: (Units=GPa)
#
#
# Indices 1 2 3 4 5 6 
#
# 1 174.5466 71.7511 22.2374 0.0000 0.0000 0.0000
# 2 71.7511 226.6376 28.3791 0.0000 0.0000 0.0000
# 3 22.2374 28.3791 92.6815 0.0000 0.0000 0.0000
# 4 0.0000 0.0000 0.0000 27.7718 0.0000 0.0000
# 5 0.0000 0.0000 0.0000 0.0000 36.6730 0.0000
# 6 0.0000 0.0000 0.0000 0.0000 0.0000 52.8106
#
#
#
# Elastic Compliance Matrix: (Units=1/GPa)
#
#
# Indices 1 2 3 4 5 6 
#
# 1 0.006673 -0.001988 -0.000992 0.000000 0.000000 0.000000
# 2 -0.001988 0.005181 -0.001109 0.000000 0.000000 0.000000
# 3 -0.000992 -0.001109 0.011367 0.000000 0.000000 0.000000
# 4 0.000000 0.000000 0.000000 0.036008 0.000000 0.000000
# 5 0.000000 0.000000 0.000000 0.000000 0.027268 0.000000
# 6 0.000000 0.000000 0.000000 0.000000 0.000000 0.018936
#
#
# Mechanical properties :
#
#
# Convention : Reuss Voigt Hill
#
# Bulk Modulus (GPa) = 66.48351 82.06679 74.27515
# Shear Modulus (GPa) = 42.14937 48.21762 45.18349
#
# Velocity S-wave (km/s) = 3.98720 4.26457 4.12821
# Velocity P-wave (km/s) = 6.80243 7.42983 7.12304
#
# Compressibility (1/GPa) = 0.01504132
#
# Stress axis : x y z
#
# Youngs Moduli (GPa) = 149.86036 193.02363 87.97115
#
# Poissons Ratio (x) = 0.38379 0.08729
# Poissons Ratio (y) = 0.29797 0.09758
# Poissons Ratio (z) = 0.14869 0.21412
#
# Static dielectric constant tensor:
#      x y z
#    x 2.076480 0.000000 0.000000 
#    y 0.000000 2.074540 0.000000 
#    z 0.000000 0.000000 2.172520 
# 
# From -- ./inp_files/3101.got.cif
#   From: 2010.05.17/outbox.cif.g08.bks.cpg/sg33_2_cif.got.tgz:3101.got - 2010.06.03 17:15:25.
