data_PCOD9346617
_publ_section_title
;
Structure prediction by ZEFSAII (Michael W. Deem and Ramdas Pophale) SiO2 
 PCOD9346617
Probable space group: P N A 21
;
_chemical_formula_sum "Si O2"
_cell_formula_units_Z 28
_cell_length_a 19.243618
_cell_length_b 11.779075
_cell_length_c 5.058387
_cell_angle_alpha 90.000000
_cell_angle_beta 90.000000
_cell_angle_gamma 90.000000
_cell_volume 1146.594798
_symmetry_space_group_name_H-M "P N A 21"
_symmetry_group_IT_number 33
_symmetry_cell_setting 'orthorhombic'
loop_
_space_group_symop_operation_xyz
x,y,z
-x,-y,1/2+z
1/2-x,1/2+y,1/2+z
1/2+x,1/2-y,z
loop_
_atom_site_type_symbol
_atom_site_label
_atom_site_fract_x
_atom_site_fract_y
_atom_site_fract_z
Si Si1 0.482809 0.565295 0.885700
Si Si2 0.046282 0.754434 0.207286
Si Si3 0.836286 0.945117 0.166464
Si Si4 0.162410 0.791956 0.592480
Si Si5 0.565765 0.150456 0.051854
Si Si6 0.309566 0.694454 0.685903
Si Si7 0.924551 0.418066 0.339483
O O1 0.483267 0.525393 0.587150
O O2 0.526061 0.678305 0.942298
O O3 0.407880 0.576663 0.011025
O O4 0.070269 0.628454 0.138099
O O5 0.111234 0.813409 0.344210
O O6 0.976604 0.741011 0.375260
O O7 0.788967 0.875406 0.952877
O O8 0.831936 0.080580 0.209676
O O9 0.831481 0.889894 0.451932
O O10 0.242045 0.757035 0.569903
O O11 0.126331 0.676504 0.711463
O O12 0.627264 0.213644 0.208602
O O13 0.594861 0.049722 0.863287
O O14 0.502382 0.096084 0.221198
#
# Coordination Sequence:
#
# PCOD9346617 Si02
#       7
#     4   4   4   4   4   4   4
#     4  12  23  41  73 108 141 185 231 313 367 434
#     4  11  23  42  72 104 143 183 251 300 371 439
#     4  12  27  51  73 111 149 191 255 303 382 450
#     4  11  29  47  75 106 147 203 247 307 380 461
#     4  11  24  45  72 109 149 195 256 309 376 439
#     4  12  30  48  77 109 153 203 248 314 378 454
#     4  11  24  46  72 111 146 202 252 316 372 451
#
# _framework density 24.420137
#
# number of rings (size 3 to 8) (size 9 to 14) (size 15 to 20)
#    0.000    0.571    4.286    2.571    8.000    0.000 
#    0.000    0.000    0.000    0.000    0.000    0.000 
#    0.000    0.000    0.000    0.000    0.000    0.000 
#
# Total GULP energy -156343.330933 kJ/mol
# GULP energy per Si atom -5583.690390 kJ/mol
# Density = 2.436456 g / cm^3
# Si number density = 24.420137 Si / 1000 Ang^3
#
#
#
# Elastic Constant Matrix: (Units=GPa)
#
#
# Indices 1 2 3 4 5 6 
#
# 1 100.2860 32.5387 -6.8781 0.0000 0.0000 0.0000
# 2 32.5387 155.2214 43.1238 0.0000 0.0000 0.0000
# 3 -6.8781 43.1238 61.8546 0.0000 0.0000 0.0000
# 4 0.0000 0.0000 0.0000 50.0219 0.0000 0.0000
# 5 0.0000 0.0000 0.0000 0.0000 11.2306 0.0000
# 6 0.0000 0.0000 0.0000 0.0000 0.0000 25.3704
#
#
#
# Elastic Compliance Matrix: (Units=1/GPa)
#
#
# Indices 1 2 3 4 5 6 
#
# 1 0.011314 -0.003375 0.003611 0.000000 0.000000 0.000000
# 2 -0.003375 0.008997 -0.006648 0.000000 0.000000 0.000000
# 3 0.003611 -0.006648 0.021203 0.000000 0.000000 0.000000
# 4 0.000000 0.000000 0.000000 0.019991 0.000000 0.000000
# 5 0.000000 0.000000 0.000000 0.000000 0.089042 0.000000
# 6 0.000000 0.000000 0.000000 0.000000 0.000000 0.039416
#
#
# Mechanical properties :
#
#
# Convention : Reuss Voigt Hill
#
# Bulk Modulus (GPa) = 34.85420 50.54789 42.70105
# Shear Modulus (GPa) = 23.54600 33.89641 28.72120
#
# Velocity S-wave (km/s) = 3.10853 3.72970 3.43319
# Velocity P-wave (km/s) = 5.21418 6.26831 5.76539
#
# Compressibility (1/GPa) = 0.02869095
#
# Stress axis : x y z
#
# Youngs Moduli (GPa) = 88.38450 111.15096 47.16284
#
# Poissons Ratio (x) = 0.37514 -0.17031
# Poissons Ratio (y) = 0.29830 0.31352
# Poissons Ratio (z) = -0.31917 0.73890
#
# Static dielectric constant tensor:
#      x y z
#    x 1.962800 0.000000 0.000000 
#    y 0.000000 2.004860 0.000000 
#    z 0.000000 0.000000 2.028710 
# 
# From -- ./inp_files/1715.got.cif
#   From: 2010.05.17/outbox.cif.g08.bks.cpg/sg33_1_cif.got.tgz:1715.got - 2010.06.03 17:15:25.
