data_PCOD9346012
_publ_section_title
;
Structure prediction by ZEFSAII (Michael W. Deem and Ramdas Pophale) SiO2 
 PCOD9346012
Probable space group: P N A 21
;
_chemical_formula_sum "Si O2"
_cell_formula_units_Z 24
_cell_length_a 5.178982
_cell_length_b 17.430411
_cell_length_c 10.593083
_cell_angle_alpha 90.000000
_cell_angle_beta 90.000000
_cell_angle_gamma 90.000000
_cell_volume 956.256509
_symmetry_space_group_name_H-M "P N A 21"
_symmetry_group_IT_number 33
_symmetry_cell_setting 'orthorhombic'
loop_
_space_group_symop_operation_xyz
x,y,z
-x,-y,1/2+z
1/2-x,1/2+y,1/2+z
1/2+x,1/2-y,z
loop_
_atom_site_type_symbol
_atom_site_label
_atom_site_fract_x
_atom_site_fract_y
_atom_site_fract_z
Si Si1 0.258907 0.974074 0.635960
Si Si2 0.192161 0.195548 0.866923
Si Si3 0.480184 0.047485 0.890305
Si Si4 0.887568 0.100627 0.692950
Si Si5 0.774454 0.197968 0.184906
Si Si6 0.238683 0.798747 0.975801
O O1 0.424419 0.997324 0.513324
O O2 0.228979 0.883253 0.617301
O O3 0.372059 0.995962 0.774375
O O4 0.995410 0.021662 0.638028
O O5 0.432719 0.253586 0.883969
O O6 0.285101 0.115943 0.932845
O O7 0.126754 0.156337 0.730959
O O8 0.724518 0.086645 0.819354
O O9 0.722587 0.142195 0.587470
O O10 0.535334 0.254677 0.160388
O O11 0.749078 0.174251 0.331820
O O12 0.452641 0.734153 0.987272
#
# Coordination Sequence:
#
# PCOD9346012 Si02
#       6
#     4   4   4   4   4   4
#     4  11  29  48  77 110 158 200 268 312 395 470
#     4  11  22  44  73 111 155 193 252 313 385 460
#     4  11  28  48  75 114 153 212 250 326 389 455
#     4  11  25  42  75 110 154 204 249 322 386 453
#     4  10  25  50  73 107 146 203 252 315 382 459
#     4  10  23  40  73 106 150 194 251 306 375 453
#
# _framework density 25.09787
#
# number of rings (size 3 to 8) (size 9 to 14) (size 15 to 20)
#    0.000    1.333    1.667    1.000   11.667    4.000 
#    0.000    0.000    0.000    0.000    0.000    0.000 
#    0.000    0.000    0.000    0.000    0.000    0.000 
#
# Total GULP energy -134188.609913 kJ/mol
# GULP energy per Si atom -5591.192080 kJ/mol
# Density = 2.504075 g / cm^3
# Si number density = 25.097870 Si / 1000 Ang^3
#
#
#
# Elastic Constant Matrix: (Units=GPa)
#
#
# Indices 1 2 3 4 5 6 
#
# 1 280.0805 151.5572 84.6440 0.0000 0.0000 0.0000
# 2 151.5572 182.9546 102.3667 0.0000 0.0000 0.0000
# 3 84.6440 102.3667 117.3795 0.0000 0.0000 0.0000
# 4 0.0000 0.0000 0.0000 34.9005 0.0000 0.0000
# 5 0.0000 0.0000 0.0000 0.0000 26.8947 0.0000
# 6 0.0000 0.0000 0.0000 0.0000 0.0000 25.2793
#
#
#
# Elastic Compliance Matrix: (Units=1/GPa)
#
#
# Indices 1 2 3 4 5 6 
#
# 1 0.006471 -0.005370 0.000017 0.000000 0.000000 0.000000
# 2 -0.005370 0.015131 -0.009323 0.000000 0.000000 0.000000
# 3 0.000017 -0.009323 0.016638 0.000000 0.000000 0.000000
# 4 0.000000 0.000000 0.000000 0.028653 0.000000 0.000000
# 5 0.000000 0.000000 0.000000 0.000000 0.037182 0.000000
# 6 0.000000 0.000000 0.000000 0.000000 0.000000 0.039558
#
#
# Mechanical properties :
#
#
# Convention : Reuss Voigt Hill
#
# Bulk Modulus (GPa) = 112.52250 139.72783 126.12516
# Shear Modulus (GPa) = 28.41746 33.53800 30.97773
#
# Velocity S-wave (km/s) = 3.36857 3.65949 3.51704
# Velocity P-wave (km/s) = 7.74987 8.58195 8.17650
#
# Compressibility (1/GPa) = 0.00888711
#
# Stress axis : x y z
#
# Youngs Moduli (GPa) = 154.53209 66.09067 60.10319
#
# Poissons Ratio (x) = 0.35490 -0.00100
# Poissons Ratio (y) = 0.82983 0.56035
# Poissons Ratio (z) = -0.00258 0.61617
#
# Static dielectric constant tensor:
#      x y z
#    x 1.997310 0.000000 0.000000 
#    y 0.000000 2.029290 0.000000 
#    z 0.000000 0.000000 1.989270 
# 
# From -- ./inp_files/5447.got.cif
#   From: 2010.05.17/outbox.cif.g08.bks.cpg/sg33_3_cif.got.tgz:5447.got - 2010.06.03 17:15:25.
