data_PCOD9346669
_publ_section_title
;
Structure prediction by ZEFSAII (Michael W. Deem and Ramdas Pophale) SiO2 
 PCOD9346669
Probable space group: P N A 21
;
_chemical_formula_sum "Si O2"
_cell_formula_units_Z 20
_cell_length_a 22.715410
_cell_length_b 6.964684
_cell_length_c 5.657958
_cell_angle_alpha 90.000000
_cell_angle_beta 90.000000
_cell_angle_gamma 90.000000
_cell_volume 895.120938
_symmetry_space_group_name_H-M "P N A 21"
_symmetry_group_IT_number 33
_symmetry_cell_setting 'orthorhombic'
loop_
_space_group_symop_operation_xyz
x,y,z
-x,-y,1/2+z
1/2-x,1/2+y,1/2+z
1/2+x,1/2-y,z
loop_
_atom_site_type_symbol
_atom_site_label
_atom_site_fract_x
_atom_site_fract_y
_atom_site_fract_z
Si Si1 0.497048 0.383350 0.980460
Si Si2 0.201995 0.627227 0.228871
Si Si3 0.116108 0.675315 0.614644
Si Si4 0.887193 0.648577 0.466057
Si Si5 0.316153 0.467189 0.397945
O O1 0.506090 0.483690 0.720906
O O2 0.550576 0.237841 0.037070
O O3 0.436669 0.261539 0.961960
O O4 0.179523 0.655966 0.492999
O O5 0.262404 0.511678 0.222254
O O6 0.147758 0.506645 0.121217
O O7 0.208416 0.833497 0.106595
O O8 0.101758 0.469434 0.724803
O O9 0.129598 0.841915 0.803009
O O10 0.842863 0.827309 0.457777
#
# Coordination Sequence:
#
# PCOD9346669 Si02
#       5
#     4   4   4   4   4
#     4  12  28  48  76 105 152 195 249 312 372 444
#     4  11  25  41  74 101 145 188 244 305 365 448
#     4  11  26  44  71 104 143 192 248 302 375 437
#     4  11  26  44  71 104 143 193 245 305 372 438
#     4  11  23  47  66 108 143 188 244 302 372 437
#
# _framework density 22.343349
#
# number of rings (size 3 to 8) (size 9 to 14) (size 15 to 20)
#    0.000    0.800    2.000    3.600    8.400    8.000 
#    0.000    0.000    0.000    0.000    0.000    0.000 
#    0.000    0.000    0.000    0.000    0.000    0.000 
#
# Total GULP energy -111569.375647 kJ/mol
# GULP energy per Si atom -5578.468782 kJ/mol
# Density = 2.229249 g / cm^3
# Si number density = 22.343349 Si / 1000 Ang^3
#
#
#
# Elastic Constant Matrix: (Units=GPa)
#
#
# Indices 1 2 3 4 5 6 
#
# 1 96.5444 32.1772 -6.9860 0.0000 0.0000 0.0000
# 2 32.1772 142.2581 32.8895 0.0000 0.0000 0.0000
# 3 -6.9860 32.8895 37.5571 0.0000 0.0000 0.0000
# 4 0.0000 0.0000 0.0000 29.7011 0.0000 0.0000
# 5 0.0000 0.0000 0.0000 0.0000 30.8462 0.0000
# 6 0.0000 0.0000 0.0000 0.0000 0.0000 40.6834
#
#
#
# Elastic Compliance Matrix: (Units=1/GPa)
#
#
# Indices 1 2 3 4 5 6 
#
# 1 0.012148 -0.004100 0.005850 0.000000 0.000000 0.000000
# 2 -0.004100 0.010198 -0.009693 0.000000 0.000000 0.000000
# 3 0.005850 -0.009693 0.036203 0.000000 0.000000 0.000000
# 4 0.000000 0.000000 0.000000 0.033669 0.000000 0.000000
# 5 0.000000 0.000000 0.000000 0.000000 0.032419 0.000000
# 6 0.000000 0.000000 0.000000 0.000000 0.000000 0.024580
#
#
# Mechanical properties :
#
#
# Convention : Reuss Voigt Hill
#
# Bulk Modulus (GPa) = 23.43994 43.61345 33.52670
# Shear Modulus (GPa) = 27.88256 34.79805 31.34031
#
# Velocity S-wave (km/s) = 3.53641 3.95070 3.74928
# Velocity P-wave (km/s) = 5.21426 6.35396 5.81211
#
# Compressibility (1/GPa) = 0.04266222
#
# Stress axis : x y z
#
# Youngs Moduli (GPa) = 82.31921 98.05900 27.62213
#
# Poissons Ratio (x) = 0.40207 -0.16160
# Poissons Ratio (y) = 0.33753 0.26775
# Poissons Ratio (z) = -0.48159 0.95051
#
# Static dielectric constant tensor:
#      x y z
#    x 1.788290 0.000000 0.000000 
#    y 0.000000 1.781060 0.000000 
#    z 0.000000 0.000000 1.945090 
# 
# From -- ./inp_files/1933.got.cif
#   From: 2010.05.17/outbox.cif.g08.bks.cpg/sg33_1_cif.got.tgz:1933.got - 2010.06.03 17:15:25.
