data_PCOD9346993
_publ_section_title
;
Structure prediction by ZEFSAII (Michael W. Deem and Ramdas Pophale) SiO2 
 PCOD9346993
Probable space group: P N A 21
;
_chemical_formula_sum "Si O2"
_cell_formula_units_Z 28
_cell_length_a 11.558169
_cell_length_b 6.566438
_cell_length_c 16.152690
_cell_angle_alpha 90.000000
_cell_angle_beta 90.000000
_cell_angle_gamma 90.000000
_cell_volume 1225.924562
_symmetry_space_group_name_H-M "P N A 21"
_symmetry_group_IT_number 33
_symmetry_cell_setting 'orthorhombic'
loop_
_space_group_symop_operation_xyz
x,y,z
-x,-y,1/2+z
1/2-x,1/2+y,1/2+z
1/2+x,1/2-y,z
loop_
_atom_site_type_symbol
_atom_site_label
_atom_site_fract_x
_atom_site_fract_y
_atom_site_fract_z
Si Si1 0.855967 0.108319 0.026560
Si Si2 0.654490 0.900325 0.130924
Si Si3 0.348264 0.086482 0.891359
Si Si4 0.195102 0.736138 0.830223
Si Si5 0.132054 0.903356 0.265649
Si Si6 0.986916 0.250725 0.184896
Si Si7 0.487080 0.241039 0.476532
O O1 0.759556 0.986347 0.077286
O O2 0.930255 0.228210 0.095070
O O3 0.798245 0.263582 0.961659
O O4 0.943149 0.952310 0.981467
O O5 0.588472 0.083163 0.178134
O O6 0.695497 0.727561 0.194677
O O7 0.561444 0.807576 0.067132
O O8 0.416605 0.235047 0.828943
O O9 0.258642 0.954001 0.838011
O O10 0.426565 0.927687 0.940560
O O11 0.288621 0.558084 0.817651
O O12 0.110480 0.705182 0.752713
O O13 0.120056 0.732828 0.913519
O O14 0.040443 0.039706 0.217353
#
# Coordination Sequence:
#
# PCOD9346993 Si02
#       7
#     4   4   4   4   4   4   4
#     4  12  27  45  77 112 152 201 250 310 383 458
#     4  12  27  45  77 112 152 201 250 310 383 458
#     4  12  26  48  73 106 150 196 253 308 375 450
#     4  12  28  46  76 108 148 200 260 306 376 452
#     4  12  26  48  73 106 150 196 253 308 375 450
#     4  12  26  48  73 111 149 199 248 310 385 445
#     4  12  26  48  73 111 149 199 248 310 385 445
#
# _framework density 22.839904000000001
#
# number of rings (size 3 to 8) (size 9 to 14) (size 15 to 20)
#    0.000    0.000    2.857    7.714    4.000    8.000 
#    0.000    0.000    0.000    0.000    0.000    0.000 
#    0.000    0.000    0.000    0.000    0.000    0.000 
#
# Total GULP energy -156753.196567 kJ/mol
# GULP energy per Si atom -5598.328449 kJ/mol
# Density = 2.278792 g / cm^3
# Si number density = 22.839904 Si / 1000 Ang^3
#
#
#
# Elastic Constant Matrix: (Units=GPa)
#
#
# Indices 1 2 3 4 5 6 
#
# 1 32.8455 -2.2464 8.0735 0.0000 0.0000 0.0000
# 2 -2.2464 65.2216 34.9486 0.0000 0.0000 0.0000
# 3 8.0735 34.9486 111.4321 0.0000 0.0000 0.0000
# 4 0.0000 0.0000 0.0000 52.7019 0.0000 0.0000
# 5 0.0000 0.0000 0.0000 0.0000 49.1274 0.0000
# 6 0.0000 0.0000 0.0000 0.0000 0.0000 38.7712
#
#
#
# Elastic Compliance Matrix: (Units=1/GPa)
#
#
# Indices 1 2 3 4 5 6 
#
# 1 0.031407 0.002766 -0.003143 0.000000 0.000000 0.000000
# 2 0.002766 0.018673 -0.006057 0.000000 0.000000 0.000000
# 3 -0.003143 -0.006057 0.011101 0.000000 0.000000 0.000000
# 4 0.000000 0.000000 0.000000 0.018975 0.000000 0.000000
# 5 0.000000 0.000000 0.000000 0.000000 0.020355 0.000000
# 6 0.000000 0.000000 0.000000 0.000000 0.000000 0.025792
#
#
# Mechanical properties :
#
#
# Convention : Reuss Voigt Hill
#
# Bulk Modulus (GPa) = 20.69797 32.33896 26.51846
# Shear Modulus (GPa) = 32.20058 39.36833 35.78445
#
# Velocity S-wave (km/s) = 3.75886 4.15621 3.96252
# Velocity P-wave (km/s) = 5.28399 6.10097 5.70711
#
# Compressibility (1/GPa) = 0.04831392
#
# Stress axis : x y z
#
# Youngs Moduli (GPa) = 31.83973 53.55279 90.07849
#
# Poissons Ratio (x) = -0.14812 0.28312
# Poissons Ratio (y) = -0.08807 0.54560
# Poissons Ratio (z) = 0.10007 0.32436
#
# Static dielectric constant tensor:
#      x y z
#    x 1.839310 0.000000 0.000000 
#    y 0.000000 1.877830 0.000000 
#    z 0.000000 0.000000 1.856940 
# 
# From -- ./inp_files/8656.got.cif
#   From: 2010.05.17/outbox.cif.g08.bks.cpg/sg33_5_cif.got.tgz:8656.got - 2010.06.03 17:15:25.
