data_PCOD9346866
_publ_section_title
;
Structure prediction by ZEFSAII (Michael W. Deem and Ramdas Pophale) SiO2 
 PCOD9346866
Probable space group: P N A 21
;
_chemical_formula_sum "Si O2"
_cell_formula_units_Z 24
_cell_length_a 14.071201
_cell_length_b 5.651320
_cell_length_c 11.584762
_cell_angle_alpha 90.000000
_cell_angle_beta 90.000000
_cell_angle_gamma 90.000000
_cell_volume 921.230233
_symmetry_space_group_name_H-M "P N A 21"
_symmetry_group_IT_number 33
_symmetry_cell_setting 'orthorhombic'
loop_
_space_group_symop_operation_xyz
x,y,z
-x,-y,1/2+z
1/2-x,1/2+y,1/2+z
1/2+x,1/2-y,z
loop_
_atom_site_type_symbol
_atom_site_label
_atom_site_fract_x
_atom_site_fract_y
_atom_site_fract_z
Si Si1 0.611959 0.765007 0.027050
Si Si2 0.370938 0.319946 0.913415
Si Si3 0.022910 0.859548 0.804931
Si Si4 0.599550 0.351831 0.603559
Si Si5 0.660055 0.063877 0.229310
Si Si6 0.775939 0.445224 0.122912
O O1 0.504129 0.741300 0.072130
O O2 0.679322 0.549638 0.065678
O O3 0.650447 0.988922 0.095527
O O4 0.595364 0.762748 0.891898
O O5 0.474792 0.405857 0.865773
O O6 0.328320 0.174930 0.805094
O O7 0.347923 0.562915 0.985527
O O8 0.343581 0.143621 0.017827
O O9 0.935630 0.687656 0.774556
O O10 0.074241 0.936568 0.689103
O O11 0.662938 0.163639 0.668953
O O12 0.740131 0.263340 0.219527
#
# Coordination Sequence:
#
# PCOD9346866 Si02
#       6
#     4   4   4   4   4   4
#     4  11  26  49  74 116 160 214 270 342 411 497
#     4  11  25  47  78 116 160 208 272 336 407 500
#     4  11  26  47  82 113 159 214 271 336 418 496
#     4  11  25  51  79 117 162 223 270 337 424 505
#     4  12  25  49  79 116 161 209 281 345 403 499
#     4  12  27  47  78 118 170 212 278 342 417 495
#
# _framework density 26.052119000000001
#
# number of rings (size 3 to 8) (size 9 to 14) (size 15 to 20)
#    0.000    0.667    3.333    3.000    4.667    4.000 
#    0.000    1.667    3.667    0.000    0.000    0.000 
#    0.000    0.000    0.000    0.000    0.000    0.000 
#
# Total GULP energy -134051.445984 kJ/mol
# GULP energy per Si atom -5585.476916 kJ/mol
# Density = 2.599282 g / cm^3
# Si number density = 26.052119 Si / 1000 Ang^3
#
#
#
# Elastic Constant Matrix: (Units=GPa)
#
#
# Indices 1 2 3 4 5 6 
#
# 1 126.4620 56.3544 58.4401 0.0000 0.0000 0.0000
# 2 56.3544 108.1708 41.4585 0.0000 0.0000 0.0000
# 3 58.4401 41.4585 125.2973 0.0000 0.0000 0.0000
# 4 0.0000 0.0000 0.0000 39.5923 0.0000 0.0000
# 5 0.0000 0.0000 0.0000 0.0000 48.3810 0.0000
# 6 0.0000 0.0000 0.0000 0.0000 0.0000 49.6524
#
#
#
# Elastic Compliance Matrix: (Units=1/GPa)
#
#
# Indices 1 2 3 4 5 6 
#
# 1 0.011807 -0.004627 -0.003976 0.000000 0.000000 0.000000
# 2 -0.004627 0.012401 -0.001945 0.000000 0.000000 0.000000
# 3 -0.003976 -0.001945 0.010479 0.000000 0.000000 0.000000
# 4 0.000000 0.000000 0.000000 0.025257 0.000000 0.000000
# 5 0.000000 0.000000 0.000000 0.000000 0.020669 0.000000
# 6 0.000000 0.000000 0.000000 0.000000 0.000000 0.020140
#
#
# Mechanical properties :
#
#
# Convention : Reuss Voigt Hill
#
# Bulk Modulus (GPa) = 73.58078 74.71509 74.14794
# Shear Modulus (GPa) = 39.56343 41.10362 40.33353
#
# Velocity S-wave (km/s) = 3.90118 3.97639 3.93897
# Velocity P-wave (km/s) = 6.97118 7.05858 7.01502
#
# Compressibility (1/GPa) = 0.01359051
#
# Stress axis : x y z
#
# Youngs Moduli (GPa) = 84.69705 80.64005 95.42986
#
# Poissons Ratio (x) = 0.37314 0.37940
# Poissons Ratio (y) = 0.39192 0.18561
# Poissons Ratio (z) = 0.33673 0.15684
#
# Static dielectric constant tensor:
#      x y z
#    x 2.046770 0.000000 0.000000 
#    y 0.000000 2.097580 0.000000 
#    z 0.000000 0.000000 2.038530 
# 
# From -- ./inp_files/6663.got.cif
#   From: 2010.05.17/outbox.cif.g08.bks.cpg/sg33_4_cif.got.tgz:6663.got - 2010.06.03 17:15:25.
