data_PCOD9346887
_publ_section_title
;
Structure prediction by ZEFSAII (Michael W. Deem and Ramdas Pophale) SiO2 
 PCOD9346887
Probable space group: P N A 21
;
_chemical_formula_sum "Si O2"
_cell_formula_units_Z 32
_cell_length_a 19.078695
_cell_length_b 4.922055
_cell_length_c 12.124470
_cell_angle_alpha 90.000000
_cell_angle_beta 90.000000
_cell_angle_gamma 90.000000
_cell_volume 1138.565161
_symmetry_space_group_name_H-M "P N A 21"
_symmetry_group_IT_number 33
_symmetry_cell_setting 'orthorhombic'
loop_
_space_group_symop_operation_xyz
x,y,z
-x,-y,1/2+z
1/2-x,1/2+y,1/2+z
1/2+x,1/2-y,z
loop_
_atom_site_type_symbol
_atom_site_label
_atom_site_fract_x
_atom_site_fract_y
_atom_site_fract_z
Si Si1 0.791956 0.694961 0.698810
Si Si2 0.990028 0.899136 0.768798
Si Si3 0.278752 0.968020 0.943481
Si Si4 0.965799 0.556874 0.549269
Si Si5 0.095823 0.849739 0.465173
Si Si6 0.419731 0.893551 0.319988
Si Si7 0.662180 0.373885 0.646430
Si Si8 0.350322 0.317977 0.567556
O O1 0.801479 0.649920 0.827182
O O2 0.710513 0.626181 0.679260
O O3 0.824213 0.975373 0.660634
O O4 0.825614 0.470352 0.618278
O O5 0.934128 0.966215 0.866322
O O6 0.963029 0.728494 0.662725
O O7 0.052966 0.700147 0.809322
O O8 0.022859 0.200149 0.761461
O O9 0.324249 0.247188 0.945390
O O10 0.195215 0.917798 0.962079
O O11 0.305347 0.809822 0.050758
O O12 0.932750 0.254341 0.558121
O O13 0.918404 0.675715 0.448862
O O14 0.042710 0.599855 0.493621
O O15 0.096461 0.004724 0.581347
O O16 0.351518 0.811782 0.252379
#
# Coordination Sequence:
#
# PCOD9346887 Si02
#       8
#     4   4   4   4   4   4   4   4
#     4  11  28  50  82 118 162 224 297 376 433 525
#     4  11  27  46  77 125 169 223 284 351 446 546
#     4  11  27  51  83 115 172 227 303 366 441 536
#     4  11  27  51  78 124 183 219 286 371 452 530
#     4  11  25  50  85 123 173 243 294 368 456 564
#     4  11  27  48  81 123 172 226 282 358 444 548
#     4  11  25  50  85 119 167 228 305 360 449 545
#     4  11  28  50  77 121 162 220 289 374 449 520
#
# _framework density 28.105551999999999
#
# number of rings (size 3 to 8) (size 9 to 14) (size 15 to 20)
#    0.000    1.000    2.500    0.750    8.750    7.000 
#    0.000    1.250    0.000    0.000    0.000    0.000 
#    0.000    0.000    0.000    0.000    0.000    0.000 
#
# Total GULP energy -179012.417313 kJ/mol
# GULP energy per Si atom -5594.138041 kJ/mol
# Density = 2.804158 g / cm^3
# Si number density = 28.105552 Si / 1000 Ang^3
#
#
#
# Elastic Constant Matrix: (Units=GPa)
#
#
# Indices 1 2 3 4 5 6 
#
# 1 103.7605 59.4711 40.2458 0.0000 0.0000 0.0000
# 2 59.4711 141.2312 39.2394 0.0000 0.0000 0.0000
# 3 40.2458 39.2394 189.3020 0.0000 0.0000 0.0000
# 4 0.0000 0.0000 0.0000 43.6234 0.0000 0.0000
# 5 0.0000 0.0000 0.0000 0.0000 52.1315 0.0000
# 6 0.0000 0.0000 0.0000 0.0000 0.0000 63.9200
#
#
#
# Elastic Compliance Matrix: (Units=1/GPa)
#
#
# Indices 1 2 3 4 5 6 
#
# 1 0.013234 -0.005084 -0.001760 0.000000 0.000000 0.000000
# 2 -0.005084 0.009466 -0.000881 0.000000 0.000000 0.000000
# 3 -0.001760 -0.000881 0.005839 0.000000 0.000000 0.000000
# 4 0.000000 0.000000 0.000000 0.022923 0.000000 0.000000
# 5 0.000000 0.000000 0.000000 0.000000 0.019182 0.000000
# 6 0.000000 0.000000 0.000000 0.000000 0.000000 0.015645
#
#
# Mechanical properties :
#
#
# Convention : Reuss Voigt Hill
#
# Bulk Modulus (GPa) = 76.39592 79.13406 77.76499
# Shear Modulus (GPa) = 47.12408 51.62413 49.37411
#
# Velocity S-wave (km/s) = 4.09917 4.29043 4.19589
# Velocity P-wave (km/s) = 7.04593 7.26367 7.15563
#
# Compressibility (1/GPa) = 0.01308971
#
# Stress axis : x y z
#
# Youngs Moduli (GPa) = 75.56329 105.63909 171.25072
#
# Poissons Ratio (x) = 0.53704 0.30136
# Poissons Ratio (y) = 0.38415 0.15094
# Poissons Ratio (z) = 0.13297 0.09311
#
# Static dielectric constant tensor:
#      x y z
#    x 2.491420 0.000000 0.000000 
#    y 0.000000 2.166130 0.000000 
#    z 0.000000 0.000000 2.158910 
# 
# From -- ./inp_files/7330.got.cif
#   From: 2010.05.17/outbox.cif.g08.bks.cpg/sg33_4_cif.got.tgz:7330.got - 2010.06.03 17:15:25.
