data_PCOD9346918
_publ_section_title
;
Structure prediction by ZEFSAII (Michael W. Deem and Ramdas Pophale) SiO2 
 PCOD9346918
Probable space group: P N A 21
;
_chemical_formula_sum "Si O2"
_cell_formula_units_Z 20
_cell_length_a 9.978277
_cell_length_b 4.947335
_cell_length_c 14.307623
_cell_angle_alpha 90.000000
_cell_angle_beta 90.000000
_cell_angle_gamma 90.000000
_cell_volume 706.308386
_symmetry_space_group_name_H-M "P N A 21"
_symmetry_group_IT_number 33
_symmetry_cell_setting 'orthorhombic'
loop_
_space_group_symop_operation_xyz
x,y,z
-x,-y,1/2+z
1/2-x,1/2+y,1/2+z
1/2+x,1/2-y,z
loop_
_atom_site_type_symbol
_atom_site_label
_atom_site_fract_x
_atom_site_fract_y
_atom_site_fract_z
Si Si1 0.953630 0.095571 0.989280
Si Si2 0.953550 0.155943 0.200132
Si Si3 0.385666 0.020705 0.839401
Si Si4 0.284177 0.855623 0.197102
Si Si5 0.198252 0.737114 0.988020
O O1 0.983740 0.303960 0.906491
O O2 0.990765 0.213011 0.091514
O O3 0.793042 0.032773 0.986648
O O4 0.041849 0.822653 0.977748
O O5 0.821797 0.337643 0.215395
O O6 0.048409 0.285096 0.277468
O O7 0.912995 0.843018 0.203111
O O8 0.317761 0.232340 0.769646
O O9 0.272252 0.903323 0.907236
O O10 0.230507 0.834907 0.092664
#
# Coordination Sequence:
#
# PCOD9346918 Si02
#       5
#     4   4   4   4   4
#     4  11  28  54  85 129 169 231 290 363 439 528
#     4  11  28  52  79 121 168 223 286 356 431 520
#     4  12  28  48  87 121 170 229 291 361 447 520
#     4  11  28  51  79 119 172 219 287 358 430 512
#     4  11  28  51  82 118 171 222 288 358 433 524
#
# _framework density 28.316238999999999
#
# number of rings (size 3 to 8) (size 9 to 14) (size 15 to 20)
#    0.000    0.800    2.000    1.200   16.800    1.600 
#    0.000    0.000    0.000    0.000    0.000    0.000 
#    0.000    0.000    0.000    0.000    0.000    0.000 
#
# Total GULP energy -112161.691263 kJ/mol
# GULP energy per Si atom -5608.084563 kJ/mol
# Density = 2.825179 g / cm^3
# Si number density = 28.316239 Si / 1000 Ang^3
#
#
#
# Elastic Constant Matrix: (Units=GPa)
#
#
# Indices 1 2 3 4 5 6 
#
# 1 86.0911 20.9421 76.3505 0.0000 0.0000 0.0000
# 2 20.9421 105.5952 54.7998 0.0000 0.0000 0.0000
# 3 76.3505 54.7998 229.5811 0.0000 0.0000 0.0000
# 4 0.0000 0.0000 0.0000 40.4574 0.0000 0.0000
# 5 0.0000 0.0000 0.0000 0.0000 33.5991 0.0000
# 6 0.0000 0.0000 0.0000 0.0000 0.0000 36.7010
#
#
#
# Elastic Compliance Matrix: (Units=1/GPa)
#
#
# Indices 1 2 3 4 5 6 
#
# 1 0.016496 -0.000485 -0.005370 0.000000 0.000000 0.000000
# 2 -0.000485 0.010823 -0.002422 0.000000 0.000000 0.000000
# 3 -0.005370 -0.002422 0.006720 0.000000 0.000000 0.000000
# 4 0.000000 0.000000 0.000000 0.024717 0.000000 0.000000
# 5 0.000000 0.000000 0.000000 0.000000 0.029763 0.000000
# 6 0.000000 0.000000 0.000000 0.000000 0.000000 0.027247
#
#
# Mechanical properties :
#
#
# Convention : Reuss Voigt Hill
#
# Bulk Modulus (GPa) = 57.19206 80.60581 68.89894
# Shear Modulus (GPa) = 36.19260 40.09648 38.14454
#
# Velocity S-wave (km/s) = 3.57901 3.76709 3.67426
# Velocity P-wave (km/s) = 6.10906 6.88835 6.51037
#
# Compressibility (1/GPa) = 0.01748494
#
# Stress axis : x y z
#
# Youngs Moduli (GPa) = 60.61976 92.39304 148.81037
#
# Poissons Ratio (x) = 0.04477 0.79917
# Poissons Ratio (y) = 0.02938 0.36047
# Poissons Ratio (z) = 0.32555 0.22381
#
# Static dielectric constant tensor:
#      x y z
#    x 2.281900 0.000000 0.000000 
#    y 0.000000 2.140260 0.000000 
#    z 0.000000 0.000000 2.118840 
# 
# From -- ./inp_files/7787.got.cif
#   From: 2010.05.17/outbox.cif.g08.bks.cpg/sg33_4_cif.got.tgz:7787.got - 2010.06.03 17:15:25.
