data_PCOD9346132
_publ_section_title
;
Structure prediction by ZEFSAII (Michael W. Deem and Ramdas Pophale) SiO2 
 PCOD9346132
Probable space group: P N A 21
;
_chemical_formula_sum "Si O2"
_cell_formula_units_Z 32
_cell_length_a 8.316077
_cell_length_b 18.215247
_cell_length_c 8.726195
_cell_angle_alpha 90.000000
_cell_angle_beta 90.000000
_cell_angle_gamma 90.000000
_cell_volume 1321.838753
_symmetry_space_group_name_H-M "P N A 21"
_symmetry_group_IT_number 33
_symmetry_cell_setting 'orthorhombic'
loop_
_space_group_symop_operation_xyz
x,y,z
-x,-y,1/2+z
1/2-x,1/2+y,1/2+z
1/2+x,1/2-y,z
loop_
_atom_site_type_symbol
_atom_site_label
_atom_site_fract_x
_atom_site_fract_y
_atom_site_fract_z
Si Si1 0.788146 0.408677 0.783290
Si Si2 0.689700 0.663455 0.426660
Si Si3 0.003125 0.462044 0.286572
Si Si4 0.667753 0.530410 0.613045
Si Si5 0.507787 0.816104 0.925758
Si Si6 0.498232 0.774624 0.260189
Si Si7 0.259069 0.746363 0.717131
Si Si8 0.179190 0.082052 0.116187
O O1 0.698398 0.443570 0.635947
O O2 0.840654 0.325124 0.772532
O O3 0.956284 0.453157 0.812962
O O4 0.688407 0.428891 0.933954
O O5 0.680819 0.576684 0.456971
O O6 0.553625 0.694591 0.313595
O O7 0.666877 0.705754 0.589745
O O8 0.861506 0.691332 0.367108
O O9 0.986411 0.404808 0.426633
O O10 0.841226 0.451354 0.189773
O O11 0.173736 0.442033 0.204939
O O12 0.490657 0.550762 0.674772
O O13 0.404942 0.794328 0.777494
O O14 0.671511 0.777608 0.874306
O O15 0.448456 0.784136 0.084733
O O16 0.307686 0.668940 0.644210
#
# Coordination Sequence:
#
# PCOD9346132 Si02
#       8
#     4   4   4   4   4   4   4   4
#     4  10  24  43  68 103 143 182 254 309 366 457
#     4  12  23  44  71 104 142 202 241 310 381 466
#     4   9  23  42  68  97 137 189 240 295 375 447
#     4  10  23  44  69 103 139 191 249 299 374 459
#     4  11  23  41  65 104 139 191 239 316 365 449
#     4  12  26  42  69 108 149 187 252 318 381 439
#     4  11  21  40  71  94 139 185 252 286 382 448
#     4  11  21  44  69 101 134 191 243 307 362 455
#
# _framework density 24.208701999999999
#
# number of rings (size 3 to 8) (size 9 to 14) (size 15 to 20)
#    0.750    0.500    2.500    3.750    1.750    0.000 
#    9.000    0.000    2.750    0.000    0.000    0.000 
#    0.000    0.000    0.000    0.000    0.000    0.000 
#
# Total GULP energy -178617.576344 kJ/mol
# GULP energy per Si atom -5581.799261 kJ/mol
# Density = 2.415360 g / cm^3
# Si number density = 24.208702 Si / 1000 Ang^3
#
#
#
# Elastic Constant Matrix: (Units=GPa)
#
#
# Indices 1 2 3 4 5 6 
#
# 1 121.2202 9.7977 17.9170 0.0000 0.0000 0.0000
# 2 9.7977 69.0010 21.8861 0.0000 0.0000 0.0000
# 3 17.9170 21.8861 89.2806 0.0000 0.0000 0.0000
# 4 0.0000 0.0000 0.0000 20.2705 0.0000 0.0000
# 5 0.0000 0.0000 0.0000 0.0000 22.0302 0.0000
# 6 0.0000 0.0000 0.0000 0.0000 0.0000 35.7897
#
#
#
# Elastic Compliance Matrix: (Units=1/GPa)
#
#
# Indices 1 2 3 4 5 6 
#
# 1 0.008535 -0.000725 -0.001535 0.000000 0.000000 0.000000
# 2 -0.000725 0.015776 -0.003722 0.000000 0.000000 0.000000
# 3 -0.001535 -0.003722 0.012421 0.000000 0.000000 0.000000
# 4 0.000000 0.000000 0.000000 0.049333 0.000000 0.000000
# 5 0.000000 0.000000 0.000000 0.000000 0.045392 0.000000
# 6 0.000000 0.000000 0.000000 0.000000 0.000000 0.027941
#
#
# Mechanical properties :
#
#
# Convention : Reuss Voigt Hill
#
# Bulk Modulus (GPa) = 40.37434 42.07816 41.22625
# Shear Modulus (GPa) = 27.83688 30.94481 29.39084
#
# Velocity S-wave (km/s) = 3.39465 3.57914 3.48812
# Velocity P-wave (km/s) = 5.66381 5.87363 5.76967
#
# Compressibility (1/GPa) = 0.02476821
#
# Stress axis : x y z
#
# Youngs Moduli (GPa) = 117.16541 63.38749 80.50837
#
# Poissons Ratio (x) = 0.04596 0.12359
# Poissons Ratio (y) = 0.08495 0.29964
# Poissons Ratio (z) = 0.17986 0.23592
#
# Static dielectric constant tensor:
#      x y z
#    x 1.976990 0.000000 0.000000 
#    y 0.000000 1.951570 0.000000 
#    z 0.000000 0.000000 1.924390 
# 
# From -- ./inp_files/3505.got.cif
#   From: 2010.05.17/outbox.cif.g08.bks.cpg/sg33_2_cif.got.tgz:3505.got - 2010.06.03 17:15:25.
