data_PCOD9346149
_publ_section_title
;
Structure prediction by ZEFSAII (Michael W. Deem and Ramdas Pophale) SiO2 
 PCOD9346149
Probable space group: P N A 21
;
_chemical_formula_sum "Si O2"
_cell_formula_units_Z 28
_cell_length_a 14.779431
_cell_length_b 14.254196
_cell_length_c 5.055415
_cell_angle_alpha 90.000000
_cell_angle_beta 90.000000
_cell_angle_gamma 90.000000
_cell_volume 1065.018749
_symmetry_space_group_name_H-M "P N A 21"
_symmetry_group_IT_number 33
_symmetry_cell_setting 'orthorhombic'
loop_
_space_group_symop_operation_xyz
x,y,z
-x,-y,1/2+z
1/2-x,1/2+y,1/2+z
1/2+x,1/2-y,z
loop_
_atom_site_type_symbol
_atom_site_label
_atom_site_fract_x
_atom_site_fract_y
_atom_site_fract_z
Si Si1 0.603723 0.778920 0.832600
Si Si2 0.547200 0.461356 0.711622
Si Si3 0.711494 0.211477 0.306944
Si Si4 0.555940 0.281747 0.025032
Si Si5 0.242991 0.975236 0.527890
Si Si6 0.843448 0.453225 0.029070
Si Si7 0.550188 0.122095 0.649400
O O1 0.696229 0.739619 0.952988
O O2 0.532575 0.706037 0.705612
O O3 0.640716 0.845994 0.599993
O O4 0.541980 0.840937 0.023484
O O5 0.474237 0.490810 0.493344
O O6 0.642910 0.493279 0.599379
O O7 0.548593 0.350950 0.779033
O O8 0.652140 0.293270 0.169140
O O9 0.744062 0.134409 0.093297
O O10 0.636639 0.165641 0.496006
O O11 0.554443 0.172698 0.932978
O O12 0.270245 0.004064 0.233930
O O13 0.310282 0.026921 0.734593
O O14 0.933262 0.512506 0.107830
#
# Coordination Sequence:
#
# PCOD9346149 Si02
#       7
#     4   4   4   4   4   4   4
#     4  11  26  41  75 101 141 193 248 286 379 435
#     4  12  28  46  75 104 149 194 249 305 368 441
#     4  10  23  45  67 102 141 189 238 303 363 437
#     4  11  25  45  68 105 146 186 246 309 362 426
#     4  11  24  46  70 103 143 193 244 300 367 435
#     4  11  25  45  71 103 143 190 241 300 368 437
#     4  10  25  42  68 100 145 183 234 311 353 433
#
# _framework density 26.290616
#
# number of rings (size 3 to 8) (size 9 to 14) (size 15 to 20)
#    0.000    1.143    1.429    2.571   12.000    1.143 
#    0.000    0.000    0.000    0.000    0.000    0.000 
#    0.000    0.000    0.000    0.000    0.000    0.000 
#
# Total GULP energy -156995.115011 kJ/mol
# GULP energy per Si atom -5606.968393 kJ/mol
# Density = 2.623078 g / cm^3
# Si number density = 26.290616 Si / 1000 Ang^3
#
#
#
# Elastic Constant Matrix: (Units=GPa)
#
#
# Indices 1 2 3 4 5 6 
#
# 1 192.0643 28.7775 32.8595 0.0000 0.0000 0.0000
# 2 28.7775 73.1126 2.2532 0.0000 0.0000 0.0000
# 3 32.8595 2.2532 71.9411 0.0000 0.0000 0.0000
# 4 0.0000 0.0000 0.0000 40.7800 0.0000 0.0000
# 5 0.0000 0.0000 0.0000 0.0000 47.4512 0.0000
# 6 0.0000 0.0000 0.0000 0.0000 0.0000 38.2626
#
#
#
# Elastic Compliance Matrix: (Units=1/GPa)
#
#
# Indices 1 2 3 4 5 6 
#
# 1 0.006005 -0.002281 -0.002672 0.000000 0.000000 0.000000
# 2 -0.002281 0.014557 0.000586 0.000000 0.000000 0.000000
# 3 -0.002672 0.000586 0.015102 0.000000 0.000000 0.000000
# 4 0.000000 0.000000 0.000000 0.024522 0.000000 0.000000
# 5 0.000000 0.000000 0.000000 0.000000 0.021074 0.000000
# 6 0.000000 0.000000 0.000000 0.000000 0.000000 0.026135
#
#
# Mechanical properties :
#
#
# Convention : Reuss Voigt Hill
#
# Bulk Modulus (GPa) = 37.13152 51.65537 44.39344
# Shear Modulus (GPa) = 39.96569 43.51397 41.73983
#
# Velocity S-wave (km/s) = 3.90314 4.07272 3.98883
# Velocity P-wave (km/s) = 5.87084 6.46580 6.17549
#
# Compressibility (1/GPa) = 0.02693130
#
# Stress axis : x y z
#
# Youngs Moduli (GPa) = 166.51413 68.69331 66.21564
#
# Poissons Ratio (x) = 0.15672 0.17690
# Poissons Ratio (y) = 0.37990 -0.03881
# Poissons Ratio (z) = 0.44486 -0.04026
#
# Static dielectric constant tensor:
#      x y z
#    x 2.041610 0.000000 0.000000 
#    y 0.000000 2.083000 0.000000 
#    z 0.000000 0.000000 2.034720 
# 
# From -- ./inp_files/1405.got.cif
#   From: 2010.05.17/outbox.cif.g08.bks.cpg/sg33_1_cif.got.tgz:1405.got - 2010.06.03 17:15:25.
