data_PCOD9346209
_publ_section_title
;
Structure prediction by ZEFSAII (Michael W. Deem and Ramdas Pophale) SiO2 
 PCOD9346209
Probable space group: P N A 21
;
_chemical_formula_sum "Si O2"
_cell_formula_units_Z 28
_cell_length_a 23.568830
_cell_length_b 5.234275
_cell_length_c 8.912510
_cell_angle_alpha 90.000000
_cell_angle_beta 90.000000
_cell_angle_gamma 90.000000
_cell_volume 1099.498370
_symmetry_space_group_name_H-M "P N A 21"
_symmetry_group_IT_number 33
_symmetry_cell_setting 'orthorhombic'
loop_
_space_group_symop_operation_xyz
x,y,z
-x,-y,1/2+z
1/2-x,1/2+y,1/2+z
1/2+x,1/2-y,z
loop_
_atom_site_type_symbol
_atom_site_label
_atom_site_fract_x
_atom_site_fract_y
_atom_site_fract_z
Si Si1 0.144001 0.618418 0.631910
Si Si2 0.063027 0.890068 0.817588
Si Si3 0.587523 0.159816 0.160006
Si Si4 0.518125 0.674143 0.131631
Si Si5 0.188706 0.376919 0.347082
Si Si6 0.840284 0.757429 0.395232
Si Si7 0.755923 0.020476 0.067266
O O1 0.150649 0.533265 0.462421
O O2 0.165741 0.392857 0.739907
O O3 0.082252 0.694611 0.689272
O O4 0.187063 0.856576 0.631961
O O5 0.123812 0.981493 0.887568
O O6 0.038858 0.134767 0.727001
O O7 0.021062 0.797341 0.949749
O O8 0.544497 0.391509 0.147955
O O9 0.555259 0.900895 0.201896
O O10 0.639534 0.270279 0.257337
O O11 0.617150 0.094750 0.001085
O O12 0.229767 0.196249 0.445326
O O13 0.219627 0.539225 0.216632
O O14 0.780539 0.740591 0.481588
#
# Coordination Sequence:
#
# PCOD9346209 Si02
#       7
#     4   4   4   4   4   4   4
#     4  12  25  43  73 105 150 190 255 321 382 472
#     4  11  27  46  75 113 151 200 262 323 399 472
#     4  10  25  49  76 110 154 202 258 321 396 462
#     4  11  26  48  79 109 156 201 256 329 393 470
#     4  11  27  44  74 108 155 202 267 315 399 479
#     4  10  23  49  70 105 152 197 252 322 383 474
#     4  11  25  47  71 108 146 210 250 327 394 475
#
# _framework density 25.466159999999999
#
# number of rings (size 3 to 8) (size 9 to 14) (size 15 to 20)
#    0.000    1.143    2.857    0.857   10.000    1.143 
#    5.143    0.000    0.000    0.000    0.000    0.000 
#    0.000    0.000    0.000    0.000    0.000    0.000 
#
# Total GULP energy -156400.195055 kJ/mol
# GULP energy per Si atom -5585.721252 kJ/mol
# Density = 2.540820 g / cm^3
# Si number density = 25.466160 Si / 1000 Ang^3
#
#
#
# Elastic Constant Matrix: (Units=GPa)
#
#
# Indices 1 2 3 4 5 6 
#
# 1 71.7340 24.4741 40.3863 0.0000 0.0000 0.0000
# 2 24.4741 94.0867 18.6829 0.0000 0.0000 0.0000
# 3 40.3863 18.6829 132.2228 0.0000 0.0000 0.0000
# 4 0.0000 0.0000 0.0000 33.1015 0.0000 0.0000
# 5 0.0000 0.0000 0.0000 0.0000 43.6214 0.0000
# 6 0.0000 0.0000 0.0000 0.0000 0.0000 39.0966
#
#
#
# Elastic Compliance Matrix: (Units=1/GPa)
#
#
# Indices 1 2 3 4 5 6 
#
# 1 0.018003 -0.003695 -0.004977 0.000000 0.000000 0.000000
# 2 -0.003695 0.011694 -0.000524 0.000000 0.000000 0.000000
# 3 -0.004977 -0.000524 0.009157 0.000000 0.000000 0.000000
# 4 0.000000 0.000000 0.000000 0.030210 0.000000 0.000000
# 5 0.000000 0.000000 0.000000 0.000000 0.022925 0.000000
# 6 0.000000 0.000000 0.000000 0.000000 0.000000 0.025578
#
#
# Mechanical properties :
#
#
# Convention : Reuss Voigt Hill
#
# Bulk Modulus (GPa) = 48.86854 51.68112 50.27483
# Shear Modulus (GPa) = 35.01955 37.46392 36.24173
#
# Velocity S-wave (km/s) = 3.71231 3.83969 3.77654
# Velocity P-wave (km/s) = 6.13240 6.32421 6.22904
#
# Compressibility (1/GPa) = 0.02046306
#
# Stress axis : x y z
#
# Youngs Moduli (GPa) = 55.54664 85.51700 109.20469
#
# Poissons Ratio (x) = 0.31596 0.54349
# Poissons Ratio (y) = 0.20523 0.05720
# Poissons Ratio (z) = 0.27644 0.04479
#
# Static dielectric constant tensor:
#      x y z
#    x 2.119490 0.000000 0.000000 
#    y 0.000000 2.016900 0.000000 
#    z 0.000000 0.000000 2.104320 
# 
# From -- ./inp_files/5147.got.cif
#   From: 2010.05.17/outbox.cif.g08.bks.cpg/sg33_3_cif.got.tgz:5147.got - 2010.06.03 17:15:25.
