data_PCOD9346189
_publ_section_title
;
Structure prediction by ZEFSAII (Michael W. Deem and Ramdas Pophale) SiO2 
 PCOD9346189
Probable space group: P N A 21
;
_chemical_formula_sum "Si O2"
_cell_formula_units_Z 24
_cell_length_a 10.239480
_cell_length_b 18.232117
_cell_length_c 5.074944
_cell_angle_alpha 90.000000
_cell_angle_beta 90.000000
_cell_angle_gamma 90.000000
_cell_volume 947.428087
_symmetry_space_group_name_H-M "P N A 21"
_symmetry_group_IT_number 33
_symmetry_cell_setting 'orthorhombic'
loop_
_space_group_symop_operation_xyz
x,y,z
-x,-y,1/2+z
1/2-x,1/2+y,1/2+z
1/2+x,1/2-y,z
loop_
_atom_site_type_symbol
_atom_site_label
_atom_site_fract_x
_atom_site_fract_y
_atom_site_fract_z
Si Si1 0.018677 0.165823 0.616790
Si Si2 0.361942 0.877334 0.544083
Si Si3 0.499565 0.826130 0.063677
Si Si4 0.380494 0.442101 0.290951
Si Si5 0.142708 0.105100 0.118523
Si Si6 0.679777 0.960063 0.035621
O O1 0.951303 0.244514 0.614841
O O2 0.110212 0.161784 0.358508
O O3 0.113333 0.152481 0.861824
O O4 0.917326 0.099197 0.561290
O O5 0.381360 0.839577 0.266183
O O6 0.213230 0.883005 0.643572
O O7 0.399537 0.964116 0.519303
O O8 0.450486 0.840602 0.767906
O O9 0.601708 0.890079 0.131134
O O10 0.296747 0.515744 0.237647
O O11 0.516681 0.448878 0.138385
O O12 0.262532 0.061079 0.249441
#
# Coordination Sequence:
#
# PCOD9346189 Si02
#       6
#     4   4   4   4   4   4
#     4  10  24  44  69 105 153 187 247 305 383 455
#     4  10  25  44  73 103 150 186 258 309 372 451
#     4  12  24  45  72 110 146 203 242 305 391 456
#     4   8  24  45  70 103 143 193 241 320 357 445
#     4  10  23  47  66 108 138 194 243 312 372 442
#     4  10  24  47  76 105 150 191 259 315 367 455
#
# _framework density 25.331741000000001
#
# number of rings (size 3 to 8) (size 9 to 14) (size 15 to 20)
#    2.000    0.000    0.000    2.000    2.333    6.667 
#    9.000    0.000    0.000    0.000    0.000    0.000 
#    0.000    0.000    0.000    0.000    0.000    0.000 
#
# Total GULP energy -133943.295977 kJ/mol
# GULP energy per Si atom -5580.970666 kJ/mol
# Density = 2.527409 g / cm^3
# Si number density = 25.331741 Si / 1000 Ang^3
#
#
#
# Elastic Constant Matrix: (Units=GPa)
#
#
# Indices 1 2 3 4 5 6 
#
# 1 62.9050 20.0547 20.0894 0.0000 0.0000 0.0000
# 2 20.0547 165.7907 44.0611 0.0000 0.0000 0.0000
# 3 20.0894 44.0611 166.3880 0.0000 0.0000 0.0000
# 4 0.0000 0.0000 0.0000 11.3285 0.0000 0.0000
# 5 0.0000 0.0000 0.0000 0.0000 34.0315 0.0000
# 6 0.0000 0.0000 0.0000 0.0000 0.0000 19.3535
#
#
#
# Elastic Compliance Matrix: (Units=1/GPa)
#
#
# Indices 1 2 3 4 5 6 
#
# 1 0.016929 -0.001618 -0.001615 0.000000 0.000000 0.000000
# 2 -0.001618 0.006643 -0.001564 0.000000 0.000000 0.000000
# 3 -0.001615 -0.001564 0.006619 0.000000 0.000000 0.000000
# 4 0.000000 0.000000 0.000000 0.088273 0.000000 0.000000
# 5 0.000000 0.000000 0.000000 0.000000 0.029385 0.000000
# 6 0.000000 0.000000 0.000000 0.000000 0.000000 0.051670
#
#
# Mechanical properties :
#
#
# Convention : Reuss Voigt Hill
#
# Bulk Modulus (GPa) = 48.55326 62.61045 55.58185
# Shear Modulus (GPa) = 23.15037 33.66793 28.40915
#
# Velocity S-wave (km/s) = 3.02634 3.64961 3.35249
# Velocity P-wave (km/s) = 5.60537 6.52146 6.08069
#
# Compressibility (1/GPa) = 0.02059594
#
# Stress axis : x y z
#
# Youngs Moduli (GPa) = 59.07071 150.53305 151.07620
#
# Poissons Ratio (x) = 0.24363 0.24404
# Poissons Ratio (y) = 0.09560 0.23624
# Poissons Ratio (z) = 0.09542 0.23539
#
# Static dielectric constant tensor:
#      x y z
#    x 2.028520 0.000000 0.000000 
#    y 0.000000 2.049380 0.000000 
#    z 0.000000 0.000000 2.136060 
# 
# From -- ./inp_files/892.got.cif
#   From: 2010.05.17/outbox.cif.g08.bks.cpg/sg33_1_cif.got.tgz:892.got - 2010.06.03 17:15:25.
