data_PCOD9346439
_publ_section_title
;
Structure prediction by ZEFSAII (Michael W. Deem and Ramdas Pophale) SiO2 
 PCOD9346439
Probable space group: P N A 21
;
_chemical_formula_sum "Si O2"
_cell_formula_units_Z 32
_cell_length_a 12.198177
_cell_length_b 14.118701
_cell_length_c 7.410275
_cell_angle_alpha 90.000000
_cell_angle_beta 90.000000
_cell_angle_gamma 90.000000
_cell_volume 1276.215447
_symmetry_space_group_name_H-M "P N A 21"
_symmetry_group_IT_number 33
_symmetry_cell_setting 'orthorhombic'
loop_
_space_group_symop_operation_xyz
x,y,z
-x,-y,1/2+z
1/2-x,1/2+y,1/2+z
1/2+x,1/2-y,z
loop_
_atom_site_type_symbol
_atom_site_label
_atom_site_fract_x
_atom_site_fract_y
_atom_site_fract_z
Si Si1 0.740779 0.699548 0.031710
Si Si2 0.285392 0.069304 0.950770
Si Si3 0.451254 0.895525 0.945030
Si Si4 0.325973 0.090355 0.553952
Si Si5 0.190463 0.385008 0.920898
Si Si6 0.531678 0.810921 0.587135
Si Si7 0.090756 0.957052 0.121937
Si Si8 0.086129 0.896310 0.538708
O O1 0.775696 0.667801 0.236575
O O2 0.855831 0.681428 0.936512
O O3 0.709592 0.806333 0.993922
O O4 0.636177 0.630044 0.998032
O O5 0.259252 0.073076 0.738527
O O6 0.349563 0.164101 0.003884
O O7 0.380242 0.989767 0.961437
O O8 0.182761 0.036484 0.070816
O O9 0.543993 0.899432 0.098087
O O10 0.520947 0.871880 0.768631
O O11 0.315940 0.000352 0.421571
O O12 0.285437 0.374788 0.071880
O O13 0.072934 0.345906 0.974623
O O14 0.524162 0.697894 0.599835
O O15 0.086473 0.914071 0.322311
O O16 0.974941 0.009363 0.102891
#
# Coordination Sequence:
#
# PCOD9346439 Si02
#       8
#     4   4   4   4   4   4   4   4
#     4  10  26  46  71 108 156 199 257 312 395 467
#     4  11  22  46  74 109 149 193 248 318 386 453
#     4  11  24  43  71 112 148 194 254 317 379 458
#     4  12  25  44  79 108 150 203 251 322 383 462
#     4  11  25  46  74 112 144 199 256 312 386 458
#     4  12  26  44  78 111 149 194 257 320 382 462
#     4  10  26  47  74 105 152 205 249 318 391 464
#     4  11  28  46  73 109 154 201 258 319 390 468
#
# _framework density 25.074134999999998
#
# number of rings (size 3 to 8) (size 9 to 14) (size 15 to 20)
#    0.000    1.000    2.500    2.250   10.500    5.000 
#    0.000    0.000    0.000    0.000    0.000    0.000 
#    0.000    0.000    0.000    0.000    0.000    0.000 
#
# Total GULP energy -178723.169608 kJ/mol
# GULP energy per Si atom -5585.099050 kJ/mol
# Density = 2.501707 g / cm^3
# Si number density = 25.074135 Si / 1000 Ang^3
#
#
#
# Elastic Constant Matrix: (Units=GPa)
#
#
# Indices 1 2 3 4 5 6 
#
# 1 98.8270 40.0290 14.0610 0.0000 0.0000 0.0000
# 2 40.0290 120.4132 -13.0405 0.0000 0.0000 0.0000
# 3 14.0610 -13.0405 49.0280 0.0000 0.0000 0.0000
# 4 0.0000 0.0000 0.0000 19.4044 0.0000 0.0000
# 5 0.0000 0.0000 0.0000 0.0000 29.4957 0.0000
# 6 0.0000 0.0000 0.0000 0.0000 0.0000 33.7006
#
#
#
# Elastic Compliance Matrix: (Units=1/GPa)
#
#
# Indices 1 2 3 4 5 6 
#
# 1 0.012753 -0.004773 -0.004927 0.000000 0.000000 0.000000
# 2 -0.004773 0.010337 0.004118 0.000000 0.000000 0.000000
# 3 -0.004927 0.004118 0.022905 0.000000 0.000000 0.000000
# 4 0.000000 0.000000 0.000000 0.051535 0.000000 0.000000
# 5 0.000000 0.000000 0.000000 0.000000 0.033903 0.000000
# 6 0.000000 0.000000 0.000000 0.000000 0.000000 0.029673
#
#
# Mechanical properties :
#
#
# Convention : Reuss Voigt Hill
#
# Bulk Modulus (GPa) = 28.70908 38.92967 33.81938
# Shear Modulus (GPa) = 27.19155 31.66804 29.42980
#
# Velocity S-wave (km/s) = 3.29667 3.55769 3.42966
# Velocity P-wave (km/s) = 5.09561 5.69524 5.40375
#
# Compressibility (1/GPa) = 0.03483218
#
# Stress axis : x y z
#
# Youngs Moduli (GPa) = 78.41291 96.73544 43.65857
#
# Poissons Ratio (x) = 0.46173 0.21511
# Poissons Ratio (y) = 0.37427 -0.17981
# Poissons Ratio (z) = 0.38634 -0.39840
#
# Static dielectric constant tensor:
#      x y z
#    x 2.056040 0.000000 0.000000 
#    y 0.000000 1.980670 0.000000 
#    z 0.000000 0.000000 2.118760 
# 
# From -- ./inp_files/3987.got.cif
#   From: 2010.05.17/outbox.cif.g08.bks.cpg/sg33_2_cif.got.tgz:3987.got - 2010.06.03 17:15:25.
