data_PCOD9346037
_publ_section_title
;
Structure prediction by ZEFSAII (Michael W. Deem and Ramdas Pophale) SiO2 
 PCOD9346037
Probable space group: P N A 21
;
_chemical_formula_sum "Si O2"
_cell_formula_units_Z 28
_cell_length_a 18.539742
_cell_length_b 13.513100
_cell_length_c 5.167873
_cell_angle_alpha 90.000000
_cell_angle_beta 90.000000
_cell_angle_gamma 90.000000
_cell_volume 1294.704058
_symmetry_space_group_name_H-M "P N A 21"
_symmetry_group_IT_number 33
_symmetry_cell_setting 'orthorhombic'
loop_
_space_group_symop_operation_xyz
x,y,z
-x,-y,1/2+z
1/2-x,1/2+y,1/2+z
1/2+x,1/2-y,z
loop_
_atom_site_type_symbol
_atom_site_label
_atom_site_fract_x
_atom_site_fract_y
_atom_site_fract_z
Si Si1 0.245698 0.535420 0.140920
Si Si2 0.982999 0.558920 0.299681
Si Si3 0.355058 0.380960 0.266315
Si Si4 0.679610 0.055977 0.664997
Si Si5 0.276005 0.256648 0.634293
Si Si6 0.971378 0.053444 0.611340
Si Si7 0.563538 0.739789 0.373251
O O1 0.315976 0.466507 0.107671
O O2 0.205094 0.490858 0.392797
O O3 0.261195 0.651268 0.163980
O O4 0.197234 0.522349 0.888245
O O5 0.904260 0.580506 0.183551
O O6 0.976634 0.491394 0.556166
O O7 0.025476 0.655902 0.392760
O O8 0.297912 0.297156 0.349327
O O9 0.388643 0.438668 0.512501
O O10 0.419970 0.323031 0.130555
O O11 0.725515 0.154464 0.728820
O O12 0.355244 0.247339 0.762782
O O13 0.984520 0.166708 0.696703
O O14 0.015105 0.012068 0.366085
#
# Coordination Sequence:
#
# PCOD9346037 Si02
#       7
#     4   4   4   4   4   4   4
#     4  11  24  43  72  95 140 173 231 290 345 405
#     4  12  28  45  69 103 140 189 232 286 357 419
#     4  10  23  43  69 102 132 184 234 279 347 419
#     4  11  24  45  63 105 133 175 237 284 337 428
#     4  10  23  41  69  99 132 180 225 291 348 399
#     4  11  23  41  67  99 137 180 225 279 341 416
#     4  11  23  44  71  99 140 183 234 279 357 416
#
# _framework density 21.626562
#
# number of rings (size 3 to 8) (size 9 to 14) (size 15 to 20)
#    0.000    1.143    2.857    2.571    8.000    1.143 
#    0.000    0.000    3.143    0.000    0.000    0.000 
#    0.000    0.000    0.000    0.000    0.000    0.000 
#
# Total GULP energy -156262.199443 kJ/mol
# GULP energy per Si atom -5580.792837 kJ/mol
# Density = 2.157734 g / cm^3
# Si number density = 21.626562 Si / 1000 Ang^3
#
#
#
# Elastic Constant Matrix: (Units=GPa)
#
#
# Indices 1 2 3 4 5 6 
#
# 1 61.5319 40.3851 19.7902 0.0000 0.0000 0.0000
# 2 40.3851 138.2118 35.1689 0.0000 0.0000 0.0000
# 3 19.7902 35.1689 110.9371 0.0000 0.0000 0.0000
# 4 0.0000 0.0000 0.0000 30.2721 0.0000 0.0000
# 5 0.0000 0.0000 0.0000 0.0000 23.6796 0.0000
# 6 0.0000 0.0000 0.0000 0.0000 0.0000 31.2126
#
#
#
# Elastic Compliance Matrix: (Units=1/GPa)
#
#
# Indices 1 2 3 4 5 6 
#
# 1 0.020473 -0.005496 -0.001910 0.000000 0.000000 0.000000
# 2 -0.005496 0.009346 -0.001982 0.000000 0.000000 0.000000
# 3 -0.001910 -0.001982 0.009983 0.000000 0.000000 0.000000
# 4 0.000000 0.000000 0.000000 0.033034 0.000000 0.000000
# 5 0.000000 0.000000 0.000000 0.000000 0.042230 0.000000
# 6 0.000000 0.000000 0.000000 0.000000 0.000000 0.032038
#
#
# Mechanical properties :
#
#
# Convention : Reuss Voigt Hill
#
# Bulk Modulus (GPa) = 47.56136 55.70769 51.63453
# Shear Modulus (GPa) = 28.92013 31.38863 30.15438
#
# Velocity S-wave (km/s) = 3.66081 3.81385 3.73811
# Velocity P-wave (km/s) = 6.31732 6.72375 6.52370
#
# Compressibility (1/GPa) = 0.02102547
#
# Stress axis : x y z
#
# Youngs Moduli (GPa) = 48.84400 107.00147 100.16809
#
# Poissons Ratio (x) = 0.58811 0.19131
# Poissons Ratio (y) = 0.26846 0.19856
# Poissons Ratio (z) = 0.09329 0.21210
#
# Static dielectric constant tensor:
#      x y z
#    x 1.832290 0.000000 0.000000 
#    y 0.000000 1.701050 0.000000 
#    z 0.000000 0.000000 1.869240 
# 
# From -- ./inp_files/1730.got.cif
#   From: 2010.05.17/outbox.cif.g08.bks.cpg/sg33_1_cif.got.tgz:1730.got - 2010.06.03 17:15:25.
