data_PCOD9346190
_publ_section_title
;
Structure prediction by ZEFSAII (Michael W. Deem and Ramdas Pophale) SiO2 
 PCOD9346190
Probable space group: P N A 21
;
_chemical_formula_sum "Si O2"
_cell_formula_units_Z 28
_cell_length_a 9.633048
_cell_length_b 10.039070
_cell_length_c 12.240884
_cell_angle_alpha 90.000000
_cell_angle_beta 90.000000
_cell_angle_gamma 90.000000
_cell_volume 1183.777249
_symmetry_space_group_name_H-M "P N A 21"
_symmetry_group_IT_number 33
_symmetry_cell_setting 'orthorhombic'
loop_
_space_group_symop_operation_xyz
x,y,z
-x,-y,1/2+z
1/2-x,1/2+y,1/2+z
1/2+x,1/2-y,z
loop_
_atom_site_type_symbol
_atom_site_label
_atom_site_fract_x
_atom_site_fract_y
_atom_site_fract_z
Si Si1 0.550068 0.116773 0.250000
Si Si2 0.921870 0.881272 0.884950
Si Si3 0.487961 0.335118 0.929049
Si Si4 0.215081 0.278087 0.051559
Si Si5 0.631320 0.838752 0.244316
Si Si6 0.865692 0.746166 0.114117
Si Si7 0.253040 0.028487 0.178983
O O1 0.529326 0.246838 0.323763
O O2 0.660499 0.138668 0.153523
O O3 0.406404 0.085412 0.192880
O O4 0.596343 0.978149 0.304167
O O5 0.814950 0.945838 0.797372
O O6 0.019246 0.008289 0.910951
O O7 0.865277 0.823131 0.999594
O O8 0.403432 0.278984 0.826067
O O9 0.370612 0.319015 0.023229
O O10 0.611741 0.228848 0.948589
O O11 0.186657 0.127482 0.092428
O O12 0.789141 0.840218 0.202373
O O13 0.518215 0.808676 0.147521
O O14 0.766677 0.616865 0.127603
#
# Coordination Sequence:
#
# PCOD9346190 Si02
#       7
#     4   4   4   4   4   4   4
#     4  10  24  46  69 100 138 185 234 288 351 431
#     4  11  26  42  73 105 138 182 241 292 357 425
#     4  12  25  44  72 104 140 185 233 296 354 430
#     4  11  24  44  71  99 138 182 231 283 364 417
#     4  11  25  46  67  99 142 183 233 291 349 430
#     4  11  25  45  69 100 140 183 232 293 356 422
#     4  10  23  47  67 103 144 178 236 299 347 437
#
# _framework density 23.653098
#
# number of rings (size 3 to 8) (size 9 to 14) (size 15 to 20)
#    0.000    1.143    2.857    1.714    8.000    0.000 
#    7.714    0.000    0.000    0.000    0.000    0.000 
#    0.000    0.000    0.000    0.000    0.000    0.000 
#
# Total GULP energy -156186.036796 kJ/mol
# GULP energy per Si atom -5578.072743 kJ/mol
# Density = 2.359926 g / cm^3
# Si number density = 23.653098 Si / 1000 Ang^3
#
#
#
# Elastic Constant Matrix: (Units=GPa)
#
#
# Indices 1 2 3 4 5 6 
#
# 1 49.8651 1.6825 -22.1635 0.0000 0.0000 0.0000
# 2 1.6825 163.0069 26.2036 0.0000 0.0000 0.0000
# 3 -22.1635 26.2036 46.9476 0.0000 0.0000 0.0000
# 4 0.0000 0.0000 0.0000 11.9580 0.0000 0.0000
# 5 0.0000 0.0000 0.0000 0.0000 21.1224 0.0000
# 6 0.0000 0.0000 0.0000 0.0000 0.0000 29.9114
#
#
#
# Elastic Compliance Matrix: (Units=1/GPa)
#
#
# Indices 1 2 3 4 5 6 
#
# 1 0.026267 -0.002488 0.013789 0.000000 0.000000 0.000000
# 2 -0.002488 0.006975 -0.005067 0.000000 0.000000 0.000000
# 3 0.013789 -0.005067 0.030638 0.000000 0.000000 0.000000
# 4 0.000000 0.000000 0.000000 0.083626 0.000000 0.000000
# 5 0.000000 0.000000 0.000000 0.000000 0.047343 0.000000
# 6 0.000000 0.000000 0.000000 0.000000 0.000000 0.033432
#
#
# Mechanical properties :
#
#
# Convention : Reuss Voigt Hill
#
# Bulk Modulus (GPa) = 13.09806 30.14053 21.61930
# Shear Modulus (GPa) = 20.72429 29.53816 25.13123
#
# Velocity S-wave (km/s) = 2.96324 3.53768 3.26312
# Velocity P-wave (km/s) = 4.15419 5.42746 4.83294
#
# Compressibility (1/GPa) = 0.07634717
#
# Stress axis : x y z
#
# Youngs Moduli (GPa) = 38.07098 143.36938 32.63893
#
# Poissons Ratio (x) = 0.35666 -0.45005
# Poissons Ratio (y) = 0.09471 0.16540
# Poissons Ratio (z) = -0.52495 0.72652
#
# Static dielectric constant tensor:
#      x y z
#    x 1.927050 0.000000 0.000000 
#    y 0.000000 2.009570 0.000000 
#    z 0.000000 0.000000 2.000490 
# 
# From -- ./inp_files/6341.got.cif
#   From: 2010.05.17/outbox.cif.g08.bks.cpg/sg33_4_cif.got.tgz:6341.got - 2010.06.03 17:15:25.
