data_PCOD9346768
_publ_section_title
;
Structure prediction by ZEFSAII (Michael W. Deem and Ramdas Pophale) SiO2 
 PCOD9346768
Probable space group: P N A 21
;
_chemical_formula_sum "Si O2"
_cell_formula_units_Z 28
_cell_length_a 21.634438
_cell_length_b 6.682529
_cell_length_c 7.908324
_cell_angle_alpha 90.000000
_cell_angle_beta 90.000000
_cell_angle_gamma 90.000000
_cell_volume 1143.328222
_symmetry_space_group_name_H-M "P N A 21"
_symmetry_group_IT_number 33
_symmetry_cell_setting 'orthorhombic'
loop_
_space_group_symop_operation_xyz
x,y,z
-x,-y,1/2+z
1/2-x,1/2+y,1/2+z
1/2+x,1/2-y,z
loop_
_atom_site_type_symbol
_atom_site_label
_atom_site_fract_x
_atom_site_fract_y
_atom_site_fract_z
Si Si1 0.140527 0.147451 0.432270
Si Si2 0.134285 0.470287 0.185028
Si Si3 0.691540 0.025642 0.661733
Si Si4 0.469127 0.474948 0.150648
Si Si5 0.250794 0.356450 0.004007
Si Si6 0.964650 0.302922 0.841691
Si Si7 0.070715 0.620400 0.842610
O O1 0.122840 0.242576 0.251063
O O2 0.181871 0.323311 0.510253
O O3 0.082261 0.107031 0.553071
O O4 0.184811 0.958333 0.452408
O O5 0.104553 0.614266 0.326396
O O6 0.205708 0.482564 0.129278
O O7 0.095953 0.544300 0.022365
O O8 0.714303 0.146337 0.826881
O O9 0.736583 0.850103 0.600287
O O10 0.626173 0.930965 0.715180
O O11 0.521824 0.625123 0.209973
O O12 0.444056 0.354259 0.314666
O O13 0.481703 0.296784 0.019738
O O14 0.010270 0.487381 0.808482
#
# Coordination Sequence:
#
# PCOD9346768 Si02
#       7
#     4   4   4   4   4   4   4
#     4  12  26  46  72 108 147 197 255 312 384 462
#     4  11  27  47  74 107 151 197 250 318 383 452
#     4  11  24  46  72 106 150 197 250 322 381 456
#     4  12  27  46  76 111 155 205 251 316 399 462
#     4  11  25  48  71 106 146 197 256 313 387 459
#     4  12  27  46  76 113 154 197 255 314 386 476
#     4  11  24  49  73 107 153 196 251 321 378 467
#
# _framework density 24.489906999999999
#
# number of rings (size 3 to 8) (size 9 to 14) (size 15 to 20)
#    0.000    0.571    4.286    2.571    8.000    0.000 
#    0.000    0.000    0.000    0.000    0.000    0.000 
#    0.000    0.000    0.000    0.000    0.000    0.000 
#
# Total GULP energy -156668.754812 kJ/mol
# GULP energy per Si atom -5595.312672 kJ/mol
# Density = 2.443417 g / cm^3
# Si number density = 24.489907 Si / 1000 Ang^3
#
#
#
# Elastic Constant Matrix: (Units=GPa)
#
#
# Indices 1 2 3 4 5 6 
#
# 1 83.7481 52.3628 24.9546 0.0000 0.0000 0.0000
# 2 52.3628 86.3708 31.7542 0.0000 0.0000 0.0000
# 3 24.9546 31.7542 116.6549 0.0000 0.0000 0.0000
# 4 0.0000 0.0000 0.0000 55.8694 0.0000 0.0000
# 5 0.0000 0.0000 0.0000 0.0000 33.0035 0.0000
# 6 0.0000 0.0000 0.0000 0.0000 0.0000 37.9947
#
#
#
# Elastic Compliance Matrix: (Units=1/GPa)
#
#
# Indices 1 2 3 4 5 6 
#
# 1 0.019345 -0.011342 -0.001051 0.000000 0.000000 0.000000
# 2 -0.011342 0.019515 -0.002886 0.000000 0.000000 0.000000
# 3 -0.001051 -0.002886 0.009583 0.000000 0.000000 0.000000
# 4 0.000000 0.000000 0.000000 0.017899 0.000000 0.000000
# 5 0.000000 0.000000 0.000000 0.000000 0.030300 0.000000
# 6 0.000000 0.000000 0.000000 0.000000 0.000000 0.026319
#
#
# Mechanical properties :
#
#
# Convention : Reuss Voigt Hill
#
# Bulk Modulus (GPa) = 55.91101 56.10189 56.00645
# Shear Modulus (GPa) = 31.35199 37.22034 34.28616
#
# Velocity S-wave (km/s) = 3.58187 3.90272 3.74573
# Velocity P-wave (km/s) = 6.32346 6.57771 6.45184
#
# Compressibility (1/GPa) = 0.01788556
#
# Stress axis : x y z
#
# Youngs Moduli (GPa) = 51.69299 51.24292 104.35499
#
# Poissons Ratio (x) = 0.58118 0.10968
# Poissons Ratio (y) = 0.58628 0.30116
# Poissons Ratio (z) = 0.05433 0.14788
#
# Static dielectric constant tensor:
#      x y z
#    x 1.917220 0.000000 0.000000 
#    y 0.000000 1.947010 0.000000 
#    z 0.000000 0.000000 2.040480 
# 
# From -- ./inp_files/5171.got.cif
#   From: 2010.05.17/outbox.cif.g08.bks.cpg/sg33_3_cif.got.tgz:5171.got - 2010.06.03 17:15:25.
