data_PCOD9346607
_publ_section_title
;
Structure prediction by ZEFSAII (Michael W. Deem and Ramdas Pophale) SiO2 
 PCOD9346607
Probable space group: P N A 21
;
_chemical_formula_sum "Si O2"
_cell_formula_units_Z 32
_cell_length_a 9.941779
_cell_length_b 11.859128
_cell_length_c 11.471864
_cell_angle_alpha 90.000000
_cell_angle_beta 90.000000
_cell_angle_gamma 90.000000
_cell_volume 1352.542284
_symmetry_space_group_name_H-M "P N A 21"
_symmetry_group_IT_number 33
_symmetry_cell_setting 'orthorhombic'
loop_
_space_group_symop_operation_xyz
x,y,z
-x,-y,1/2+z
1/2-x,1/2+y,1/2+z
1/2+x,1/2-y,z
loop_
_atom_site_type_symbol
_atom_site_label
_atom_site_fract_x
_atom_site_fract_y
_atom_site_fract_z
Si Si1 0.332786 0.227685 0.411050
Si Si2 0.050325 0.970615 0.176368
Si Si3 0.290324 0.935737 0.004810
Si Si4 0.252920 0.991473 0.377187
Si Si5 0.068128 0.781527 0.680037
Si Si6 0.944818 0.456891 0.803198
Si Si7 0.160145 0.367309 0.110983
Si Si8 0.491658 0.774637 0.139781
O O1 0.263075 0.347846 0.409306
O O2 0.443922 0.230680 0.309912
O O3 0.401428 0.217124 0.535821
O O4 0.231791 0.124281 0.398563
O O5 0.163263 0.982252 0.075165
O O6 0.133369 0.950928 0.295423
O O7 0.962770 0.857950 0.154727
O O8 0.971798 0.087431 0.180138
O O9 0.374074 0.856851 0.094098
O O10 0.378503 0.021857 0.929474
O O11 0.397723 0.987248 0.314115
O O12 0.279091 0.923760 0.495318
O O13 0.226166 0.779665 0.653329
O O14 0.974772 0.706660 0.597601
O O15 0.875770 0.534222 0.703540
O O16 0.945248 0.329557 0.755277
#
# Coordination Sequence:
#
# PCOD9346607 Si02
#       8
#     4   4   4   4   4   4   4   4
#     4  11  23  41  74 100 141 193 245 307 373 461
#     4  11  29  44  69 113 154 195 249 318 375 456
#     4  11  23  45  73 105 141 201 246 311 379 451
#     4  12  25  43  73 107 153 193 250 316 382 449
#     4  12  27  49  76 114 152 197 263 308 382 456
#     4  12  22  45  77 109 140 196 258 310 378 453
#     4  12  27  47  77 115 145 207 253 323 378 455
#     4  11  24  44  71 105 148 196 248 307 383 453
#
# _framework density 23.659147999999998
#
# number of rings (size 3 to 8) (size 9 to 14) (size 15 to 20)
#    0.000    0.500    6.250    0.750    3.500    3.000 
#    0.000    0.000    0.000    0.000    0.000    0.000 
#    0.000    0.000    0.000    0.000    0.000    0.000 
#
# Total GULP energy -179057.928502 kJ/mol
# GULP energy per Si atom -5595.560266 kJ/mol
# Density = 2.360530 g / cm^3
# Si number density = 23.659148 Si / 1000 Ang^3
#
#
#
# Elastic Constant Matrix: (Units=GPa)
#
#
# Indices 1 2 3 4 5 6 
#
# 1 49.1860 -2.2078 7.0240 0.0000 0.0000 0.0000
# 2 -2.2078 101.8850 30.5917 0.0000 0.0000 0.0000
# 3 7.0240 30.5917 81.4183 0.0000 0.0000 0.0000
# 4 0.0000 0.0000 0.0000 41.8236 0.0000 0.0000
# 5 0.0000 0.0000 0.0000 0.0000 29.6080 0.0000
# 6 0.0000 0.0000 0.0000 0.0000 0.0000 21.5778
#
#
#
# Elastic Compliance Matrix: (Units=1/GPa)
#
#
# Indices 1 2 3 4 5 6 
#
# 1 0.020695 0.001110 -0.002202 0.000000 0.000000 0.000000
# 2 0.001110 0.011123 -0.004275 0.000000 0.000000 0.000000
# 3 -0.002202 -0.004275 0.014078 0.000000 0.000000 0.000000
# 4 0.000000 0.000000 0.000000 0.023910 0.000000 0.000000
# 5 0.000000 0.000000 0.000000 0.000000 0.033775 0.000000
# 6 0.000000 0.000000 0.000000 0.000000 0.000000 0.046344
#
#
# Mechanical properties :
#
#
# Convention : Reuss Voigt Hill
#
# Bulk Modulus (GPa) = 28.44032 33.70056 31.07044
# Shear Modulus (GPa) = 29.00563 31.74065 30.37314
#
# Velocity S-wave (km/s) = 3.50520 3.66673 3.58687
# Velocity P-wave (km/s) = 5.33187 5.67465 5.50593
#
# Compressibility (1/GPa) = 0.03516135
#
# Stress axis : x y z
#
# Youngs Moduli (GPa) = 48.32014 89.90704 71.03043
#
# Poissons Ratio (x) = -0.09977 0.15643
# Poissons Ratio (y) = -0.05362 0.30365
# Poissons Ratio (z) = 0.10642 0.38434
#
# Static dielectric constant tensor:
#      x y z
#    x 1.984790 0.000000 0.000000 
#    y 0.000000 1.905580 0.000000 
#    z 0.000000 0.000000 1.937770 
# 
# From -- ./inp_files/6457.got.cif
#   From: 2010.05.17/outbox.cif.g08.bks.cpg/sg33_4_cif.got.tgz:6457.got - 2010.06.03 17:15:25.
