data_PCOD9346031
_publ_section_title
;
Structure prediction by ZEFSAII (Michael W. Deem and Ramdas Pophale) SiO2 
 PCOD9346031
Probable space group: P N A 21
;
_chemical_formula_sum "Si O2"
_cell_formula_units_Z 32
_cell_length_a 32.093451
_cell_length_b 7.991721
_cell_length_c 5.441820
_cell_angle_alpha 90.000000
_cell_angle_beta 90.000000
_cell_angle_gamma 90.000000
_cell_volume 1395.728367
_symmetry_space_group_name_H-M "P N A 21"
_symmetry_group_IT_number 33
_symmetry_cell_setting 'orthorhombic'
loop_
_space_group_symop_operation_xyz
x,y,z
-x,-y,1/2+z
1/2-x,1/2+y,1/2+z
1/2+x,1/2-y,z
loop_
_atom_site_type_symbol
_atom_site_label
_atom_site_fract_x
_atom_site_fract_y
_atom_site_fract_z
Si Si1 0.138117 0.346461 0.683840
Si Si2 0.780954 0.726763 0.951592
Si Si3 0.034128 0.705531 0.969667
Si Si4 0.763814 0.331683 0.955731
Si Si5 0.644555 0.781353 0.460097
Si Si6 0.942025 0.724386 0.973596
Si Si7 0.890585 0.508891 0.582454
Si Si8 0.440984 0.387894 0.978487
O O1 0.170619 0.246762 0.523824
O O2 0.138476 0.543315 0.606938
O O3 0.091545 0.273894 0.692214
O O4 0.145676 0.373146 0.971317
O O5 0.775246 0.526807 0.938702
O O6 0.756466 0.784121 0.196222
O O7 0.764022 0.802915 0.698556
O O8 0.037133 0.823317 0.728306
O O9 0.986952 0.640245 0.995090
O O10 0.070242 0.569029 0.934678
O O11 0.044361 0.790456 0.233244
O O12 0.807613 0.231814 0.987979
O O13 0.608236 0.651021 0.519515
O O14 0.633765 0.848170 0.187699
O O15 0.914680 0.621852 0.779790
O O16 0.949504 0.918845 0.925480
#
# Coordination Sequence:
#
# PCOD9346031 Si02
#       8
#     4   4   4   4   4   4   4   4
#     4  10  23  43  66  93 135 178 222 276 337 399
#     4  11  26  44  71  98 140 169 227 273 348 395
#     4  11  25  43  66  94 139 177 230 266 345 401
#     4  11  25  44  72 102 132 179 220 284 329 418
#     4   9  22  43  68  91 131 178 225 254 349 408
#     4  11  26  38  67 100 132 174 230 288 326 390
#     4  10  23  41  68  94 129 184 222 282 323 411
#     4  11  24  44  64  98 136 179 214 283 341 398
#
# _framework density 22.927095000000001
#
# number of rings (size 3 to 8) (size 9 to 14) (size 15 to 20)
#    0.000    1.500    1.250    1.500   14.000    2.000 
#    0.000    0.000    0.000    0.000    0.000    0.000 
#    0.000    0.000    0.000    0.000    0.000    0.000 
#
# Total GULP energy -178417.813064 kJ/mol
# GULP energy per Si atom -5575.556658 kJ/mol
# Density = 2.287491 g / cm^3
# Si number density = 22.927095 Si / 1000 Ang^3
#
#
#
# Elastic Constant Matrix: (Units=GPa)
#
#
# Indices 1 2 3 4 5 6 
#
# 1 105.3447 -0.5878 36.8393 0.0000 0.0000 0.0000
# 2 -0.5878 36.2456 13.5583 0.0000 0.0000 0.0000
# 3 36.8393 13.5583 73.9821 0.0000 0.0000 0.0000
# 4 0.0000 0.0000 0.0000 19.5844 0.0000 0.0000
# 5 0.0000 0.0000 0.0000 0.0000 26.2351 0.0000
# 6 0.0000 0.0000 0.0000 0.0000 0.0000 27.5593
#
#
#
# Elastic Compliance Matrix: (Units=1/GPa)
#
#
# Indices 1 2 3 4 5 6 
#
# 1 0.011709 0.002545 -0.006297 0.000000 0.000000 0.000000
# 2 0.002545 0.030173 -0.006797 0.000000 0.000000 0.000000
# 3 -0.006297 -0.006797 0.017898 0.000000 0.000000 0.000000
# 4 0.000000 0.000000 0.000000 0.051061 0.000000 0.000000
# 5 0.000000 0.000000 0.000000 0.000000 0.038117 0.000000
# 6 0.000000 0.000000 0.000000 0.000000 0.000000 0.036285
#
#
# Mechanical properties :
#
#
# Convention : Reuss Voigt Hill
#
# Bulk Modulus (GPa) = 25.85123 35.02134 30.43628
# Shear Modulus (GPa) = 22.80653 25.72659 24.26656
#
# Velocity S-wave (km/s) = 3.15737 3.35342 3.25687
# Velocity P-wave (km/s) = 4.95902 5.50474 5.23899
#
# Compressibility (1/GPa) = 0.03868288
#
# Stress axis : x y z
#
# Youngs Moduli (GPa) = 85.40520 33.14173 55.87216
#
# Poissons Ratio (x) = -0.08436 0.35182
# Poissons Ratio (y) = -0.21738 0.37977
# Poissons Ratio (z) = 0.53779 0.22527
#
# Static dielectric constant tensor:
#      x y z
#    x 1.922940 0.000000 0.000000 
#    y 0.000000 1.849930 0.000000 
#    z 0.000000 0.000000 2.216130 
# 
# From -- ./inp_files/2514.got.cif
#   From: 2010.05.17/outbox.cif.g08.bks.cpg/sg33_2_cif.got.tgz:2514.got - 2010.06.03 17:15:25.
