data_PCOD9346595
_publ_section_title
;
Structure prediction by ZEFSAII (Michael W. Deem and Ramdas Pophale) SiO2 
 PCOD9346595
Probable space group: P N A 21
;
_chemical_formula_sum "Si O2"
_cell_formula_units_Z 16
_cell_length_a 9.668398
_cell_length_b 7.693701
_cell_length_c 7.879120
_cell_angle_alpha 90.000000
_cell_angle_beta 90.000000
_cell_angle_gamma 90.000000
_cell_volume 586.094356
_symmetry_space_group_name_H-M "P N A 21"
_symmetry_group_IT_number 33
_symmetry_cell_setting 'orthorhombic'
loop_
_space_group_symop_operation_xyz
x,y,z
-x,-y,1/2+z
1/2-x,1/2+y,1/2+z
1/2+x,1/2-y,z
loop_
_atom_site_type_symbol
_atom_site_label
_atom_site_fract_x
_atom_site_fract_y
_atom_site_fract_z
Si Si1 0.579895 0.760327 0.521750
Si Si2 0.836013 0.935164 0.606016
Si Si3 0.807545 0.791753 0.983515
Si Si4 0.450465 0.099236 0.653306
O O1 0.743792 0.780056 0.526068
O O2 0.498100 0.589447 0.572633
O O3 0.533626 0.814999 0.335350
O O4 0.519181 0.910118 0.645494
O O5 0.810924 0.897799 0.806433
O O6 0.776482 0.106657 0.514156
O O7 0.710965 0.904947 0.107848
O O8 0.958452 0.718999 0.028729
#
# Coordination Sequence:
#
# PCOD9346595 Si02
#       4
#     4   4   4   4
#     4  11  23  41  64  95 132 175 224 283 341 404
#     4  11  24  43  67  99 135 177 226 283 342 408
#     4  11  24  43  67  99 135 177 226 283 342 408
#     4  11  23  41  64  95 132 175 224 283 341 404
#
# _framework density 27.299358000000002
#
# number of rings (size 3 to 8) (size 9 to 14) (size 15 to 20)
#    0.000    1.000    0.000    9.000    0.000    6.000 
#    0.000    0.000    0.000    0.000    0.000    0.000 
#    0.000    0.000    0.000    0.000    0.000    0.000 
#
# Total GULP energy -89508.332371 kJ/mol
# GULP energy per Si atom -5594.270773 kJ/mol
# Density = 2.723722 g / cm^3
# Si number density = 27.299358 Si / 1000 Ang^3
#
#
#
# Elastic Constant Matrix: (Units=GPa)
#
#
# Indices 1 2 3 4 5 6 
#
# 1 126.9860 7.4790 12.1788 0.0000 0.0000 0.0000
# 2 7.4790 119.3931 -26.1760 0.0000 0.0000 0.0000
# 3 12.1788 -26.1760 122.1587 0.0000 0.0000 0.0000
# 4 0.0000 0.0000 0.0000 -4.5495 0.0000 0.0000
# 5 0.0000 0.0000 0.0000 0.0000 39.0141 0.0000
# 6 0.0000 0.0000 0.0000 0.0000 0.0000 54.1172
#
#
#
# Elastic Compliance Matrix: (Units=1/GPa)
#
#
# Indices 1 2 3 4 5 6 
#
# 1 0.008008 -0.000710 -0.000950 0.000000 0.000000 0.000000
# 2 -0.000710 0.008852 0.001967 0.000000 0.000000 0.000000
# 3 -0.000950 0.001967 0.008702 0.000000 0.000000 0.000000
# 4 0.000000 0.000000 0.000000 -0.219804 0.000000 0.000000
# 5 0.000000 0.000000 0.000000 0.000000 0.025632 0.000000
# 6 0.000000 0.000000 0.000000 0.000000 0.000000 0.018478
#
#
# Mechanical properties :
#
#
# Convention : Reuss Voigt Hill
#
# Bulk Modulus (GPa) = 38.20332 39.50016 38.85174
# Shear Modulus (GPa) = -35.20606 42.72009 3.75702
#
# Velocity S-wave (km/s) = -3.59504 3.96014 1.17440
# Velocity P-wave (km/s) = 1.79103 5.95071 4.01268
#
# Compressibility (1/GPa) = 0.02617574
#
# Stress axis : x y z
#
# Youngs Moduli (GPa) = 124.87732 112.97489 114.91054
#
# Poissons Ratio (x) = 0.08021 0.10922
# Poissons Ratio (y) = 0.08866 -0.22608
# Poissons Ratio (z) = 0.11870 -0.22228
#
# Static dielectric constant tensor:
#      x y z
#    x 2.103670 0.000000 0.000000 
#    y 0.000000 2.238720 0.000000 
#    z 0.000000 0.000000 2.118850 
# 
# From -- ./inp_files/2909.got.cif
#   From: 2010.05.17/outbox.cif.g08.bks.cpg/sg33_2_cif.got.tgz:2909.got - 2010.06.03 17:15:25.
