data_PCOD9346631
_publ_section_title
;
Structure prediction by ZEFSAII (Michael W. Deem and Ramdas Pophale) SiO2 
 PCOD9346631
Probable space group: P N A 21
;
_chemical_formula_sum "Si O2"
_cell_formula_units_Z 28
_cell_length_a 7.633667
_cell_length_b 16.827682
_cell_length_c 8.377709
_cell_angle_alpha 90.000000
_cell_angle_beta 90.000000
_cell_angle_gamma 90.000000
_cell_volume 1076.174701
_symmetry_space_group_name_H-M "P N A 21"
_symmetry_group_IT_number 33
_symmetry_cell_setting 'orthorhombic'
loop_
_space_group_symop_operation_xyz
x,y,z
-x,-y,1/2+z
1/2-x,1/2+y,1/2+z
1/2+x,1/2-y,z
loop_
_atom_site_type_symbol
_atom_site_label
_atom_site_fract_x
_atom_site_fract_y
_atom_site_fract_z
Si Si1 0.101800 0.433009 0.517250
Si Si2 0.807909 0.478869 0.713556
Si Si3 0.170318 0.679953 0.361859
Si Si4 0.045137 0.147210 0.367215
Si Si5 0.241552 0.269941 0.538940
Si Si6 0.399307 0.469111 0.776139
Si Si7 0.476870 0.332058 0.013515
O O1 0.747710 0.535958 0.139502
O O2 0.092124 0.337663 0.535973
O O3 0.160684 0.450382 0.336558
O O4 0.922691 0.479915 0.554781
O O5 0.900284 0.402607 0.797950
O O6 0.599868 0.462393 0.707059
O O7 0.249497 0.725900 0.208002
O O8 0.318954 0.652710 0.484892
O O9 0.053223 0.743934 0.449061
O O10 0.207948 0.205134 0.401848
O O11 0.913633 0.177149 0.505282
O O12 0.947450 0.162934 0.200245
O O13 0.099035 0.055826 0.356695
O O14 0.380201 0.397935 0.905171
#
# Coordination Sequence:
#
# PCOD9346631 Si02
#       7
#     4   4   4   4   4   4   4
#     4  12  26  50  74 113 153 205 261 324 393 469
#     4  11  27  45  75 111 150 199 259 322 387 460
#     4  11  23  44  70 103 144 196 251 304 388 463
#     4  12  27  45  75 109 154 192 261 327 388 461
#     4  12  26  48  73 112 152 200 257 319 399 460
#     4  11  25  49  77 109 150 206 262 318 393 466
#     4  11  24  43  74 105 145 200 255 314 384 463
#
# _framework density 26.018082
#
# number of rings (size 3 to 8) (size 9 to 14) (size 15 to 20)
#    0.000    0.571    2.857    5.143    2.000    5.714 
#    0.000    0.000    0.000    0.000    0.000    0.000 
#    0.000    0.000    0.000    0.000    0.000    0.000 
#
# Total GULP energy -156899.974195 kJ/mol
# GULP energy per Si atom -5603.570507 kJ/mol
# Density = 2.595886 g / cm^3
# Si number density = 26.018082 Si / 1000 Ang^3
#
#
#
# Elastic Constant Matrix: (Units=GPa)
#
#
# Indices 1 2 3 4 5 6 
#
# 1 104.4031 5.7031 21.9149 0.0000 0.0000 0.0000
# 2 5.7031 123.8438 12.1536 0.0000 0.0000 0.0000
# 3 21.9149 12.1536 92.1586 0.0000 0.0000 0.0000
# 4 0.0000 0.0000 0.0000 40.4712 0.0000 0.0000
# 5 0.0000 0.0000 0.0000 0.0000 46.9680 0.0000
# 6 0.0000 0.0000 0.0000 0.0000 0.0000 38.4078
#
#
#
# Elastic Compliance Matrix: (Units=1/GPa)
#
#
# Indices 1 2 3 4 5 6 
#
# 1 0.010088 -0.000232 -0.002368 0.000000 0.000000 0.000000
# 2 -0.000232 0.008186 -0.001024 0.000000 0.000000 0.000000
# 3 -0.002368 -0.001024 0.011549 0.000000 0.000000 0.000000
# 4 0.000000 0.000000 0.000000 0.024709 0.000000 0.000000
# 5 0.000000 0.000000 0.000000 0.000000 0.021291 0.000000
# 6 0.000000 0.000000 0.000000 0.000000 0.000000 0.026036
#
#
# Mechanical properties :
#
#
# Convention : Reuss Voigt Hill
#
# Bulk Modulus (GPa) = 44.29962 44.43875 44.36918
# Shear Modulus (GPa) = 42.86933 43.87833 43.37383
#
# Velocity S-wave (km/s) = 4.06356 4.11110 4.08740
# Velocity P-wave (km/s) = 6.25141 6.29698 6.27423
#
# Compressibility (1/GPa) = 0.02257356
#
# Stress axis : x y z
#
# Youngs Moduli (GPa) = 99.12715 122.16128 86.58672
#
# Poissons Ratio (x) = 0.02836 0.20506
# Poissons Ratio (y) = 0.02301 0.08869
# Poissons Ratio (z) = 0.23476 0.12513
#
# Static dielectric constant tensor:
#      x y z
#    x 2.095890 0.000000 0.000000 
#    y 0.000000 2.033400 0.000000 
#    z 0.000000 0.000000 2.027760 
# 
# From -- ./inp_files/3378.got.cif
#   From: 2010.05.17/outbox.cif.g08.bks.cpg/sg33_2_cif.got.tgz:3378.got - 2010.06.03 17:15:25.
