data_PCOD9346441
_publ_section_title
;
Structure prediction by ZEFSAII (Michael W. Deem and Ramdas Pophale) SiO2 
 PCOD9346441
Probable space group: P N A 21
;
_chemical_formula_sum "Si O2"
_cell_formula_units_Z 32
_cell_length_a 10.612217
_cell_length_b 11.992275
_cell_length_c 10.056301
_cell_angle_alpha 90.000000
_cell_angle_beta 90.000000
_cell_angle_gamma 90.000000
_cell_volume 1279.811372
_symmetry_space_group_name_H-M "P N A 21"
_symmetry_group_IT_number 33
_symmetry_cell_setting 'orthorhombic'
loop_
_space_group_symop_operation_xyz
x,y,z
-x,-y,1/2+z
1/2-x,1/2+y,1/2+z
1/2+x,1/2-y,z
loop_
_atom_site_type_symbol
_atom_site_label
_atom_site_fract_x
_atom_site_fract_y
_atom_site_fract_z
Si Si1 0.714934 0.712831 0.475970
Si Si2 0.998118 0.564948 0.938667
Si Si3 0.267198 0.052754 0.086008
Si Si4 0.551132 0.712662 0.221971
Si Si5 0.878900 0.599678 0.275947
Si Si6 0.887532 0.985770 0.330369
Si Si7 0.225069 0.031206 0.564834
Si Si8 0.003162 0.184238 0.447962
O O1 0.716567 0.812687 0.582665
O O2 0.640780 0.750836 0.341809
O O3 0.846073 0.672116 0.408071
O O4 0.672878 0.592926 0.530782
O O5 0.136239 0.555398 0.008233
O O6 0.967598 0.691432 0.903434
O O7 0.890537 0.503981 0.021450
O O8 0.018501 0.492663 0.807356
O O9 0.263207 0.975704 0.219345
O O10 0.155626 0.038097 0.980238
O O11 0.443064 0.804521 0.190422
O O12 0.489081 0.601961 0.279775
O O13 0.596950 0.691689 0.071982
O O14 0.943233 0.109257 0.333463
O O15 0.777039 0.967460 0.224324
O O16 0.125318 0.118363 0.503128
#
# Coordination Sequence:
#
# PCOD9346441 Si02
#       8
#     4   4   4   4   4   4   4   4
#     4  11  23  45  69  96 141 181 232 293 355 425
#     4  11  26  42  67 103 140 179 231 296 355 410
#     4  12  25  41  74 101 132 188 236 284 366 427
#     4  11  21  42  69  95 138 179 228 291 343 423
#     4  11  24  44  65 105 136 184 235 292 356 426
#     4  11  25  42  69 101 129 187 237 279 354 422
#     4  10  26  47  67 101 144 182 232 298 349 420
#     4  11  24  43  70  98 138 186 227 287 352 425
#
# _framework density 25.003686999999999
#
# number of rings (size 3 to 8) (size 9 to 14) (size 15 to 20)
#    0.000    1.000    5.000    0.750    7.000    0.000 
#    0.000    0.000    0.000    0.000    0.000    0.000 
#    0.000    0.000    0.000    0.000    0.000    0.000 
#
# Total GULP energy -178696.196185 kJ/mol
# GULP energy per Si atom -5584.256131 kJ/mol
# Density = 2.494678 g / cm^3
# Si number density = 25.003687 Si / 1000 Ang^3
#
#
#
# Elastic Constant Matrix: (Units=GPa)
#
#
# Indices 1 2 3 4 5 6 
#
# 1 62.7945 32.3903 -1.2071 0.0000 0.0000 0.0000
# 2 32.3903 224.7427 23.5921 0.0000 0.0000 0.0000
# 3 -1.2071 23.5921 44.1858 0.0000 0.0000 0.0000
# 4 0.0000 0.0000 0.0000 42.6736 0.0000 0.0000
# 5 0.0000 0.0000 0.0000 0.0000 38.2759 0.0000
# 6 0.0000 0.0000 0.0000 0.0000 0.0000 27.0356
#
#
#
# Elastic Compliance Matrix: (Units=1/GPa)
#
#
# Indices 1 2 3 4 5 6 
#
# 1 0.017356 -0.002703 0.001917 0.000000 0.000000 0.000000
# 2 -0.002703 0.005135 -0.002815 0.000000 0.000000 0.000000
# 3 0.001917 -0.002815 0.024187 0.000000 0.000000 0.000000
# 4 0.000000 0.000000 0.000000 0.023434 0.000000 0.000000
# 5 0.000000 0.000000 0.000000 0.000000 0.026126 0.000000
# 6 0.000000 0.000000 0.000000 0.000000 0.000000 0.036988
#
#
# Mechanical properties :
#
#
# Convention : Reuss Voigt Hill
#
# Bulk Modulus (GPa) = 25.33178 49.03040 37.18109
# Shear Modulus (GPa) = 32.55503 40.06020 36.30762
#
# Velocity S-wave (km/s) = 3.61225 4.00706 3.81476
# Velocity P-wave (km/s) = 5.24891 6.40785 5.85711
#
# Compressibility (1/GPa) = 0.03947610
#
# Stress axis : x y z
#
# Youngs Moduli (GPa) = 57.61746 194.75813 41.34402
#
# Poissons Ratio (x) = 0.52635 -0.07926
# Poissons Ratio (y) = 0.15572 0.11640
# Poissons Ratio (z) = -0.11046 0.54831
#
# Static dielectric constant tensor:
#      x y z
#    x 2.025730 0.000000 0.000000 
#    y 0.000000 2.012780 0.000000 
#    z 0.000000 0.000000 2.116470 
# 
# From -- ./inp_files/6462.got.cif
#   From: 2010.05.17/outbox.cif.g08.bks.cpg/sg33_4_cif.got.tgz:6462.got - 2010.06.03 17:15:25.
