data_PCOD9346948
_publ_section_title
;
Structure prediction by ZEFSAII (Michael W. Deem and Ramdas Pophale) SiO2 
 PCOD9346948
Probable space group: P N A 21
;
_chemical_formula_sum "Si O2"
_cell_formula_units_Z 20
_cell_length_a 12.503372
_cell_length_b 13.123416
_cell_length_c 4.751493
_cell_angle_alpha 90.000000
_cell_angle_beta 90.000000
_cell_angle_gamma 90.000000
_cell_volume 779.658005
_symmetry_space_group_name_H-M "P N A 21"
_symmetry_group_IT_number 33
_symmetry_cell_setting 'orthorhombic'
loop_
_space_group_symop_operation_xyz
x,y,z
-x,-y,1/2+z
1/2-x,1/2+y,1/2+z
1/2+x,1/2-y,z
loop_
_atom_site_type_symbol
_atom_site_label
_atom_site_fract_x
_atom_site_fract_y
_atom_site_fract_z
Si Si1 0.573857 0.254206 0.089240
Si Si2 0.376962 0.365083 0.826039
Si Si3 0.791289 0.018056 0.347522
Si Si4 0.785799 0.790512 0.112235
Si Si5 0.950654 0.553971 0.918708
O O1 0.666942 0.294420 0.299062
O O2 0.525365 0.159005 0.256386
O O3 0.484417 0.332399 0.984149
O O4 0.631400 0.225228 0.800141
O O5 0.379213 0.450269 0.580649
O O6 0.325189 0.267096 0.668571
O O7 0.305408 0.410306 0.076445
O O8 0.675264 0.042016 0.475062
O O9 0.791171 0.903029 0.240364
O O10 0.980725 0.466524 0.693095
#
# Coordination Sequence:
#
# PCOD9346948 Si02
#       5
#     4   4   4   4   4
#     4  12  26  46  75 108 156 204 253 329 386 470
#     4  12  25  48  73 108 153 200 257 320 390 460
#     4  12  26  46  75 107 153 202 249 325 388 461
#     4  12  25  48  73 109 154 202 264 317 394 467
#     4  12  24  44  74 110 146 196 269 317 382 452
#
# _framework density 25.652276000000001
#
# number of rings (size 3 to 8) (size 9 to 14) (size 15 to 20)
#    0.000    0.000    4.000    6.000    0.000    6.400 
#    0.000    0.000    0.000    0.000    0.000    0.000 
#    0.000    0.000    0.000    0.000    0.000    0.000 
#
# Total GULP energy -112118.295499 kJ/mol
# GULP energy per Si atom -5605.914775 kJ/mol
# Density = 2.559389 g / cm^3
# Si number density = 25.652276 Si / 1000 Ang^3
#
#
#
# Elastic Constant Matrix: (Units=GPa)
#
#
# Indices 1 2 3 4 5 6 
#
# 1 70.2267 39.6925 31.1582 0.0000 0.0000 0.0000
# 2 39.6925 135.9888 28.6662 0.0000 0.0000 0.0000
# 3 31.1582 28.6662 130.7877 0.0000 0.0000 0.0000
# 4 0.0000 0.0000 0.0000 50.2156 0.0000 0.0000
# 5 0.0000 0.0000 0.0000 0.0000 46.7362 0.0000
# 6 0.0000 0.0000 0.0000 0.0000 0.0000 31.1955
#
#
#
# Elastic Compliance Matrix: (Units=1/GPa)
#
#
# Indices 1 2 3 4 5 6 
#
# 1 0.018356 -0.004651 -0.003354 0.000000 0.000000 0.000000
# 2 -0.004651 0.008888 -0.000840 0.000000 0.000000 0.000000
# 3 -0.003354 -0.000840 0.008629 0.000000 0.000000 0.000000
# 4 0.000000 0.000000 0.000000 0.019914 0.000000 0.000000
# 5 0.000000 0.000000 0.000000 0.000000 0.021397 0.000000
# 6 0.000000 0.000000 0.000000 0.000000 0.000000 0.032056
#
#
# Mechanical properties :
#
#
# Convention : Reuss Voigt Hill
#
# Bulk Modulus (GPa) = 54.99317 59.55968 57.27643
# Shear Modulus (GPa) = 37.59651 41.46187 39.52919
#
# Velocity S-wave (km/s) = 3.83250 4.02469 3.92977
# Velocity P-wave (km/s) = 6.40847 6.69821 6.55494
#
# Compressibility (1/GPa) = 0.01818408
#
# Stress axis : x y z
#
# Youngs Moduli (GPa) = 54.47729 112.50933 115.88707
#
# Poissons Ratio (x) = 0.52327 0.38865
# Poissons Ratio (y) = 0.25337 0.09736
# Poissons Ratio (z) = 0.18270 0.09452
#
# Static dielectric constant tensor:
#      x y z
#    x 2.085110 0.000000 0.000000 
#    y 0.000000 2.073920 0.000000 
#    z 0.000000 0.000000 1.937590 
# 
# From -- ./inp_files/819.got.cif
#   From: 2010.05.17/outbox.cif.g08.bks.cpg/sg33_1_cif.got.tgz:819.got - 2010.06.03 17:15:25.
