data_PCOD9346576
_publ_section_title
;
Structure prediction by ZEFSAII (Michael W. Deem and Ramdas Pophale) SiO2 
 PCOD9346576
Probable space group: P N A 21
;
_chemical_formula_sum "Si O2"
_cell_formula_units_Z 20
_cell_length_a 13.738911
_cell_length_b 11.292568
_cell_length_c 5.284076
_cell_angle_alpha 90.000000
_cell_angle_beta 90.000000
_cell_angle_gamma 90.000000
_cell_volume 819.811639
_symmetry_space_group_name_H-M "P N A 21"
_symmetry_group_IT_number 33
_symmetry_cell_setting 'orthorhombic'
loop_
_space_group_symop_operation_xyz
x,y,z
-x,-y,1/2+z
1/2-x,1/2+y,1/2+z
1/2+x,1/2-y,z
loop_
_atom_site_type_symbol
_atom_site_label
_atom_site_fract_x
_atom_site_fract_y
_atom_site_fract_z
Si Si1 0.950220 0.183710 0.411110
Si Si2 0.935258 0.518890 0.263378
Si Si3 0.119259 0.257009 0.070041
Si Si4 0.115506 0.052400 0.713242
Si Si5 0.717683 0.832830 0.886461
O O1 0.865391 0.260323 0.536763
O O2 0.023185 0.261874 0.242102
O O3 0.018701 0.109985 0.595280
O O4 0.899136 0.085807 0.236761
O O5 0.892208 0.648306 0.344666
O O6 0.846166 0.427113 0.228705
O O7 0.998771 0.483886 0.512833
O O8 0.216841 0.262334 0.234881
O O9 0.124680 0.121244 0.976479
O O10 0.208326 0.092788 0.554758
#
# Coordination Sequence:
#
# PCOD9346576 Si02
#       5
#     4   4   4   4   4
#     4  11  22  46  66 102 142 182 238 297 359 435
#     4  12  27  49  75 106 153 197 242 305 374 431
#     4  11  25  44  71 104 141 192 241 295 368 430
#     4  11  24  42  73  99 139 192 240 299 365 431
#     4  11  26  43  71 107 143 189 245 300 360 441
#
# _framework density 24.395848999999998
#
# number of rings (size 3 to 8) (size 9 to 14) (size 15 to 20)
#    0.000    0.800    4.000    2.400    5.600    3.200 
#    0.000    0.000    0.000    0.000    0.000    0.000 
#    0.000    0.000    0.000    0.000    0.000    0.000 
#
# Total GULP energy -111887.906674 kJ/mol
# GULP energy per Si atom -5594.395334 kJ/mol
# Density = 2.434032 g / cm^3
# Si number density = 24.395849 Si / 1000 Ang^3
#
#
#
# Elastic Constant Matrix: (Units=GPa)
#
#
# Indices 1 2 3 4 5 6 
#
# 1 173.7049 52.3797 36.2291 0.0000 0.0000 0.0000
# 2 52.3797 94.6970 6.4654 0.0000 0.0000 0.0000
# 3 36.2291 6.4654 71.7350 0.0000 0.0000 0.0000
# 4 0.0000 0.0000 0.0000 45.9573 0.0000 0.0000
# 5 0.0000 0.0000 0.0000 0.0000 18.7337 0.0000
# 6 0.0000 0.0000 0.0000 0.0000 0.0000 33.6183
#
#
#
# Elastic Compliance Matrix: (Units=1/GPa)
#
#
# Indices 1 2 3 4 5 6 
#
# 1 0.007706 -0.004021 -0.003529 0.000000 0.000000 0.000000
# 2 -0.004021 0.012724 0.000884 0.000000 0.000000 0.000000
# 3 -0.003529 0.000884 0.015643 0.000000 0.000000 0.000000
# 4 0.000000 0.000000 0.000000 0.021759 0.000000 0.000000
# 5 0.000000 0.000000 0.000000 0.000000 0.053380 0.000000
# 6 0.000000 0.000000 0.000000 0.000000 0.000000 0.029746
#
#
# Mechanical properties :
#
#
# Convention : Reuss Voigt Hill
#
# Bulk Modulus (GPa) = 43.97592 58.92057 51.44824
# Shear Modulus (GPa) = 30.88905 35.99936 33.44420
#
# Velocity S-wave (km/s) = 3.56217 3.84557 3.70658
# Velocity P-wave (km/s) = 5.91472 6.62738 6.28116
#
# Compressibility (1/GPa) = 0.02273972
#
# Stress axis : x y z
#
# Youngs Moduli (GPa) = 129.77688 78.59235 63.92678
#
# Poissons Ratio (x) = 0.31604 0.22561
# Poissons Ratio (y) = 0.52186 -0.05652
# Poissons Ratio (z) = 0.45801 -0.06948
#
# Static dielectric constant tensor:
#      x y z
#    x 1.953530 0.000000 0.000000 
#    y 0.000000 1.976960 0.000000 
#    z 0.000000 0.000000 1.969300 
# 
# From -- ./inp_files/675.got.cif
#   From: 2010.05.17/outbox.cif.g08.bks.cpg/sg33_1_cif.got.tgz:675.got - 2010.06.03 17:15:25.
