data_PCOD9346370
_publ_section_title
;
Structure prediction by ZEFSAII (Michael W. Deem and Ramdas Pophale) SiO2 
 PCOD9346370
Probable space group: P N A 21
;
_chemical_formula_sum "Si O2"
_cell_formula_units_Z 32
_cell_length_a 18.348703
_cell_length_b 9.815290
_cell_length_c 7.113606
_cell_angle_alpha 90.000000
_cell_angle_beta 90.000000
_cell_angle_gamma 90.000000
_cell_volume 1281.145083
_symmetry_space_group_name_H-M "P N A 21"
_symmetry_group_IT_number 33
_symmetry_cell_setting 'orthorhombic'
loop_
_space_group_symop_operation_xyz
x,y,z
-x,-y,1/2+z
1/2-x,1/2+y,1/2+z
1/2+x,1/2-y,z
loop_
_atom_site_type_symbol
_atom_site_label
_atom_site_fract_x
_atom_site_fract_y
_atom_site_fract_z
Si Si1 0.841510 0.108091 0.398860
Si Si2 0.705548 0.987503 0.527962
Si Si3 0.447805 0.301559 0.930851
Si Si4 0.362779 0.929213 0.384753
Si Si5 0.074901 0.493530 0.280505
Si Si6 0.286543 0.314865 0.016071
Si Si7 0.580263 0.355647 0.706444
Si Si8 0.006649 0.773905 0.861049
O O1 0.780261 0.070852 0.552001
O O2 0.980564 0.189529 0.141822
O O3 0.914919 0.188060 0.453287
O O4 0.867088 0.971944 0.285953
O O5 0.653018 0.973999 0.708377
O O6 0.651120 0.049884 0.375916
O O7 0.727483 0.839618 0.454577
O O8 0.365404 0.353882 0.935309
O O9 0.502730 0.384489 0.803712
O O10 0.443783 0.145470 0.852681
O O11 0.410282 0.978339 0.559360
O O12 0.281736 0.903830 0.463335
O O13 0.392979 0.789204 0.292012
O O14 0.297938 0.310686 0.239745
O O15 0.015607 0.384258 0.345827
O O16 0.558172 0.339583 0.487377
#
# Coordination Sequence:
#
# PCOD9346370 Si02
#       8
#     4   4   4   4   4   4   4   4
#     4  11  26  48  72 109 152 194 247 305 382 451
#     4  11  24  48  73 104 148 194 251 309 367 448
#     4  10  26  45  72 101 150 190 248 306 365 444
#     4  12  24  46  76 107 144 194 245 310 368 441
#     4  11  24  46  72 104 147 191 251 309 362 446
#     4  10  24  49  69 104 145 189 245 299 364 445
#     4  12  26  45  74 109 147 193 241 307 379 445
#     4  11  26  45  72 108 149 195 248 307 381 446
#
# _framework density 24.977656
#
# number of rings (size 3 to 8) (size 9 to 14) (size 15 to 20)
#    0.000    1.000    5.000    0.000    7.000    4.000 
#    9.000    0.000    0.000    0.000    0.000    0.000 
#    0.000    0.000    0.000    0.000    0.000    0.000 
#
# Total GULP energy -178957.768887 kJ/mol
# GULP energy per Si atom -5592.430278 kJ/mol
# Density = 2.492081 g / cm^3
# Si number density = 24.977656 Si / 1000 Ang^3
#
#
#
# Elastic Constant Matrix: (Units=GPa)
#
#
# Indices 1 2 3 4 5 6 
#
# 1 115.2500 45.4727 51.7896 0.0000 0.0000 0.0000
# 2 45.4727 71.5715 42.9359 0.0000 0.0000 0.0000
# 3 51.7896 42.9359 126.3300 0.0000 0.0000 0.0000
# 4 0.0000 0.0000 0.0000 28.3139 0.0000 0.0000
# 5 0.0000 0.0000 0.0000 0.0000 55.0402 0.0000
# 6 0.0000 0.0000 0.0000 0.0000 0.0000 34.6532
#
#
#
# Elastic Compliance Matrix: (Units=1/GPa)
#
#
# Indices 1 2 3 4 5 6 
#
# 1 0.012440 -0.006085 -0.003032 0.000000 0.000000 0.000000
# 2 -0.006085 0.020527 -0.004482 0.000000 0.000000 0.000000
# 3 -0.003032 -0.004482 0.010682 0.000000 0.000000 0.000000
# 4 0.000000 0.000000 0.000000 0.035318 0.000000 0.000000
# 5 0.000000 0.000000 0.000000 0.000000 0.018169 0.000000
# 6 0.000000 0.000000 0.000000 0.000000 0.000000 0.028857
#
#
# Mechanical properties :
#
#
# Convention : Reuss Voigt Hill
#
# Bulk Modulus (GPa) = 60.78466 65.94978 63.36722
# Shear Modulus (GPa) = 31.51111 35.13167 33.32139
#
# Velocity S-wave (km/s) = 3.55571 3.75443 3.65642
# Velocity P-wave (km/s) = 6.42230 6.72720 6.57652
#
# Compressibility (1/GPa) = 0.01645152
#
# Stress axis : x y z
#
# Youngs Moduli (GPa) = 80.38558 48.71668 93.61610
#
# Poissons Ratio (x) = 0.29644 0.28382
# Poissons Ratio (y) = 0.48915 0.41958
# Poissons Ratio (z) = 0.24371 0.21834
#
# Static dielectric constant tensor:
#      x y z
#    x 1.977020 0.000000 0.000000 
#    y 0.000000 2.015990 0.000000 
#    z 0.000000 0.000000 1.987870 
# 
# From -- ./inp_files/4887.got.cif
#   From: 2010.05.17/outbox.cif.g08.bks.cpg/sg33_3_cif.got.tgz:4887.got - 2010.06.03 17:15:25.
