data_PCOD9346706
_publ_section_title
;
Structure prediction by ZEFSAII (Michael W. Deem and Ramdas Pophale) SiO2 
 PCOD9346706
Probable space group: P N A 21
;
_chemical_formula_sum "Si O2"
_cell_formula_units_Z 24
_cell_length_a 15.598162
_cell_length_b 7.953230
_cell_length_c 7.684802
_cell_angle_alpha 90.000000
_cell_angle_beta 90.000000
_cell_angle_gamma 90.000000
_cell_volume 953.344029
_symmetry_space_group_name_H-M "P N A 21"
_symmetry_group_IT_number 33
_symmetry_cell_setting 'orthorhombic'
loop_
_space_group_symop_operation_xyz
x,y,z
-x,-y,1/2+z
1/2-x,1/2+y,1/2+z
1/2+x,1/2-y,z
loop_
_atom_site_type_symbol
_atom_site_label
_atom_site_fract_x
_atom_site_fract_y
_atom_site_fract_z
Si Si1 0.078514 0.827099 0.342770
Si Si2 0.803843 0.702679 0.616388
Si Si3 0.758335 0.319948 0.728499
Si Si4 0.584775 0.173631 0.661809
Si Si5 0.369741 0.188176 0.211283
Si Si6 0.537719 0.299550 0.327537
O O1 0.157278 0.795382 0.210806
O O2 0.106501 0.718621 0.508725
O O3 0.988376 0.772331 0.263603
O O4 0.070319 0.020948 0.392809
O O5 0.786228 0.505589 0.662473
O O6 0.779113 0.778148 0.425685
O O7 0.730496 0.787477 0.737472
O O8 0.900813 0.750371 0.667005
O O9 0.675045 0.262627 0.625653
O O10 0.548326 0.153702 0.468445
O O11 0.604436 0.000050 0.755813
O O12 0.436423 0.314336 0.297957
#
# Coordination Sequence:
#
# PCOD9346706 Si02
#       6
#     4   4   4   4   4   4
#     4  11  24  43  63  93 130 171 219 272 331 402
#     4  11  24  44  68  98 134 175 223 281 342 410
#     4  11  24  44  68  98 134 175 223 281 342 410
#     4  12  24  41  67  97 129 172 219 275 337 402
#     4  11  24  43  63  93 130 171 219 272 331 402
#     4  12  24  41  67  97 129 172 219 275 337 402
#
# _framework density 25.174541999999999
#
# number of rings (size 3 to 8) (size 9 to 14) (size 15 to 20)
#    0.000    0.667    0.000   10.000    0.000    4.000 
#    0.000    0.000    0.000    0.000    0.000    0.000 
#    0.000    0.000    0.000    0.000    0.000    0.000 
#
# Total GULP energy -134118.015516 kJ/mol
# GULP energy per Si atom -5588.250647 kJ/mol
# Density = 2.511724 g / cm^3
# Si number density = 25.174542 Si / 1000 Ang^3
#
#
#
# Elastic Constant Matrix: (Units=GPa)
#
#
# Indices 1 2 3 4 5 6 
#
# 1 101.6319 -3.7199 7.4755 0.0000 0.0000 0.0000
# 2 -3.7199 88.1558 1.5675 0.0000 0.0000 0.0000
# 3 7.4755 1.5675 58.4855 0.0000 0.0000 0.0000
# 4 0.0000 0.0000 0.0000 29.4953 0.0000 0.0000
# 5 0.0000 0.0000 0.0000 0.0000 37.8870 0.0000
# 6 0.0000 0.0000 0.0000 0.0000 0.0000 30.7934
#
#
#
# Elastic Compliance Matrix: (Units=1/GPa)
#
#
# Indices 1 2 3 4 5 6 
#
# 1 0.009950 0.000443 -0.001284 0.000000 0.000000 0.000000
# 2 0.000443 0.011369 -0.000361 0.000000 0.000000 0.000000
# 3 -0.001284 -0.000361 0.017272 0.000000 0.000000 0.000000
# 4 0.000000 0.000000 0.000000 0.033904 0.000000 0.000000
# 5 0.000000 0.000000 0.000000 0.000000 0.026394 0.000000
# 6 0.000000 0.000000 0.000000 0.000000 0.000000 0.032474
#
#
# Mechanical properties :
#
#
# Convention : Reuss Voigt Hill
#
# Bulk Modulus (GPa) = 27.63481 28.76880 28.20180
# Shear Modulus (GPa) = 34.28657 35.83183 35.05920
#
# Velocity S-wave (km/s) = 3.69447 3.77681 3.73586
# Velocity P-wave (km/s) = 5.40370 5.52010 5.46221
#
# Compressibility (1/GPa) = 0.03618624
#
# Stress axis : x y z
#
# Youngs Moduli (GPa) = 100.50196 87.96113 57.89714
#
# Poissons Ratio (x) = -0.03894 0.07432
# Poissons Ratio (y) = -0.04449 0.02092
# Poissons Ratio (z) = 0.12901 0.03178
#
# Static dielectric constant tensor:
#      x y z
#    x 1.988940 0.000000 0.000000 
#    y 0.000000 1.906100 0.000000 
#    z 0.000000 0.000000 2.098270 
# 
# From -- ./inp_files/4282.got.cif
#   From: 2010.05.17/outbox.cif.g08.bks.cpg/sg33_3_cif.got.tgz:4282.got - 2010.06.03 17:15:25.
