data_PCOD9346955
_publ_section_title
;
Structure prediction by ZEFSAII (Michael W. Deem and Ramdas Pophale) SiO2 
 PCOD9346955
Probable space group: P N A 21
;
_chemical_formula_sum "Si O2"
_cell_formula_units_Z 24
_cell_length_a 24.870487
_cell_length_b 4.783926
_cell_length_c 8.352970
_cell_angle_alpha 90.000000
_cell_angle_beta 90.000000
_cell_angle_gamma 90.000000
_cell_volume 993.824421
_symmetry_space_group_name_H-M "P N A 21"
_symmetry_group_IT_number 33
_symmetry_cell_setting 'orthorhombic'
loop_
_space_group_symop_operation_xyz
x,y,z
-x,-y,1/2+z
1/2-x,1/2+y,1/2+z
1/2+x,1/2-y,z
loop_
_atom_site_type_symbol
_atom_site_label
_atom_site_fract_x
_atom_site_fract_y
_atom_site_fract_z
Si Si1 0.062501 0.645007 0.890500
Si Si2 0.283939 0.357223 0.237464
Si Si3 0.102977 0.956452 0.207453
Si Si4 0.278487 0.359205 0.612710
Si Si5 0.602902 0.352533 0.704231
Si Si6 0.938868 0.542528 0.890072
O O1 0.101383 0.389820 0.840398
O O2 0.002889 0.522173 0.901120
O O3 0.064774 0.891138 0.757365
O O4 0.079721 0.803249 0.051136
O O5 0.286188 0.297559 0.425938
O O6 0.236959 0.577864 0.203028
O O7 0.339058 0.506404 0.187933
O O8 0.269201 0.080043 0.141066
O O9 0.166565 0.981410 0.183707
O O10 0.088153 0.752945 0.354430
O O11 0.076533 0.252518 0.243759
O O12 0.583357 0.191637 0.547869
#
# Coordination Sequence:
#
# PCOD9346955 Si02
#       6
#     4   4   4   4   4   4
#     4  12  24  48  73 105 148 193 238 290 363 424
#     4  12  28  49  76 106 141 189 241 301 363 425
#     4  12  27  47  73 106 149 187 240 299 358 426
#     4  12  28  49  74 106 141 189 242 300 362 425
#     4  12  27  47  73 107 149 186 241 299 357 426
#     4  12  26  44  75 110 144 192 238 293 353 438
#
# _framework density 24.149135999999999
#
# number of rings (size 3 to 8) (size 9 to 14) (size 15 to 20)
#    0.000    0.000    1.667    8.000    9.333    0.000 
#    0.000    0.000    0.000    0.000    0.000    0.000 
#    0.000    0.000    0.000    0.000    0.000    0.000 
#
# Total GULP energy -134710.468563 kJ/mol
# GULP energy per Si atom -5612.936190 kJ/mol
# Density = 2.409417 g / cm^3
# Si number density = 24.149136 Si / 1000 Ang^3
#
#
#
# Elastic Constant Matrix: (Units=GPa)
#
#
# Indices 1 2 3 4 5 6 
#
# 1 85.9825 -7.5391 23.6717 0.0000 0.0000 0.0000
# 2 -7.5391 69.0707 15.5289 0.0000 0.0000 0.0000
# 3 23.6717 15.5289 61.9251 0.0000 0.0000 0.0000
# 4 0.0000 0.0000 0.0000 22.2554 0.0000 0.0000
# 5 0.0000 0.0000 0.0000 0.0000 36.1539 0.0000
# 6 0.0000 0.0000 0.0000 0.0000 0.0000 42.1896
#
#
#
# Elastic Compliance Matrix: (Units=1/GPa)
#
#
# Indices 1 2 3 4 5 6 
#
# 1 0.013487 0.002788 -0.005855 0.000000 0.000000 0.000000
# 2 0.002788 0.015919 -0.005058 0.000000 0.000000 0.000000
# 3 -0.005855 -0.005058 0.019655 0.000000 0.000000 0.000000
# 4 0.000000 0.000000 0.000000 0.044933 0.000000 0.000000
# 5 0.000000 0.000000 0.000000 0.000000 0.027660 0.000000
# 6 0.000000 0.000000 0.000000 0.000000 0.000000 0.023703
#
#
# Mechanical properties :
#
#
# Convention : Reuss Voigt Hill
#
# Bulk Modulus (GPa) = 30.47631 31.14460 30.81046
# Shear Modulus (GPa) = 28.97843 32.47421 30.72632
#
# Velocity S-wave (km/s) = 3.46783 3.67104 3.57088
# Velocity P-wave (km/s) = 5.35555 5.55819 5.45781
#
# Compressibility (1/GPa) = 0.03281237
#
# Stress axis : x y z
#
# Youngs Moduli (GPa) = 74.14765 62.81627 50.87778
#
# Poissons Ratio (x) = -0.17515 0.29787
# Poissons Ratio (y) = -0.20675 0.25734
# Poissons Ratio (z) = 0.43411 0.31772
#
# Static dielectric constant tensor:
#      x y z
#    x 1.881770 0.000000 0.000000 
#    y 0.000000 1.880430 0.000000 
#    z 0.000000 0.000000 1.983340 
# 
# From -- ./inp_files/5099.got.cif
#   From: 2010.05.17/outbox.cif.g08.bks.cpg/sg33_3_cif.got.tgz:5099.got - 2010.06.03 17:15:25.
