data_PCOD9346956
_publ_section_title
;
Structure prediction by ZEFSAII (Michael W. Deem and Ramdas Pophale) SiO2 
 PCOD9346956
Probable space group: P N A 21
;
_chemical_formula_sum "Si O2"
_cell_formula_units_Z 16
_cell_length_a 6.926888
_cell_length_b 6.907514
_cell_length_c 12.259755
_cell_angle_alpha 90.000000
_cell_angle_beta 90.000000
_cell_angle_gamma 90.000000
_cell_volume 586.599557
_symmetry_space_group_name_H-M "P N A 21"
_symmetry_group_IT_number 33
_symmetry_cell_setting 'orthorhombic'
loop_
_space_group_symop_operation_xyz
x,y,z
-x,-y,1/2+z
1/2-x,1/2+y,1/2+z
1/2+x,1/2-y,z
loop_
_atom_site_type_symbol
_atom_site_label
_atom_site_fract_x
_atom_site_fract_y
_atom_site_fract_z
Si Si1 0.093509 0.456141 0.175900
Si Si2 0.834457 0.538641 0.348517
Si Si3 0.998860 0.141999 0.988521
Si Si4 0.468039 0.401132 0.660161
O O1 0.015405 0.306894 0.084459
O O2 0.324136 0.494424 0.178307
O O3 0.008762 0.412266 0.298163
O O4 0.014090 0.672097 0.154727
O O5 0.928203 0.746906 0.381715
O O6 0.695852 0.527678 0.453821
O O7 0.681053 0.534131 0.251395
O O8 0.118768 0.973783 0.044508
#
# Coordination Sequence:
#
# PCOD9346956 Si02
#       4
#     4   4   4   4
#     4  12  25  48  77 111 153 197 255 311 373 463
#     4  12  24  48  74 108 156 196 244 320 376 436
#     4  12  26  50  76 108 156 200 244 316 384 440
#     4  12  25  48  77 111 153 197 255 311 373 463
#
# _framework density 27.275849000000001
#
# number of rings (size 3 to 8) (size 9 to 14) (size 15 to 20)
#    0.000    0.000    7.500    1.500    0.000    0.000 
#    4.500    5.000    0.000    0.000    0.000    0.000 
#    0.000    0.000    0.000    0.000    0.000    0.000 
#
# Total GULP energy -89157.615832 kJ/mol
# GULP energy per Si atom -5572.350989 kJ/mol
# Density = 2.721377 g / cm^3
# Si number density = 27.275849 Si / 1000 Ang^3
#
#
#
# Elastic Constant Matrix: (Units=GPa)
#
#
# Indices 1 2 3 4 5 6 
#
# 1 149.6666 26.6190 43.3977 0.0000 0.0000 0.0000
# 2 26.6190 93.7906 32.0450 0.0000 0.0000 0.0000
# 3 43.3977 32.0450 132.1323 0.0000 0.0000 0.0000
# 4 0.0000 0.0000 0.0000 67.1782 0.0000 0.0000
# 5 0.0000 0.0000 0.0000 0.0000 59.5227 0.0000
# 6 0.0000 0.0000 0.0000 0.0000 0.0000 -12.5487
#
#
#
# Elastic Compliance Matrix: (Units=1/GPa)
#
#
# Indices 1 2 3 4 5 6 
#
# 1 0.007553 -0.001413 -0.002138 0.000000 0.000000 0.000000
# 2 -0.001413 0.011890 -0.002419 0.000000 0.000000 0.000000
# 3 -0.002138 -0.002419 0.008857 0.000000 0.000000 0.000000
# 4 0.000000 0.000000 0.000000 0.014886 0.000000 0.000000
# 5 0.000000 0.000000 0.000000 0.000000 0.016800 0.000000
# 6 0.000000 0.000000 0.000000 0.000000 0.000000 -0.079690
#
#
# Mechanical properties :
#
#
# Convention : Reuss Voigt Hill
#
# Bulk Modulus (GPa) = 61.12945 64.41255 62.77100
# Shear Modulus (GPa) = -2164.51417 41.06562 -1061.72428
#
# Velocity S-wave (km/s) = -28.20084 3.88437 -19.75093
# Velocity P-wave (km/s) = 32.21681 6.61697 22.29505
#
# Compressibility (1/GPa) = 0.01635873
#
# Stress axis : x y z
#
# Youngs Moduli (GPa) = 132.40180 84.10615 112.90359
#
# Poissons Ratio (x) = 0.11885 0.24138
# Poissons Ratio (y) = 0.18710 0.27316
# Poissons Ratio (z) = 0.28307 0.20349
#
# Static dielectric constant tensor:
#      x y z
#    x 2.286620 0.000000 0.000000 
#    y 0.000000 2.076190 0.000000 
#    z 0.000000 0.000000 2.357180 
# 
# From -- ./inp_files/5684.got.cif
#   From: 2010.05.17/outbox.cif.g08.bks.cpg/sg33_3_cif.got.tgz:5684.got - 2010.06.03 17:15:25.
