data_PCOD9346623
_publ_section_title
;
Structure prediction by ZEFSAII (Michael W. Deem and Ramdas Pophale) SiO2 
 PCOD9346623
Probable space group: P N A 21
;
_chemical_formula_sum "Si O2"
_cell_formula_units_Z 32
_cell_length_a 10.494371
_cell_length_b 5.497298
_cell_length_c 21.471807
_cell_angle_alpha 90.000000
_cell_angle_beta 90.000000
_cell_angle_gamma 90.000000
_cell_volume 1238.723248
_symmetry_space_group_name_H-M "P N A 21"
_symmetry_group_IT_number 33
_symmetry_cell_setting 'orthorhombic'
loop_
_space_group_symop_operation_xyz
x,y,z
-x,-y,1/2+z
1/2-x,1/2+y,1/2+z
1/2+x,1/2-y,z
loop_
_atom_site_type_symbol
_atom_site_label
_atom_site_fract_x
_atom_site_fract_y
_atom_site_fract_z
Si Si1 0.114585 0.479671 0.538640
Si Si2 0.005773 0.172255 0.706126
Si Si3 0.850342 0.296813 0.383593
Si Si4 0.268529 0.214642 0.919427
Si Si5 0.449508 0.070850 0.815323
Si Si6 0.861084 0.331859 0.581570
Si Si7 0.680655 0.675973 0.635973
Si Si8 0.197575 0.192950 0.255889
O O1 0.147992 0.632802 0.477961
O O2 0.242851 0.332466 0.557525
O O3 0.086676 0.670281 0.593925
O O4 0.984461 0.324440 0.536204
O O5 0.052008 0.314304 0.768308
O O6 0.915852 0.265051 0.649867
O O7 0.120555 0.060503 0.666971
O O8 0.925538 0.965219 0.741686
O O9 0.803249 0.526591 0.425618
O O10 0.769178 0.329424 0.320462
O O11 0.991597 0.362146 0.359485
O O12 0.823293 0.021923 0.406562
O O13 0.366892 0.231827 0.861689
O O14 0.354976 0.966923 0.762989
O O15 0.796781 0.595669 0.592202
O O16 0.718691 0.834266 0.694881
#
# Coordination Sequence:
#
# PCOD9346623 Si02
#       8
#     4   4   4   4   4   4   4   4
#     4  12  30  51  79 110 159 217 277 339 399 496
#     4  12  24  42  73 109 158 199 257 332 409 490
#     4  11  27  47  75 111 148 205 259 328 398 480
#     4  11  29  52  75 108 153 209 272 323 399 477
#     4  11  26  44  71 111 152 202 256 329 405 482
#     4  12  27  49  74 115 152 210 271 334 411 477
#     4  12  26  44  75 115 157 208 265 337 415 486
#     4  11  23  43  68 109 153 196 259 322 406 480
#
# _framework density 25.833053
#
# number of rings (size 3 to 8) (size 9 to 14) (size 15 to 20)
#    0.000    0.500    5.000    1.500   12.250    0.000 
#    0.000    0.000    0.000    0.000    0.000    0.000 
#    0.000    0.000    0.000    0.000    0.000    0.000 
#
# Total GULP energy -178863.874705 kJ/mol
# GULP energy per Si atom -5589.496085 kJ/mol
# Density = 2.577426 g / cm^3
# Si number density = 25.833053 Si / 1000 Ang^3
#
#
#
# Elastic Constant Matrix: (Units=GPa)
#
#
# Indices 1 2 3 4 5 6 
#
# 1 79.3795 17.1033 -7.5190 0.0000 0.0000 0.0000
# 2 17.1033 67.1794 20.8035 0.0000 0.0000 0.0000
# 3 -7.5190 20.8035 74.3348 0.0000 0.0000 0.0000
# 4 0.0000 0.0000 0.0000 41.2540 0.0000 0.0000
# 5 0.0000 0.0000 0.0000 0.0000 32.7990 0.0000
# 6 0.0000 0.0000 0.0000 0.0000 0.0000 40.0958
#
#
#
# Elastic Compliance Matrix: (Units=1/GPa)
#
#
# Indices 1 2 3 4 5 6 
#
# 1 0.013773 -0.004312 0.002600 0.000000 0.000000 0.000000
# 2 -0.004312 0.017648 -0.005375 0.000000 0.000000 0.000000
# 3 0.002600 -0.005375 0.015220 0.000000 0.000000 0.000000
# 4 0.000000 0.000000 0.000000 0.024240 0.000000 0.000000
# 5 0.000000 0.000000 0.000000 0.000000 0.030489 0.000000
# 6 0.000000 0.000000 0.000000 0.000000 0.000000 0.024940
#
#
# Mechanical properties :
#
#
# Convention : Reuss Voigt Hill
#
# Bulk Modulus (GPa) = 30.80060 31.29660 31.04860
# Shear Modulus (GPa) = 33.04574 35.53017 34.28796
#
# Velocity S-wave (km/s) = 3.58048 3.71263 3.64715
# Velocity P-wave (km/s) = 5.38905 5.52444 5.45717
#
# Compressibility (1/GPa) = 0.03246690
#
# Stress axis : x y z
#
# Youngs Moduli (GPa) = 72.60611 56.66469 65.70356
#
# Poissons Ratio (x) = 0.24431 -0.17081
# Poissons Ratio (y) = 0.31304 0.35316
# Poissons Ratio (z) = -0.18876 0.30457
#
# Static dielectric constant tensor:
#      x y z
#    x 2.161290 0.000000 0.000000 
#    y 0.000000 2.161180 0.000000 
#    z 0.000000 0.000000 2.005890 
# 
# From -- ./inp_files/9107.got.cif
#   From: 2010.05.17/outbox.cif.g08.bks.cpg/sg33_5_cif.got.tgz:9107.got - 2010.06.03 17:15:25.
