data_PCOD9346760
_publ_section_title
;
Structure prediction by ZEFSAII (Michael W. Deem and Ramdas Pophale) SiO2 
 PCOD9346760
Probable space group: P N A 21
;
_chemical_formula_sum "Si O2"
_cell_formula_units_Z 28
_cell_length_a 29.132567
_cell_length_b 6.670987
_cell_length_c 6.853351
_cell_angle_alpha 90.000000
_cell_angle_beta 90.000000
_cell_angle_gamma 90.000000
_cell_volume 1331.900627
_symmetry_space_group_name_H-M "P N A 21"
_symmetry_group_IT_number 33
_symmetry_cell_setting 'orthorhombic'
loop_
_space_group_symop_operation_xyz
x,y,z
-x,-y,1/2+z
1/2-x,1/2+y,1/2+z
1/2+x,1/2-y,z
loop_
_atom_site_type_symbol
_atom_site_label
_atom_site_fract_x
_atom_site_fract_y
_atom_site_fract_z
Si Si1 0.514095 0.306783 0.679310
Si Si2 0.214053 0.355632 0.225297
Si Si3 0.804956 0.336235 0.397740
Si Si4 0.052951 0.478160 0.345007
Si Si5 0.848424 0.036773 0.711634
Si Si6 0.442619 0.631910 0.555003
Si Si7 0.348665 0.123287 0.998315
O O1 0.478964 0.168750 0.803468
O O2 0.487775 0.505999 0.613554
O O3 0.529963 0.175137 0.496912
O O4 0.556251 0.357840 0.821535
O O5 0.263594 0.281455 0.293585
O O6 0.191214 0.499830 0.387514
O O7 0.181772 0.162097 0.209361
O O8 0.213966 0.475367 0.021095
O O9 0.828871 0.192865 0.554483
O O10 0.659756 0.895100 0.727698
O O11 0.057892 0.353266 0.145539
O O12 0.102375 0.540560 0.426936
O O13 0.846721 0.148857 0.919363
O O14 0.899613 0.981172 0.647714
#
# Coordination Sequence:
#
# PCOD9346760 Si02
#       7
#     4   4   4   4   4   4   4
#     4  12  26  42  71  96 135 183 221 275 339 401
#     4  11  24  46  67  99 138 178 218 281 336 403
#     4  11  26  43  69 101 134 176 228 272 340 404
#     4  12  25  43  67  99 136 175 224 282 336 398
#     4  11  25  43  70  98 136 173 225 286 328 407
#     4  12  25  44  66 102 134 174 228 276 340 396
#     4  11  25  43  70  99 133 177 224 280 339 395
#
# _framework density 21.022589
#
# number of rings (size 3 to 8) (size 9 to 14) (size 15 to 20)
#    0.000    0.571    5.714    1.714    2.000    8.000 
#    0.000    0.000    0.000    0.000    0.000    0.000 
#    0.000    0.000    0.000    0.000    0.000    0.000 
#
# Total GULP energy -156715.808435 kJ/mol
# GULP energy per Si atom -5596.993158 kJ/mol
# Density = 2.097474 g / cm^3
# Si number density = 21.022589 Si / 1000 Ang^3
#
#
#
# Elastic Constant Matrix: (Units=GPa)
#
#
# Indices 1 2 3 4 5 6 
#
# 1 43.2833 -0.2577 -15.2646 0.0000 0.0000 0.0000
# 2 -0.2577 81.9448 9.1599 0.0000 0.0000 0.0000
# 3 -15.2646 9.1599 65.1318 0.0000 0.0000 0.0000
# 4 0.0000 0.0000 0.0000 25.6971 0.0000 0.0000
# 5 0.0000 0.0000 0.0000 0.0000 25.9080 0.0000
# 6 0.0000 0.0000 0.0000 0.0000 0.0000 41.5108
#
#
#
# Elastic Compliance Matrix: (Units=1/GPa)
#
#
# Indices 1 2 3 4 5 6 
#
# 1 0.025213 -0.000591 0.005992 0.000000 0.000000 0.000000
# 2 -0.000591 0.012412 -0.001884 0.000000 0.000000 0.000000
# 3 0.005992 -0.001884 0.017023 0.000000 0.000000 0.000000
# 4 0.000000 0.000000 0.000000 0.038915 0.000000 0.000000
# 5 0.000000 0.000000 0.000000 0.000000 0.038598 0.000000
# 6 0.000000 0.000000 0.000000 0.000000 0.000000 0.024090
#
#
# Mechanical properties :
#
#
# Convention : Reuss Voigt Hill
#
# Bulk Modulus (GPa) = 16.21177 19.73723 17.97450
# Shear Modulus (GPa) = 29.45037 31.73800 30.59418
#
# Velocity S-wave (km/s) = 3.74691 3.88971 3.81898
# Velocity P-wave (km/s) = 5.14271 5.43894 5.29290
#
# Compressibility (1/GPa) = 0.06168357
#
# Stress axis : x y z
#
# Youngs Moduli (GPa) = 39.66153 80.56667 58.74471
#
# Poissons Ratio (x) = 0.04758 -0.35201
# Poissons Ratio (y) = 0.02342 0.11067
# Poissons Ratio (z) = -0.23766 0.15179
#
# Static dielectric constant tensor:
#      x y z
#    x 1.739310 0.000000 0.000000 
#    y 0.000000 1.735190 0.000000 
#    z 0.000000 0.000000 1.745380 
# 
# From -- ./inp_files/5238.got.cif
#   From: 2010.05.17/outbox.cif.g08.bks.cpg/sg33_3_cif.got.tgz:5238.got - 2010.06.03 17:15:25.
