data_PCOD9346807
_publ_section_title
;
Structure prediction by ZEFSAII (Michael W. Deem and Ramdas Pophale) SiO2 
 PCOD9346807
Probable space group: P N A 21
;
_chemical_formula_sum "Si O2"
_cell_formula_units_Z 28
_cell_length_a 11.284516
_cell_length_b 11.590231
_cell_length_c 7.546179
_cell_angle_alpha 90.000000
_cell_angle_beta 90.000000
_cell_angle_gamma 90.000000
_cell_volume 986.965862
_symmetry_space_group_name_H-M "P N A 21"
_symmetry_group_IT_number 33
_symmetry_cell_setting 'orthorhombic'
loop_
_space_group_symop_operation_xyz
x,y,z
-x,-y,1/2+z
1/2-x,1/2+y,1/2+z
1/2+x,1/2-y,z
loop_
_atom_site_type_symbol
_atom_site_label
_atom_site_fract_x
_atom_site_fract_y
_atom_site_fract_z
Si Si1 0.754549 0.724450 0.026080
Si Si2 0.918705 0.391620 0.194484
Si Si3 0.155080 0.999152 0.180832
Si Si4 0.922179 0.755271 0.311073
Si Si5 0.742964 0.702850 0.632935
Si Si6 0.925062 0.395475 0.611917
Si Si7 0.404678 0.505978 0.098489
O O1 0.661279 0.625023 0.078156
O O2 0.863949 0.688483 0.142570
O O3 0.790835 0.738975 0.824395
O O4 0.709974 0.847107 0.100183
O O5 0.788352 0.450607 0.161233
O O6 0.884110 0.267269 0.116740
O O7 0.947437 0.370046 0.401826
O O8 0.024099 0.475361 0.132538
O O9 0.129290 0.006691 0.390423
O O10 0.333214 0.769529 0.474063
O O11 0.928617 0.883381 0.226568
O O12 0.038609 0.677018 0.288857
O O13 0.535793 0.445691 0.101219
O O14 0.701990 0.572789 0.667868
#
# Coordination Sequence:
#
# PCOD9346807 Si02
#       7
#     4   4   4   4   4   4   4
#     4  11  24  50  75 117 163 207 280 336 419 495
#     4  11  27  50  78 115 164 213 274 339 424 499
#     4  12  25  49  79 117 164 216 275 346 413 503
#     4  12  26  50  80 116 162 210 275 350 406 510
#     4  11  27  49  76 121 158 218 274 340 423 501
#     4  11  25  50  75 116 160 216 274 347 413 496
#     4  12  26  46  81 120 161 214 278 338 416 498
#
# _framework density 28.369776999999999
#
# number of rings (size 3 to 8) (size 9 to 14) (size 15 to 20)
#    0.000    0.571    4.286    2.571    8.000    0.000 
#    5.143    0.000    0.000    0.000    0.000    0.000 
#    0.000    0.000    0.000    0.000    0.000    0.000 
#
# Total GULP energy -156092.257796 kJ/mol
# GULP energy per Si atom -5574.723493 kJ/mol
# Density = 2.830521 g / cm^3
# Si number density = 28.369777 Si / 1000 Ang^3
#
#
#
# Elastic Constant Matrix: (Units=GPa)
#
#
# Indices 1 2 3 4 5 6 
#
# 1 78.3610 19.8940 25.9749 0.0000 0.0000 0.0000
# 2 19.8940 153.3465 22.4558 0.0000 0.0000 0.0000
# 3 25.9749 22.4558 161.2859 0.0000 0.0000 0.0000
# 4 0.0000 0.0000 0.0000 27.6148 0.0000 0.0000
# 5 0.0000 0.0000 0.0000 0.0000 63.5280 0.0000
# 6 0.0000 0.0000 0.0000 0.0000 0.0000 46.7582
#
#
#
# Elastic Compliance Matrix: (Units=1/GPa)
#
#
# Indices 1 2 3 4 5 6 
#
# 1 0.013809 -0.001496 -0.002016 0.000000 0.000000 0.000000
# 2 -0.001496 0.006819 -0.000708 0.000000 0.000000 0.000000
# 3 -0.002016 -0.000708 0.006623 0.000000 0.000000 0.000000
# 4 0.000000 0.000000 0.000000 0.036213 0.000000 0.000000
# 5 0.000000 0.000000 0.000000 0.000000 0.015741 0.000000
# 6 0.000000 0.000000 0.000000 0.000000 0.000000 0.021387
#
#
# Mechanical properties :
#
#
# Convention : Reuss Voigt Hill
#
# Bulk Modulus (GPa) = 53.16026 58.84922 56.00474
# Shear Modulus (GPa) = 43.36384 49.22477 46.29430
#
# Velocity S-wave (km/s) = 3.91387 4.16999 4.04396
# Velocity P-wave (km/s) = 6.26127 6.63127 6.44893
#
# Compressibility (1/GPa) = 0.01881104
#
# Stress axis : x y z
#
# Youngs Moduli (GPa) = 72.41399 146.64810 150.97935
#
# Poissons Ratio (x) = 0.21944 0.30432
# Poissons Ratio (y) = 0.10836 0.10696
# Poissons Ratio (z) = 0.14596 0.10389
#
# Static dielectric constant tensor:
#      x y z
#    x 2.438230 0.000000 0.000000 
#    y 0.000000 2.471490 0.000000 
#    z 0.000000 0.000000 2.222990 
# 
# From -- ./inp_files/4362.got.cif
#   From: 2010.05.17/outbox.cif.g08.bks.cpg/sg33_3_cif.got.tgz:4362.got - 2010.06.03 17:15:25.
