data_PCOD9346053
_publ_section_title
;
Structure prediction by ZEFSAII (Michael W. Deem and Ramdas Pophale) SiO2 
 PCOD9346053
Probable space group: P N A 21
;
_chemical_formula_sum "Si O2"
_cell_formula_units_Z 32
_cell_length_a 9.458039
_cell_length_b 7.842603
_cell_length_c 21.865214
_cell_angle_alpha 90.000000
_cell_angle_beta 90.000000
_cell_angle_gamma 90.000000
_cell_volume 1621.866352
_symmetry_space_group_name_H-M "P N A 21"
_symmetry_group_IT_number 33
_symmetry_cell_setting 'orthorhombic'
loop_
_space_group_symop_operation_xyz
x,y,z
-x,-y,1/2+z
1/2-x,1/2+y,1/2+z
1/2+x,1/2-y,z
loop_
_atom_site_type_symbol
_atom_site_label
_atom_site_fract_x
_atom_site_fract_y
_atom_site_fract_z
Si Si1 0.443273 0.055292 0.911250
Si Si2 0.281784 0.411482 0.911201
Si Si3 0.912489 0.240535 0.572882
Si Si4 0.278487 0.413101 0.770283
Si Si5 0.837946 0.765281 0.990040
Si Si6 0.054294 0.567040 0.269898
Si Si7 0.545025 0.088185 0.142546
Si Si8 0.792129 0.920895 0.645818
O O1 0.353651 0.227940 0.923210
O O2 0.611055 0.092545 0.919436
O O3 0.418973 0.008709 0.839464
O O4 0.393190 0.899453 0.953392
O O5 0.310891 0.459004 0.840232
O O6 0.345909 0.561082 0.952078
O O7 0.823140 0.239917 0.510453
O O8 0.902978 0.421459 0.606619
O O9 0.073533 0.215347 0.552432
O O10 0.852104 0.089349 0.613763
O O11 0.355829 0.235806 0.757829
O O12 0.315830 0.548816 0.718336
O O13 0.110696 0.384933 0.766317
O O14 0.079003 0.438463 0.214454
O O15 0.375566 0.099057 0.135159
O O16 0.623937 0.257700 0.121926
#
# Coordination Sequence:
#
# PCOD9346053 Si02
#       8
#     4   4   4   4   4   4   4   4
#     4  10  23  42  66  98 129 169 214 264 321 379
#     4  10  23  42  66  97 130 168 213 266 321 380
#     4  12  26  46  64  91 133 176 215 261 316 382
#     4   9  19  39  65  95 130 164 207 265 325 378
#     4  12  26  44  66  91 133 176 215 259 314 390
#     4   9  19  39  65  95 132 162 208 266 322 379
#     4  11  25  42  66  98 128 170 215 266 321 382
#     4  11  25  42  66  97 129 169 215 265 324 382
#
# _framework density 19.730356
#
# number of rings (size 3 to 8) (size 9 to 14) (size 15 to 20)
#    0.000    1.500    3.750    0.000    5.250    3.000 
#    0.000    0.000    0.000    0.000    0.000    0.000 
#    0.000    0.000    0.000    0.000    0.000    0.000 
#
# Total GULP energy -178717.101984 kJ/mol
# GULP energy per Si atom -5584.909437 kJ/mol
# Density = 1.968545 g / cm^3
# Si number density = 19.730356 Si / 1000 Ang^3
#
#
#
# Elastic Constant Matrix: (Units=GPa)
#
#
# Indices 1 2 3 4 5 6 
#
# 1 43.5896 58.1796 30.3762 0.0000 0.0000 0.0000
# 2 58.1796 138.6343 59.1490 0.0000 0.0000 0.0000
# 3 30.3762 59.1490 61.3064 0.0000 0.0000 0.0000
# 4 0.0000 0.0000 0.0000 21.5135 0.0000 0.0000
# 5 0.0000 0.0000 0.0000 0.0000 30.7399 0.0000
# 6 0.0000 0.0000 0.0000 0.0000 0.0000 35.1350
#
#
#
# Elastic Compliance Matrix: (Units=1/GPa)
#
#
# Indices 1 2 3 4 5 6 
#
# 1 0.054589 -0.019323 -0.008405 0.000000 0.000000 0.000000
# 2 -0.019323 0.019100 -0.008853 0.000000 0.000000 0.000000
# 3 -0.008405 -0.008853 0.029018 0.000000 0.000000 0.000000
# 4 0.000000 0.000000 0.000000 0.046482 0.000000 0.000000
# 5 0.000000 0.000000 0.000000 0.000000 0.032531 0.000000
# 6 0.000000 0.000000 0.000000 0.000000 0.000000 0.028462
#
#
# Mechanical properties :
#
#
# Convention : Reuss Voigt Hill
#
# Bulk Modulus (GPa) = 33.84781 59.88222 46.86502
# Shear Modulus (GPa) = 17.05368 23.86606 20.45987
#
# Velocity S-wave (km/s) = 2.94315 3.48172 3.22370
# Velocity P-wave (km/s) = 5.36115 6.82491 6.13683
#
# Compressibility (1/GPa) = 0.02954401
#
# Stress axis : x y z
#
# Youngs Moduli (GPa) = 18.31871 52.35698 34.46163
#
# Poissons Ratio (x) = 1.01169 0.28965
# Poissons Ratio (y) = 0.35397 0.30510
# Poissons Ratio (z) = 0.15397 0.46353
#
# Static dielectric constant tensor:
#      x y z
#    x 1.663080 0.000000 0.000000 
#    y 0.000000 1.650110 0.000000 
#    z 0.000000 0.000000 1.730590 
# 
# From -- ./inp_files/8953.got.cif
#   From: 2010.05.17/outbox.cif.g08.bks.cpg/sg33_5_cif.got.tgz:8953.got - 2010.06.03 17:15:25.
