data_PCOD9346744
_publ_section_title
;
Structure prediction by ZEFSAII (Michael W. Deem and Ramdas Pophale) SiO2 
 PCOD9346744
Probable space group: P N A 21
;
_chemical_formula_sum "Si O2"
_cell_formula_units_Z 32
_cell_length_a 19.381326
_cell_length_b 11.240263
_cell_length_c 5.575687
_cell_angle_alpha 90.000000
_cell_angle_beta 90.000000
_cell_angle_gamma 90.000000
_cell_volume 1214.670112
_symmetry_space_group_name_H-M "P N A 21"
_symmetry_group_IT_number 33
_symmetry_cell_setting 'orthorhombic'
loop_
_space_group_symop_operation_xyz
x,y,z
-x,-y,1/2+z
1/2-x,1/2+y,1/2+z
1/2+x,1/2-y,z
loop_
_atom_site_type_symbol
_atom_site_label
_atom_site_fract_x
_atom_site_fract_y
_atom_site_fract_z
Si Si1 0.908076 0.637484 0.128160
Si Si2 0.859177 0.422584 0.846267
Si Si3 0.216302 0.034588 0.632529
Si Si4 0.040681 0.987786 0.226264
Si Si5 0.550494 0.764239 0.011466
Si Si6 0.648335 0.689036 0.626654
Si Si7 0.371979 0.690314 0.498989
Si Si8 0.725458 0.230198 0.381296
O O1 0.901694 0.501290 0.040048
O O2 0.918478 0.704590 0.382798
O O3 0.972056 0.693304 0.986400
O O4 0.831179 0.682671 0.063914
O O5 0.832883 0.303500 0.974758
O O6 0.790285 0.491019 0.758777
O O7 0.906710 0.374615 0.627799
O O8 0.162292 0.099242 0.809752
O O9 0.238943 0.132962 0.443682
O O10 0.172248 0.931862 0.503808
O O11 0.060717 0.848442 0.190939
O O12 0.009919 0.000209 0.492541
O O13 0.090665 0.099742 0.179701
O O14 0.577195 0.717039 0.756001
O O15 0.699831 0.673950 0.858071
O O16 0.312351 0.763469 0.628118
#
# Coordination Sequence:
#
# PCOD9346744 Si02
#       8
#     4   4   4   4   4   4   4   4
#     4  11  27  50  71 109 158 206 264 316 413 498
#     4  12  28  47  75 108 156 204 266 332 412 503
#     4  11  24  46  70 113 142 192 261 331 405 480
#     4  12  27  49  79 118 162 210 274 341 419 494
#     4  12  28  47  72 117 162 210 266 335 416 499
#     4  12  26  45  74 109 150 205 262 332 405 487
#     4  11  24  44  78 107 146 203 254 335 403 483
#     4  11  24  46  77 105 148 200 257 332 407 482
#
# _framework density 26.344598999999999
#
# number of rings (size 3 to 8) (size 9 to 14) (size 15 to 20)
#    0.000    0.500    6.250    0.750    7.000    3.000 
#    0.000    0.000    0.000    0.000    0.000    0.000 
#    0.000    0.000    0.000    0.000    0.000    0.000 
#
# Total GULP energy -178840.416240 kJ/mol
# GULP energy per Si atom -5588.763008 kJ/mol
# Density = 2.628464 g / cm^3
# Si number density = 26.344599 Si / 1000 Ang^3
#
#
#
# Elastic Constant Matrix: (Units=GPa)
#
#
# Indices 1 2 3 4 5 6 
#
# 1 51.3874 7.0649 18.4834 0.0000 0.0000 0.0000
# 2 7.0649 124.6051 18.6578 0.0000 0.0000 0.0000
# 3 18.4834 18.6578 67.0491 0.0000 0.0000 0.0000
# 4 0.0000 0.0000 0.0000 48.1144 0.0000 0.0000
# 5 0.0000 0.0000 0.0000 0.0000 38.5744 0.0000
# 6 0.0000 0.0000 0.0000 0.0000 0.0000 33.2400
#
#
#
# Elastic Compliance Matrix: (Units=1/GPa)
#
#
# Indices 1 2 3 4 5 6 
#
# 1 0.021616 -0.000348 -0.005862 0.000000 0.000000 0.000000
# 2 -0.000348 0.008380 -0.002236 0.000000 0.000000 0.000000
# 3 -0.005862 -0.002236 0.017153 0.000000 0.000000 0.000000
# 4 0.000000 0.000000 0.000000 0.020784 0.000000 0.000000
# 5 0.000000 0.000000 0.000000 0.000000 0.025924 0.000000
# 6 0.000000 0.000000 0.000000 0.000000 0.000000 0.030084
#
#
# Mechanical properties :
#
#
# Convention : Reuss Voigt Hill
#
# Bulk Modulus (GPa) = 33.05028 36.82820 34.93924
# Shear Modulus (GPa) = 33.13043 37.24145 35.18594
#
# Velocity S-wave (km/s) = 3.55008 3.76390 3.65856
# Velocity P-wave (km/s) = 5.42003 5.73577 5.58013
#
# Compressibility (1/GPa) = 0.03025693
#
# Stress axis : x y z
#
# Youngs Moduli (GPa) = 46.26115 119.33345 58.29988
#
# Poissons Ratio (x) = 0.04151 0.34177
# Poissons Ratio (y) = 0.01609 0.13036
# Poissons Ratio (z) = 0.27119 0.26683
#
# Static dielectric constant tensor:
#      x y z
#    x 2.109690 0.000000 0.000000 
#    y 0.000000 2.204510 0.000000 
#    z 0.000000 0.000000 2.120860 
# 
# From -- ./inp_files/2086.got.cif
#   From: 2010.05.17/outbox.cif.g08.bks.cpg/sg33_2_cif.got.tgz:2086.got - 2010.06.03 17:15:25.
