data_PCOD9346471
_publ_section_title
;
Structure prediction by ZEFSAII (Michael W. Deem and Ramdas Pophale) SiO2 
 PCOD9346471
Probable space group: P N A 21
;
_chemical_formula_sum "Si O2"
_cell_formula_units_Z 32
_cell_length_a 12.907808
_cell_length_b 18.017215
_cell_length_c 5.555400
_cell_angle_alpha 90.000000
_cell_angle_beta 90.000000
_cell_angle_gamma 90.000000
_cell_volume 1291.979112
_symmetry_space_group_name_H-M "P N A 21"
_symmetry_group_IT_number 33
_symmetry_cell_setting 'orthorhombic'
loop_
_space_group_symop_operation_xyz
x,y,z
-x,-y,1/2+z
1/2-x,1/2+y,1/2+z
1/2+x,1/2-y,z
loop_
_atom_site_type_symbol
_atom_site_label
_atom_site_fract_x
_atom_site_fract_y
_atom_site_fract_z
Si Si1 0.255936 0.329214 0.362700
Si Si2 0.235934 0.099954 0.792305
Si Si3 0.815848 0.535637 0.566662
Si Si4 0.975387 0.892459 0.983071
Si Si5 0.538468 0.156130 0.897692
Si Si6 0.149659 0.996472 0.178880
Si Si7 0.020760 0.279887 0.393308
Si Si8 0.765835 0.229320 0.868746
O O1 0.217936 0.412696 0.295070
O O2 0.145709 0.287143 0.378621
O O3 0.303527 0.306323 0.618729
O O4 0.311664 0.300420 0.120396
O O5 0.120827 0.103701 0.672049
O O6 0.269000 0.182598 0.849092
O O7 0.314723 0.051019 0.631639
O O8 0.223907 0.048449 0.023590
O O9 0.917381 0.572936 0.447908
O O10 0.719490 0.540779 0.383552
O O11 0.079825 0.933903 0.058245
O O12 0.994180 0.807849 0.914266
O O13 0.933262 0.943541 0.770430
O O14 0.489696 0.176591 0.639203
O O15 0.645915 0.203090 0.886639
O O16 0.483004 0.182941 0.143039
#
# Coordination Sequence:
#
# PCOD9346471 Si02
#       8
#     4   4   4   4   4   4   4   4
#     4   9  17  32  47  65  85 120 168 208 250 288
#     4  11  20  31  46  66  97 133 171 204 235 298
#     4   9  22  30  46  67  93 130 167 207 263 285
#     4  11  20  32  43  68  94 140 178 199 230 288
#     4   9  17  32  49  66  84 120 167 211 255 288
#     4  11  22  31  44  67 107 139 172 208 244 290
#     4   9  17  29  52  62  83 119 174 205 235 281
#     4   9  17  29  49  65  83 119 169 198 242 288
#
# _framework density 24.768204000000001
#
# number of rings (size 3 to 8) (size 9 to 14) (size 15 to 20)
#    0.000    2.500    3.750    1.500    8.750    0.000 
#    0.000    0.000    0.000    0.000    0.000    0.000 
#    0.000    0.000    0.000   22.500    2.500    0.000 
#
# Total GULP energy -178686.133223 kJ/mol
# GULP energy per Si atom -5583.941663 kJ/mol
# Density = 2.471183 g / cm^3
# Si number density = 24.768204 Si / 1000 Ang^3
#
#
#
# Elastic Constant Matrix: (Units=GPa)
#
#
# Indices 1 2 3 4 5 6 
#
# 1 45.5979 -0.5859 0.8619 0.0000 0.0000 0.0000
# 2 -0.5859 107.2544 45.1196 0.0000 0.0000 0.0000
# 3 0.8619 45.1196 166.5931 0.0000 0.0000 0.0000
# 4 0.0000 0.0000 0.0000 29.2423 0.0000 0.0000
# 5 0.0000 0.0000 0.0000 0.0000 9.1340 0.0000
# 6 0.0000 0.0000 0.0000 0.0000 0.0000 28.5380
#
#
#
# Elastic Compliance Matrix: (Units=1/GPa)
#
#
# Indices 1 2 3 4 5 6 
#
# 1 0.021936 0.000189 -0.000165 0.000000 0.000000 0.000000
# 2 0.000189 0.010524 -0.002851 0.000000 0.000000 0.000000
# 3 -0.000165 -0.002851 0.006776 0.000000 0.000000 0.000000
# 4 0.000000 0.000000 0.000000 0.034197 0.000000 0.000000
# 5 0.000000 0.000000 0.000000 0.000000 0.109481 0.000000
# 6 0.000000 0.000000 0.000000 0.000000 0.000000 0.035041
#
#
# Mechanical properties :
#
#
# Convention : Reuss Voigt Hill
#
# Bulk Modulus (GPa) = 29.77742 45.58182 37.67962
# Shear Modulus (GPa) = 21.29438 31.65284 26.47361
#
# Velocity S-wave (km/s) = 2.93532 3.57874 3.27288
# Velocity P-wave (km/s) = 4.85147 5.95985 5.43399
#
# Compressibility (1/GPa) = 0.03358249
#
# Stress axis : x y z
#
# Youngs Moduli (GPa) = 45.58637 95.01959 147.58528
#
# Poissons Ratio (x) = -0.01797 0.02431
# Poissons Ratio (y) = -0.00862 0.42081
# Poissons Ratio (z) = 0.00751 0.27093
#
# Static dielectric constant tensor:
#      x y z
#    x 1.952730 0.000000 0.000000 
#    y 0.000000 1.967000 0.000000 
#    z 0.000000 0.000000 2.078730 
# 
# From -- ./inp_files/2113.got.cif
#   From: 2010.05.17/outbox.cif.g08.bks.cpg/sg33_2_cif.got.tgz:2113.got - 2010.06.03 17:15:25.
