data_PCOD9346336
_publ_section_title
;
Structure prediction by ZEFSAII (Michael W. Deem and Ramdas Pophale) SiO2 
 PCOD9346336
Probable space group: P N A 21
;
_chemical_formula_sum "Si O2"
_cell_formula_units_Z 16
_cell_length_a 5.268841
_cell_length_b 20.951938
_cell_length_c 5.321831
_cell_angle_alpha 90.000000
_cell_angle_beta 90.000000
_cell_angle_gamma 90.000000
_cell_volume 587.489856
_symmetry_space_group_name_H-M "P N A 21"
_symmetry_group_IT_number 33
_symmetry_cell_setting 'orthorhombic'
loop_
_space_group_symop_operation_xyz
x,y,z
-x,-y,1/2+z
1/2-x,1/2+y,1/2+z
1/2+x,1/2-y,z
loop_
_atom_site_type_symbol
_atom_site_label
_atom_site_fract_x
_atom_site_fract_y
_atom_site_fract_z
Si Si1 0.483904 0.655124 0.905150
Si Si2 0.292127 0.078226 0.010102
Si Si3 0.664610 0.768761 0.219237
Si Si4 0.281016 0.446210 0.724889
O O1 0.336477 0.637845 0.653875
O O2 0.623714 0.721462 0.974829
O O3 0.259217 0.664219 0.114524
O O4 0.672575 0.598002 0.980055
O O5 0.570951 0.087453 0.898147
O O6 0.063642 0.051340 0.837416
O O7 0.319492 0.017853 0.198122
O O8 0.400424 0.763748 0.358108
#
# Coordination Sequence:
#
# PCOD9346336 Si02
#       4
#     4   4   4   4
#     4  10  24  46  70 100 144 178 238 280 358 420
#     4  12  27  43  70 103 140 185 233 295 358 423
#     4   8  20  38  70  90 138 188 210 294 342 402
#     4  12  27  43  70 103 140 185 233 295 358 423
#
# _framework density 27.234511999999999
#
# number of rings (size 3 to 8) (size 9 to 14) (size 15 to 20)
#    1.500    0.000    2.500    1.500    7.000    0.000 
#    0.000    7.500    0.000    0.000    0.000    0.000 
#    0.000    0.000    0.000    0.000    0.000    0.000 
#
# Total GULP energy -89314.142444 kJ/mol
# GULP energy per Si atom -5582.133903 kJ/mol
# Density = 2.717252 g / cm^3
# Si number density = 27.234512 Si / 1000 Ang^3
#
#
#
# Elastic Constant Matrix: (Units=GPa)
#
#
# Indices 1 2 3 4 5 6 
#
# 1 173.2427 17.9243 23.4596 0.0000 0.0000 0.0000
# 2 17.9243 121.3702 2.4417 0.0000 0.0000 0.0000
# 3 23.4596 2.4417 51.7749 0.0000 0.0000 0.0000
# 4 0.0000 0.0000 0.0000 34.0855 0.0000 0.0000
# 5 0.0000 0.0000 0.0000 0.0000 40.4346 0.0000
# 6 0.0000 0.0000 0.0000 0.0000 0.0000 40.2978
#
#
#
# Elastic Compliance Matrix: (Units=1/GPa)
#
#
# Indices 1 2 3 4 5 6 
#
# 1 0.006239 -0.000865 -0.002786 0.000000 0.000000 0.000000
# 2 -0.000865 0.008367 -0.000002 0.000000 0.000000 0.000000
# 3 -0.002786 -0.000002 0.020577 0.000000 0.000000 0.000000
# 4 0.000000 0.000000 0.000000 0.029338 0.000000 0.000000
# 5 0.000000 0.000000 0.000000 0.000000 0.024731 0.000000
# 6 0.000000 0.000000 0.000000 0.000000 0.000000 0.024815
#
#
# Mechanical properties :
#
#
# Convention : Reuss Voigt Hill
#
# Bulk Modulus (GPa) = 35.87432 48.22654 42.05043
# Shear Modulus (GPa) = 38.26512 43.13440 40.69976
#
# Velocity S-wave (km/s) = 3.75243 3.98403 3.86996
# Velocity P-wave (km/s) = 5.65467 6.23776 5.95336
#
# Compressibility (1/GPa) = 0.02787509
#
# Stress axis : x y z
#
# Youngs Moduli (GPa) = 160.28038 119.51570 48.59816
#
# Poissons Ratio (x) = 0.10342 0.13540
# Poissons Ratio (y) = 0.13870 0.00012
# Poissons Ratio (z) = 0.44657 0.00030
#
# Static dielectric constant tensor:
#      x y z
#    x 2.139760 0.000000 0.000000 
#    y 0.000000 2.211680 0.000000 
#    z 0.000000 0.000000 2.232340 
# 
# From -- ./inp_files/123.got.cif
#   From: 2010.05.17/outbox.cif.g08.bks.cpg/sg33_1_cif.got.tgz:123.got - 2010.06.03 17:15:25.
