data_PCOD9346445
_publ_section_title
;
Structure prediction by ZEFSAII (Michael W. Deem and Ramdas Pophale) SiO2 
 PCOD9346445
Probable space group: P N A 21
;
_chemical_formula_sum "Si O2"
_cell_formula_units_Z 28
_cell_length_a 11.615954
_cell_length_b 17.138494
_cell_length_c 5.912203
_cell_angle_alpha 90.000000
_cell_angle_beta 90.000000
_cell_angle_gamma 90.000000
_cell_volume 1177.001125
_symmetry_space_group_name_H-M "P N A 21"
_symmetry_group_IT_number 33
_symmetry_cell_setting 'orthorhombic'
loop_
_space_group_symop_operation_xyz
x,y,z
-x,-y,1/2+z
1/2-x,1/2+y,1/2+z
1/2+x,1/2-y,z
loop_
_atom_site_type_symbol
_atom_site_label
_atom_site_fract_x
_atom_site_fract_y
_atom_site_fract_z
Si Si1 0.511378 0.675101 0.214340
Si Si2 0.198840 0.122542 0.014656
Si Si3 0.056970 0.990894 0.213294
Si Si4 0.105667 0.399979 0.039858
Si Si5 0.035392 0.705744 0.886601
Si Si6 0.194068 0.785646 0.575529
Si Si7 0.908945 0.423922 0.711237
O O1 0.401459 0.635168 0.330975
O O2 0.599165 0.720650 0.378212
O O3 0.585298 0.598400 0.149317
O O4 0.459974 0.741935 0.054064
O O5 0.315645 0.091351 0.904419
O O6 0.152042 0.058772 0.189895
O O7 0.224755 0.210207 0.090487
O O8 0.977353 0.008701 0.984097
O O9 0.231729 0.362648 0.039235
O O10 0.102775 0.487034 0.137311
O O11 0.033776 0.340486 0.197547
O O12 0.037247 0.407138 0.804819
O O13 0.116898 0.775054 0.796412
O O14 0.107432 0.638888 0.013301
#
# Coordination Sequence:
#
# PCOD9346445 Si02
#       7
#     4   4   4   4   4   4   4
#     4  11  27  48  73 110 154 194 259 317 399 463
#     4  11  25  49  72 109 156 193 255 319 389 470
#     4  10  26  47  78 109 153 206 256 321 391 461
#     4  12  28  48  77 106 156 195 269 312 399 480
#     4  12  25  46  75 107 150 196 255 321 396 467
#     4  12  27  44  75 113 145 205 253 325 387 472
#     4  12  26  50  72 112 146 209 245 323 393 473
#
# _framework density 23.789270999999999
#
# number of rings (size 3 to 8) (size 9 to 14) (size 15 to 20)
#    0.000    0.571    4.286    1.714   10.000    6.857 
#    0.000    0.000    0.000    0.000    0.000    0.000 
#    0.000    0.000    0.000    0.000    0.000    0.000 
#
# Total GULP energy -156229.260043 kJ/mol
# GULP energy per Si atom -5579.616430 kJ/mol
# Density = 2.373513 g / cm^3
# Si number density = 23.789271 Si / 1000 Ang^3
#
#
#
# Elastic Constant Matrix: (Units=GPa)
#
#
# Indices 1 2 3 4 5 6 
#
# 1 49.4209 5.7389 7.9108 0.0000 0.0000 0.0000
# 2 5.7389 127.2286 12.0919 0.0000 0.0000 0.0000
# 3 7.9108 12.0919 37.7000 0.0000 0.0000 0.0000
# 4 0.0000 0.0000 0.0000 55.8795 0.0000 0.0000
# 5 0.0000 0.0000 0.0000 0.0000 15.8366 0.0000
# 6 0.0000 0.0000 0.0000 0.0000 0.0000 52.0004
#
#
#
# Elastic Compliance Matrix: (Units=1/GPa)
#
#
# Indices 1 2 3 4 5 6 
#
# 1 0.020974 -0.000544 -0.004227 0.000000 0.000000 0.000000
# 2 -0.000544 0.008121 -0.002491 0.000000 0.000000 0.000000
# 3 -0.004227 -0.002491 0.028211 0.000000 0.000000 0.000000
# 4 0.000000 0.000000 0.000000 0.017896 0.000000 0.000000
# 5 0.000000 0.000000 0.000000 0.000000 0.063145 0.000000
# 6 0.000000 0.000000 0.000000 0.000000 0.000000 0.019231
#
#
# Mechanical properties :
#
#
# Convention : Reuss Voigt Hill
#
# Bulk Modulus (GPa) = 23.37363 29.53697 26.45530
# Shear Modulus (GPa) = 26.82961 37.31715 32.07338
#
# Velocity S-wave (km/s) = 3.36192 3.96492 3.67581
# Velocity P-wave (km/s) = 4.99166 5.77961 5.40002
#
# Compressibility (1/GPa) = 0.04278326
#
# Stress axis : x y z
#
# Youngs Moduli (GPa) = 47.67777 123.13558 35.44725
#
# Poissons Ratio (x) = 0.06703 0.14982
# Poissons Ratio (y) = 0.02596 0.08828
# Poissons Ratio (z) = 0.20151 0.30668
#
# Static dielectric constant tensor:
#      x y z
#    x 2.135970 0.000000 0.000000 
#    y 0.000000 1.864330 0.000000 
#    z 0.000000 0.000000 2.045030 
# 
# From -- ./inp_files/923.got.cif
#   From: 2010.05.17/outbox.cif.g08.bks.cpg/sg33_1_cif.got.tgz:923.got - 2010.06.03 17:15:25.
