data_PCOD9346718
_publ_section_title
;
Structure prediction by ZEFSAII (Michael W. Deem and Ramdas Pophale) SiO2 
 PCOD9346718
Probable space group: P N A 21
;
_chemical_formula_sum "Si O2"
_cell_formula_units_Z 28
_cell_length_a 9.008943
_cell_length_b 9.219221
_cell_length_c 12.826452
_cell_angle_alpha 90.000000
_cell_angle_beta 90.000000
_cell_angle_gamma 90.000000
_cell_volume 1065.306570
_symmetry_space_group_name_H-M "P N A 21"
_symmetry_group_IT_number 33
_symmetry_cell_setting 'orthorhombic'
loop_
_space_group_symop_operation_xyz
x,y,z
-x,-y,1/2+z
1/2-x,1/2+y,1/2+z
1/2+x,1/2-y,z
loop_
_atom_site_type_symbol
_atom_site_label
_atom_site_fract_x
_atom_site_fract_y
_atom_site_fract_z
Si Si1 0.810636 0.661555 0.395780
Si Si2 0.304755 0.666835 0.593008
Si Si3 0.572342 0.999382 0.467301
Si Si4 0.664023 0.850068 0.103078
Si Si5 0.002362 0.093706 0.538615
Si Si6 0.414777 0.580817 0.806627
Si Si7 0.232963 0.023254 0.794118
O O1 0.665597 0.324694 0.216482
O O2 0.981046 0.612518 0.395455
O O3 0.699907 0.545451 0.344070
O O4 0.794381 0.815185 0.339848
O O5 0.441629 0.571126 0.545557
O O6 0.286072 0.808243 0.520239
O O7 0.157986 0.576102 0.562567
O O8 0.695830 0.064552 0.390496
O O9 0.443906 0.096844 0.512850
O O10 0.615479 0.683195 0.108782
O O11 0.649813 0.952989 0.202440
O O12 0.836188 0.864037 0.079346
O O13 0.022380 0.135595 0.417161
O O14 0.572551 0.531127 0.757758
#
# Coordination Sequence:
#
# PCOD9346718 Si02
#       7
#     4   4   4   4   4   4   4
#     4  11  24  46  75 110 144 197 253 315 375 455
#     4  11  25  46  74 108 152 192 254 315 373 454
#     4  11  25  44  70 108 146 188 257 305 373 458
#     4  12  27  45  71 104 149 196 239 311 380 448
#     4  12  25  47  69 107 151 191 250 309 372 456
#     4  12  24  49  73 110 149 202 246 314 384 449
#     4  11  24  43  76 101 141 192 253 299 375 450
#
# _framework density 26.283515000000001
#
# number of rings (size 3 to 8) (size 9 to 14) (size 15 to 20)
#    0.000    0.571    5.714    3.429    4.000    0.000 
#    5.143    0.000    0.000    0.000    0.000    0.000 
#    0.000    0.000    0.000    0.000    0.000    0.000 
#
# Total GULP energy -156590.574409 kJ/mol
# GULP energy per Si atom -5592.520515 kJ/mol
# Density = 2.622369 g / cm^3
# Si number density = 26.283515 Si / 1000 Ang^3
#
#
#
# Elastic Constant Matrix: (Units=GPa)
#
#
# Indices 1 2 3 4 5 6 
#
# 1 147.8974 18.9508 20.7720 0.0000 0.0000 0.0000
# 2 18.9508 37.7458 7.1033 0.0000 0.0000 0.0000
# 3 20.7720 7.1033 130.9681 0.0000 0.0000 0.0000
# 4 0.0000 0.0000 0.0000 31.3831 0.0000 0.0000
# 5 0.0000 0.0000 0.0000 0.0000 56.2163 0.0000
# 6 0.0000 0.0000 0.0000 0.0000 0.0000 25.5202
#
#
#
# Elastic Compliance Matrix: (Units=1/GPa)
#
#
# Indices 1 2 3 4 5 6 
#
# 1 0.007348 -0.003505 -0.000975 0.000000 0.000000 0.000000
# 2 -0.003505 0.028439 -0.000986 0.000000 0.000000 0.000000
# 3 -0.000975 -0.000986 0.007844 0.000000 0.000000 0.000000
# 4 0.000000 0.000000 0.000000 0.031864 0.000000 0.000000
# 5 0.000000 0.000000 0.000000 0.000000 0.017788 0.000000
# 6 0.000000 0.000000 0.000000 0.000000 0.000000 0.039185
#
#
# Mechanical properties :
#
#
# Convention : Reuss Voigt Hill
#
# Bulk Modulus (GPa) = 30.58515 45.58482 38.08498
# Shear Modulus (GPa) = 32.40443 40.60960 36.50702
#
# Velocity S-wave (km/s) = 3.51505 3.93499 3.73093
# Velocity P-wave (km/s) = 5.30434 6.16658 5.75164
#
# Compressibility (1/GPa) = 0.03269561
#
# Stress axis : x y z
#
# Youngs Moduli (GPa) = 136.09922 35.16347 127.49210
#
# Poissons Ratio (x) = 0.12326 0.12433
# Poissons Ratio (y) = 0.47709 0.12576
# Poissons Ratio (z) = 0.13273 0.03469
#
# Static dielectric constant tensor:
#      x y z
#    x 2.001440 0.000000 0.000000 
#    y 0.000000 2.248350 0.000000 
#    z 0.000000 0.000000 2.143620 
# 
# From -- ./inp_files/5846.got.cif
#   From: 2010.05.17/outbox.cif.g08.bks.cpg/sg33_3_cif.got.tgz:5846.got - 2010.06.03 17:15:25.
