data_PCOD9346675
_publ_section_title
;
Structure prediction by ZEFSAII (Michael W. Deem and Ramdas Pophale) SiO2 
 PCOD9346675
Probable space group: P N A 21
;
_chemical_formula_sum "Si O2"
_cell_formula_units_Z 20
_cell_length_a 10.653149
_cell_length_b 13.530576
_cell_length_c 5.019722
_cell_angle_alpha 90.000000
_cell_angle_beta 90.000000
_cell_angle_gamma 90.000000
_cell_volume 723.559004
_symmetry_space_group_name_H-M "P N A 21"
_symmetry_group_IT_number 33
_symmetry_cell_setting 'orthorhombic'
loop_
_space_group_symop_operation_xyz
x,y,z
-x,-y,1/2+z
1/2-x,1/2+y,1/2+z
1/2+x,1/2-y,z
loop_
_atom_site_type_symbol
_atom_site_label
_atom_site_fract_x
_atom_site_fract_y
_atom_site_fract_z
Si Si1 0.149864 0.792523 0.013330
Si Si2 0.923417 0.661933 0.915501
Si Si3 0.124492 0.500054 0.787367
Si Si4 0.988903 0.060813 0.853300
Si Si5 0.256796 0.101428 0.782087
O O1 0.175715 0.701844 0.211354
O O2 0.122125 0.885596 0.200426
O O3 0.279165 0.809195 0.848166
O O4 0.021983 0.751573 0.875665
O O5 0.997346 0.567353 0.791029
O O6 0.906585 0.613299 0.214449
O O7 0.201078 0.548373 0.546386
O O8 0.208667 0.528044 0.040423
O O9 0.111429 0.126501 0.810319
O O10 0.021497 0.967137 0.661302
#
# Coordination Sequence:
#
# PCOD9346675 Si02
#       5
#     4   4   4   4   4
#     4  11  24  45  76 105 153 187 251 307 367 437
#     4  11  23  47  72 112 142 198 239 307 363 444
#     4  11  25  46  79 101 155 193 253 295 379 449
#     4  12  26  47  74 108 150 197 248 310 376 437
#     4  11  24  49  71 114 144 199 249 307 367 445
#
# _framework density 27.641144000000001
#
# number of rings (size 3 to 8) (size 9 to 14) (size 15 to 20)
#    0.000    0.800    2.000    6.000    0.000    3.200 
#    7.200    8.000    0.000    0.000    0.000    0.000 
#    0.000    0.000    0.000    0.000    0.000    0.000 
#
# Total GULP energy -111977.350190 kJ/mol
# GULP energy per Si atom -5598.867509 kJ/mol
# Density = 2.757823 g / cm^3
# Si number density = 27.641144 Si / 1000 Ang^3
#
#
#
# Elastic Constant Matrix: (Units=GPa)
#
#
# Indices 1 2 3 4 5 6 
#
# 1 176.1299 33.4786 22.6343 0.0000 0.0000 0.0000
# 2 33.4786 111.3944 3.3572 0.0000 0.0000 0.0000
# 3 22.6343 3.3572 117.0704 0.0000 0.0000 0.0000
# 4 0.0000 0.0000 0.0000 28.8103 0.0000 0.0000
# 5 0.0000 0.0000 0.0000 0.0000 6.7909 0.0000
# 6 0.0000 0.0000 0.0000 0.0000 0.0000 56.0850
#
#
#
# Elastic Compliance Matrix: (Units=1/GPa)
#
#
# Indices 1 2 3 4 5 6 
#
# 1 0.006170 -0.001820 -0.001141 0.000000 0.000000 0.000000
# 2 -0.001820 0.009522 0.000079 0.000000 0.000000 0.000000
# 3 -0.001141 0.000079 0.008760 0.000000 0.000000 0.000000
# 4 0.000000 0.000000 0.000000 0.034710 0.000000 0.000000
# 5 0.000000 0.000000 0.000000 0.000000 0.147256 0.000000
# 6 0.000000 0.000000 0.000000 0.000000 0.000000 0.017830
#
#
# Mechanical properties :
#
#
# Convention : Reuss Voigt Hill
#
# Bulk Modulus (GPa) = 53.50971 58.17054 55.84012
# Shear Modulus (GPa) = 21.16482 41.34555 31.25519
#
# Velocity S-wave (km/s) = 2.77013 3.87175 3.36631
# Velocity P-wave (km/s) = 5.44355 6.40920 5.94601
#
# Compressibility (1/GPa) = 0.01868820
#
# Stress axis : x y z
#
# Youngs Moduli (GPa) = 162.07010 105.02300 114.15322
#
# Poissons Ratio (x) = 0.19114 0.13022
# Poissons Ratio (y) = 0.29497 -0.00900
# Poissons Ratio (z) = 0.18488 -0.00828
#
# Static dielectric constant tensor:
#      x y z
#    x 2.242470 0.000000 0.000000 
#    y 0.000000 2.140570 0.000000 
#    z 0.000000 0.000000 2.129320 
# 
# From -- ./inp_files/820.got.cif
#   From: 2010.05.17/outbox.cif.g08.bks.cpg/sg33_1_cif.got.tgz:820.got - 2010.06.03 17:15:25.
