data_PCOD9346026
_publ_section_title
;
Structure prediction by ZEFSAII (Michael W. Deem and Ramdas Pophale) SiO2 
 PCOD9346026
Probable space group: P N A 21
;
_chemical_formula_sum "Si O2"
_cell_formula_units_Z 32
_cell_length_a 19.695808
_cell_length_b 11.754901
_cell_length_c 5.111841
_cell_angle_alpha 90.000000
_cell_angle_beta 90.000000
_cell_angle_gamma 90.000000
_cell_volume 1183.505048
_symmetry_space_group_name_H-M "P N A 21"
_symmetry_group_IT_number 33
_symmetry_cell_setting 'orthorhombic'
loop_
_space_group_symop_operation_xyz
x,y,z
-x,-y,1/2+z
1/2-x,1/2+y,1/2+z
1/2+x,1/2-y,z
loop_
_atom_site_type_symbol
_atom_site_label
_atom_site_fract_x
_atom_site_fract_y
_atom_site_fract_z
Si Si1 0.663392 0.061387 0.777010
Si Si2 0.219975 0.233319 0.951152
Si Si3 0.873593 0.853916 0.053471
Si Si4 0.813473 0.013881 0.678699
Si Si5 0.058240 0.352461 0.348126
Si Si6 0.579861 0.917655 0.069379
Si Si7 0.626118 0.716656 0.377085
Si Si8 0.004853 0.077231 0.927489
O O1 0.676089 0.153434 0.010500
O O2 0.603935 0.096338 0.583336
O O3 0.736797 0.054467 0.651984
O O4 0.644821 0.939335 0.891180
O O5 0.193683 0.212582 0.651393
O O6 0.298093 0.266662 0.995644
O O7 0.195164 0.113312 0.064256
O O8 0.913541 0.776022 0.842686
O O9 0.928922 0.868937 0.286172
O O10 0.845010 0.975766 0.960801
O O11 0.856768 0.129153 0.631527
O O12 0.056786 0.453054 0.132940
O O13 0.980845 0.349315 0.442113
O O14 0.604807 0.844121 0.308229
O O15 0.556681 0.663090 0.488155
O O16 0.981147 0.991198 0.694001
#
# Coordination Sequence:
#
# PCOD9346026 Si02
#       8
#     4   4   4   4   4   4   4   4
#     4  10  23  41  66  96 131 176 237 283 366 439
#     4  10  23  44  69  97 141 186 244 306 378 451
#     4  11  23  43  69 100 140 191 245 311 382 450
#     4  11  22  45  68 100 137 185 237 302 375 448
#     4  11  23  40  63  94 136 183 232 296 364 427
#     4  12  22  42  61  98 138 179 241 295 363 438
#     4  11  24  45  68 108 142 191 254 311 379 464
#     4  12  26  50  76 113 155 199 258 324 391 465
#
# _framework density 27.038330999999999
#
# number of rings (size 3 to 8) (size 9 to 14) (size 15 to 20)
#    0.000    1.000    3.750    3.000    0.000    0.000 
#    9.000    6.250    0.000    0.000    0.000    0.000 
#    0.000    0.000    0.000    0.000    0.000    0.000 
#
# Total GULP energy -178533.117691 kJ/mol
# GULP energy per Si atom -5579.159928 kJ/mol
# Density = 2.697679 g / cm^3
# Si number density = 27.038331 Si / 1000 Ang^3
#
#
#
# Elastic Constant Matrix: (Units=GPa)
#
#
# Indices 1 2 3 4 5 6 
#
# 1 139.3747 34.4241 8.7876 0.0000 0.0000 0.0000
# 2 34.4241 116.5868 22.2917 0.0000 0.0000 0.0000
# 3 8.7876 22.2917 52.8480 0.0000 0.0000 0.0000
# 4 0.0000 0.0000 0.0000 42.8130 0.0000 0.0000
# 5 0.0000 0.0000 0.0000 0.0000 10.0263 0.0000
# 6 0.0000 0.0000 0.0000 0.0000 0.0000 64.3064
#
#
#
# Elastic Compliance Matrix: (Units=1/GPa)
#
#
# Indices 1 2 3 4 5 6 
#
# 1 0.007745 -0.002220 -0.000352 0.000000 0.000000 0.000000
# 2 -0.002220 0.009966 -0.003835 0.000000 0.000000 0.000000
# 3 -0.000352 -0.003835 0.020598 0.000000 0.000000 0.000000
# 4 0.000000 0.000000 0.000000 0.023357 0.000000 0.000000
# 5 0.000000 0.000000 0.000000 0.000000 0.099738 0.000000
# 6 0.000000 0.000000 0.000000 0.000000 0.000000 0.015551
#
#
# Mechanical properties :
#
#
# Convention : Reuss Voigt Hill
#
# Bulk Modulus (GPa) = 39.21952 48.86847 44.04400
# Shear Modulus (GPa) = 25.21860 39.64953 32.43406
#
# Velocity S-wave (km/s) = 3.05732 3.83354 3.46722
# Velocity P-wave (km/s) = 5.19612 6.14066 5.68803
#
# Compressibility (1/GPa) = 0.02549751
#
# Stress axis : x y z
#
# Youngs Moduli (GPa) = 129.11027 100.34230 48.54816
#
# Poissons Ratio (x) = 0.22273 0.01707
# Poissons Ratio (y) = 0.28659 0.18616
# Poissons Ratio (z) = 0.04540 0.38477
#
# Static dielectric constant tensor:
#      x y z
#    x 2.055710 0.000000 0.000000 
#    y 0.000000 2.196950 0.000000 
#    z 0.000000 0.000000 2.268150 
# 
# From -- ./inp_files/2013.got.cif
#   From: 2010.05.17/outbox.cif.g08.bks.cpg/sg33_2_cif.got.tgz:2013.got - 2010.06.03 17:15:25.
