data_PCOD9346920
_publ_section_title
;
Structure prediction by ZEFSAII (Michael W. Deem and Ramdas Pophale) SiO2 
 PCOD9346920
Probable space group: P N A 21
;
_chemical_formula_sum "Si O2"
_cell_formula_units_Z 20
_cell_length_a 16.632518
_cell_length_b 5.351913
_cell_length_c 9.757616
_cell_angle_alpha 90.000000
_cell_angle_beta 90.000000
_cell_angle_gamma 90.000000
_cell_volume 868.581890
_symmetry_space_group_name_H-M "P N A 21"
_symmetry_group_IT_number 33
_symmetry_cell_setting 'orthorhombic'
loop_
_space_group_symop_operation_xyz
x,y,z
-x,-y,1/2+z
1/2-x,1/2+y,1/2+z
1/2+x,1/2-y,z
loop_
_atom_site_type_symbol
_atom_site_label
_atom_site_fract_x
_atom_site_fract_y
_atom_site_fract_z
Si Si1 0.099365 0.178348 0.768290
Si Si2 0.586631 0.696121 0.304588
Si Si3 0.309667 0.193992 0.201722
Si Si4 0.344599 0.593905 0.571984
Si Si5 0.146732 0.302440 0.338616
O O1 0.144026 0.437782 0.733107
O O2 0.116011 0.110272 0.927145
O O3 0.004339 0.207629 0.755151
O O4 0.135770 0.937505 0.692182
O O5 0.603346 0.444449 0.391770
O O6 0.613836 0.937224 0.388211
O O7 0.641748 0.649239 0.168275
O O8 0.242240 0.254195 0.322486
O O9 0.249913 0.151076 0.073857
O O10 0.381206 0.798178 0.677147
#
# Coordination Sequence:
#
# PCOD9346920 Si02
#       5
#     4   4   4   4   4
#     4  12  20  36  65  84 110 159 191 230 300 328
#     4   9  19  35  59  80 113 148 191 234 275 345
#     4   9  22  35  58  86 114 147 199 233 275 355
#     4   8  23  38  59  77 127 146 184 238 294 326
#     4   8  18  40  53  73 124 144 173 245 280 316
#
# _framework density 23.026039999999998
#
# number of rings (size 3 to 8) (size 9 to 14) (size 15 to 20)
#    2.400    0.000    0.000    3.600    2.800    0.000 
#    0.000   10.000    0.000    0.000    0.000    0.000 
#    0.000    0.000    0.000    0.000    0.000    0.000 
#
# Total GULP energy -111340.205823 kJ/mol
# GULP energy per Si atom -5567.010291 kJ/mol
# Density = 2.297363 g / cm^3
# Si number density = 23.026040 Si / 1000 Ang^3
#
#
#
# Elastic Constant Matrix: (Units=GPa)
#
#
# Indices 1 2 3 4 5 6 
#
# 1 128.4452 65.1623 -9.2830 0.0000 0.0000 0.0000
# 2 65.1623 215.4204 -8.8742 0.0000 0.0000 0.0000
# 3 -9.2830 -8.8742 67.3265 0.0000 0.0000 0.0000
# 4 0.0000 0.0000 0.0000 -3.7613 0.0000 0.0000
# 5 0.0000 0.0000 0.0000 0.0000 19.1456 0.0000
# 6 0.0000 0.0000 0.0000 0.0000 0.0000 200.1692
#
#
#
# Elastic Compliance Matrix: (Units=1/GPa)
#
#
# Indices 1 2 3 4 5 6 
#
# 1 0.009252 -0.002761 0.000912 0.000000 0.000000 0.000000
# 2 -0.002761 0.005491 0.000343 0.000000 0.000000 0.000000
# 3 0.000912 0.000343 0.015024 0.000000 0.000000 0.000000
# 4 0.000000 0.000000 0.000000 -0.265865 0.000000 0.000000
# 5 0.000000 0.000000 0.000000 0.000000 0.052231 0.000000
# 6 0.000000 0.000000 0.000000 0.000000 0.000000 0.004996
#
#
# Mechanical properties :
#
#
# Convention : Reuss Voigt Hill
#
# Bulk Modulus (GPa) = 37.37628 56.13360 46.75494
# Shear Modulus (GPa) = -29.95099 67.38982 18.71941
#
# Velocity S-wave (km/s) = -3.61050 5.41575 2.85435
# Velocity P-wave (km/s) = 1.05522 7.97109 5.58681
#
# Compressibility (1/GPa) = 0.02675494
#
# Stress axis : x y z
#
# Youngs Moduli (GPa) = 108.08401 182.10226 66.56050
#
# Poissons Ratio (x) = 0.50280 -0.06069
# Poissons Ratio (y) = 0.29843 -0.02284
# Poissons Ratio (z) = -0.09854 -0.06248
#
# Static dielectric constant tensor:
#      x y z
#    x 1.842780 0.000000 0.000000 
#    y 0.000000 1.975640 0.000000 
#    z 0.000000 0.000000 1.923160 
# 
# From -- ./inp_files/6886.got.cif
#   From: 2010.05.17/outbox.cif.g08.bks.cpg/sg33_4_cif.got.tgz:6886.got - 2010.06.03 17:15:25.
