data_PCOD9346326
_publ_section_title
;
Structure prediction by ZEFSAII (Michael W. Deem and Ramdas Pophale) SiO2 
 PCOD9346326
Probable space group: P N A 21
;
_chemical_formula_sum "Si O2"
_cell_formula_units_Z 20
_cell_length_a 9.698307
_cell_length_b 9.507405
_cell_length_c 8.922585
_cell_angle_alpha 90.000000
_cell_angle_beta 90.000000
_cell_angle_gamma 90.000000
_cell_volume 822.713485
_symmetry_space_group_name_H-M "P N A 21"
_symmetry_group_IT_number 33
_symmetry_cell_setting 'orthorhombic'
loop_
_space_group_symop_operation_xyz
x,y,z
-x,-y,1/2+z
1/2-x,1/2+y,1/2+z
1/2+x,1/2-y,z
loop_
_atom_site_type_symbol
_atom_site_label
_atom_site_fract_x
_atom_site_fract_y
_atom_site_fract_z
Si Si1 0.680627 0.906000 0.508190
Si Si2 0.841907 0.139816 0.639911
Si Si3 0.419815 0.766564 0.603191
Si Si4 0.787381 0.460078 0.692280
Si Si5 0.500597 0.553116 0.838572
O O1 0.578959 0.792969 0.574535
O O2 0.829852 0.829914 0.493352
O O3 0.628325 0.953795 0.347915
O O4 0.709474 0.041961 0.608028
O O5 0.798023 0.301742 0.633198
O O6 0.949548 0.100767 0.503974
O O7 0.906678 0.083278 0.796537
O O8 0.417105 0.682154 0.760587
O O9 0.355612 0.920654 0.594074
O O10 0.639244 0.519138 0.743944
#
# Coordination Sequence:
#
# PCOD9346326 Si02
#       5
#     4   4   4   4   4
#     4  10  25  44  67 102 138 183 227 290 347 405
#     4  10  25  43  70  98 140 177 238 279 350 410
#     4  11  23  46  69 100 143 181 229 290 345 410
#     4  11  25  41  71 100 134 186 234 275 352 415
#     4  10  24  46  63 104 137 181 228 290 340 410
#
# _framework density 24.309799999999999
#
# number of rings (size 3 to 8) (size 9 to 14) (size 15 to 20)
#    0.000    1.600    2.000    0.000   14.000    1.600 
#    0.000    0.000    0.000    0.000    0.000    0.000 
#    0.000    0.000    0.000    0.000    0.000    0.000 
#
# Total GULP energy -111637.775331 kJ/mol
# GULP energy per Si atom -5581.888767 kJ/mol
# Density = 2.425447 g / cm^3
# Si number density = 24.309800 Si / 1000 Ang^3
#
#
#
# Elastic Constant Matrix: (Units=GPa)
#
#
# Indices 1 2 3 4 5 6 
#
# 1 43.6286 30.9285 13.6937 0.0000 0.0000 0.0000
# 2 30.9285 186.0850 18.1940 0.0000 0.0000 0.0000
# 3 13.6937 18.1940 48.0818 0.0000 0.0000 0.0000
# 4 0.0000 0.0000 0.0000 29.4157 0.0000 0.0000
# 5 0.0000 0.0000 0.0000 0.0000 27.5897 0.0000
# 6 0.0000 0.0000 0.0000 0.0000 0.0000 13.9073
#
#
#
# Elastic Compliance Matrix: (Units=1/GPa)
#
#
# Indices 1 2 3 4 5 6 
#
# 1 0.027755 -0.003988 -0.006396 0.000000 0.000000 0.000000
# 2 -0.003988 0.006153 -0.001193 0.000000 0.000000 0.000000
# 3 -0.006396 -0.001193 0.023071 0.000000 0.000000 0.000000
# 4 0.000000 0.000000 0.000000 0.033995 0.000000 0.000000
# 5 0.000000 0.000000 0.000000 0.000000 0.036245 0.000000
# 6 0.000000 0.000000 0.000000 0.000000 0.000000 0.071905
#
#
# Mechanical properties :
#
#
# Convention : Reuss Voigt Hill
#
# Bulk Modulus (GPa) = 29.56231 44.82530 37.19380
# Shear Modulus (GPa) = 21.40844 28.51448 24.96146
#
# Velocity S-wave (km/s) = 2.97080 3.42857 3.20786
# Velocity P-wave (km/s) = 4.89434 5.84403 5.39014
#
# Compressibility (1/GPa) = 0.03382686
#
# Stress axis : x y z
#
# Youngs Moduli (GPa) = 36.02938 162.51468 43.34502
#
# Poissons Ratio (x) = 0.64807 0.27722
# Poissons Ratio (y) = 0.14368 0.05170
# Poissons Ratio (z) = 0.23043 0.19383
#
# Static dielectric constant tensor:
#      x y z
#    x 1.979290 0.000000 0.000000 
#    y 0.000000 1.923250 0.000000 
#    z 0.000000 0.000000 1.990370 
# 
# From -- ./inp_files/2939.got.cif
#   From: 2010.05.17/outbox.cif.g08.bks.cpg/sg33_2_cif.got.tgz:2939.got - 2010.06.03 17:15:25.
