data_PCOD9346761
_publ_section_title
;
Structure prediction by ZEFSAII (Michael W. Deem and Ramdas Pophale) SiO2 
 PCOD9346761
Probable space group: P N A 21
;
_chemical_formula_sum "Si O2"
_cell_formula_units_Z 20
_cell_length_a 10.696343
_cell_length_b 14.033225
_cell_length_c 4.687740
_cell_angle_alpha 90.000000
_cell_angle_beta 90.000000
_cell_angle_gamma 90.000000
_cell_volume 703.649406
_symmetry_space_group_name_H-M "P N A 21"
_symmetry_group_IT_number 33
_symmetry_cell_setting 'orthorhombic'
loop_
_space_group_symop_operation_xyz
x,y,z
-x,-y,1/2+z
1/2-x,1/2+y,1/2+z
1/2+x,1/2-y,z
loop_
_atom_site_type_symbol
_atom_site_label
_atom_site_fract_x
_atom_site_fract_y
_atom_site_fract_z
Si Si1 0.121349 0.219474 0.707470
Si Si2 0.866925 0.285041 0.034746
Si Si3 0.766048 0.108304 0.792785
Si Si4 0.987798 0.062944 0.379465
Si Si5 0.573186 0.958054 0.935627
O O1 0.245387 0.171467 0.860293
O O2 0.169950 0.322895 0.621232
O O3 0.997065 0.251571 0.883739
O O4 0.079599 0.149719 0.454128
O O5 0.804562 0.180143 0.048031
O O6 0.905114 0.353460 0.296481
O O7 0.865609 0.085700 0.555221
O O8 0.701533 0.014017 0.899188
O O9 0.971884 0.032148 0.055991
O O10 0.473501 0.022653 0.755053
#
# Coordination Sequence:
#
# PCOD9346761 Si02
#       5
#     4   4   4   4   4
#     4   9  19  44  67 100 140 179 230 292 348 420
#     4   9  19  42  68 100 141 181 232 290 354 416
#     4   9  22  44  70 106 139 186 238 292 356 423
#     4  11  24  46  70 101 139 186 233 288 354 427
#     4  12  24  44  71 105 143 188 241 294 354 430
#
# _framework density 28.423241999999998
#
# number of rings (size 3 to 8) (size 9 to 14) (size 15 to 20)
#    1.200    0.800    2.000    1.200    0.000    3.200 
#    7.200    4.000    0.000    0.000    0.000    0.000 
#    0.000    0.000    0.000    0.000    0.000    0.000 
#
# Total GULP energy -111747.550634 kJ/mol
# GULP energy per Si atom -5587.377532 kJ/mol
# Density = 2.835855 g / cm^3
# Si number density = 28.423242 Si / 1000 Ang^3
#
#
#
# Elastic Constant Matrix: (Units=GPa)
#
#
# Indices 1 2 3 4 5 6 
#
# 1 144.1558 13.1259 38.0333 0.0000 0.0000 0.0000
# 2 13.1259 149.0161 16.1732 0.0000 0.0000 0.0000
# 3 38.0333 16.1732 121.7996 0.0000 0.0000 0.0000
# 4 0.0000 0.0000 0.0000 43.6594 0.0000 0.0000
# 5 0.0000 0.0000 0.0000 0.0000 21.7389 0.0000
# 6 0.0000 0.0000 0.0000 0.0000 0.0000 45.9731
#
#
#
# Elastic Compliance Matrix: (Units=1/GPa)
#
#
# Indices 1 2 3 4 5 6 
#
# 1 0.007585 -0.000417 -0.002313 0.000000 0.000000 0.000000
# 2 -0.000417 0.006832 -0.000777 0.000000 0.000000 0.000000
# 3 -0.002313 -0.000777 0.009036 0.000000 0.000000 0.000000
# 4 0.000000 0.000000 0.000000 0.022905 0.000000 0.000000
# 5 0.000000 0.000000 0.000000 0.000000 0.046000 0.000000
# 6 0.000000 0.000000 0.000000 0.000000 0.000000 0.021752
#
#
# Mechanical properties :
#
#
# Convention : Reuss Voigt Hill
#
# Bulk Modulus (GPa) = 60.83361 61.07071 60.95216
# Shear Modulus (GPa) = 39.49345 45.45023 42.47184
#
# Velocity S-wave (km/s) = 3.73161 4.00315 3.86977
# Velocity P-wave (km/s) = 6.32581 6.54979 6.43877
#
# Compressibility (1/GPa) = 0.01643828
#
# Stress axis : x y z
#
# Youngs Moduli (GPa) = 131.83543 146.37550 110.67218
#
# Poissons Ratio (x) = 0.06105 0.25601
# Poissons Ratio (y) = 0.05499 0.08598
# Poissons Ratio (z) = 0.30496 0.11372
#
# Static dielectric constant tensor:
#      x y z
#    x 2.395560 0.000000 0.000000 
#    y 0.000000 2.293630 0.000000 
#    z 0.000000 0.000000 2.182740 
# 
# From -- ./inp_files/762.got.cif
#   From: 2010.05.17/outbox.cif.g08.bks.cpg/sg33_1_cif.got.tgz:762.got - 2010.06.03 17:15:25.
