data_PCOD9346066
_publ_section_title
;
Structure prediction by ZEFSAII (Michael W. Deem and Ramdas Pophale) SiO2 
 PCOD9346066
Probable space group: P N A 21
;
_chemical_formula_sum "Si O2"
_cell_formula_units_Z 28
_cell_length_a 16.972031
_cell_length_b 13.209142
_cell_length_c 4.811995
_cell_angle_alpha 90.000000
_cell_angle_beta 90.000000
_cell_angle_gamma 90.000000
_cell_volume 1078.781755
_symmetry_space_group_name_H-M "P N A 21"
_symmetry_group_IT_number 33
_symmetry_cell_setting 'orthorhombic'
loop_
_space_group_symop_operation_xyz
x,y,z
-x,-y,1/2+z
1/2-x,1/2+y,1/2+z
1/2+x,1/2-y,z
loop_
_atom_site_type_symbol
_atom_site_label
_atom_site_fract_x
_atom_site_fract_y
_atom_site_fract_z
Si Si1 0.954588 0.963551 0.959980
Si Si2 0.695037 0.555777 0.761569
Si Si3 0.059181 0.270766 0.602398
Si Si4 0.161814 0.317193 0.128654
Si Si5 0.695276 0.898009 0.506363
Si Si6 0.537661 0.949230 0.236570
Si Si7 0.205713 0.732087 0.987384
O O1 0.954541 0.844414 0.019896
O O2 0.975240 0.985911 0.641594
O O3 0.873610 0.012763 0.069793
O O4 0.729504 0.470269 0.966997
O O5 0.830082 0.358628 0.307111
O O6 0.670072 0.657420 0.928733
O O7 0.089001 0.333938 0.336259
O O8 0.981980 0.329827 0.703283
O O9 0.124062 0.280045 0.845250
O O10 0.227988 0.403699 0.089788
O O11 0.210171 0.238083 0.324993
O O12 0.621701 0.955817 0.377872
O O13 0.708827 0.800940 0.303949
O O14 0.472679 0.993880 0.447005
#
# Coordination Sequence:
#
# PCOD9346066 Si02
#       7
#     4   4   4   4   4   4   4
#     4  12  29  46  72 104 143 191 232 284 360 420
#     4  10  26  45  74  99 145 174 244 286 345 416
#     4  12  24  45  73 101 149 183 231 288 352 420
#     4  10  23  42  71 101 137 181 232 283 347 394
#     4  12  24  46  71 105 132 188 228 283 347 404
#     4  12  27  45  71 105 142 182 227 287 350 413
#     4  10  25  39  72  95 138 171 240 279 339 397
#
# _framework density 25.955204999999999
#
# number of rings (size 3 to 8) (size 9 to 14) (size 15 to 20)
#    0.857    0.000    0.000    6.857    4.000    4.571 
#    0.000    0.000    0.000    0.000    0.000    0.000 
#    0.000    0.000    0.000    0.000    0.000    0.000 
#
# Total GULP energy -156840.693429 kJ/mol
# GULP energy per Si atom -5601.453337 kJ/mol
# Density = 2.589613 g / cm^3
# Si number density = 25.955205 Si / 1000 Ang^3
#
#
#
# Elastic Constant Matrix: (Units=GPa)
#
#
# Indices 1 2 3 4 5 6 
#
# 1 86.0624 14.2995 1.6626 0.0000 0.0000 0.0000
# 2 14.2995 117.2755 -9.8336 0.0000 0.0000 0.0000
# 3 1.6626 -9.8336 106.7792 0.0000 0.0000 0.0000
# 4 0.0000 0.0000 0.0000 28.8751 0.0000 0.0000
# 5 0.0000 0.0000 0.0000 0.0000 35.0709 0.0000
# 6 0.0000 0.0000 0.0000 0.0000 0.0000 44.5264
#
#
#
# Elastic Compliance Matrix: (Units=1/GPa)
#
#
# Indices 1 2 3 4 5 6 
#
# 1 0.011871 -0.001474 -0.000321 0.000000 0.000000 0.000000
# 2 -0.001474 0.008776 0.000831 0.000000 0.000000 0.000000
# 3 -0.000321 0.000831 0.009447 0.000000 0.000000 0.000000
# 4 0.000000 0.000000 0.000000 0.034632 0.000000 0.000000
# 5 0.000000 0.000000 0.000000 0.000000 0.028514 0.000000
# 6 0.000000 0.000000 0.000000 0.000000 0.000000 0.022459
#
#
# Mechanical properties :
#
#
# Convention : Reuss Voigt Hill
#
# Bulk Modulus (GPa) = 35.50340 35.81933 35.66136
# Shear Modulus (GPa) = 39.36575 41.96039 40.66307
#
# Velocity S-wave (km/s) = 3.89868 4.02512 3.96240
# Velocity P-wave (km/s) = 5.82878 5.95252 5.89098
#
# Compressibility (1/GPa) = 0.02816632
#
# Stress axis : x y z
#
# Youngs Moduli (GPa) = 84.24152 113.94208 105.85751
#
# Poissons Ratio (x) = 0.16798 0.03394
# Poissons Ratio (y) = 0.12420 -0.08799
# Poissons Ratio (z) = 0.02701 -0.09471
#
# Static dielectric constant tensor:
#      x y z
#    x 2.132150 0.000000 0.000000 
#    y 0.000000 2.101070 0.000000 
#    z 0.000000 0.000000 1.980620 
# 
# From -- ./inp_files/1981.got.cif
#   From: 2010.05.17/outbox.cif.g08.bks.cpg/sg33_1_cif.got.tgz:1981.got - 2010.06.03 17:15:25.
