data_PCOD9346440
_publ_section_title
;
Structure prediction by ZEFSAII (Michael W. Deem and Ramdas Pophale) SiO2 
 PCOD9346440
Probable space group: P N A 21
;
_chemical_formula_sum "Si O2"
_cell_formula_units_Z 32
_cell_length_a 24.758114
_cell_length_b 9.846735
_cell_length_c 5.567496
_cell_angle_alpha 90.000000
_cell_angle_beta 90.000000
_cell_angle_gamma 90.000000
_cell_volume 1357.280852
_symmetry_space_group_name_H-M "P N A 21"
_symmetry_group_IT_number 33
_symmetry_cell_setting 'orthorhombic'
loop_
_space_group_symop_operation_xyz
x,y,z
-x,-y,1/2+z
1/2-x,1/2+y,1/2+z
1/2+x,1/2-y,z
loop_
_atom_site_type_symbol
_atom_site_label
_atom_site_fract_x
_atom_site_fract_y
_atom_site_fract_z
Si Si1 0.603572 0.799200 0.100530
Si Si2 0.789573 0.802895 0.422403
Si Si3 0.520359 0.436464 0.999948
Si Si4 0.269710 0.623692 0.908691
Si Si5 0.358906 0.497437 0.644008
Si Si6 0.578635 0.021126 0.486624
Si Si7 0.509110 0.821801 0.749180
Si Si8 0.331815 0.961920 0.339437
O O1 0.634463 0.663032 0.172308
O O2 0.584569 0.890133 0.320331
O O3 0.552263 0.760321 0.935894
O O4 0.640222 0.907372 0.956818
O O5 0.755963 0.789673 0.668504
O O6 0.835866 0.688663 0.445507
O O7 0.815733 0.952893 0.445509
O O8 0.763030 0.801464 0.161047
O O9 0.492343 0.513321 0.229793
O O10 0.583260 0.448152 0.063461
O O11 0.500058 0.282274 0.033975
O O12 0.331569 0.573397 0.871438
O O13 0.231000 0.494795 0.872107
O O14 0.548999 0.144831 0.360166
O O15 0.638031 0.050866 0.585995
O O16 0.536406 0.966998 0.686580
#
# Coordination Sequence:
#
# PCOD9346440 Si02
#       8
#     4   4   4   4   4   4   4   4
#     4  11  24  47  69 104 143 192 245 296 374 428
#     4  10  27  48  74 109 144 188 243 296 366 429
#     4  12  27  43  73 105 145 193 246 297 367 437
#     4  10  27  47  76 105 151 184 243 299 363 433
#     4  10  26  46  73 106 148 189 242 302 366 435
#     4  11  25  42  72 104 145 191 246 302 363 440
#     4  11  24  43  67 101 146 191 240 303 359 436
#     4  11  28  44  78 108 142 196 243 307 366 436
#
# _framework density 23.576550999999998
#
# number of rings (size 3 to 8) (size 9 to 14) (size 15 to 20)
#    0.750    0.500    2.500    0.750   10.500    3.000 
#    0.000    0.000    0.000    0.000    0.000    0.000 
#    0.000    0.000    0.000    0.000    0.000    0.000 
#
# Total GULP energy -178446.572425 kJ/mol
# GULP energy per Si atom -5576.455388 kJ/mol
# Density = 2.352289 g / cm^3
# Si number density = 23.576551 Si / 1000 Ang^3
#
#
#
# Elastic Constant Matrix: (Units=GPa)
#
#
# Indices 1 2 3 4 5 6 
#
# 1 60.5559 -6.7965 2.4686 0.0000 0.0000 0.0000
# 2 -6.7965 58.8184 -3.0208 0.0000 0.0000 0.0000
# 3 2.4686 -3.0208 79.6329 0.0000 0.0000 0.0000
# 4 0.0000 0.0000 0.0000 28.8974 0.0000 0.0000
# 5 0.0000 0.0000 0.0000 0.0000 16.7912 0.0000
# 6 0.0000 0.0000 0.0000 0.0000 0.0000 32.1656
#
#
#
# Elastic Compliance Matrix: (Units=1/GPa)
#
#
# Indices 1 2 3 4 5 6 
#
# 1 0.016746 0.001912 -0.000447 0.000000 0.000000 0.000000
# 2 0.001912 0.017253 0.000595 0.000000 0.000000 0.000000
# 3 -0.000447 0.000595 0.012594 0.000000 0.000000 0.000000
# 4 0.000000 0.000000 0.000000 0.034605 0.000000 0.000000
# 5 0.000000 0.000000 0.000000 0.000000 0.059555 0.000000
# 6 0.000000 0.000000 0.000000 0.000000 0.000000 0.031089
#
#
# Mechanical properties :
#
#
# Convention : Reuss Voigt Hill
#
# Bulk Modulus (GPa) = 19.71805 20.47887 20.09846
# Shear Modulus (GPa) = 27.08175 29.32792 28.20484
#
# Velocity S-wave (km/s) = 3.39288 3.53079 3.46252
# Velocity P-wave (km/s) = 4.87139 5.03258 4.95264
#
# Compressibility (1/GPa) = 0.05071496
#
# Stress axis : x y z
#
# Youngs Moduli (GPa) = 59.71409 57.96095 79.40258
#
# Poissons Ratio (x) = -0.11083 0.03546
# Poissons Ratio (y) = -0.11418 -0.04726
# Poissons Ratio (z) = 0.02667 -0.03450
#
# Static dielectric constant tensor:
#      x y z
#    x 1.917550 0.000000 0.000000 
#    y 0.000000 1.941080 0.000000 
#    z 0.000000 0.000000 1.984300 
# 
# From -- ./inp_files/2534.got.cif
#   From: 2010.05.17/outbox.cif.g08.bks.cpg/sg33_2_cif.got.tgz:2534.got - 2010.06.03 17:15:25.
