data_PCOD9346505
_publ_section_title
;
Structure prediction by ZEFSAII (Michael W. Deem and Ramdas Pophale) SiO2 
 PCOD9346505
Probable space group: P N A 21
;
_chemical_formula_sum "Si O2"
_cell_formula_units_Z 20
_cell_length_a 10.063478
_cell_length_b 15.639254
_cell_length_c 5.003022
_cell_angle_alpha 90.000000
_cell_angle_beta 90.000000
_cell_angle_gamma 90.000000
_cell_volume 787.402061
_symmetry_space_group_name_H-M "P N A 21"
_symmetry_group_IT_number 33
_symmetry_cell_setting 'orthorhombic'
loop_
_space_group_symop_operation_xyz
x,y,z
-x,-y,1/2+z
1/2-x,1/2+y,1/2+z
1/2+x,1/2-y,z
loop_
_atom_site_type_symbol
_atom_site_label
_atom_site_fract_x
_atom_site_fract_y
_atom_site_fract_z
Si Si1 0.050988 0.544515 0.277270
Si Si2 0.050404 0.273988 0.587309
Si Si3 0.696715 0.457220 0.427285
Si Si4 0.633218 0.307290 0.085835
Si Si5 0.437796 0.389595 0.727583
O O1 0.997724 0.637772 0.202278
O O2 0.199346 0.537532 0.165444
O O3 0.029457 0.520426 0.583606
O O4 0.157243 0.232655 0.795490
O O5 0.106434 0.269170 0.290819
O O6 0.931547 0.203157 0.590346
O O7 0.724405 0.376419 0.232808
O O8 0.553652 0.438241 0.563678
O O9 0.682577 0.546571 0.270666
O O10 0.500383 0.362421 0.014278
#
# Coordination Sequence:
#
# PCOD9346505 Si02
#       5
#     4   4   4   4   4
#     4  12  29  47  65  96 153 193 226 266 366 446
#     4   9  20  43  61  95 133 176 228 280 333 419
#     4  11  21  41  74 104 136 178 228 301 347 407
#     4   9  19  37  71  94 131 158 235 296 334 385
#     4   9  19  38  73 101 125 163 241 297 338 379
#
# _framework density 25.399982999999999
#
# number of rings (size 3 to 8) (size 9 to 14) (size 15 to 20)
#    1.200    0.800    2.000    1.200    2.800    0.000 
#    7.200    2.000    0.000    0.000    0.000    0.000 
#    0.000    0.000    0.000    0.000    0.000    0.000 
#
# Total GULP energy -111714.390754 kJ/mol
# GULP energy per Si atom -5585.719538 kJ/mol
# Density = 2.534217 g / cm^3
# Si number density = 25.399983 Si / 1000 Ang^3
#
#
#
# Elastic Constant Matrix: (Units=GPa)
#
#
# Indices 1 2 3 4 5 6 
#
# 1 56.9106 7.4911 4.2442 0.0000 0.0000 0.0000
# 2 7.4911 100.9002 -9.9072 0.0000 0.0000 0.0000
# 3 4.2442 -9.9072 107.7593 0.0000 0.0000 0.0000
# 4 0.0000 0.0000 0.0000 42.1165 0.0000 0.0000
# 5 0.0000 0.0000 0.0000 0.0000 25.0974 0.0000
# 6 0.0000 0.0000 0.0000 0.0000 0.0000 -2.8849
#
#
#
# Elastic Compliance Matrix: (Units=1/GPa)
#
#
# Indices 1 2 3 4 5 6 
#
# 1 0.017818 -0.001404 -0.000831 0.000000 0.000000 0.000000
# 2 -0.001404 0.010112 0.000985 0.000000 0.000000 0.000000
# 3 -0.000831 0.000985 0.009403 0.000000 0.000000 0.000000
# 4 0.000000 0.000000 0.000000 0.023744 0.000000 0.000000
# 5 0.000000 0.000000 0.000000 0.000000 0.039845 0.000000
# 6 0.000000 0.000000 0.000000 0.000000 0.000000 -0.346636
#
#
# Mechanical properties :
#
#
# Convention : Reuss Voigt Hill
#
# Bulk Modulus (GPa) = 28.70889 29.91406 29.31148
# Shear Modulus (GPa) = -21.58864 30.44861 4.42998
#
# Velocity S-wave (km/s) = -2.91855 3.46607 1.32207
# Velocity P-wave (km/s) = 0.17313 5.27456 3.72767
#
# Compressibility (1/GPa) = 0.03483242
#
# Stress axis : x y z
#
# Youngs Moduli (GPa) = 56.12221 98.89473 106.34654
#
# Poissons Ratio (x) = 0.13889 0.08837
# Poissons Ratio (y) = 0.07882 -0.10475
# Poissons Ratio (z) = 0.04663 -0.09741
#
# Static dielectric constant tensor:
#      x y z
#    x 2.071040 0.000000 0.000000 
#    y 0.000000 2.046210 0.000000 
#    z 0.000000 0.000000 1.975830 
# 
# From -- ./inp_files/863.got.cif
#   From: 2010.05.17/outbox.cif.g08.bks.cpg/sg33_1_cif.got.tgz:863.got - 2010.06.03 17:15:25.
