data_PCOD9346062
_publ_section_title
;
Structure prediction by ZEFSAII (Michael W. Deem and Ramdas Pophale) SiO2 
 PCOD9346062
Probable space group: P N A 21
;
_chemical_formula_sum "Si O2"
_cell_formula_units_Z 20
_cell_length_a 26.013957
_cell_length_b 5.679796
_cell_length_c 4.817133
_cell_angle_alpha 90.000000
_cell_angle_beta 90.000000
_cell_angle_gamma 90.000000
_cell_volume 711.750520
_symmetry_space_group_name_H-M "P N A 21"
_symmetry_group_IT_number 33
_symmetry_cell_setting 'orthorhombic'
loop_
_space_group_symop_operation_xyz
x,y,z
-x,-y,1/2+z
1/2-x,1/2+y,1/2+z
1/2+x,1/2-y,z
loop_
_atom_site_type_symbol
_atom_site_label
_atom_site_fract_x
_atom_site_fract_y
_atom_site_fract_z
Si Si1 0.988166 0.651234 0.271420
Si Si2 0.207831 0.898936 0.607614
Si Si3 0.865238 0.235245 0.526037
Si Si4 0.812061 0.593932 0.257515
Si Si5 0.073813 0.976661 0.519259
O O1 0.979733 0.488100 0.538093
O O2 0.021625 0.863340 0.398647
O O3 0.940075 0.758617 0.105193
O O4 0.185997 0.165230 0.587622
O O5 0.262031 0.903177 0.454852
O O6 0.191239 0.868582 0.937403
O O7 0.190255 0.627496 0.543503
O O8 0.857623 0.512553 0.466980
O O9 0.905415 0.145279 0.295446
O O10 0.884526 0.105249 0.796125
#
# Coordination Sequence:
#
# PCOD9346062 Si02
#       5
#     4   4   4   4   4
#     4  12  26  46  84 110 152 210 248 322 402 488
#     4  10  23  42  69 103 143 202 251 313 374 448
#     4  10  27  40  76 104 154 198 252 326 375 462
#     4  10  23  42  69 103 143 202 251 313 374 448
#     4  12  25  52  68 118 150 190 258 314 391 466
#
# _framework density 28.099731999999999
#
# number of rings (size 3 to 8) (size 9 to 14) (size 15 to 20)
#    1.200    0.000    0.000    6.000    2.800    4.800 
#    0.000    0.000    0.000    0.000    0.000    0.000 
#    0.000    0.000    0.000    0.000    0.000    0.000 
#
# Total GULP energy -111566.585510 kJ/mol
# GULP energy per Si atom -5578.329275 kJ/mol
# Density = 2.803578 g / cm^3
# Si number density = 28.099732 Si / 1000 Ang^3
#
#
#
# Elastic Constant Matrix: (Units=GPa)
#
#
# Indices 1 2 3 4 5 6 
#
# 1 71.3489 26.4008 43.9764 0.0000 0.0000 0.0000
# 2 26.4008 176.0254 72.7076 0.0000 0.0000 0.0000
# 3 43.9764 72.7076 157.9966 0.0000 0.0000 0.0000
# 4 0.0000 0.0000 0.0000 56.9204 0.0000 0.0000
# 5 0.0000 0.0000 0.0000 0.0000 71.5255 0.0000
# 6 0.0000 0.0000 0.0000 0.0000 0.0000 45.7833
#
#
#
# Elastic Compliance Matrix: (Units=1/GPa)
#
#
# Indices 1 2 3 4 5 6 
#
# 1 0.016995 -0.000735 -0.004392 0.000000 0.000000 0.000000
# 2 -0.000735 0.007046 -0.003038 0.000000 0.000000 0.000000
# 3 -0.004392 -0.003038 0.008950 0.000000 0.000000 0.000000
# 4 0.000000 0.000000 0.000000 0.017568 0.000000 0.000000
# 5 0.000000 0.000000 0.000000 0.000000 0.013981 0.000000
# 6 0.000000 0.000000 0.000000 0.000000 0.000000 0.021842
#
#
# Mechanical properties :
#
#
# Convention : Reuss Voigt Hill
#
# Bulk Modulus (GPa) = 60.02124 76.83784 68.42954
# Shear Modulus (GPa) = 46.18291 52.33159 49.25725
#
# Velocity S-wave (km/s) = 4.05845 4.32018 4.19136
# Velocity P-wave (km/s) = 6.58543 7.23114 6.91582
#
# Compressibility (1/GPa) = 0.01666077
#
# Stress axis : x y z
#
# Youngs Moduli (GPa) = 58.84209 141.92380 111.73462
#
# Poissons Ratio (x) = 0.10428 0.49075
# Poissons Ratio (y) = 0.04323 0.33945
# Poissons Ratio (z) = 0.25844 0.43116
#
# Static dielectric constant tensor:
#      x y z
#    x 2.339920 0.000000 0.000000 
#    y 0.000000 2.193040 0.000000 
#    z 0.000000 0.000000 2.212090 
# 
# From -- ./inp_files/2347.got.cif
#   From: 2010.05.17/outbox.cif.g08.bks.cpg/sg33_2_cif.got.tgz:2347.got - 2010.06.03 17:15:25.
