data_PCOD9346063
_publ_section_title
;
Structure prediction by ZEFSAII (Michael W. Deem and Ramdas Pophale) SiO2 
 PCOD9346063
Probable space group: P N A 21
;
_chemical_formula_sum "Si O2"
_cell_formula_units_Z 32
_cell_length_a 8.867713
_cell_length_b 14.290851
_cell_length_c 11.677501
_cell_angle_alpha 90.000000
_cell_angle_beta 90.000000
_cell_angle_gamma 90.000000
_cell_volume 1479.856598
_symmetry_space_group_name_H-M "P N A 21"
_symmetry_group_IT_number 33
_symmetry_cell_setting 'orthorhombic'
loop_
_space_group_symop_operation_xyz
x,y,z
-x,-y,1/2+z
1/2-x,1/2+y,1/2+z
1/2+x,1/2-y,z
loop_
_atom_site_type_symbol
_atom_site_label
_atom_site_fract_x
_atom_site_fract_y
_atom_site_fract_z
Si Si1 0.852780 0.740334 0.058440
Si Si2 0.484928 0.929092 0.948251
Si Si3 0.233185 0.377122 0.255202
Si Si4 0.058367 0.363987 0.031507
Si Si5 0.077158 0.854672 0.179491
Si Si6 0.894690 0.181865 0.948338
Si Si7 0.534275 0.433640 0.145878
Si Si8 0.255126 0.674428 0.824209
O O1 0.693618 0.703896 0.102703
O O2 0.914756 0.815411 0.146357
O O3 0.957306 0.648277 0.046382
O O4 0.849059 0.791011 0.935249
O O5 0.336575 0.920267 0.869263
O O6 0.627146 0.893629 0.873479
O O7 0.510354 0.032688 0.993533
O O8 0.367894 0.436994 0.202994
O O9 0.302395 0.273827 0.275812
O O10 0.094581 0.364804 0.166711
O O11 0.222165 0.338433 0.980810
O O12 0.942283 0.285930 0.987801
O O13 0.095181 0.837684 0.314001
O O14 0.095559 0.961897 0.143929
O O15 0.003408 0.114237 0.023443
O O16 0.643963 0.373687 0.227291
#
# Coordination Sequence:
#
# PCOD9346063 Si02
#       8
#     4   4   4   4   4   4   4   4
#     4  11  26  46  69 104 142 185 237 294 354 421
#     4  11  25  43  74 102 141 184 242 289 357 427
#     4  10  23  42  69 104 140 184 230 303 340 418
#     4  11  25  44  68 101 141 182 238 285 360 417
#     4  12  27  45  73 101 149 188 234 292 362 426
#     4  11  26  46  67 103 143 187 230 300 352 431
#     4  11  26  43  74 107 141 187 245 287 362 430
#     4  11  22  45  74 104 141 185 238 298 345 426
#
# _framework density 21.623716000000002
#
# number of rings (size 3 to 8) (size 9 to 14) (size 15 to 20)
#    0.000    1.000    2.500    3.000    8.750    6.000 
#    0.000    0.000    0.000    0.000    0.000    0.000 
#    0.000    0.000    0.000    0.000    0.000    0.000 
#
# Total GULP energy -179005.780328 kJ/mol
# GULP energy per Si atom -5593.930635 kJ/mol
# Density = 2.157450 g / cm^3
# Si number density = 21.623716 Si / 1000 Ang^3
#
#
#
# Elastic Constant Matrix: (Units=GPa)
#
#
# Indices 1 2 3 4 5 6 
#
# 1 22.2368 -4.4093 -14.2731 0.0000 0.0000 0.0000
# 2 -4.4093 53.4594 20.9043 0.0000 0.0000 0.0000
# 3 -14.2731 20.9043 63.0259 0.0000 0.0000 0.0000
# 4 0.0000 0.0000 0.0000 15.7344 0.0000 0.0000
# 5 0.0000 0.0000 0.0000 0.0000 28.0658 0.0000
# 6 0.0000 0.0000 0.0000 0.0000 0.0000 16.4134
#
#
#
# Elastic Compliance Matrix: (Units=1/GPa)
#
#
# Indices 1 2 3 4 5 6 
#
# 1 0.052625 -0.000367 0.012040 0.000000 0.000000 0.000000
# 2 -0.000367 0.021496 -0.007213 0.000000 0.000000 0.000000
# 3 0.012040 -0.007213 0.020985 0.000000 0.000000 0.000000
# 4 0.000000 0.000000 0.000000 0.063555 0.000000 0.000000
# 5 0.000000 0.000000 0.000000 0.000000 0.035631 0.000000
# 6 0.000000 0.000000 0.000000 0.000000 0.000000 0.060926
#
#
# Mechanical properties :
#
#
# Convention : Reuss Voigt Hill
#
# Bulk Modulus (GPa) = 9.61303 15.90733 12.76018
# Shear Modulus (GPa) = 17.79520 21.14273 19.46896
#
# Velocity S-wave (km/s) = 2.87182 3.13030 3.00384
# Velocity P-wave (km/s) = 3.93087 4.52078 4.23610
#
# Compressibility (1/GPa) = 0.10402550
#
# Stress axis : x y z
#
# Youngs Moduli (GPa) = 19.00221 46.52035 47.65223
#
# Poissons Ratio (x) = 0.01709 -0.57371
# Poissons Ratio (y) = 0.00698 0.34371
# Poissons Ratio (z) = -0.22878 0.33555
#
# Static dielectric constant tensor:
#      x y z
#    x 1.805700 0.000000 0.000000 
#    y 0.000000 1.752950 0.000000 
#    z 0.000000 0.000000 1.822240 
# 
# From -- ./inp_files/5951.got.cif
#   From: 2010.05.17/outbox.cif.g08.bks.cpg/sg33_3_cif.got.tgz:5951.got - 2010.06.03 17:15:25.
