data_PCOD9346213
_publ_section_title
;
Structure prediction by ZEFSAII (Michael W. Deem and Ramdas Pophale) SiO2 
 PCOD9346213
Probable space group: P N A 21
;
_chemical_formula_sum "Si O2"
_cell_formula_units_Z 24
_cell_length_a 17.529927
_cell_length_b 5.232445
_cell_length_c 9.201582
_cell_angle_alpha 90.000000
_cell_angle_beta 90.000000
_cell_angle_gamma 90.000000
_cell_volume 844.009394
_symmetry_space_group_name_H-M "P N A 21"
_symmetry_group_IT_number 33
_symmetry_cell_setting 'orthorhombic'
loop_
_space_group_symop_operation_xyz
x,y,z
-x,-y,1/2+z
1/2-x,1/2+y,1/2+z
1/2+x,1/2-y,z
loop_
_atom_site_type_symbol
_atom_site_label
_atom_site_fract_x
_atom_site_fract_y
_atom_site_fract_z
Si Si1 0.794028 0.916533 0.870720
Si Si2 0.146006 0.798806 0.015779
Si Si3 0.552938 0.195055 0.004964
Si Si4 0.606229 0.292728 0.601651
Si Si5 0.801580 0.281941 0.111221
Si Si6 0.453494 0.149646 0.746674
O O1 0.731693 0.746917 0.964860
O O2 0.876297 0.828990 0.930004
O O3 0.772055 0.843624 0.708095
O O4 0.781868 0.193535 0.947063
O O5 0.099640 0.555161 0.952228
O O6 0.103416 0.058555 0.977619
O O7 0.127196 0.752822 0.188383
O O8 0.475519 0.188011 0.912194
O O9 0.654734 0.527704 0.666568
O O10 0.539530 0.129941 0.173553
O O11 0.643725 0.021113 0.634144
O O12 0.520377 0.297080 0.656327
#
# Coordination Sequence:
#
# PCOD9346213 Si02
#       6
#     4   4   4   4   4   4
#     4  10  24  42  64  97 127 173 217 271 330 395
#     4  10  24  38  68  88 133 166 218 263 330 386
#     4  10  24  38  69  87 132 167 222 257 332 379
#     4  10  24  38  68  89 132 165 221 262 336 384
#     4  10  24  38  69  88 131 167 219 265 333 390
#     4  10  24  42  64  97 127 174 213 272 321 392
#
# _framework density 28.435706
#
# number of rings (size 3 to 8) (size 9 to 14) (size 15 to 20)
#    2.000    0.000    0.000    2.000    9.333    1.333 
#    0.000    1.667    0.000    0.000    0.000    0.000 
#    0.000    0.000    0.000    0.000    0.000    0.000 
#
# Total GULP energy -134309.676392 kJ/mol
# GULP energy per Si atom -5596.236516 kJ/mol
# Density = 2.837098 g / cm^3
# Si number density = 28.435706 Si / 1000 Ang^3
#
#
#
# Elastic Constant Matrix: (Units=GPa)
#
#
# Indices 1 2 3 4 5 6 
#
# 1 102.7072 55.2363 25.0340 0.0000 0.0000 0.0000
# 2 55.2363 228.1490 23.4749 0.0000 0.0000 0.0000
# 3 25.0340 23.4749 157.3331 0.0000 0.0000 0.0000
# 4 0.0000 0.0000 0.0000 6.2274 0.0000 0.0000
# 5 0.0000 0.0000 0.0000 0.0000 66.1763 0.0000
# 6 0.0000 0.0000 0.0000 0.0000 0.0000 33.6549
#
#
#
# Elastic Compliance Matrix: (Units=1/GPa)
#
#
# Indices 1 2 3 4 5 6 
#
# 1 0.011505 -0.002638 -0.001437 0.000000 0.000000 0.000000
# 2 -0.002638 0.005056 -0.000335 0.000000 0.000000 0.000000
# 3 -0.001437 -0.000335 0.006635 0.000000 0.000000 0.000000
# 4 0.000000 0.000000 0.000000 0.160581 0.000000 0.000000
# 5 0.000000 0.000000 0.000000 0.000000 0.015111 0.000000
# 6 0.000000 0.000000 0.000000 0.000000 0.000000 0.029713
#
#
# Mechanical properties :
#
#
# Convention : Reuss Voigt Hill
#
# Bulk Modulus (GPa) = 69.55544 77.29772 73.42658
# Shear Modulus (GPa) = 20.64304 46.84133 33.74218
#
# Velocity S-wave (km/s) = 2.69728 4.06306 3.44846
# Velocity P-wave (km/s) = 5.84928 7.01809 6.46018
#
# Compressibility (1/GPa) = 0.01437702
#
# Stress axis : x y z
#
# Youngs Moduli (GPa) = 86.91704 197.77990 150.72620
#
# Poissons Ratio (x) = 0.52167 0.21661
# Poissons Ratio (y) = 0.22925 0.05045
# Poissons Ratio (z) = 0.12491 0.06620
#
# Static dielectric constant tensor:
#      x y z
#    x 2.191280 0.000000 0.000000 
#    y 0.000000 2.268990 0.000000 
#    z 0.000000 0.000000 2.321630 
# 
# From -- ./inp_files/7111.got.cif
#   From: 2010.05.17/outbox.cif.g08.bks.cpg/sg33_4_cif.got.tgz:7111.got - 2010.06.03 17:15:25.
