data_PCOD9346289
_publ_section_title
;
Structure prediction by ZEFSAII (Michael W. Deem and Ramdas Pophale) SiO2 
 PCOD9346289
Probable space group: P N A 21
;
_chemical_formula_sum "Si O2"
_cell_formula_units_Z 32
_cell_length_a 11.862665
_cell_length_b 21.733749
_cell_length_c 5.298732
_cell_angle_alpha 90.000000
_cell_angle_beta 90.000000
_cell_angle_gamma 90.000000
_cell_volume 1366.120057
_symmetry_space_group_name_H-M "P N A 21"
_symmetry_group_IT_number 33
_symmetry_cell_setting 'orthorhombic'
loop_
_space_group_symop_operation_xyz
x,y,z
-x,-y,1/2+z
1/2-x,1/2+y,1/2+z
1/2+x,1/2-y,z
loop_
_atom_site_type_symbol
_atom_site_label
_atom_site_fract_x
_atom_site_fract_y
_atom_site_fract_z
Si Si1 0.885154 0.232374 0.780030
Si Si2 0.631341 0.429983 0.086504
Si Si3 0.482675 0.157107 0.518094
Si Si4 0.103764 0.875686 0.607553
Si Si5 0.298558 0.505969 0.101292
Si Si6 0.285952 0.796638 0.903011
Si Si7 0.045217 0.531513 0.271743
Si Si8 0.213299 0.676640 0.662527
O O1 0.758424 0.217736 0.683909
O O2 0.961320 0.271125 0.590396
O O3 0.929752 0.167799 0.873531
O O4 0.870035 0.283277 0.994090
O O5 0.514100 0.403568 0.191563
O O6 0.683409 0.464142 0.328021
O O7 0.713117 0.373124 0.020461
O O8 0.620313 0.469876 0.830262
O O9 0.604086 0.161589 0.386004
O O10 0.486345 0.103312 0.727145
O O11 0.369780 0.143511 0.359511
O O12 0.178002 0.831761 0.785134
O O13 0.181773 0.933940 0.555267
O O14 0.175720 0.520163 0.210472
O O15 0.293928 0.728851 0.782558
O O16 0.018463 0.507076 0.551396
#
# Coordination Sequence:
#
# PCOD9346289 Si02
#       8
#     4   4   4   4   4   4   4   4
#     4  10  25  42  71 104 141 190 241 305 376 436
#     4  12  27  46  78 102 147 193 248 300 366 447
#     4  11  24  45  71 102 148 185 251 301 379 440
#     4  11  27  45  70 105 145 188 248 301 379 433
#     4  12  27  49  72 109 144 196 250 305 369 442
#     4  10  25  43  69 103 141 188 239 315 364 444
#     4  12  27  46  75 107 147 200 242 306 369 445
#     4  10  24  44  66 104 135 190 241 299 366 443
#
# _framework density 23.424002000000002
#
# number of rings (size 3 to 8) (size 9 to 14) (size 15 to 20)
#    0.000    1.000    1.250    3.000   15.750    1.000 
#    0.000    0.000    0.000    0.000    0.000    0.000 
#    0.000    0.000    0.000    0.000    0.000    0.000 
#
# Total GULP energy -178740.127278 kJ/mol
# GULP energy per Si atom -5585.628977 kJ/mol
# Density = 2.337069 g / cm^3
# Si number density = 23.424002 Si / 1000 Ang^3
#
#
#
# Elastic Constant Matrix: (Units=GPa)
#
#
# Indices 1 2 3 4 5 6 
#
# 1 59.5258 25.9577 -12.2280 0.0000 0.0000 0.0000
# 2 25.9577 126.6184 22.3071 0.0000 0.0000 0.0000
# 3 -12.2280 22.3071 47.0680 0.0000 0.0000 0.0000
# 4 0.0000 0.0000 0.0000 42.1746 0.0000 0.0000
# 5 0.0000 0.0000 0.0000 0.0000 16.6153 0.0000
# 6 0.0000 0.0000 0.0000 0.0000 0.0000 27.4286
#
#
#
# Elastic Compliance Matrix: (Units=1/GPa)
#
#
# Indices 1 2 3 4 5 6 
#
# 1 0.020982 -0.005741 0.008172 0.000000 0.000000 0.000000
# 2 -0.005741 0.010188 -0.006320 0.000000 0.000000 0.000000
# 3 0.008172 -0.006320 0.026364 0.000000 0.000000 0.000000
# 4 0.000000 0.000000 0.000000 0.023711 0.000000 0.000000
# 5 0.000000 0.000000 0.000000 0.000000 0.060185 0.000000
# 6 0.000000 0.000000 0.000000 0.000000 0.000000 0.036458
#
#
# Mechanical properties :
#
#
# Convention : Reuss Voigt Hill
#
# Bulk Modulus (GPa) = 20.09831 33.92063 27.00947
# Shear Modulus (GPa) = 24.72161 30.38874 27.55517
#
# Velocity S-wave (km/s) = 3.25221 3.60576 3.43354
# Velocity P-wave (km/s) = 4.76459 5.64340 5.22251
#
# Compressibility (1/GPa) = 0.04975542
#
# Stress axis : x y z
#
# Youngs Moduli (GPa) = 47.66070 98.15339 37.93032
#
# Poissons Ratio (x) = 0.56351 -0.30996
# Poissons Ratio (y) = 0.27362 0.23972
# Poissons Ratio (z) = -0.38947 0.62033
#
# Static dielectric constant tensor:
#      x y z
#    x 1.897890 0.000000 0.000000 
#    y 0.000000 1.858330 0.000000 
#    z 0.000000 0.000000 2.024270 
# 
# From -- ./inp_files/1062.got.cif
#   From: 2010.05.17/outbox.cif.g08.bks.cpg/sg33_1_cif.got.tgz:1062.got - 2010.06.03 17:15:25.
