data_PCOD9346936
_publ_section_title
;
Structure prediction by ZEFSAII (Michael W. Deem and Ramdas Pophale) SiO2 
 PCOD9346936
Probable space group: P N A 21
;
_chemical_formula_sum "Si O2"
_cell_formula_units_Z 32
_cell_length_a 10.641437
_cell_length_b 21.765019
_cell_length_c 5.511622
_cell_angle_alpha 90.000000
_cell_angle_beta 90.000000
_cell_angle_gamma 90.000000
_cell_volume 1276.552716
_symmetry_space_group_name_H-M "P N A 21"
_symmetry_group_IT_number 33
_symmetry_cell_setting 'orthorhombic'
loop_
_space_group_symop_operation_xyz
x,y,z
-x,-y,1/2+z
1/2-x,1/2+y,1/2+z
1/2+x,1/2-y,z
loop_
_atom_site_type_symbol
_atom_site_label
_atom_site_fract_x
_atom_site_fract_y
_atom_site_fract_z
Si Si1 0.378267 0.477884 0.285480
Si Si2 0.595715 0.842331 0.756641
Si Si3 0.692920 0.292163 0.949678
Si Si4 0.326749 0.048269 0.535092
Si Si5 0.242468 0.889234 0.118918
Si Si6 0.005394 0.898328 0.444102
Si Si7 0.871026 0.722441 0.945616
Si Si8 0.522098 0.069032 0.916136
O O1 0.292774 0.505459 0.072085
O O2 0.285702 0.454417 0.493446
O O3 0.465616 0.534007 0.354077
O O4 0.450485 0.415779 0.214110
O O5 0.664910 0.806974 0.538728
O O6 0.516869 0.799936 0.939920
O O7 0.493758 0.890565 0.654656
O O8 0.692253 0.889291 0.886828
O O9 0.611764 0.354108 0.926298
O O10 0.668729 0.257145 0.694900
O O11 0.641631 0.257948 0.190946
O O12 0.386604 0.068829 0.789743
O O13 0.431461 0.000696 0.438962
O O14 0.124744 0.875084 0.292485
O O15 0.371648 0.896850 0.263669
O O16 0.273347 0.834325 0.936714
#
# Coordination Sequence:
#
# PCOD9346936 Si02
#       8
#     4   4   4   4   4   4   4   4
#     4  12  27  47  78 121 160 209 263 338 427 510
#     4  12  29  50  81 114 164 207 281 344 414 501
#     4  12  34  53  86 117 166 225 284 350 413 498
#     4  12  24  41  76 115 164 202 261 333 428 498
#     4  12  27  49  82 114 159 215 275 348 409 504
#     4  12  29  49  79 116 169 211 274 338 433 508
#     4  12  31  56  81 121 158 226 290 347 411 486
#     4  12  23  45  73 122 154 207 256 336 419 501
#
# _framework density 25.067513000000002
#
# number of rings (size 3 to 8) (size 9 to 14) (size 15 to 20)
#    0.000    0.000    5.000    3.000   14.000    0.000 
#    0.000    0.000    0.000    0.000    0.000    0.000 
#    0.000    0.000    0.000    0.000    0.000    0.000 
#
# Total GULP energy -179084.040387 kJ/mol
# GULP energy per Si atom -5596.376262 kJ/mol
# Density = 2.501046 g / cm^3
# Si number density = 25.067513 Si / 1000 Ang^3
#
#
#
# Elastic Constant Matrix: (Units=GPa)
#
#
# Indices 1 2 3 4 5 6 
#
# 1 101.0831 46.4053 31.5806 0.0000 0.0000 0.0000
# 2 46.4053 76.4381 37.7209 0.0000 0.0000 0.0000
# 3 31.5806 37.7209 96.1126 0.0000 0.0000 0.0000
# 4 0.0000 0.0000 0.0000 52.1941 0.0000 0.0000
# 5 0.0000 0.0000 0.0000 0.0000 44.3631 0.0000
# 6 0.0000 0.0000 0.0000 0.0000 0.0000 34.9578
#
#
#
# Elastic Compliance Matrix: (Units=1/GPa)
#
#
# Indices 1 2 3 4 5 6 
#
# 1 0.013901 -0.007671 -0.001557 0.000000 0.000000 0.000000
# 2 -0.007671 0.020458 -0.005509 0.000000 0.000000 0.000000
# 3 -0.001557 -0.005509 0.013078 0.000000 0.000000 0.000000
# 4 0.000000 0.000000 0.000000 0.019159 0.000000 0.000000
# 5 0.000000 0.000000 0.000000 0.000000 0.022541 0.000000
# 6 0.000000 0.000000 0.000000 0.000000 0.000000 0.028606
#
#
# Mechanical properties :
#
#
# Convention : Reuss Voigt Hill
#
# Bulk Modulus (GPa) = 55.66706 56.11638 55.89172
# Shear Modulus (GPa) = 32.63634 36.83145 34.73390
#
# Velocity S-wave (km/s) = 3.61215 3.83729 3.72642
# Velocity P-wave (km/s) = 6.29698 6.48597 6.39217
#
# Compressibility (1/GPa) = 0.01796394
#
# Stress axis : x y z
#
# Youngs Moduli (GPa) = 71.93837 48.88129 76.46449
#
# Poissons Ratio (x) = 0.37496 0.11906
# Poissons Ratio (y) = 0.55182 0.42120
# Poissons Ratio (z) = 0.11201 0.26926
#
# Static dielectric constant tensor:
#      x y z
#    x 2.013930 0.000000 0.000000 
#    y 0.000000 2.000980 0.000000 
#    z 0.000000 0.000000 2.141210 
# 
# From -- ./inp_files/1048.got.cif
#   From: 2010.05.17/outbox.cif.g08.bks.cpg/sg33_1_cif.got.tgz:1048.got - 2010.06.03 17:15:25.
