data_PCOD9346027
_publ_section_title
;
Structure prediction by ZEFSAII (Michael W. Deem and Ramdas Pophale) SiO2 
 PCOD9346027
Probable space group: P N A 21
;
_chemical_formula_sum "Si O2"
_cell_formula_units_Z 24
_cell_length_a 4.968042
_cell_length_b 16.731487
_cell_length_c 11.802007
_cell_angle_alpha 90.000000
_cell_angle_beta 90.000000
_cell_angle_gamma 90.000000
_cell_volume 981.015043
_symmetry_space_group_name_H-M "P N A 21"
_symmetry_group_IT_number 33
_symmetry_cell_setting 'orthorhombic'
loop_
_space_group_symop_operation_xyz
x,y,z
-x,-y,1/2+z
1/2-x,1/2+y,1/2+z
1/2+x,1/2-y,z
loop_
_atom_site_type_symbol
_atom_site_label
_atom_site_fract_x
_atom_site_fract_y
_atom_site_fract_z
Si Si1 0.663010 0.416986 0.069000
Si Si2 0.900560 0.929420 0.190362
Si Si3 0.069978 0.489586 0.379996
Si Si4 0.396964 0.309412 0.881713
Si Si5 0.841803 0.791482 0.741091
Si Si6 0.583292 0.388802 0.443491
O O1 0.542782 0.493419 0.133589
O O2 0.777819 0.361586 0.166448
O O3 0.880361 0.447692 0.980181
O O4 0.462314 0.363430 0.992091
O O5 0.057750 0.870304 0.276059
O O6 0.658336 0.967505 0.264129
O O7 0.844916 0.880728 0.075015
O O8 0.281139 0.417952 0.411890
O O9 0.769743 0.458671 0.390773
O O10 0.614532 0.236800 0.879892
O O11 0.653733 0.717711 0.714187
O O12 0.833142 0.811999 0.872587
#
# Coordination Sequence:
#
# PCOD9346027 Si02
#       6
#     4   4   4   4   4   4
#     4  10  23  44  73 104 137 184 245 293 350 428
#     4  10  24  44  76 102 140 191 241 295 347 435
#     4  10  23  41  67 101 130 172 233 299 339 404
#     4  11  26  48  71 107 148 188 237 300 371 424
#     4  12  26  42  65  96 142 184 223 286 357 416
#     4  11  24  41  64  98 137 175 233 283 346 413
#
# _framework density 24.464455000000001
#
# number of rings (size 3 to 8) (size 9 to 14) (size 15 to 20)
#    0.000    1.333    1.667    2.000    2.333   13.333 
#    0.000    0.000    0.000    0.000    0.000    0.000 
#    0.000    0.000    0.000    0.000    0.000    0.000 
#
# Total GULP energy -134248.706194 kJ/mol
# GULP energy per Si atom -5593.696091 kJ/mol
# Density = 2.440877 g / cm^3
# Si number density = 24.464455 Si / 1000 Ang^3
#
#
#
# Elastic Constant Matrix: (Units=GPa)
#
#
# Indices 1 2 3 4 5 6 
#
# 1 67.9500 15.8168 6.3885 0.0000 0.0000 0.0000
# 2 15.8168 80.7155 30.6986 0.0000 0.0000 0.0000
# 3 6.3885 30.6986 151.8592 0.0000 0.0000 0.0000
# 4 0.0000 0.0000 0.0000 54.6156 0.0000 0.0000
# 5 0.0000 0.0000 0.0000 0.0000 10.4269 0.0000
# 6 0.0000 0.0000 0.0000 0.0000 0.0000 32.6749
#
#
#
# Elastic Compliance Matrix: (Units=1/GPa)
#
#
# Indices 1 2 3 4 5 6 
#
# 1 0.015420 -0.003006 -0.000041 0.000000 0.000000 0.000000
# 2 -0.003006 0.014007 -0.002705 0.000000 0.000000 0.000000
# 3 -0.000041 -0.002705 0.007134 0.000000 0.000000 0.000000
# 4 0.000000 0.000000 0.000000 0.018310 0.000000 0.000000
# 5 0.000000 0.000000 0.000000 0.000000 0.095906 0.000000
# 6 0.000000 0.000000 0.000000 0.000000 0.000000 0.030605
#
#
# Mechanical properties :
#
#
# Convention : Reuss Voigt Hill
#
# Bulk Modulus (GPa) = 39.90973 45.14805 42.52889
# Shear Modulus (GPa) = 24.84618 36.05151 30.44885
#
# Velocity S-wave (km/s) = 3.19031 3.84295 3.53174
# Velocity P-wave (km/s) = 5.46988 6.17945 5.83546
#
# Compressibility (1/GPa) = 0.02505654
#
# Stress axis : x y z
#
# Youngs Moduli (GPa) = 64.84956 71.39235 140.18138
#
# Poissons Ratio (x) = 0.21461 0.00575
# Poissons Ratio (y) = 0.19495 0.37920
# Poissons Ratio (z) = 0.00266 0.19312
#
# Static dielectric constant tensor:
#      x y z
#    x 1.934010 0.000000 0.000000 
#    y 0.000000 1.976100 0.000000 
#    z 0.000000 0.000000 1.948940 
# 
# From -- ./inp_files/5427.got.cif
#   From: 2010.05.17/outbox.cif.g08.bks.cpg/sg33_3_cif.got.tgz:5427.got - 2010.06.03 17:15:25.
