data_PCOD9346551
_publ_section_title
;
Structure prediction by ZEFSAII (Michael W. Deem and Ramdas Pophale) SiO2 
 PCOD9346551
Probable space group: P N A 21
;
_chemical_formula_sum "Si O2"
_cell_formula_units_Z 32
_cell_length_a 11.993147
_cell_length_b 21.366255
_cell_length_c 5.386584
_cell_angle_alpha 90.000000
_cell_angle_beta 90.000000
_cell_angle_gamma 90.000000
_cell_volume 1380.304808
_symmetry_space_group_name_H-M "P N A 21"
_symmetry_group_IT_number 33
_symmetry_cell_setting 'orthorhombic'
loop_
_space_group_symop_operation_xyz
x,y,z
-x,-y,1/2+z
1/2-x,1/2+y,1/2+z
1/2+x,1/2-y,z
loop_
_atom_site_type_symbol
_atom_site_label
_atom_site_fract_x
_atom_site_fract_y
_atom_site_fract_z
Si Si1 0.697189 0.116680 0.314290
Si Si2 0.219198 0.627298 0.206169
Si Si3 0.890331 0.189295 0.601580
Si Si4 0.992056 0.087265 0.961477
Si Si5 0.005525 0.310755 0.560671
Si Si6 0.303222 0.790769 0.439637
Si Si7 0.318969 0.499181 0.235928
Si Si8 0.337824 0.669444 0.715640
O O1 0.796472 0.157193 0.435331
O O2 0.577385 0.141226 0.398564
O O3 0.733135 0.046695 0.373281
O O4 0.700207 0.137453 0.027517
O O5 0.289286 0.661353 0.988980
O O6 0.243612 0.555314 0.135994
O O7 0.264271 0.641533 0.483987
O O8 0.093174 0.649125 0.180913
O O9 0.816590 0.222085 0.819731
O O10 0.962421 0.135225 0.737896
O O11 0.950941 0.246220 0.461162
O O12 0.046559 0.131627 0.174255
O O13 0.084412 0.035599 0.886290
O O14 0.886973 0.046925 0.053039
O O15 0.095303 0.284401 0.753468
O O16 0.333056 0.742806 0.656492
#
# Coordination Sequence:
#
# PCOD9346551 Si02
#       8
#     4   4   4   4   4   4   4   4
#     4  11  26  42  68 105 144 186 243 305 362 439
#     4  11  26  47  71 103 150 191 248 292 363 442
#     4  11  22  43  70 105 141 181 242 310 373 438
#     4  11  22  42  73 103 143 185 246 309 377 425
#     4  11  25  44  70 106 144 196 239 305 378 442
#     4  11  23  42  67 103 146 178 244 301 370 435
#     4  11  24  45  66 108 138 196 243 302 357 451
#     4  11  24  43  73 111 138 187 239 310 366 438
#
# _framework density 23.183284
#
# number of rings (size 3 to 8) (size 9 to 14) (size 15 to 20)
#    0.000    1.000    3.750    2.250    3.500    4.000 
#    2.250    0.000    0.000    0.000    0.000    0.000 
#    0.000    0.000    0.000    0.000    0.000    0.000 
#
# Total GULP energy -178811.299091 kJ/mol
# GULP energy per Si atom -5587.853097 kJ/mol
# Density = 2.313052 g / cm^3
# Si number density = 23.183284 Si / 1000 Ang^3
#
#
#
# Elastic Constant Matrix: (Units=GPa)
#
#
# Indices 1 2 3 4 5 6 
#
# 1 93.8328 51.6464 27.1893 0.0000 0.0000 0.0000
# 2 51.6464 136.9644 11.8927 0.0000 0.0000 0.0000
# 3 27.1893 11.8927 42.0956 0.0000 0.0000 0.0000
# 4 0.0000 0.0000 0.0000 24.1724 0.0000 0.0000
# 5 0.0000 0.0000 0.0000 0.0000 24.1625 0.0000
# 6 0.0000 0.0000 0.0000 0.0000 0.0000 40.5701
#
#
#
# Elastic Compliance Matrix: (Units=1/GPa)
#
#
# Indices 1 2 3 4 5 6 
#
# 1 0.016180 -0.005324 -0.008946 0.000000 0.000000 0.000000
# 2 -0.005324 0.009237 0.000829 0.000000 0.000000 0.000000
# 3 -0.008946 0.000829 0.029300 0.000000 0.000000 0.000000
# 4 0.000000 0.000000 0.000000 0.041369 0.000000 0.000000
# 5 0.000000 0.000000 0.000000 0.000000 0.041386 0.000000
# 6 0.000000 0.000000 0.000000 0.000000 0.000000 0.024649
#
#
# Mechanical properties :
#
#
# Convention : Reuss Voigt Hill
#
# Bulk Modulus (GPa) = 35.92756 50.48331 43.20543
# Shear Modulus (GPa) = 25.21659 29.92529 27.57094
#
# Velocity S-wave (km/s) = 3.30162 3.59669 3.45231
# Velocity P-wave (km/s) = 5.48316 6.25070 5.87947
#
# Compressibility (1/GPa) = 0.02783379
#
# Stress axis : x y z
#
# Youngs Moduli (GPa) = 61.80387 108.26189 34.13014
#
# Poissons Ratio (x) = 0.57643 0.30535
# Poissons Ratio (y) = 0.32907 -0.02831
# Poissons Ratio (z) = 0.55293 -0.08980
#
# Static dielectric constant tensor:
#      x y z
#    x 1.888570 0.000000 0.000000 
#    y 0.000000 1.882000 0.000000 
#    z 0.000000 0.000000 1.968740 
# 
# From -- ./inp_files/1022.got.cif
#   From: 2010.05.17/outbox.cif.g08.bks.cpg/sg33_1_cif.got.tgz:1022.got - 2010.06.03 17:15:25.
