data_PCOD9346035
_publ_section_title
;
Structure prediction by ZEFSAII (Michael W. Deem and Ramdas Pophale) SiO2 
 PCOD9346035
Probable space group: P N A 21
;
_chemical_formula_sum "Si O2"
_cell_formula_units_Z 20
_cell_length_a 8.193568
_cell_length_b 20.418318
_cell_length_c 5.047951
_cell_angle_alpha 90.000000
_cell_angle_beta 90.000000
_cell_angle_gamma 90.000000
_cell_volume 844.516533
_symmetry_space_group_name_H-M "P N A 21"
_symmetry_group_IT_number 33
_symmetry_cell_setting 'orthorhombic'
loop_
_space_group_symop_operation_xyz
x,y,z
-x,-y,1/2+z
1/2-x,1/2+y,1/2+z
1/2+x,1/2-y,z
loop_
_atom_site_type_symbol
_atom_site_label
_atom_site_fract_x
_atom_site_fract_y
_atom_site_fract_z
Si Si1 0.938180 0.036042 0.933800
Si Si2 0.887969 0.755060 0.782509
Si Si3 0.609580 0.840710 0.943803
Si Si4 0.099794 0.514551 0.748609
Si Si5 0.399382 0.670468 0.280408
O O1 0.011694 0.107610 0.893210
O O2 0.037093 0.988836 0.731760
O O3 0.752348 0.028842 0.840018
O O4 0.925995 0.769619 0.479160
O O5 0.700301 0.779420 0.803324
O O6 0.960781 0.808427 0.990653
O O7 0.925598 0.684028 0.904301
O O8 0.640001 0.909620 0.805198
O O9 0.706549 0.843684 0.221632
O O10 0.952238 0.497292 0.948172
#
# Coordination Sequence:
#
# PCOD9346035 Si02
#       5
#     4   4   4   4   4
#     4  12  22  44  75  99 139 189 233 285 350 426
#     4  10  24  39  73  91 140 174 232 290 352 397
#     4  10  25  46  65 103 135 182 235 293 338 435
#     4  12  28  44  69 106 147 181 233 303 355 411
#     4  10  23  41  68  99 131 178 237 277 341 425
#
# _framework density 23.682186999999999
#
# number of rings (size 3 to 8) (size 9 to 14) (size 15 to 20)
#    1.200    0.000    2.000    3.600    5.600    3.200 
#    0.000    0.000    0.000    0.000    0.000    0.000 
#    0.000    0.000    0.000    0.000    0.000    0.000 
#
# Total GULP energy -111578.581327 kJ/mol
# GULP energy per Si atom -5578.929066 kJ/mol
# Density = 2.362829 g / cm^3
# Si number density = 23.682187 Si / 1000 Ang^3
#
#
#
# Elastic Constant Matrix: (Units=GPa)
#
#
# Indices 1 2 3 4 5 6 
#
# 1 53.8260 9.7587 7.1806 0.0000 0.0000 0.0000
# 2 9.7587 56.2959 18.4256 0.0000 0.0000 0.0000
# 3 7.1806 18.4256 85.0966 0.0000 0.0000 0.0000
# 4 0.0000 0.0000 0.0000 28.4432 0.0000 0.0000
# 5 0.0000 0.0000 0.0000 0.0000 31.1341 0.0000
# 6 0.0000 0.0000 0.0000 0.0000 0.0000 34.9301
#
#
#
# Elastic Compliance Matrix: (Units=1/GPa)
#
#
# Indices 1 2 3 4 5 6 
#
# 1 0.019255 -0.003020 -0.000971 0.000000 0.000000 0.000000
# 2 -0.003020 0.019592 -0.003987 0.000000 0.000000 0.000000
# 3 -0.000971 -0.003987 0.012697 0.000000 0.000000 0.000000
# 4 0.000000 0.000000 0.000000 0.035158 0.000000 0.000000
# 5 0.000000 0.000000 0.000000 0.000000 0.032119 0.000000
# 6 0.000000 0.000000 0.000000 0.000000 0.000000 0.028629
#
#
# Mechanical properties :
#
#
# Convention : Reuss Voigt Hill
#
# Bulk Modulus (GPa) = 28.09986 29.54981 28.82483
# Shear Modulus (GPa) = 28.52768 29.55840 29.04304
#
# Velocity S-wave (km/s) = 3.47451 3.53672 3.50575
# Velocity P-wave (km/s) = 5.29031 5.40209 5.34649
#
# Compressibility (1/GPa) = 0.03558737
#
# Stress axis : x y z
#
# Youngs Moduli (GPa) = 51.93331 51.04167 78.76112
#
# Poissons Ratio (x) = 0.15415 0.07647
# Poissons Ratio (y) = 0.15684 0.31404
# Poissons Ratio (z) = 0.05042 0.20352
#
# Static dielectric constant tensor:
#      x y z
#    x 2.103130 0.000000 0.000000 
#    y 0.000000 1.912300 0.000000 
#    z 0.000000 0.000000 1.833060 
# 
# From -- ./inp_files/369.got.cif
#   From: 2010.05.17/outbox.cif.g08.bks.cpg/sg33_1_cif.got.tgz:369.got - 2010.06.03 17:15:25.
