data_PCOD9346737
_publ_section_title
;
Structure prediction by ZEFSAII (Michael W. Deem and Ramdas Pophale) SiO2 
 PCOD9346737
Probable space group: P N A 21
;
_chemical_formula_sum "Si O2"
_cell_formula_units_Z 32
_cell_length_a 15.615811
_cell_length_b 16.792545
_cell_length_c 5.127473
_cell_angle_alpha 90.000000
_cell_angle_beta 90.000000
_cell_angle_gamma 90.000000
_cell_volume 1344.573189
_symmetry_space_group_name_H-M "P N A 21"
_symmetry_group_IT_number 33
_symmetry_cell_setting 'orthorhombic'
loop_
_space_group_symop_operation_xyz
x,y,z
-x,-y,1/2+z
1/2-x,1/2+y,1/2+z
1/2+x,1/2-y,z
loop_
_atom_site_type_symbol
_atom_site_label
_atom_site_fract_x
_atom_site_fract_y
_atom_site_fract_z
Si Si1 0.376633 0.384299 0.438470
Si Si2 0.584330 0.894668 0.952936
Si Si3 0.417107 0.938406 0.259526
Si Si4 0.267858 0.635150 0.169858
Si Si5 0.986636 0.146376 0.934043
Si Si6 0.157258 0.060287 0.146527
Si Si7 0.197526 0.303243 0.504080
Si Si8 0.452030 0.805596 0.639605
O O1 0.452934 0.365114 0.641747
O O2 0.345123 0.468226 0.560635
O O3 0.294171 0.327083 0.441165
O O4 0.413924 0.378907 0.145235
O O5 0.533668 0.822917 0.819747
O O6 0.609106 0.970451 0.775129
O O7 0.511389 0.931538 0.138598
O O8 0.669610 0.865500 0.085913
O O9 0.426765 0.892202 0.531758
O O10 0.350284 0.881316 0.113072
O O11 0.274027 0.599213 0.455094
O O12 0.320865 0.584907 0.946019
O O13 0.299821 0.725769 0.183757
O O14 0.067589 0.095798 0.036579
O O15 0.014421 0.238598 0.946982
O O16 0.134056 0.275573 0.274955
#
# Coordination Sequence:
#
# PCOD9346737 Si02
#       8
#     4   4   4   4   4   4   4   4
#     4  12  28  46  77 106 142 186 248 298 354 439
#     4  11  25  43  72 112 140 201 242 300 362 449
#     4  11  24  44  72 102 154 185 243 297 370 429
#     4  12  27  45  76 104 149 187 250 293 366 439
#     4  12  26  48  73 104 145 189 245 296 367 427
#     4  12  26  49  74 106 144 193 236 306 366 420
#     4  11  27  45  68 109 142 195 236 308 364 431
#     4  11  25  44  72  99 150 188 238 296 371 426
#
# _framework density 23.799372000000002
#
# number of rings (size 3 to 8) (size 9 to 14) (size 15 to 20)
#    0.000    0.500    2.500    4.500   10.500    0.000 
#    0.000    0.000    0.000    0.000    0.000    0.000 
#    0.000    0.000    0.000    0.000    0.000    0.000 
#
# Total GULP energy -178982.101862 kJ/mol
# GULP energy per Si atom -5593.190683 kJ/mol
# Density = 2.374520 g / cm^3
# Si number density = 23.799372 Si / 1000 Ang^3
#
#
#
# Elastic Constant Matrix: (Units=GPa)
#
#
# Indices 1 2 3 4 5 6 
#
# 1 80.6604 -2.5642 2.9787 0.0000 0.0000 0.0000
# 2 -2.5642 84.8419 -6.0842 0.0000 0.0000 0.0000
# 3 2.9787 -6.0842 47.4377 0.0000 0.0000 0.0000
# 4 0.0000 0.0000 0.0000 32.6129 0.0000 0.0000
# 5 0.0000 0.0000 0.0000 0.0000 17.7308 0.0000
# 6 0.0000 0.0000 0.0000 0.0000 0.0000 27.2427
#
#
#
# Elastic Compliance Matrix: (Units=1/GPa)
#
#
# Indices 1 2 3 4 5 6 
#
# 1 0.012435 0.000323 -0.000739 0.000000 0.000000 0.000000
# 2 0.000323 0.011904 0.001507 0.000000 0.000000 0.000000
# 3 -0.000739 0.001507 0.021320 0.000000 0.000000 0.000000
# 4 0.000000 0.000000 0.000000 0.030663 0.000000 0.000000
# 5 0.000000 0.000000 0.000000 0.000000 0.056399 0.000000
# 6 0.000000 0.000000 0.000000 0.000000 0.000000 0.036707
#
#
# Mechanical properties :
#
#
# Convention : Reuss Voigt Hill
#
# Bulk Modulus (GPa) = 20.90324 22.40005 21.65165
# Shear Modulus (GPa) = 27.29331 30.09126 28.69228
#
# Velocity S-wave (km/s) = 3.39013 3.55966 3.47593
# Velocity P-wave (km/s) = 4.91184 5.13102 5.02262
#
# Compressibility (1/GPa) = 0.04783948
#
# Stress axis : x y z
#
# Youngs Moduli (GPa) = 80.41670 84.00234 46.90449
#
# Poissons Ratio (x) = -0.02712 0.03468
# Poissons Ratio (y) = -0.02596 -0.07066
# Poissons Ratio (z) = 0.05946 -0.12655
#
# Static dielectric constant tensor:
#      x y z
#    x 1.933800 0.000000 0.000000 
#    y 0.000000 1.947180 0.000000 
#    z 0.000000 0.000000 1.944610 
# 
# From -- ./inp_files/1468.got.cif
#   From: 2010.05.17/outbox.cif.g08.bks.cpg/sg33_1_cif.got.tgz:1468.got - 2010.06.03 17:15:25.
