data_PCOD9346539
_publ_section_title
;
Structure prediction by ZEFSAII (Michael W. Deem and Ramdas Pophale) SiO2 
 PCOD9346539
Probable space group: P N A 21
;
_chemical_formula_sum "Si O2"
_cell_formula_units_Z 20
_cell_length_a 8.991197
_cell_length_b 10.965586
_cell_length_c 8.332413
_cell_angle_alpha 90.000000
_cell_angle_beta 90.000000
_cell_angle_gamma 90.000000
_cell_volume 821.523794
_symmetry_space_group_name_H-M "P N A 21"
_symmetry_group_IT_number 33
_symmetry_cell_setting 'orthorhombic'
loop_
_space_group_symop_operation_xyz
x,y,z
-x,-y,1/2+z
1/2-x,1/2+y,1/2+z
1/2+x,1/2-y,z
loop_
_atom_site_type_symbol
_atom_site_label
_atom_site_fract_x
_atom_site_fract_y
_atom_site_fract_z
Si Si1 0.423043 0.649999 0.142480
Si Si2 0.709718 0.700081 0.334325
Si Si3 0.617482 0.865917 0.599473
Si Si4 0.182439 0.441719 0.148930
Si Si5 0.605586 0.292186 0.283894
O O1 0.569781 0.639491 0.248479
O O2 0.333891 0.767371 0.205581
O O3 0.307228 0.541127 0.166524
O O4 0.450259 0.662565 0.953380
O O5 0.657919 0.827548 0.419924
O O6 0.778553 0.625898 0.481409
O O7 0.494030 0.970262 0.625417
O O8 0.527549 0.744887 0.664430
O O9 0.767981 0.875895 0.702535
O O10 0.181459 0.342611 0.292324
#
# Coordination Sequence:
#
# PCOD9346539 Si02
#       5
#     4   4   4   4   4
#     4  12  23  40  67  95 125 165 217 266 306 377
#     4  11  22  41  63  94 130 159 213 264 311 376
#     4   9  18  42  59  82 130 163 196 259 319 372
#     4   9  23  41  63  89 126 170 204 248 338 365
#     4   9  20  38  60  88 123 159 210 257 310 374
#
# _framework density 24.345002000000001
#
# number of rings (size 3 to 8) (size 9 to 14) (size 15 to 20)
#    1.200    0.800    2.000    1.200    0.000    6.400 
#    0.000    2.000    0.000    0.000    0.000    0.000 
#    0.000    0.000    0.000    0.000    0.000    0.000 
#
# Total GULP energy -111642.457772 kJ/mol
# GULP energy per Si atom -5582.122889 kJ/mol
# Density = 2.428959 g / cm^3
# Si number density = 24.345002 Si / 1000 Ang^3
#
#
#
# Elastic Constant Matrix: (Units=GPa)
#
#
# Indices 1 2 3 4 5 6 
#
# 1 80.9968 -4.7385 16.5497 0.0000 0.0000 0.0000
# 2 -4.7385 42.1130 -2.0813 0.0000 0.0000 0.0000
# 3 16.5497 -2.0813 77.9387 0.0000 0.0000 0.0000
# 4 0.0000 0.0000 0.0000 13.0566 0.0000 0.0000
# 5 0.0000 0.0000 0.0000 0.0000 40.0502 0.0000
# 6 0.0000 0.0000 0.0000 0.0000 0.0000 38.8971
#
#
#
# Elastic Compliance Matrix: (Units=1/GPa)
#
#
# Indices 1 2 3 4 5 6 
#
# 1 0.012980 0.001326 -0.002721 0.000000 0.000000 0.000000
# 2 0.001326 0.023912 0.000357 0.000000 0.000000 0.000000
# 3 -0.002721 0.000357 0.013418 0.000000 0.000000 0.000000
# 4 0.000000 0.000000 0.000000 0.076590 0.000000 0.000000
# 5 0.000000 0.000000 0.000000 0.000000 0.024969 0.000000
# 6 0.000000 0.000000 0.000000 0.000000 0.000000 0.025709
#
#
# Mechanical properties :
#
#
# Convention : Reuss Voigt Hill
#
# Bulk Modulus (GPa) = 20.73203 24.50092 22.61648
# Shear Modulus (GPa) = 25.54527 31.15535 28.35031
#
# Velocity S-wave (km/s) = 3.24281 3.58123 3.41621
# Velocity P-wave (km/s) = 4.74926 5.21404 4.98707
#
# Compressibility (1/GPa) = 0.04823454
#
# Stress axis : x y z
#
# Youngs Moduli (GPa) = 77.04370 41.81915 74.52756
#
# Poissons Ratio (x) = -0.05545 0.20277
# Poissons Ratio (y) = -0.10216 -0.02661
# Poissons Ratio (z) = 0.20961 -0.01493
#
# Static dielectric constant tensor:
#      x y z
#    x 1.937830 0.000000 0.000000 
#    y 0.000000 2.062460 0.000000 
#    z 0.000000 0.000000 1.891250 
# 
# From -- ./inp_files/3041.got.cif
#   From: 2010.05.17/outbox.cif.g08.bks.cpg/sg33_2_cif.got.tgz:3041.got - 2010.06.03 17:15:25.
