data_PCOD9346071
_publ_section_title
;
Structure prediction by ZEFSAII (Michael W. Deem and Ramdas Pophale) SiO2 
 PCOD9346071
Probable space group: P N A 21
;
_chemical_formula_sum "Si O2"
_cell_formula_units_Z 32
_cell_length_a 10.855934
_cell_length_b 16.655294
_cell_length_c 8.532294
_cell_angle_alpha 90.000000
_cell_angle_beta 90.000000
_cell_angle_gamma 90.000000
_cell_volume 1542.713604
_symmetry_space_group_name_H-M "P N A 21"
_symmetry_group_IT_number 33
_symmetry_cell_setting 'orthorhombic'
loop_
_space_group_symop_operation_xyz
x,y,z
-x,-y,1/2+z
1/2-x,1/2+y,1/2+z
1/2+x,1/2-y,z
loop_
_atom_site_type_symbol
_atom_site_label
_atom_site_fract_x
_atom_site_fract_y
_atom_site_fract_z
Si Si1 0.209135 0.680360 0.554670
Si Si2 0.677912 0.116645 0.339965
Si Si3 0.948305 0.113526 0.264856
Si Si4 0.445062 0.767609 0.615408
Si Si5 0.713118 0.928045 0.268435
Si Si6 0.337636 0.046399 0.299571
Si Si7 0.388986 0.518936 0.005998
Si Si8 0.480661 0.922112 0.089378
O O1 0.314623 0.747099 0.537704
O O2 0.247156 0.614809 0.427116
O O3 0.200003 0.631337 0.720049
O O4 0.072710 0.716225 0.526915
O O5 0.814948 0.147530 0.312671
O O6 0.584561 0.154581 0.217314
O O7 0.622188 0.133481 0.510599
O O8 0.689618 0.021815 0.305249
O O9 0.030677 0.189453 0.222206
O O10 0.003134 0.061773 0.408379
O O11 0.932968 0.056891 0.110159
O O12 0.583362 0.891858 0.209239
O O13 0.817713 0.925742 0.134611
O O14 0.217042 0.004146 0.374924
O O15 0.434012 0.052159 0.442543
O O16 0.404623 0.993651 0.168206
#
# Coordination Sequence:
#
# PCOD9346071 Si02
#       8
#     4   4   4   4   4   4   4   4
#     4  12  23  45  71  98 142 186 231 285 352 424
#     4  11  22  39  67 103 130 175 234 282 335 415
#     4  11  25  44  66 101 139 180 232 285 345 426
#     4  12  25  43  71 100 141 186 224 287 365 412
#     4  10  23  42  72 100 133 174 240 291 339 411
#     4  11  20  37  68 100 132 173 229 286 338 403
#     4  10  25  40  69  99 135 179 238 282 347 417
#     4  11  19  36  66 103 128 167 226 296 331 394
#
# _framework density 20.742671999999999
#
# number of rings (size 3 to 8) (size 9 to 14) (size 15 to 20)
#    0.000    1.000    6.250    0.000    5.250    1.000 
#    0.000    1.250    0.000    0.000    0.000    0.000 
#    0.000    0.000    0.000    0.000    0.000    0.000 
#
# Total GULP energy -178478.012707 kJ/mol
# GULP energy per Si atom -5577.437897 kJ/mol
# Density = 2.069546 g / cm^3
# Si number density = 20.742672 Si / 1000 Ang^3
#
#
#
# Elastic Constant Matrix: (Units=GPa)
#
#
# Indices 1 2 3 4 5 6 
#
# 1 105.9813 9.8605 14.4880 0.0000 0.0000 0.0000
# 2 9.8605 51.8335 20.3730 0.0000 0.0000 0.0000
# 3 14.4880 20.3730 64.1731 0.0000 0.0000 0.0000
# 4 0.0000 0.0000 0.0000 17.0525 0.0000 0.0000
# 5 0.0000 0.0000 0.0000 0.0000 26.8568 0.0000
# 6 0.0000 0.0000 0.0000 0.0000 0.0000 23.0257
#
#
#
# Elastic Compliance Matrix: (Units=1/GPa)
#
#
# Indices 1 2 3 4 5 6 
#
# 1 0.009794 -0.001136 -0.001851 0.000000 0.000000 0.000000
# 2 -0.001136 0.022175 -0.006783 0.000000 0.000000 0.000000
# 3 -0.001851 -0.006783 0.018154 0.000000 0.000000 0.000000
# 4 0.000000 0.000000 0.000000 0.058643 0.000000 0.000000
# 5 0.000000 0.000000 0.000000 0.000000 0.037234 0.000000
# 6 0.000000 0.000000 0.000000 0.000000 0.000000 0.043430
#
#
# Mechanical properties :
#
#
# Convention : Reuss Voigt Hill
#
# Bulk Modulus (GPa) = 32.69728 34.60345 33.65036
# Shear Modulus (GPa) = 22.81395 25.20476 24.00935
#
# Velocity S-wave (km/s) = 3.32001 3.48963 3.40588
# Velocity P-wave (km/s) = 5.52215 5.74066 5.63246
#
# Compressibility (1/GPa) = 0.03058359
#
# Stress axis : x y z
#
# Youngs Moduli (GPa) = 102.10026 45.09627 55.08381
#
# Poissons Ratio (x) = 0.05122 0.10194
# Poissons Ratio (y) = 0.11597 0.37365
# Poissons Ratio (z) = 0.18895 0.30590
#
# Static dielectric constant tensor:
#      x y z
#    x 1.823780 0.000000 0.000000 
#    y 0.000000 1.724200 0.000000 
#    z 0.000000 0.000000 1.752880 
# 
# From -- ./inp_files/4090.got.cif
#   From: 2010.05.17/outbox.cif.g08.bks.cpg/sg33_3_cif.got.tgz:4090.got - 2010.06.03 17:15:25.
