data_PCOD9346767
_publ_section_title
;
Structure prediction by ZEFSAII (Michael W. Deem and Ramdas Pophale) SiO2 
 PCOD9346767
Probable space group: P N A 21
;
_chemical_formula_sum "Si O2"
_cell_formula_units_Z 24
_cell_length_a 5.568917
_cell_length_b 30.368285
_cell_length_c 4.950346
_cell_angle_alpha 90.000000
_cell_angle_beta 90.000000
_cell_angle_gamma 90.000000
_cell_volume 837.194885
_symmetry_space_group_name_H-M "P N A 21"
_symmetry_group_IT_number 33
_symmetry_cell_setting 'orthorhombic'
loop_
_space_group_symop_operation_xyz
x,y,z
-x,-y,1/2+z
1/2-x,1/2+y,1/2+z
1/2+x,1/2-y,z
loop_
_atom_site_type_symbol
_atom_site_label
_atom_site_fract_x
_atom_site_fract_y
_atom_site_fract_z
Si Si1 0.356028 0.841495 0.840450
Si Si2 0.650160 0.316730 0.045209
Si Si3 0.638763 0.402845 0.727546
Si Si4 0.836194 0.735987 0.161395
Si Si5 0.134261 0.927131 0.731190
Si Si6 0.872259 0.488061 0.902159
O O1 0.606164 0.826433 0.709297
O O2 0.107955 0.826664 0.686256
O O3 0.338776 0.816666 0.130110
O O4 0.342049 0.894216 0.834788
O O5 0.670822 0.352147 0.800654
O O6 0.657290 0.267212 0.925469
O O7 0.584739 0.410423 0.416065
O O8 0.416506 0.418457 0.918468
O O9 0.833892 0.437542 0.829424
O O10 0.585458 0.749481 0.027240
O O11 0.173386 0.977889 0.796548
O O12 0.907831 0.495352 0.217619
#
# Coordination Sequence:
#
# PCOD9346767 Si02
#       6
#     4   4   4   4   4   4
#     4  11  26  48  74 106 148 197 252 313 377 448
#     4  11  26  48  74 106 148 197 252 313 377 448
#     4  11  24  46  72 104 148 198 250 308 376 449
#     4  12  26  44  70 102 138 186 246 304 370 440
#     4  11  24  46  72 104 148 198 250 308 376 449
#     4  12  24  40  70 110 150 196 250 308 376 450
#
# _framework density 28.667158000000001
#
# number of rings (size 3 to 8) (size 9 to 14) (size 15 to 20)
#    0.000    0.667    0.000    7.000    0.000   10.667 
#    0.000    1.667    0.000    2.000    0.000    0.000 
#    0.000    0.000    0.000    0.000    0.000    0.000 
#
# Total GULP energy -134400.387111 kJ/mol
# GULP energy per Si atom -5600.016130 kJ/mol
# Density = 2.860191 g / cm^3
# Si number density = 28.667158 Si / 1000 Ang^3
#
#
#
# Elastic Constant Matrix: (Units=GPa)
#
#
# Indices 1 2 3 4 5 6 
#
# 1 193.1920 62.5719 49.5821 0.0000 0.0000 0.0000
# 2 62.5719 89.5118 57.9350 0.0000 0.0000 0.0000
# 3 49.5821 57.9350 100.3657 0.0000 0.0000 0.0000
# 4 0.0000 0.0000 0.0000 62.0517 0.0000 0.0000
# 5 0.0000 0.0000 0.0000 0.0000 13.8943 0.0000
# 6 0.0000 0.0000 0.0000 0.0000 0.0000 57.8049
#
#
#
# Elastic Compliance Matrix: (Units=1/GPa)
#
#
# Indices 1 2 3 4 5 6 
#
# 1 0.006750 -0.004088 -0.000975 0.000000 0.000000 0.000000
# 2 -0.004088 0.020310 -0.009705 0.000000 0.000000 0.000000
# 3 -0.000975 -0.009705 0.016047 0.000000 0.000000 0.000000
# 4 0.000000 0.000000 0.000000 0.016116 0.000000 0.000000
# 5 0.000000 0.000000 0.000000 0.000000 0.071972 0.000000
# 6 0.000000 0.000000 0.000000 0.000000 0.000000 0.017300
#
#
# Mechanical properties :
#
#
# Convention : Reuss Voigt Hill
#
# Bulk Modulus (GPa) = 73.67545 80.36085 77.01815
# Shear Modulus (GPa) = 27.38920 40.94888 34.16904
#
# Velocity S-wave (km/s) = 3.09434 3.78355 3.45617
# Velocity P-wave (km/s) = 6.20666 6.86879 6.54610
#
# Compressibility (1/GPa) = 0.01357304
#
# Stress axis : x y z
#
# Youngs Moduli (GPa) = 148.13950 49.23656 62.31611
#
# Poissons Ratio (x) = 0.20125 0.06078
# Poissons Ratio (y) = 0.60552 0.60475
# Poissons Ratio (z) = 0.14448 0.47782
#
# Static dielectric constant tensor:
#      x y z
#    x 2.286030 0.000000 0.000000 
#    y 0.000000 2.192280 0.000000 
#    z 0.000000 0.000000 2.134760 
# 
# From -- ./inp_files/222.got.cif
#   From: 2010.05.17/outbox.cif.g08.bks.cpg/sg33_1_cif.got.tgz:222.got - 2010.06.03 17:15:25.
