data_PCOD9346227
_publ_section_title
;
Structure prediction by ZEFSAII (Michael W. Deem and Ramdas Pophale) SiO2 
 PCOD9346227
Probable space group: P N A 21
;
_chemical_formula_sum "Si O2"
_cell_formula_units_Z 20
_cell_length_a 9.461876
_cell_length_b 6.782277
_cell_length_c 11.592720
_cell_angle_alpha 90.000000
_cell_angle_beta 90.000000
_cell_angle_gamma 90.000000
_cell_volume 743.940362
_symmetry_space_group_name_H-M "P N A 21"
_symmetry_group_IT_number 33
_symmetry_cell_setting 'orthorhombic'
loop_
_space_group_symop_operation_xyz
x,y,z
-x,-y,1/2+z
1/2-x,1/2+y,1/2+z
1/2+x,1/2-y,z
loop_
_atom_site_type_symbol
_atom_site_label
_atom_site_fract_x
_atom_site_fract_y
_atom_site_fract_z
Si Si1 0.804311 0.884351 0.290820
Si Si2 0.792266 0.473182 0.022070
Si Si3 0.232909 0.942357 0.428016
Si Si4 0.933069 0.446439 0.631344
Si Si5 0.434363 0.611060 0.718287
O O1 0.773591 0.028765 0.399043
O O2 0.846008 0.675876 0.346646
O O3 0.656958 0.837048 0.228185
O O4 0.920135 0.990464 0.215064
O O5 0.671953 0.452385 0.117130
O O6 0.917740 0.602074 0.073819
O O7 0.842969 0.247341 0.989604
O O8 0.322991 0.046376 0.525446
O O9 0.133880 0.065975 0.343714
O O10 0.957163 0.659274 0.691742
#
# Coordination Sequence:
#
# PCOD9346227 Si02
#       5
#     4   4   4   4   4
#     4  10  24  41  66  96 129 175 217 269 335 384
#     4   9  23  40  64  92 132 168 217 264 330 379
#     4   9  22  41  68  89 132 170 218 273 326 382
#     4  11  22  43  68  94 134 175 213 275 326 393
#     4  11  21  41  70  95 129 174 219 271 329 390
#
# _framework density 26.883873999999999
#
# number of rings (size 3 to 8) (size 9 to 14) (size 15 to 20)
#    1.200    0.800    0.000    3.600    5.600    0.000 
#    3.600    0.000    0.000    0.000    0.000    0.000 
#    0.000    0.000    0.000    0.000    0.000    0.000 
#
# Total GULP energy -111927.225138 kJ/mol
# GULP energy per Si atom -5596.361257 kJ/mol
# Density = 2.682269 g / cm^3
# Si number density = 26.883874 Si / 1000 Ang^3
#
#
#
# Elastic Constant Matrix: (Units=GPa)
#
#
# Indices 1 2 3 4 5 6 
#
# 1 132.7555 15.2284 63.3998 0.0000 0.0000 0.0000
# 2 15.2284 80.5156 34.0722 0.0000 0.0000 0.0000
# 3 63.3998 34.0722 147.4573 0.0000 0.0000 0.0000
# 4 0.0000 0.0000 0.0000 36.6612 0.0000 0.0000
# 5 0.0000 0.0000 0.0000 0.0000 44.6748 0.0000
# 6 0.0000 0.0000 0.0000 0.0000 0.0000 30.8664
#
#
#
# Elastic Compliance Matrix: (Units=1/GPa)
#
#
# Indices 1 2 3 4 5 6 
#
# 1 0.009479 -0.000076 -0.004058 0.000000 0.000000 0.000000
# 2 -0.000076 0.013767 -0.003148 0.000000 0.000000 0.000000
# 3 -0.004058 -0.003148 0.009254 0.000000 0.000000 0.000000
# 4 0.000000 0.000000 0.000000 0.027277 0.000000 0.000000
# 5 0.000000 0.000000 0.000000 0.000000 0.022384 0.000000
# 6 0.000000 0.000000 0.000000 0.000000 0.000000 0.032398
#
#
# Mechanical properties :
#
#
# Convention : Reuss Voigt Hill
#
# Bulk Modulus (GPa) = 55.75560 65.12546 60.44053
# Shear Modulus (GPa) = 37.00921 38.97568 37.99245
#
# Velocity S-wave (km/s) = 3.71432 3.81173 3.76334
# Velocity P-wave (km/s) = 6.25934 6.60679 6.43541
#
# Compressibility (1/GPa) = 0.01793542
#
# Stress axis : x y z
#
# Youngs Moduli (GPa) = 105.49191 72.63952 108.06149
#
# Poissons Ratio (x) = 0.00549 0.43854
# Poissons Ratio (y) = 0.00797 0.34023
# Poissons Ratio (z) = 0.42811 0.22871
#
# Static dielectric constant tensor:
#      x y z
#    x 2.065840 0.000000 0.000000 
#    y 0.000000 2.195240 0.000000 
#    z 0.000000 0.000000 2.122300 
# 
# From -- ./inp_files/5739.got.cif
#   From: 2010.05.17/outbox.cif.g08.bks.cpg/sg33_3_cif.got.tgz:5739.got - 2010.06.03 17:15:25.
