data_PCOD9346650
_publ_section_title
;
Structure prediction by ZEFSAII (Michael W. Deem and Ramdas Pophale) SiO2 
 PCOD9346650
Probable space group: P N A 21
;
_chemical_formula_sum "Si O2"
_cell_formula_units_Z 24
_cell_length_a 14.220990
_cell_length_b 9.002404
_cell_length_c 7.735326
_cell_angle_alpha 90.000000
_cell_angle_beta 90.000000
_cell_angle_gamma 90.000000
_cell_volume 990.300393
_symmetry_space_group_name_H-M "P N A 21"
_symmetry_group_IT_number 33
_symmetry_cell_setting 'orthorhombic'
loop_
_space_group_symop_operation_xyz
x,y,z
-x,-y,1/2+z
1/2-x,1/2+y,1/2+z
1/2+x,1/2-y,z
loop_
_atom_site_type_symbol
_atom_site_label
_atom_site_fract_x
_atom_site_fract_y
_atom_site_fract_z
Si Si1 0.419506 0.828553 0.635100
Si Si2 0.044502 0.439858 0.520013
Si Si3 0.980484 0.076810 0.018535
Si Si4 0.736438 0.191602 0.562276
Si Si5 0.223783 0.950661 0.667579
Si Si6 0.937792 0.186604 0.655168
O O1 0.435489 0.653852 0.624836
O O2 0.316208 0.879140 0.577935
O O3 0.508487 0.893581 0.528874
O O4 0.438594 0.886241 0.827103
O O5 0.140865 0.393382 0.613218
O O6 0.956780 0.354595 0.604535
O O7 0.878167 0.100038 0.101085
O O8 0.987281 0.138157 0.827826
O O9 0.007546 0.905223 0.010437
O O10 0.724866 0.370398 0.611684
O O11 0.828911 0.151911 0.667958
O O12 0.762404 0.121532 0.366270
#
# Coordination Sequence:
#
# PCOD9346650 Si02
#       6
#     4   4   4   4   4   4
#     4  11  25  43  73 105 144 192 247 309 380 457
#     4  11  23  45  71 101 144 188 244 306 377 454
#     4  12  27  44  73 105 142 194 251 312 382 457
#     4  11  25  46  76 106 152 196 252 313 390 463
#     4  11  25  48  74 108 150 198 250 316 387 465
#     4  12  25  46  71 101 142 190 248 308 380 454
#
# _framework density 24.235071999999999
#
# number of rings (size 3 to 8) (size 9 to 14) (size 15 to 20)
#    0.000    0.667    3.333    4.000    4.667    4.000 
#    0.000    0.000    0.000    0.000    0.000    0.000 
#    0.000    0.000    0.000    0.000    0.000    0.000 
#
# Total GULP energy -133777.626292 kJ/mol
# GULP energy per Si atom -5574.067762 kJ/mol
# Density = 2.417991 g / cm^3
# Si number density = 24.235072 Si / 1000 Ang^3
#
#
#
# Elastic Constant Matrix: (Units=GPa)
#
#
# Indices 1 2 3 4 5 6 
#
# 1 131.8360 23.1959 -22.3704 0.0000 0.0000 0.0000
# 2 23.1959 105.1158 15.9667 0.0000 0.0000 0.0000
# 3 -22.3704 15.9667 41.9847 0.0000 0.0000 0.0000
# 4 0.0000 0.0000 0.0000 35.3522 0.0000 0.0000
# 5 0.0000 0.0000 0.0000 0.0000 27.3748 0.0000
# 6 0.0000 0.0000 0.0000 0.0000 0.0000 44.0037
#
#
#
# Elastic Compliance Matrix: (Units=1/GPa)
#
#
# Indices 1 2 3 4 5 6 
#
# 1 0.009110 -0.002916 0.005963 0.000000 0.000000 0.000000
# 2 -0.002916 0.011030 -0.005748 0.000000 0.000000 0.000000
# 3 0.005963 -0.005748 0.029182 0.000000 0.000000 0.000000
# 4 0.000000 0.000000 0.000000 0.028287 0.000000 0.000000
# 5 0.000000 0.000000 0.000000 0.000000 0.036530 0.000000
# 6 0.000000 0.000000 0.000000 0.000000 0.000000 0.022725
#
#
# Mechanical properties :
#
#
# Convention : Reuss Voigt Hill
#
# Bulk Modulus (GPa) = 22.76934 34.72454 28.74694
# Shear Modulus (GPa) = 31.86615 38.82243 35.34429
#
# Velocity S-wave (km/s) = 3.63006 4.00673 3.82304
# Velocity P-wave (km/s) = 5.19474 5.98034 5.60133
#
# Compressibility (1/GPa) = 0.04391871
#
# Stress axis : x y z
#
# Youngs Moduli (GPa) = 109.76849 90.66203 34.26816
#
# Poissons Ratio (x) = 0.26438 -0.20434
# Poissons Ratio (y) = 0.32009 0.19699
# Poissons Ratio (z) = -0.65456 0.52117
#
# Static dielectric constant tensor:
#      x y z
#    x 1.905060 0.000000 0.000000 
#    y 0.000000 1.917830 0.000000 
#    z 0.000000 0.000000 1.992010 
# 
# From -- ./inp_files/4224.got.cif
#   From: 2010.05.17/outbox.cif.g08.bks.cpg/sg33_3_cif.got.tgz:4224.got - 2010.06.03 17:15:25.
