data_PCOD9346014
_publ_section_title
;
Structure prediction by ZEFSAII (Michael W. Deem and Ramdas Pophale) SiO2 
 PCOD9346014
Probable space group: P N A 21
;
_chemical_formula_sum "Si O2"
_cell_formula_units_Z 32
_cell_length_a 28.434258
_cell_length_b 9.192000
_cell_length_c 5.532186
_cell_angle_alpha 90.000000
_cell_angle_beta 90.000000
_cell_angle_gamma 90.000000
_cell_volume 1445.934728
_symmetry_space_group_name_H-M "P N A 21"
_symmetry_group_IT_number 33
_symmetry_cell_setting 'orthorhombic'
loop_
_space_group_symop_operation_xyz
x,y,z
-x,-y,1/2+z
1/2-x,1/2+y,1/2+z
1/2+x,1/2-y,z
loop_
_atom_site_type_symbol
_atom_site_label
_atom_site_fract_x
_atom_site_fract_y
_atom_site_fract_z
Si Si1 0.696395 0.791453 0.998690
Si Si2 0.642079 0.537716 0.724179
Si Si3 0.376482 0.217359 0.877864
Si Si4 0.692996 0.285260 0.425015
Si Si5 0.519057 0.183936 0.167638
Si Si6 0.856117 0.536947 0.208299
Si Si7 0.030660 0.666099 0.160148
Si Si8 0.885969 0.791536 0.536133
O O1 0.674529 0.649294 0.872016
O O2 0.673296 0.936429 0.888788
O O3 0.676698 0.784871 0.273043
O O4 0.751155 0.795149 0.938612
O O5 0.616433 0.637764 0.529911
O O6 0.672727 0.417013 0.585152
O O7 0.609788 0.443565 0.899678
O O8 0.414491 0.207289 0.668910
O O9 0.384492 0.075862 0.043709
O O10 0.677930 0.132375 0.541745
O O11 0.664278 0.292612 0.173510
O O12 0.489803 0.219509 0.407026
O O13 0.569521 0.260736 0.201044
O O14 0.526229 0.009241 0.164040
O O15 0.494829 0.220076 0.908102
O O16 0.886111 0.655546 0.351580
#
# Coordination Sequence:
#
# PCOD9346014 Si02
#       8
#     4   4   4   4   4   4   4   4
#     4  11  25  41  69  96 139 183 236 289 355 425
#     4  10  26  42  70  96 144 184 228 292 358 426
#     4  11  24  45  70 104 142 184 236 295 365 426
#     4  11  25  41  69  96 139 183 236 289 355 425
#     4  10  23  40  74 110 143 180 238 303 365 427
#     4  10  24  38  70 102 136 178 234 290 354 420
#     4  10  23  40  74 110 143 180 238 303 365 427
#     4  11  24  45  70 104 142 184 236 295 365 426
#
# _framework density 22.131012999999999
#
# number of rings (size 3 to 8) (size 9 to 14) (size 15 to 20)
#    0.000    1.500    0.000    3.000   19.250    2.000 
#    0.000    0.000    5.500    0.000    0.000    0.000 
#    0.000    0.000    0.000    0.000    0.000    0.000 
#
# Total GULP energy -178978.276468 kJ/mol
# GULP energy per Si atom -5593.071140 kJ/mol
# Density = 2.208064 g / cm^3
# Si number density = 22.131013 Si / 1000 Ang^3
#
#
#
# Elastic Constant Matrix: (Units=GPa)
#
#
# Indices 1 2 3 4 5 6 
#
# 1 81.2452 3.8897 15.5371 0.0000 0.0000 0.0000
# 2 3.8897 107.0989 22.7786 0.0000 0.0000 0.0000
# 3 15.5371 22.7786 85.9620 0.0000 0.0000 0.0000
# 4 0.0000 0.0000 0.0000 23.4124 0.0000 0.0000
# 5 0.0000 0.0000 0.0000 0.0000 23.3343 0.0000
# 6 0.0000 0.0000 0.0000 0.0000 0.0000 -1.3557
#
#
#
# Elastic Compliance Matrix: (Units=1/GPa)
#
#
# Indices 1 2 3 4 5 6 
#
# 1 0.012749 0.000029 -0.002312 0.000000 0.000000 0.000000
# 2 0.000029 0.009895 -0.002627 0.000000 0.000000 0.000000
# 3 -0.002312 -0.002627 0.012747 0.000000 0.000000 0.000000
# 4 0.000000 0.000000 0.000000 0.042712 0.000000 0.000000
# 5 0.000000 0.000000 0.000000 0.000000 0.042855 0.000000
# 6 0.000000 0.000000 0.000000 0.000000 0.000000 -0.737649
#
#
# Mechanical properties :
#
#
# Convention : Reuss Voigt Hill
#
# Bulk Modulus (GPa) = 39.10790 39.85744 39.48267
# Shear Modulus (GPa) = -8.35638 24.55159 8.09761
#
# Velocity S-wave (km/s) = -1.94527 3.33434 1.91491
# Velocity P-wave (km/s) = 3.55865 5.73347 4.77162
#
# Compressibility (1/GPa) = 0.02557028
#
# Stress axis : x y z
#
# Youngs Moduli (GPa) = 78.43644 101.06224 78.44938
#
# Poissons Ratio (x) = -0.00290 0.18137
# Poissons Ratio (y) = -0.00225 0.20610
# Poissons Ratio (z) = 0.18134 0.26551
#
# Static dielectric constant tensor:
#      x y z
#    x 1.804270 0.000000 0.000000 
#    y 0.000000 1.760790 0.000000 
#    z 0.000000 0.000000 1.887830 
# 
# From -- ./inp_files/2559.got.cif
#   From: 2010.05.17/outbox.cif.g08.bks.cpg/sg33_2_cif.got.tgz:2559.got - 2010.06.03 17:15:25.
