data_PCOD9346110
_publ_section_title
;
Structure prediction by ZEFSAII (Michael W. Deem and Ramdas Pophale) SiO2 
 PCOD9346110
Probable space group: P N A 21
;
_chemical_formula_sum "Si O2"
_cell_formula_units_Z 24
_cell_length_a 9.654174
_cell_length_b 13.380825
_cell_length_c 7.990083
_cell_angle_alpha 90.000000
_cell_angle_beta 90.000000
_cell_angle_gamma 90.000000
_cell_volume 1032.165416
_symmetry_space_group_name_H-M "P N A 21"
_symmetry_group_IT_number 33
_symmetry_cell_setting 'orthorhombic'
loop_
_space_group_symop_operation_xyz
x,y,z
-x,-y,1/2+z
1/2-x,1/2+y,1/2+z
1/2+x,1/2-y,z
loop_
_atom_site_type_symbol
_atom_site_label
_atom_site_fract_x
_atom_site_fract_y
_atom_site_fract_z
Si Si1 0.253970 0.086086 0.709880
Si Si2 0.613537 0.294652 0.458303
Si Si3 0.534506 0.597513 0.215680
Si Si4 0.313735 0.966456 0.370595
Si Si5 0.102577 0.667278 0.779803
Si Si6 0.472162 0.195900 0.914347
O O1 0.211652 0.193081 0.621989
O O2 0.364116 0.113282 0.847111
O O3 0.108029 0.046757 0.777877
O O4 0.296757 0.016433 0.554520
O O5 0.502039 0.379227 0.520324
O O6 0.735474 0.308599 0.321533
O O7 0.512613 0.204139 0.413666
O O8 0.671012 0.541124 0.269106
O O9 0.540430 0.704280 0.308266
O O10 0.381541 0.858969 0.392184
O O11 0.405401 0.047542 0.271701
O O12 0.059934 0.717044 0.606704
#
# Coordination Sequence:
#
# PCOD9346110 Si02
#       6
#     4   4   4   4   4   4
#     4   9  23  45  66 101 138 187 230 294 360 420
#     4   9  23  46  67  97 141 186 227 293 361 432
#     4  10  23  43  73  95 144 190 230 291 362 434
#     4  11  24  46  68 106 141 186 242 295 361 428
#     4  11  25  45  71 107 139 183 242 296 358 433
#     4  12  24  43  73 106 139 182 245 297 358 435
#
# _framework density 23.252087
#
# number of rings (size 3 to 8) (size 9 to 14) (size 15 to 20)
#    1.000    0.667    0.000    4.000    7.000    1.333 
#    3.000    0.000    0.000    0.000    0.000    0.000 
#    0.000    0.000    0.000    0.000    0.000    0.000 
#
# Total GULP energy -133624.649154 kJ/mol
# GULP energy per Si atom -5567.693715 kJ/mol
# Density = 2.319916 g / cm^3
# Si number density = 23.252087 Si / 1000 Ang^3
#
#
#
# Elastic Constant Matrix: (Units=GPa)
#
#
# Indices 1 2 3 4 5 6 
#
# 1 91.1152 14.5368 25.8964 0.0000 0.0000 0.0000
# 2 14.5368 61.7228 9.0678 0.0000 0.0000 0.0000
# 3 25.8964 9.0678 45.0289 0.0000 0.0000 0.0000
# 4 0.0000 0.0000 0.0000 23.2170 0.0000 0.0000
# 5 0.0000 0.0000 0.0000 0.0000 42.4685 0.0000
# 6 0.0000 0.0000 0.0000 0.0000 0.0000 37.0350
#
#
#
# Elastic Compliance Matrix: (Units=1/GPa)
#
#
# Indices 1 2 3 4 5 6 
#
# 1 0.013374 -0.002081 -0.007272 0.000000 0.000000 0.000000
# 2 -0.002081 0.017019 -0.002230 0.000000 0.000000 0.000000
# 3 -0.007272 -0.002230 0.026839 0.000000 0.000000 0.000000
# 4 0.000000 0.000000 0.000000 0.043072 0.000000 0.000000
# 5 0.000000 0.000000 0.000000 0.000000 0.023547 0.000000
# 6 0.000000 0.000000 0.000000 0.000000 0.000000 0.027001
#
#
# Mechanical properties :
#
#
# Convention : Reuss Voigt Hill
#
# Bulk Modulus (GPa) = 29.35586 32.98543 31.17065
# Shear Modulus (GPa) = 26.97218 30.43517 28.70368
#
# Velocity S-wave (km/s) = 3.40956 3.62183 3.51729
# Velocity P-wave (km/s) = 5.30590 5.63090 5.47081
#
# Compressibility (1/GPa) = 0.03406475
#
# Stress axis : x y z
#
# Youngs Moduli (GPa) = 74.77124 58.75671 37.25857
#
# Poissons Ratio (x) = 0.12230 0.27096
# Poissons Ratio (y) = 0.15563 0.08310
# Poissons Ratio (z) = 0.54376 0.13104
#
# Static dielectric constant tensor:
#      x y z
#    x 1.955610 0.000000 0.000000 
#    y 0.000000 1.892750 0.000000 
#    z 0.000000 0.000000 1.900380 
# 
# From -- ./inp_files/3181.got.cif
#   From: 2010.05.17/outbox.cif.g08.bks.cpg/sg33_2_cif.got.tgz:3181.got - 2010.06.03 17:15:25.
