data_PCOD9346420
_publ_section_title
;
Structure prediction by ZEFSAII (Michael W. Deem and Ramdas Pophale) SiO2 
 PCOD9346420
Probable space group: P N A 21
;
_chemical_formula_sum "Si O2"
_cell_formula_units_Z 20
_cell_length_a 8.993315
_cell_length_b 5.207963
_cell_length_c 17.825755
_cell_angle_alpha 90.000000
_cell_angle_beta 90.000000
_cell_angle_gamma 90.000000
_cell_volume 834.902245
_symmetry_space_group_name_H-M "P N A 21"
_symmetry_group_IT_number 33
_symmetry_cell_setting 'orthorhombic'
loop_
_space_group_symop_operation_xyz
x,y,z
-x,-y,1/2+z
1/2-x,1/2+y,1/2+z
1/2+x,1/2-y,z
loop_
_atom_site_type_symbol
_atom_site_label
_atom_site_fract_x
_atom_site_fract_y
_atom_site_fract_z
Si Si1 0.658338 0.057798 0.277100
Si Si2 0.657071 0.401628 0.405356
Si Si3 0.820687 0.560122 0.599160
Si Si4 0.650787 0.061678 0.542536
Si Si5 0.410328 0.748655 0.364728
O O1 0.516264 0.904499 0.308325
O O2 0.802060 0.923200 0.313771
O O3 0.648856 0.331671 0.317721
O O4 0.666744 0.082033 0.188885
O O5 0.655294 0.146655 0.455177
O O6 0.513441 0.576180 0.418634
O O7 0.808149 0.559183 0.412634
O O8 0.713282 0.320311 0.581095
O O9 0.983891 0.498165 0.567740
O O10 0.751503 0.820351 0.565286
#
# Coordination Sequence:
#
# PCOD9346420 Si02
#       5
#     4   4   4   4   4
#     4  11  25  45  81 110 156 204 269 326 401 480
#     4  11  27  46  80 113 159 207 274 331 401 480
#     4  12  30  52  82 118 166 213 266 330 414 482
#     4  12  31  53  80 117 167 213 265 334 409 483
#     4  10  25  46  79 114 154 205 276 331 395 469
#
# _framework density 23.954899999999999
#
# number of rings (size 3 to 8) (size 9 to 14) (size 15 to 20)
#    0.000    0.800    0.000    3.600   22.400    0.000 
#    0.000    0.000    0.000    0.000    0.000    0.000 
#    0.000    0.000    0.000    0.000    0.000    0.000 
#
# Total GULP energy -112238.941337 kJ/mol
# GULP energy per Si atom -5611.947067 kJ/mol
# Density = 2.390038 g / cm^3
# Si number density = 23.954900 Si / 1000 Ang^3
#
#
#
# Elastic Constant Matrix: (Units=GPa)
#
#
# Indices 1 2 3 4 5 6 
#
# 1 178.8786 78.5669 59.7607 0.0000 0.0000 0.0000
# 2 78.5669 166.3544 58.5600 0.0000 0.0000 0.0000
# 3 59.7607 58.5600 173.5307 0.0000 0.0000 0.0000
# 4 0.0000 0.0000 0.0000 34.5191 0.0000 0.0000
# 5 0.0000 0.0000 0.0000 0.0000 15.9396 0.0000
# 6 0.0000 0.0000 0.0000 0.0000 0.0000 35.0611
#
#
#
# Elastic Compliance Matrix: (Units=1/GPa)
#
#
# Indices 1 2 3 4 5 6 
#
# 1 0.007406 -0.002950 -0.001555 0.000000 0.000000 0.000000
# 2 -0.002950 0.007997 -0.001683 0.000000 0.000000 0.000000
# 3 -0.001555 -0.001683 0.006866 0.000000 0.000000 0.000000
# 4 0.000000 0.000000 0.000000 0.028969 0.000000 0.000000
# 5 0.000000 0.000000 0.000000 0.000000 0.062737 0.000000
# 6 0.000000 0.000000 0.000000 0.000000 0.000000 0.028522
#
#
# Mechanical properties :
#
#
# Convention : Reuss Voigt Hill
#
# Bulk Modulus (GPa) = 101.07994 101.39321 101.23657
# Shear Modulus (GPa) = 31.61166 38.56237 35.08702
#
# Velocity S-wave (km/s) = 3.63662 4.01657 3.83131
# Velocity P-wave (km/s) = 7.74085 7.99557 7.86924
#
# Compressibility (1/GPa) = 0.00989316
#
# Stress axis : x y z
#
# Youngs Moduli (GPa) = 135.03267 125.04756 145.64682
#
# Poissons Ratio (x) = 0.36892 0.22644
# Poissons Ratio (y) = 0.39838 0.24507
# Poissons Ratio (z) = 0.20994 0.21041
#
# Static dielectric constant tensor:
#      x y z
#    x 1.903680 0.000000 0.000000 
#    y 0.000000 1.920770 0.000000 
#    z 0.000000 0.000000 1.894650 
# 
# From -- ./inp_files/8401.got.cif
#   From: 2010.05.17/outbox.cif.g08.bks.cpg/sg33_5_cif.got.tgz:8401.got - 2010.06.03 17:15:25.
