data_PCOD9347729
_publ_section_title
;
Structure prediction by ZEFSAII (Michael W. Deem and Ramdas Pophale) SiO2 
 PCOD9347729
Probable space group: P N N 2
;
_chemical_formula_sum "Si O2"
_cell_formula_units_Z 24
_cell_length_a 8.223067
_cell_length_b 10.353252
_cell_length_c 12.035568
_cell_angle_alpha 90.000000
_cell_angle_beta 90.000000
_cell_angle_gamma 90.000000
_cell_volume 1024.653917
_symmetry_space_group_name_H-M "P N N 2"
_symmetry_group_IT_number 34
_symmetry_cell_setting 'orthorhombic'
loop_
_space_group_symop_operation_xyz
x,y,z
-x,-y,z
1/2-x,1/2+y,1/2+z
1/2+x,1/2-y,1/2+z
loop_
_atom_site_type_symbol
_atom_site_label
_atom_site_fract_x
_atom_site_fract_y
_atom_site_fract_z
Si Si1 0.179452 0.445435 0.015550
Si Si2 0.805985 0.969030 0.288436
Si Si3 0.325643 0.938420 0.968896
Si Si4 0.726944 0.715604 0.654895
Si Si5 0.145173 0.172051 0.081427
Si Si6 0.186394 0.010492 0.746735
O O1 0.183324 0.290852 0.999869
O O2 0.289991 0.455998 0.123943
O O3 0.000000 0.500000 0.043337
O O4 0.240719 0.529023 0.912433
O O5 0.773753 0.850811 0.203778
O O6 0.726029 0.093177 0.229478
O O7 0.000000 0.000000 0.291573
O O8 0.292003 0.936088 0.838209
O O9 0.500000 0.000000 0.988557
O O10 0.191995 0.039719 0.018516
O O11 0.318816 0.805561 0.037735
O O12 0.540072 0.699526 0.617286
O O13 0.757648 0.842256 0.726344
O O14 0.000000 0.000000 0.780932
#
# Coordination Sequence:
#
# PCOD9347729 Si02
#       6
#     4   4   4   4   4   4
#     4  12  24  42  65 101 139 174 228 287 351 416
#     4   9  21  42  69  93 130 181 231 283 347 412
#     4  11  25  44  71 101 135 182 238 293 354 421
#     4  10  22  46  71  97 133 185 234 285 356 419
#     4  10  22  45  69  95 139 179 231 289 346 421
#     4  12  26  44  67 100 142 180 230 286 358 427
#
# _framework density 23.422543999999998
#
# number of rings (size 3 to 8) (size 9 to 14) (size 15 to 20)
#    0.000    1.333    1.667    4.500    2.333    4.000 
#    6.000    0.000    0.000    0.000    0.000    0.000 
#    0.000    0.000    0.000    0.000    0.000    0.000 
#
# Total GULP energy -133986.535868 kJ/mol
# GULP energy per Si atom -5582.772328 kJ/mol
# Density = 2.336923 g / cm^3
# Si number density = 23.422544 Si / 1000 Ang^3
#
#
#
# Elastic Constant Matrix: (Units=GPa)
#
#
# Indices 1 2 3 4 5 6 
#
# 1 55.1287 -10.1064 9.9639 0.0000 0.0000 0.0000
# 2 -10.1064 62.0866 13.8310 0.0000 0.0000 0.0000
# 3 9.9639 13.8310 131.3211 0.0000 0.0000 0.0000
# 4 0.0000 0.0000 0.0000 13.8575 0.0000 0.0000
# 5 0.0000 0.0000 0.0000 0.0000 30.9827 0.0000
# 6 0.0000 0.0000 0.0000 0.0000 0.0000 8.0879
#
#
#
# Elastic Compliance Matrix: (Units=1/GPa)
#
#
# Indices 1 2 3 4 5 6 
#
# 1 0.019113 0.003517 -0.001821 0.000000 0.000000 0.000000
# 2 0.003517 0.017141 -0.002072 0.000000 0.000000 0.000000
# 3 -0.001821 -0.002072 0.007971 0.000000 0.000000 0.000000
# 4 0.000000 0.000000 0.000000 0.072163 0.000000 0.000000
# 5 0.000000 0.000000 0.000000 0.000000 0.032276 0.000000
# 6 0.000000 0.000000 0.000000 0.000000 0.000000 0.123642
#
#
# Mechanical properties :
#
#
# Convention : Reuss Voigt Hill
#
# Bulk Modulus (GPa) = 23.00265 30.65702 26.82984
# Shear Modulus (GPa) = 17.38834 26.24214 21.81524
#
# Velocity S-wave (km/s) = 2.72761 3.35084 3.05516
# Velocity P-wave (km/s) = 4.44543 5.29980 4.89131
#
# Compressibility (1/GPa) = 0.04347325
#
# Stress axis : x y z
#
# Youngs Moduli (GPa) = 52.31999 58.34099 125.45011
#
# Poissons Ratio (x) = -0.20517 0.22839
# Poissons Ratio (y) = -0.18400 0.25995
# Poissons Ratio (z) = 0.09525 0.12089
#
# Static dielectric constant tensor:
#      x y z
#    x 1.882830 0.000000 0.000000 
#    y 0.000000 1.989900 0.000000 
#    z 0.000000 0.000000 1.918070 
# 
# From -- ./inp_files/4916.got.cif
#   From: 2010.05.17/outbox.cif.g08.bks.cpg/sg34_3_cif.got.tgz:4916.got - 2010.06.03 17:23:11.
