data_PCOD9347391
_publ_section_title
;
Structure prediction by ZEFSAII (Michael W. Deem and Ramdas Pophale) SiO2 
 PCOD9347391
Probable space group: P N N 2
;
_chemical_formula_sum "Si O2"
_cell_formula_units_Z 26
_cell_length_a 8.248842
_cell_length_b 11.501769
_cell_length_c 15.103232
_cell_angle_alpha 90.000000
_cell_angle_beta 90.000000
_cell_angle_gamma 90.000000
_cell_volume 1432.938396
_symmetry_space_group_name_H-M "P N N 2"
_symmetry_group_IT_number 34
_symmetry_cell_setting 'orthorhombic'
loop_
_space_group_symop_operation_xyz
x,y,z
-x,-y,z
1/2-x,1/2+y,1/2+z
1/2+x,1/2-y,1/2+z
loop_
_atom_site_type_symbol
_atom_site_label
_atom_site_fract_x
_atom_site_fract_y
_atom_site_fract_z
Si Si1 0.804641 0.293788 0.559500
Si Si2 0.754833 0.066260 0.870806
Si Si3 0.552301 0.620958 0.193336
Si Si4 0.446080 0.375243 0.551511
Si Si5 0.089517 0.687121 0.371322
Si Si6 0.232515 0.304238 0.713367
Si Si7 0.000000 0.500000 0.656895
O O1 0.827976 0.196312 0.633396
O O2 0.616297 0.311482 0.537929
O O3 0.892980 0.260390 0.468903
O O4 0.893880 0.411214 0.596352
O O5 0.867021 0.090531 0.786901
O O6 0.593550 0.143365 0.859635
O O7 0.698109 0.931615 0.872411
O O8 0.848710 0.099055 0.961088
O O9 0.500000 0.500000 0.149924
O O10 0.395352 0.700046 0.207308
O O11 0.500000 0.500000 0.590085
O O12 0.335214 0.312174 0.623227
O O13 0.152965 0.774060 0.296028
O O14 0.123930 0.421711 0.713925
#
# Coordination Sequence:
#
# PCOD9347391 Si02
#       7
#     4   4   4   4   4   4   2
#     4  11  22  38  63  88 125 159 205 248 304 358
#     4  11  21  38  64  94 119 152 214 257 295 359
#     4  11  22  40  61  90 124 161 198 253 306 359
#     4  12  21  37  63  94 119 155 205 260 301 348
#     4  11  21  37  63  94 120 159 202 254 305 363
#     4  11  22  37  62  90 124 158 201 253 306 358
#     4  10  20  38  60  90 118 162 204 254 294 358
#
# _framework density 18.144532999999999
#
# number of rings (size 3 to 8) (size 9 to 14) (size 15 to 20)
#    0.000    0.923    4.615    5.077    0.000    0.000 
#    0.000    0.769   10.154    0.000    0.000    0.000 
#    0.000    0.000    0.000    0.000    0.000    0.000 
#
# Total GULP energy -145214.756351 kJ/mol
# GULP energy per Si atom -5585.182937 kJ/mol
# Density = 1.810324 g / cm^3
# Si number density = 18.144533 Si / 1000 Ang^3
#
#
#
# Elastic Constant Matrix: (Units=GPa)
#
#
# Indices 1 2 3 4 5 6 
#
# 1 117.1145 37.0411 46.6555 0.0000 0.0000 0.0000
# 2 37.0411 64.2600 41.2589 0.0000 0.0000 0.0000
# 3 46.6555 41.2589 107.0635 0.0000 0.0000 0.0000
# 4 0.0000 0.0000 0.0000 18.2653 0.0000 0.0000
# 5 0.0000 0.0000 0.0000 0.0000 38.1101 0.0000
# 6 0.0000 0.0000 0.0000 0.0000 0.0000 25.9990
#
#
#
# Elastic Compliance Matrix: (Units=1/GPa)
#
#
# Indices 1 2 3 4 5 6 
#
# 1 0.011202 -0.004415 -0.003180 0.000000 0.000000 0.000000
# 2 -0.004415 0.022419 -0.006715 0.000000 0.000000 0.000000
# 3 -0.003180 -0.006715 0.013314 0.000000 0.000000 0.000000
# 4 0.000000 0.000000 0.000000 0.054749 0.000000 0.000000
# 5 0.000000 0.000000 0.000000 0.000000 0.026240 0.000000
# 6 0.000000 0.000000 0.000000 0.000000 0.000000 0.038463
#
#
# Mechanical properties :
#
#
# Convention : Reuss Voigt Hill
#
# Bulk Modulus (GPa) = 54.60572 59.81656 57.21114
# Shear Modulus (GPa) = 24.86182 27.37370 26.11776
#
# Velocity S-wave (km/s) = 3.70565 3.88834 3.79810
# Velocity P-wave (km/s) = 6.96199 7.29364 7.12975
#
# Compressibility (1/GPa) = 0.01831310
#
# Stress axis : x y z
#
# Youngs Moduli (GPa) = 89.26996 44.60588 75.10951
#
# Poissons Ratio (x) = 0.19695 0.23885
# Poissons Ratio (y) = 0.39416 0.50438
# Poissons Ratio (z) = 0.28388 0.29954
#
# Static dielectric constant tensor:
#      x y z
#    x 1.645430 0.000000 0.000000 
#    y 0.000000 1.622550 0.000000 
#    z 0.000000 0.000000 1.601990 
# 
# From -- ./inp_files/4974.got.cif
#   From: 2010.05.17/outbox.cif.g08.bks.cpg/sg34_3_cif.got.tgz:4974.got - 2010.06.03 17:23:11.
