data_PCOD9347460
_publ_section_title
;
Structure prediction by ZEFSAII (Michael W. Deem and Ramdas Pophale) SiO2 
 PCOD9347460
Probable space group: P N N 2
;
_chemical_formula_sum "Si O2"
_cell_formula_units_Z 32
_cell_length_a 12.656800
_cell_length_b 7.397598
_cell_length_c 14.013347
_cell_angle_alpha 90.000000
_cell_angle_beta 90.000000
_cell_angle_gamma 90.000000
_cell_volume 1312.068536
_symmetry_space_group_name_H-M "P N N 2"
_symmetry_group_IT_number 34
_symmetry_cell_setting 'orthorhombic'
loop_
_space_group_symop_operation_xyz
x,y,z
-x,-y,z
1/2-x,1/2+y,1/2+z
1/2+x,1/2-y,1/2+z
loop_
_atom_site_type_symbol
_atom_site_label
_atom_site_fract_x
_atom_site_fract_y
_atom_site_fract_z
Si Si1 0.192114 0.692831 0.179720
Si Si2 0.531073 0.285589 0.752316
Si Si3 0.130469 0.257541 0.823348
Si Si4 0.569134 0.329732 0.951230
Si Si5 0.236192 0.121625 0.139656
Si Si6 0.391578 0.485209 0.479601
Si Si7 0.191537 0.583903 0.968090
Si Si8 0.020598 0.696126 0.643834
O O1 0.266344 0.668967 0.271723
O O2 0.068517 0.691377 0.203149
O O3 0.229087 0.903873 0.160569
O O4 0.202412 0.568084 0.084648
O O5 0.500000 0.500000 0.749184
O O6 0.541770 0.207128 0.859987
O O7 0.644958 0.280844 0.700346
O O8 0.087706 0.098412 0.886824
O O9 0.850902 0.569654 0.894802
O O10 0.043690 0.295585 0.741921
O O11 0.500000 0.500000 0.928282
O O12 0.689882 0.378272 0.937481
O O13 0.539429 0.304145 0.061632
O O14 0.352340 0.206433 0.153810
O O15 0.200689 0.103076 0.029902
O O16 0.500000 0.500000 0.540012
O O17 0.367915 0.276367 0.461651
O O18 0.000000 0.500000 0.601871
#
# Coordination Sequence:
#
# PCOD9347460 Si02
#       8
#     4   4   4   4   4   4   4   4
#     4  10  20  44  68 107 146 192 265 316 370 481
#     4   9  19  38  70  97 136 195 254 316 380 458
#     4  12  26  46  76 112 154 204 250 332 397 461
#     4  11  24  44  73 111 143 202 259 322 392 477
#     4  10  20  41  70  99 143 198 247 308 394 449
#     4  11  27  45  74 112 153 206 261 319 385 482
#     4  11  24  48  75 108 155 203 258 320 401 476
#     4  12  25  44  66 107 153 195 247 319 392 465
#
# _framework density 24.388971000000002
#
# number of rings (size 3 to 8) (size 9 to 14) (size 15 to 20)
#    0.000    1.250    2.500    4.875    5.250    0.500 
#    0.000    3.750    0.000    1.500    0.000    0.000 
#    0.000    0.000    0.000    0.000    0.000    0.000 
#
# Total GULP energy -178409.404908 kJ/mol
# GULP energy per Si atom -5575.293903 kJ/mol
# Density = 2.433346 g / cm^3
# Si number density = 24.388971 Si / 1000 Ang^3
#
#
#
# Elastic Constant Matrix: (Units=GPa)
#
#
# Indices 1 2 3 4 5 6 
#
# 1 177.3211 43.4205 57.8472 0.0000 0.0000 0.0000
# 2 43.4205 74.9497 60.6605 0.0000 0.0000 0.0000
# 3 57.8472 60.6605 154.9145 0.0000 0.0000 0.0000
# 4 0.0000 0.0000 0.0000 40.3022 0.0000 0.0000
# 5 0.0000 0.0000 0.0000 0.0000 44.9312 0.0000
# 6 0.0000 0.0000 0.0000 0.0000 0.0000 24.5226
#
#
#
# Elastic Compliance Matrix: (Units=1/GPa)
#
#
# Indices 1 2 3 4 5 6 
#
# 1 0.006789 -0.002754 -0.001457 0.000000 0.000000 0.000000
# 2 -0.002754 0.020650 -0.007057 0.000000 0.000000 0.000000
# 3 -0.001457 -0.007057 0.009763 0.000000 0.000000 0.000000
# 4 0.000000 0.000000 0.000000 0.024813 0.000000 0.000000
# 5 0.000000 0.000000 0.000000 0.000000 0.022256 0.000000
# 6 0.000000 0.000000 0.000000 0.000000 0.000000 0.040779
#
#
# Mechanical properties :
#
#
# Convention : Reuss Voigt Hill
#
# Bulk Modulus (GPa) = 68.18998 81.22685 74.70841
# Shear Modulus (GPa) = 32.79244 38.30166 35.54705
#
# Velocity S-wave (km/s) = 3.67080 3.96719 3.82187
# Velocity P-wave (km/s) = 6.78133 7.37305 7.08337
#
# Compressibility (1/GPa) = 0.01466491
#
# Stress axis : x y z
#
# Youngs Moduli (GPa) = 147.29476 48.42653 102.43118
#
# Poissons Ratio (x) = 0.13337 0.14921
# Poissons Ratio (y) = 0.40567 0.72291
# Poissons Ratio (z) = 0.21456 0.34177
#
# Static dielectric constant tensor:
#      x y z
#    x 1.981530 0.000000 0.000000 
#    y 0.000000 1.899580 0.000000 
#    z 0.000000 0.000000 2.112710 
# 
# From -- ./inp_files/6811.got.cif
#   From: 2010.05.17/outbox.cif.g08.bks.cpg/sg34_4_cif.got.tgz:6811.got - 2010.06.03 17:23:11.
