data_PCOD9347702
_publ_section_title
;
Structure prediction by ZEFSAII (Michael W. Deem and Ramdas Pophale) SiO2 
 PCOD9347702
Probable space group: P N N 2
;
_chemical_formula_sum "Si O2"
_cell_formula_units_Z 24
_cell_length_a 10.035375
_cell_length_b 7.070900
_cell_length_c 11.987502
_cell_angle_alpha 90.000000
_cell_angle_beta 90.000000
_cell_angle_gamma 90.000000
_cell_volume 850.622750
_symmetry_space_group_name_H-M "P N N 2"
_symmetry_group_IT_number 34
_symmetry_cell_setting 'orthorhombic'
loop_
_space_group_symop_operation_xyz
x,y,z
-x,-y,z
1/2-x,1/2+y,1/2+z
1/2+x,1/2-y,1/2+z
loop_
_atom_site_type_symbol
_atom_site_label
_atom_site_fract_x
_atom_site_fract_y
_atom_site_fract_z
Si Si1 0.819439 0.149374 0.701530
Si Si2 0.962424 0.707931 0.257793
Si Si3 0.743522 0.712048 0.675271
Si Si4 0.949825 0.213975 0.486962
Si Si5 0.120897 0.785128 0.952296
Si Si6 0.656939 0.157179 0.408303
O O1 0.679253 0.260658 0.707513
O O2 0.926653 0.244330 0.619017
O O3 0.859034 0.131831 0.829909
O O4 0.784232 0.935155 0.664378
O O5 0.000000 0.500000 0.214460
O O6 0.094292 0.820097 0.225594
O O7 0.956939 0.693330 0.392769
O O8 0.718234 0.642640 0.549508
O O9 0.842078 0.645895 0.773238
O O10 0.799757 0.236031 0.442729
O O11 0.000000 0.000000 0.479592
O O12 0.148546 0.559608 0.945180
O O13 0.960163 0.779264 0.964975
#
# Coordination Sequence:
#
# PCOD9347702 Si02
#       6
#     4   4   4   4   4   4
#     4  11  23  39  67  95 128 169 216 262 331 387
#     4   9  21  41  65  93 123 171 217 262 330 389
#     4  10  22  43  67  89 132 169 215 274 322 384
#     4  11  22  40  69  90 127 169 217 268 324 385
#     4  11  23  41  66  93 133 170 214 269 331 386
#     4  10  23  42  65  97 125 171 218 263 331 392
#
# _framework density 28.214621999999999
#
# number of rings (size 3 to 8) (size 9 to 14) (size 15 to 20)
#    0.000    1.667    1.667    2.000    7.000    0.000 
#   12.000    0.000   11.000    0.000    0.000    0.000 
#    0.000    0.000    0.000    0.000    0.000    0.000 
#
# Total GULP energy -134275.548605 kJ/mol
# GULP energy per Si atom -5594.814525 kJ/mol
# Density = 2.815040 g / cm^3
# Si number density = 28.214622 Si / 1000 Ang^3
#
#
#
# Elastic Constant Matrix: (Units=GPa)
#
#
# Indices 1 2 3 4 5 6 
#
# 1 68.0342 1.2348 26.3242 0.0000 0.0000 0.0000
# 2 1.2348 63.2232 11.4150 0.0000 0.0000 0.0000
# 3 26.3242 11.4150 207.3300 0.0000 0.0000 0.0000
# 4 0.0000 0.0000 0.0000 31.3095 0.0000 0.0000
# 5 0.0000 0.0000 0.0000 0.0000 54.7430 0.0000
# 6 0.0000 0.0000 0.0000 0.0000 0.0000 32.4276
#
#
#
# Elastic Compliance Matrix: (Units=1/GPa)
#
#
# Indices 1 2 3 4 5 6 
#
# 1 0.015458 0.000053 -0.001966 0.000000 0.000000 0.000000
# 2 0.000053 0.015976 -0.000886 0.000000 0.000000 0.000000
# 3 -0.001966 -0.000886 0.005122 0.000000 0.000000 0.000000
# 4 0.000000 0.000000 0.000000 0.031939 0.000000 0.000000
# 5 0.000000 0.000000 0.000000 0.000000 0.018267 0.000000
# 6 0.000000 0.000000 0.000000 0.000000 0.000000 0.030838
#
#
# Mechanical properties :
#
#
# Convention : Reuss Voigt Hill
#
# Bulk Modulus (GPa) = 32.30208 46.28171 39.29189
# Shear Modulus (GPa) = 37.44840 43.67024 40.55932
#
# Velocity S-wave (km/s) = 3.64712 3.93846 3.79559
# Velocity P-wave (km/s) = 5.40453 6.09270 5.75890
#
# Compressibility (1/GPa) = 0.03095776
#
# Stress axis : x y z
#
# Youngs Moduli (GPa) = 64.69109 62.59403 195.25169
#
# Poissons Ratio (x) = -0.00332 0.38379
# Poissons Ratio (y) = -0.00343 0.17305
# Poissons Ratio (z) = 0.12716 0.05548
#
# Static dielectric constant tensor:
#      x y z
#    x 2.208350 0.000000 0.000000 
#    y 0.000000 2.310370 0.000000 
#    z 0.000000 0.000000 2.257180 
# 
# From -- ./inp_files/4950.got.cif
#   From: 2010.05.17/outbox.cif.g08.bks.cpg/sg34_3_cif.got.tgz:4950.got - 2010.06.03 17:23:11.
