data_PCOD9347302
_publ_section_title
;
Structure prediction by ZEFSAII (Michael W. Deem and Ramdas Pophale) SiO2 
 PCOD9347302
Probable space group: P N N 2
;
_chemical_formula_sum "Si O2"
_cell_formula_units_Z 12
_cell_length_a 13.314170
_cell_length_b 5.165631
_cell_length_c 5.988765
_cell_angle_alpha 90.000000
_cell_angle_beta 90.000000
_cell_angle_gamma 90.000000
_cell_volume 411.883836
_symmetry_space_group_name_H-M "P N N 2"
_symmetry_group_IT_number 34
_symmetry_cell_setting 'orthorhombic'
loop_
_space_group_symop_operation_xyz
x,y,z
-x,-y,z
1/2-x,1/2+y,1/2+z
1/2+x,1/2-y,1/2+z
loop_
_atom_site_type_symbol
_atom_site_label
_atom_site_fract_x
_atom_site_fract_y
_atom_site_fract_z
Si Si1 0.092544 0.142008 0.219640
Si Si2 0.592424 0.143769 0.252293
Si Si3 0.710110 0.868494 0.608604
O O1 0.157220 0.407806 0.261721
O O2 0.833979 0.094282 0.173887
O O3 0.047792 0.231174 0.977928
O O4 0.000000 0.000000 0.346118
O O5 0.669065 0.350223 0.140126
O O6 0.500000 0.000000 0.131141
O O7 0.666862 0.935325 0.365436
#
# Coordination Sequence:
#
# PCOD9347302 Si02
#       3
#     4   4   4
#     4  10  19  39  62  96 125 186 224 285 344 424
#     4  10  22  40  67  98 140 183 231 287 356 424
#     4  10  22  34  67  95 132 180 236 277 353 416
#
# _framework density 29.134429999999998
#
# number of rings (size 3 to 8) (size 9 to 14) (size 15 to 20)
#    2.000    0.000    3.333    1.000    4.667    0.000 
#    0.000    0.000    7.333    0.000    0.000    0.000 
#    0.000    0.000    0.000    0.000    0.000    0.000 
#
# Total GULP energy -66871.231993 kJ/mol
# GULP energy per Si atom -5572.602666 kJ/mol
# Density = 2.906812 g / cm^3
# Si number density = 29.134430 Si / 1000 Ang^3
#
#
#
# Elastic Constant Matrix: (Units=GPa)
#
#
# Indices 1 2 3 4 5 6 
#
# 1 259.9719 86.1084 39.1573 0.0000 0.0000 0.0000
# 2 86.1084 216.5754 35.2197 0.0000 0.0000 0.0000
# 3 39.1573 35.2197 49.1680 0.0000 0.0000 0.0000
# 4 0.0000 0.0000 0.0000 55.5895 0.0000 0.0000
# 5 0.0000 0.0000 0.0000 0.0000 24.6294 0.0000
# 6 0.0000 0.0000 0.0000 0.0000 0.0000 65.2191
#
#
#
# Elastic Compliance Matrix: (Units=1/GPa)
#
#
# Indices 1 2 3 4 5 6 
#
# 1 0.004736 -0.001437 -0.002742 0.000000 0.000000 0.000000
# 2 -0.001437 0.005662 -0.002911 0.000000 0.000000 0.000000
# 3 -0.002742 -0.002911 0.024608 0.000000 0.000000 0.000000
# 4 0.000000 0.000000 0.000000 0.017989 0.000000 0.000000
# 5 0.000000 0.000000 0.000000 0.000000 0.040602 0.000000
# 6 0.000000 0.000000 0.000000 0.000000 0.000000 0.015333
#
#
# Mechanical properties :
#
#
# Convention : Reuss Voigt Hill
#
# Bulk Modulus (GPa) = 48.02057 94.07624 71.04840
# Shear Modulus (GPa) = 38.44630 53.43628 45.94129
#
# Velocity S-wave (km/s) = 3.63659 4.28732 3.97529
# Velocity P-wave (km/s) = 5.84391 7.54113 6.74611
#
# Compressibility (1/GPa) = 0.02082441
#
# Stress axis : x y z
#
# Youngs Moduli (GPa) = 211.17045 176.61332 40.63761
#
# Poissons Ratio (x) = 0.25377 0.11143
# Poissons Ratio (y) = 0.30343 0.11832
# Poissons Ratio (z) = 0.57905 0.51421
#
# Static dielectric constant tensor:
#      x y z
#    x 2.216230 0.000000 0.000000 
#    y 0.000000 2.353090 0.000000 
#    z 0.000000 0.000000 2.749050 
# 
# From -- ./inp_files/2947.got.cif
#   From: 2010.05.17/outbox.cif.g08.bks.cpg/sg34_2_cif.got.tgz:2947.got - 2010.06.03 17:23:11.
