data_PCOD9347788
_publ_section_title
;
Structure prediction by ZEFSAII (Michael W. Deem and Ramdas Pophale) SiO2 
 PCOD9347788
Probable space group: P N N 2
;
_chemical_formula_sum "Si O2"
_cell_formula_units_Z 20
_cell_length_a 5.150923
_cell_length_b 4.982111
_cell_length_c 29.531092
_cell_angle_alpha 90.000000
_cell_angle_beta 90.000000
_cell_angle_gamma 90.000000
_cell_volume 757.840767
_symmetry_space_group_name_H-M "P N N 2"
_symmetry_group_IT_number 34
_symmetry_cell_setting 'orthorhombic'
loop_
_space_group_symop_operation_xyz
x,y,z
-x,-y,z
1/2-x,1/2+y,1/2+z
1/2+x,1/2-y,1/2+z
loop_
_atom_site_type_symbol
_atom_site_label
_atom_site_fract_x
_atom_site_fract_y
_atom_site_fract_z
Si Si1 0.000000 0.000000 0.952400
Si Si2 0.249984 0.189813 0.280220
Si Si3 0.306882 0.746569 0.027701
Si Si4 0.248097 0.689029 0.683011
Si Si5 0.746316 0.303977 0.879827
Si Si6 0.500000 0.000000 0.606757
O O1 0.775003 0.066076 0.915969
O O2 0.910913 0.221658 0.989022
O O3 0.254504 0.337997 0.231946
O O4 0.247395 0.323611 0.329335
O O5 0.500000 0.000000 0.279901
O O6 0.000000 0.000000 0.280099
O O7 0.500000 0.500000 0.019606
O O8 0.149070 0.704903 0.073995
O O9 0.500000 0.000000 0.028284
O O10 0.500000 0.500000 0.683095
O O11 0.287326 0.875619 0.640144
O O12 0.000000 0.500000 0.679292
O O13 0.500000 0.500000 0.885551
O O14 0.000000 0.500000 0.884782
#
# Coordination Sequence:
#
# PCOD9347788 Si02
#       6
#     2   4   4   4   4   2
#     4  12  28  46  76 114 152 212 272 330 410 478
#     4   8  16  39  67 104 150 201 251 318 392 474
#     4  12  31  53  81 114 164 212 275 349 415 480
#     4  10  24  44  75 111 157 205 262 326 399 483
#     4  10  23  43  74 108 153 203 262 323 398 483
#     4  12  30  48  78 120 152 214 276 328 412 482
#
# _framework density 26.39077
#
# number of rings (size 3 to 8) (size 9 to 14) (size 15 to 20)
#    0.000    1.600    0.000    1.800   14.000    0.000 
#    0.000   12.000    0.000    0.000    0.000    0.000 
#    0.000    0.000    0.000    0.000    0.000    0.000 
#
# Total GULP energy -111906.577058 kJ/mol
# GULP energy per Si atom -5595.328853 kJ/mol
# Density = 2.633070 g / cm^3
# Si number density = 26.390770 Si / 1000 Ang^3
#
#
#
# Elastic Constant Matrix: (Units=GPa)
#
#
# Indices 1 2 3 4 5 6 
#
# 1 219.6116 72.4603 51.1712 0.0000 0.0000 0.0000
# 2 72.4603 122.4527 64.3116 0.0000 0.0000 0.0000
# 3 51.1712 64.3116 280.9192 0.0000 0.0000 0.0000
# 4 0.0000 0.0000 0.0000-1729.6954 0.0000 0.0000
# 5 0.0000 0.0000 0.0000 0.0000 40.8236 0.0000
# 6 0.0000 0.0000 0.0000 0.0000 0.0000 69.8765
#
#
#
# Elastic Compliance Matrix: (Units=1/GPa)
#
#
# Indices 1 2 3 4 5 6 
#
# 1 0.005681 -0.003203 -0.000301 0.000000 0.000000 0.000000
# 2 -0.003203 0.011089 -0.001955 0.000000 0.000000 0.000000
# 3 -0.000301 -0.001955 0.004062 0.000000 0.000000 0.000000
# 4 0.000000 0.000000 0.000000 -0.000578 0.000000 0.000000
# 5 0.000000 0.000000 0.000000 0.000000 0.024496 0.000000
# 6 0.000000 0.000000 0.000000 0.000000 0.000000 0.014311
#
#
# Mechanical properties :
#
#
# Convention : Reuss Voigt Hill
#
# Bulk Modulus (GPa) = 100.88628 110.98553 105.93591
# Shear Modulus (GPa) = 68.22837 -294.79637 -113.28400
#
# Velocity S-wave (km/s) = 5.09011 -10.58049 -6.55887
# Velocity P-wave (km/s) = 8.53560 10.34971 4.13884
#
# Compressibility (1/GPa) = 0.00991215
#
# Stress axis : x y z
#
# Youngs Moduli (GPa) = 176.03784 90.18243 246.16979
#
# Poissons Ratio (x) = 0.28886 0.07421
# Poissons Ratio (y) = 0.56387 0.48128
# Poissons Ratio (z) = 0.05307 0.17631
#
# Static dielectric constant tensor:
#      x y z
#    x 2.007020 0.000000 0.000000 
#    y 0.000000 2.298320 0.000000 
#    z 0.000000 0.000000 2.085000 
# 
# From -- ./inp_files/8632.got.cif
#   From: 2010.05.17/outbox.cif.g08.bks.cpg/sg34_5_cif.got.tgz:8632.got - 2010.06.03 17:23:11.
