data_PCOD9347143
_publ_section_title
;
Structure prediction by ZEFSAII (Michael W. Deem and Ramdas Pophale) SiO2 
 PCOD9347143
Probable space group: P N N 2
;
_chemical_formula_sum "Si O2"
_cell_formula_units_Z 26
_cell_length_a 7.587661
_cell_length_b 17.258598
_cell_length_c 7.729170
_cell_angle_alpha 90.000000
_cell_angle_beta 90.000000
_cell_angle_gamma 90.000000
_cell_volume 1012.153292
_symmetry_space_group_name_H-M "P N N 2"
_symmetry_group_IT_number 34
_symmetry_cell_setting 'orthorhombic'
loop_
_space_group_symop_operation_xyz
x,y,z
-x,-y,z
1/2-x,1/2+y,1/2+z
1/2+x,1/2-y,1/2+z
loop_
_atom_site_type_symbol
_atom_site_label
_atom_site_fract_x
_atom_site_fract_y
_atom_site_fract_z
Si Si1 0.555058 0.332417 0.907910
Si Si2 0.658322 0.056507 0.253189
Si Si3 0.000000 0.000000 0.229776
Si Si4 0.196289 0.133202 0.782197
Si Si5 0.294769 0.974975 0.664926
Si Si6 0.083014 0.326737 0.264207
Si Si7 0.861278 0.709203 0.896605
O O1 0.559250 0.417807 0.821966
O O2 0.641397 0.259223 0.811178
O O3 0.349706 0.305646 0.921579
O O4 0.648758 0.337080 0.090485
O O5 0.721764 0.038195 0.455632
O O6 0.604651 0.146749 0.243978
O O7 0.500000 0.000000 0.216736
O O8 0.824041 0.030834 0.140018
O O9 0.398839 0.145889 0.844310
O O10 0.097517 0.200071 0.888419
O O11 0.178987 0.042058 0.749537
O O12 0.273546 0.894300 0.765458
O O13 0.500000 0.000000 0.682579
O O14 0.037339 0.323374 0.060372
#
# Coordination Sequence:
#
# PCOD9347143 Si02
#       7
#     4   4   2   4   4   4   4
#     4  10  20  33  54  80 109 142 182 237 278 332
#     4   9  16  30  51  75 104 137 181 230 268 325
#     4  10  18  30  52  80 104 134 190 224 272 328
#     4  10  18  33  58  78 107 142 183 237 277 325
#     4   8  14  28  53  74  94 137 186 221 269 328
#     4   9  19  35  54  77 108 144 183 227 286 340
#     4   9  20  33  51  82 111 137 186 232 277 343
#
# _framework density 25.687811
#
# number of rings (size 3 to 8) (size 9 to 14) (size 15 to 20)
#    0.000    2.769    1.538    0.923    0.000    1.231 
#    0.000    0.000   10.154    0.923    0.000    0.000 
#    0.000    0.000    0.000    0.000    0.000    0.000 
#
# Total GULP energy -144789.574040 kJ/mol
# GULP energy per Si atom -5568.829771 kJ/mol
# Density = 2.562934 g / cm^3
# Si number density = 25.687811 Si / 1000 Ang^3
#
#
#
# Elastic Constant Matrix: (Units=GPa)
#
#
# Indices 1 2 3 4 5 6 
#
# 1 41.5143 27.0595 2.0282 0.0000 0.0000 0.0000
# 2 27.0595 163.0030 13.0745 0.0000 0.0000 0.0000
# 3 2.0282 13.0745 28.6031 0.0000 0.0000 0.0000
# 4 0.0000 0.0000 0.0000 32.6561 0.0000 0.0000
# 5 0.0000 0.0000 0.0000 0.0000 5.7031 0.0000
# 6 0.0000 0.0000 0.0000 0.0000 0.0000 25.8411
#
#
#
# Elastic Compliance Matrix: (Units=1/GPa)
#
#
# Indices 1 2 3 4 5 6 
#
# 1 0.027011 -0.004495 0.000139 0.000000 0.000000 0.000000
# 2 -0.004495 0.007116 -0.002934 0.000000 0.000000 0.000000
# 3 0.000139 -0.002934 0.036293 0.000000 0.000000 0.000000
# 4 0.000000 0.000000 0.000000 0.030622 0.000000 0.000000
# 5 0.000000 0.000000 0.000000 0.000000 0.175345 0.000000
# 6 0.000000 0.000000 0.000000 0.000000 0.000000 0.038698
#
#
# Mechanical properties :
#
#
# Convention : Reuss Voigt Hill
#
# Bulk Modulus (GPa) = 17.90817 35.27162 26.58990
# Shear Modulus (GPa) = 14.35632 25.57060 19.96346
#
# Velocity S-wave (km/s) = 2.36662 3.15848 2.79078
# Velocity P-wave (km/s) = 3.80190 5.20211 4.55612
#
# Compressibility (1/GPa) = 0.05584044
#
# Stress axis : x y z
#
# Youngs Moduli (GPa) = 37.02149 140.51966 27.55381
#
# Poissons Ratio (x) = 0.63167 -0.00384
# Poissons Ratio (y) = 0.16642 0.08085
# Poissons Ratio (z) = -0.00516 0.41231
#
# Static dielectric constant tensor:
#      x y z
#    x 1.946460 0.000000 0.000000 
#    y 0.000000 2.301250 0.000000 
#    z 0.000000 0.000000 2.051290 
# 
# From -- ./inp_files/2771.got.cif
#   From: 2010.05.17/outbox.cif.g08.bks.cpg/sg34_2_cif.got.tgz:2771.got - 2010.06.03 17:23:11.
