data_PCOD9347737
_publ_section_title
;
Structure prediction by ZEFSAII (Michael W. Deem and Ramdas Pophale) SiO2 
 PCOD9347737
Probable space group: P N N 2
;
_chemical_formula_sum "Si O2"
_cell_formula_units_Z 18
_cell_length_a 5.248750
_cell_length_b 5.749762
_cell_length_c 24.837916
_cell_angle_alpha 90.000000
_cell_angle_beta 90.000000
_cell_angle_gamma 90.000000
_cell_volume 749.585039
_symmetry_space_group_name_H-M "P N N 2"
_symmetry_group_IT_number 34
_symmetry_cell_setting 'orthorhombic'
loop_
_space_group_symop_operation_xyz
x,y,z
-x,-y,z
1/2-x,1/2+y,1/2+z
1/2+x,1/2-y,1/2+z
loop_
_atom_site_type_symbol
_atom_site_label
_atom_site_fract_x
_atom_site_fract_y
_atom_site_fract_z
Si Si1 0.500000 0.500000 0.768360
Si Si2 0.742198 0.652032 0.349634
Si Si3 0.245269 0.844320 0.083360
Si Si4 0.850784 0.753652 0.465479
Si Si5 0.252962 0.639072 0.197359
O O1 0.676169 0.348539 0.808032
O O2 0.299034 0.375134 0.728862
O O3 0.500000 0.500000 0.333535
O O4 0.690516 0.741957 0.410461
O O5 0.000000 0.500000 0.352661
O O6 0.264576 0.670912 0.133141
O O7 0.500000 0.000000 0.084528
O O8 0.216866 0.739499 0.023681
O O9 0.000000 0.000000 0.094104
O O10 0.000000 0.500000 0.466818
O O11 0.000000 0.000000 0.461841
O O12 0.500000 0.500000 0.214139
O O13 0.000000 0.500000 0.211371
#
# Coordination Sequence:
#
# PCOD9347737 Si02
#       5
#     2   4   4   4   4
#     4  12  28  52  76 108 164 206 272 338 412 488
#     4  11  26  50  76 112 150 207 268 326 407 486
#     4  11  23  46  75 113 153 200 257 326 403 483
#     4  10  22  46  78 116 157 207 262 335 406 487
#     4  12  28  48  76 114 151 205 266 326 405 485
#
# _framework density 24.013287999999999
#
# number of rings (size 3 to 8) (size 9 to 14) (size 15 to 20)
#    0.000    0.889    2.222    3.333    0.000    8.000 
#    0.000    6.667    0.000    0.000    0.000    0.000 
#    0.000    0.000    0.000    0.000    0.000    0.000 
#
# Total GULP energy -100743.112209 kJ/mol
# GULP energy per Si atom -5596.839567 kJ/mol
# Density = 2.395863 g / cm^3
# Si number density = 24.013288 Si / 1000 Ang^3
#
#
#
# Elastic Constant Matrix: (Units=GPa)
#
#
# Indices 1 2 3 4 5 6 
#
# 1 172.4547 53.7720 32.0894 0.0000 0.0000 0.0000
# 2 53.7720 105.1500 45.7822 0.0000 0.0000 0.0000
# 3 32.0894 45.7822 199.4617 0.0000 0.0000 0.0000
# 4 0.0000 0.0000 0.0000 -179.1890 0.0000 0.0000
# 5 0.0000 0.0000 0.0000 0.0000 37.8364 0.0000
# 6 0.0000 0.0000 0.0000 0.0000 0.0000 53.0279
#
#
#
# Elastic Compliance Matrix: (Units=1/GPa)
#
#
# Indices 1 2 3 4 5 6 
#
# 1 0.006919 -0.003392 -0.000334 0.000000 0.000000 0.000000
# 2 -0.003392 0.012230 -0.002261 0.000000 0.000000 0.000000
# 3 -0.000334 -0.002261 0.005586 0.000000 0.000000 0.000000
# 4 0.000000 0.000000 0.000000 -0.005581 0.000000 0.000000
# 5 0.000000 0.000000 0.000000 0.000000 0.026430 0.000000
# 6 0.000000 0.000000 0.000000 0.000000 0.000000 0.018858
#
#
# Mechanical properties :
#
#
# Convention : Reuss Voigt Hill
#
# Bulk Modulus (GPa) = 78.38041 82.26152 80.32096
# Shear Modulus (GPa) = 61.98050 5.36325 33.67188
#
# Velocity S-wave (km/s) = 5.08596 1.49609 3.74868
# Velocity P-wave (km/s) = 8.19759 6.10864 7.22897
#
# Compressibility (1/GPa) = 0.01275829
#
# Stress axis : x y z
#
# Youngs Moduli (GPa) = 144.53722 81.76853 179.00878
#
# Poissons Ratio (x) = 0.27740 0.05986
# Poissons Ratio (y) = 0.49034 0.40479
# Poissons Ratio (z) = 0.04833 0.18490
#
# Static dielectric constant tensor:
#      x y z
#    x 1.837590 0.000000 0.000000 
#    y 0.000000 2.142010 0.000000 
#    z 0.000000 0.000000 1.925520 
# 
# From -- ./inp_files/8221.got.cif
#   From: 2010.05.17/outbox.cif.g08.bks.cpg/sg34_5_cif.got.tgz:8221.got - 2010.06.03 17:23:11.
