data_PCOD9347699
_publ_section_title
;
Structure prediction by ZEFSAII (Michael W. Deem and Ramdas Pophale) SiO2 
 PCOD9347699
Probable space group: P N N 2
;
_chemical_formula_sum "Si O2"
_cell_formula_units_Z 30
_cell_length_a 9.603595
_cell_length_b 15.176645
_cell_length_c 9.870696
_cell_angle_alpha 90.000000
_cell_angle_beta 90.000000
_cell_angle_gamma 90.000000
_cell_volume 1438.657417
_symmetry_space_group_name_H-M "P N N 2"
_symmetry_group_IT_number 34
_symmetry_cell_setting 'orthorhombic'
loop_
_space_group_symop_operation_xyz
x,y,z
-x,-y,z
1/2-x,1/2+y,1/2+z
1/2+x,1/2-y,1/2+z
loop_
_atom_site_type_symbol
_atom_site_label
_atom_site_fract_x
_atom_site_fract_y
_atom_site_fract_z
Si Si1 0.914861 0.731606 0.323280
Si Si2 0.823107 0.145739 0.357726
Si Si3 0.512347 0.605585 0.467187
Si Si4 0.728555 0.203951 0.100031
Si Si5 0.253653 0.712384 0.578615
Si Si6 0.500000 0.500000 0.989797
Si Si7 0.087923 0.582135 0.397111
Si Si8 0.839509 0.890824 0.713139
O O1 0.878277 0.726064 0.481316
O O2 0.782284 0.756878 0.231945
O O3 0.041316 0.799945 0.305604
O O4 0.983841 0.636472 0.298461
O O5 0.764169 0.201546 0.483984
O O6 0.890439 0.054838 0.401922
O O7 0.712944 0.144394 0.235070
O O8 0.500000 0.500000 0.490813
O O9 0.653075 0.650824 0.517488
O O10 0.392673 0.658847 0.543985
O O11 0.473058 0.623436 0.310450
O O12 0.736871 0.300867 0.169506
O O13 0.138491 0.644044 0.521661
O O14 0.596977 0.439785 0.085166
O O15 0.226063 0.559925 0.308855
O O16 0.000000 0.500000 0.447183
#
# Coordination Sequence:
#
# PCOD9347699 Si02
#       8
#     4   4   4   4   4   2   4   4
#     4  11  23  41  68  92 133 180 212 271 346 395
#     4  11  24  44  65  96 135 172 222 280 324 400
#     4  11  23  38  71 101 132 171 229 274 329 408
#     4  12  24  42  67  97 135 177 218 279 345 390
#     4  10  22  43  65  95 131 173 217 269 336 396
#     4  12  26  42  70 100 134 176 232 280 332 396
#     4  10  23  41  65  98 135 173 220 276 328 400
#     4  11  23  44  65 103 134 174 230 275 334 411
#
# _framework density 20.852777
#
# number of rings (size 3 to 8) (size 9 to 14) (size 15 to 20)
#    0.000    1.067    7.333    0.000    8.400    0.000 
#    0.000    0.000    0.000    0.800    0.000    0.000 
#    0.000    0.000    0.000    0.000    0.000    0.000 
#
# Total GULP energy -167045.378058 kJ/mol
# GULP energy per Si atom -5568.179269 kJ/mol
# Density = 2.080532 g / cm^3
# Si number density = 20.852777 Si / 1000 Ang^3
#
#
#
# Elastic Constant Matrix: (Units=GPa)
#
#
# Indices 1 2 3 4 5 6 
#
# 1 17.7423 6.9296 4.2356 0.0000 0.0000 0.0000
# 2 6.9296 68.0549 8.7250 0.0000 0.0000 0.0000
# 3 4.2356 8.7250 87.4106 0.0000 0.0000 0.0000
# 4 0.0000 0.0000 0.0000 8.6900 0.0000 0.0000
# 5 0.0000 0.0000 0.0000 0.0000 34.4051 0.0000
# 6 0.0000 0.0000 0.0000 0.0000 0.0000 35.9758
#
#
#
# Elastic Compliance Matrix: (Units=1/GPa)
#
#
# Indices 1 2 3 4 5 6 
#
# 1 0.059148 -0.005728 -0.002294 0.000000 0.000000 0.000000
# 2 -0.005728 0.015439 -0.001264 0.000000 0.000000 0.000000
# 3 -0.002294 -0.001264 0.011678 0.000000 0.000000 0.000000
# 4 0.000000 0.000000 0.000000 0.115075 0.000000 0.000000
# 5 0.000000 0.000000 0.000000 0.000000 0.029065 0.000000
# 6 0.000000 0.000000 0.000000 0.000000 0.000000 0.027796
#
#
# Mechanical properties :
#
#
# Convention : Reuss Voigt Hill
#
# Bulk Modulus (GPa) = 14.77281 23.66533 19.21907
# Shear Modulus (GPa) = 16.70355 26.03535 21.36945
#
# Velocity S-wave (km/s) = 2.83331 3.53729 3.20469
# Velocity P-wave (km/s) = 4.21938 5.29685 4.78852
#
# Compressibility (1/GPa) = 0.06769192
#
# Stress axis : x y z
#
# Youngs Moduli (GPa) = 16.90687 64.76975 85.63440
#
# Poissons Ratio (x) = 0.37103 0.19647
# Poissons Ratio (y) = 0.09685 0.10820
# Poissons Ratio (z) = 0.03879 0.08184
#
# Static dielectric constant tensor:
#      x y z
#    x 1.815920 0.000000 0.000000 
#    y 0.000000 1.809690 0.000000 
#    z 0.000000 0.000000 1.798270 
# 
# From -- ./inp_files/3298.got.cif
#   From: 2010.05.17/outbox.cif.g08.bks.cpg/sg34_2_cif.got.tgz:3298.got - 2010.06.03 17:23:11.
