data_PCOD9347583
_publ_section_title
;
Structure prediction by ZEFSAII (Michael W. Deem and Ramdas Pophale) SiO2 
 PCOD9347583
Probable space group: P N N 2
;
_chemical_formula_sum "Si O2"
_cell_formula_units_Z 24
_cell_length_a 9.898401
_cell_length_b 15.013810
_cell_length_c 9.308178
_cell_angle_alpha 90.000000
_cell_angle_beta 90.000000
_cell_angle_gamma 90.000000
_cell_volume 1383.313576
_symmetry_space_group_name_H-M "P N N 2"
_symmetry_group_IT_number 34
_symmetry_cell_setting 'orthorhombic'
loop_
_space_group_symop_operation_xyz
x,y,z
-x,-y,z
1/2-x,1/2+y,1/2+z
1/2+x,1/2-y,1/2+z
loop_
_atom_site_type_symbol
_atom_site_label
_atom_site_fract_x
_atom_site_fract_y
_atom_site_fract_z
Si Si1 0.250000 0.415211 0.350170
Si Si2 0.374340 0.245930 0.497037
Si Si3 0.874342 0.754070 0.203305
Si Si4 0.500000 0.000000 0.021330
Si Si5 0.908156 0.323186 0.676747
Si Si6 0.408158 0.676815 0.023596
Si Si7 0.500000 0.500000 0.179011
O O1 0.320702 0.345215 0.459843
O O2 0.179298 0.345215 0.240496
O O3 0.370074 0.470842 0.275080
O O4 0.129926 0.470842 0.425261
O O5 0.499999 0.250000 0.600171
O O6 0.412075 0.197477 0.346998
O O7 0.248052 0.193322 0.563839
O O8 0.748054 0.806679 0.136504
O O9 0.912077 0.802521 0.353345
O O10 0.542128 0.917855 0.122111
O O11 0.999999 0.250000 0.600172
O O12 0.457873 0.582145 0.078230
#
# Coordination Sequence:
#
# PCOD9347583 Si02
#       7
#     4   4   4   2   4   4   2
#     4  10  24  40  64  94 124 164 212 258 314 388
#     4  10  22  44  62  89 122 166 216 254 321 368
#     4  10  22  44  62  89 122 166 216 254 321 368
#     4  12  22  42  64  94 130 164 212 260 324 368
#     4  10  21  42  61  89 127 161 205 262 303 378
#     4  10  21  42  61  89 127 161 205 262 303 378
#     4  12  22  42  64  94 130 164 212 260 324 368
#
# _framework density 17.349644000000001
#
# number of rings (size 3 to 8) (size 9 to 14) (size 15 to 20)
#    0.000    2.000    6.667    0.000    4.667    1.333 
#   12.000    0.000    0.000    0.000    0.000    0.000 
#    0.000    0.000    0.000    0.000    0.000    0.000 
#
# Total GULP energy -133827.304400 kJ/mol
# GULP energy per Si atom -5576.137683 kJ/mol
# Density = 1.731016 g / cm^3
# Si number density = 17.349644 Si / 1000 Ang^3
#
#
#
# Elastic Constant Matrix: (Units=GPa)
#
#
# Indices 1 2 3 4 5 6 
#
# 1 184.3167 82.5742 93.1919 0.0000 0.0000 0.0000
# 2 82.5742 155.6755 53.4577 0.0000 0.0000 0.0000
# 3 93.1919 53.4577 60.4911 0.0000 0.0000 0.0000
# 4 0.0000 0.0000 0.0000 15.7041 0.0000 0.0000
# 5 0.0000 0.0000 0.0000 0.0000 49.5897 0.0000
# 6 0.0000 0.0000 0.0000 0.0000 0.0000 26.7022
#
#
#
# Elastic Compliance Matrix: (Units=1/GPa)
#
#
# Indices 1 2 3 4 5 6 
#
# 1 0.024542 -0.000049 -0.037766 0.000000 0.000000 0.000000
# 2 -0.000049 0.009222 -0.008074 0.000000 0.000000 0.000000
# 3 -0.037766 -0.008074 0.081849 0.000000 0.000000 0.000000
# 4 0.000000 0.000000 0.000000 0.063677 0.000000 0.000000
# 5 0.000000 0.000000 0.000000 0.000000 0.020165 0.000000
# 6 0.000000 0.000000 0.000000 0.000000 0.000000 0.037450
#
#
# Mechanical properties :
#
#
# Convention : Reuss Voigt Hill
#
# Bulk Modulus (GPa) = 41.95615 95.43674 68.69645
# Shear Modulus (GPa) = 14.85311 29.81653 22.33482
#
# Velocity S-wave (km/s) = 2.92910 4.15006 3.59184
# Velocity P-wave (km/s) = 5.97283 8.83693 7.54208
#
# Compressibility (1/GPa) = 0.02383441
#
# Stress axis : x y z
#
# Youngs Moduli (GPa) = 40.74594 108.43230 12.21768
#
# Poissons Ratio (x) = 0.00535 0.46141
# Poissons Ratio (y) = 0.00201 0.09865
# Poissons Ratio (z) = 1.53881 0.87549
#
# Static dielectric constant tensor:
#      x y z
#    x 1.604590 0.000000 0.000000 
#    y 0.000000 1.581370 0.000000 
#    z 0.000000 0.000000 1.590150 
# 
# From -- ./inp_files/2646.got.cif
#   From: 2010.05.17/outbox.cif.g08.bks.cpg/sg34_2_cif.got.tgz:2646.got - 2010.06.03 17:23:11.
