data_PCOD9347219
_publ_section_title
;
Structure prediction by ZEFSAII (Michael W. Deem and Ramdas Pophale) SiO2 
 PCOD9347219
Probable space group: P N N 2
;
_chemical_formula_sum "Si O2"
_cell_formula_units_Z 32
_cell_length_a 17.401071
_cell_length_b 11.350546
_cell_length_c 7.814886
_cell_angle_alpha 90.000000
_cell_angle_beta 90.000000
_cell_angle_gamma 90.000000
_cell_volume 1543.531082
_symmetry_space_group_name_H-M "P N N 2"
_symmetry_group_IT_number 34
_symmetry_cell_setting 'orthorhombic'
loop_
_space_group_symop_operation_xyz
x,y,z
-x,-y,z
1/2-x,1/2+y,1/2+z
1/2+x,1/2-y,1/2+z
loop_
_atom_site_type_symbol
_atom_site_label
_atom_site_fract_x
_atom_site_fract_y
_atom_site_fract_z
Si Si1 0.341600 0.726469 0.437110
Si Si2 0.413055 0.484311 0.493076
Si Si3 0.413055 0.515689 0.906818
Si Si4 0.682417 0.129574 0.129681
Si Si5 0.151787 0.747157 0.085086
Si Si6 0.151787 0.252843 0.314809
Si Si7 0.682417 0.870427 0.270214
Si Si8 0.341600 0.273531 0.962785
O O1 0.360175 0.587730 0.417515
O O2 0.366598 0.801879 0.273354
O O3 0.377864 0.764238 0.620426
O O4 0.250000 0.750000 0.449947
O O5 0.500000 0.500000 0.434096
O O6 0.410307 0.500000 0.699947
O O7 0.387795 0.350233 0.474241
O O8 0.500000 0.500000 0.965799
O O9 0.387794 0.649767 0.925654
O O10 0.360175 0.412270 0.982380
O O11 0.762497 0.200537 0.111706
O O12 0.697818 0.000000 0.199947
O O13 0.650355 0.134193 0.936776
O O14 0.122136 0.735761 0.279469
O O15 0.150355 0.634193 0.963119
O O16 0.237503 0.200537 0.288188
O O17 0.633402 0.801879 0.126541
#
# Coordination Sequence:
#
# PCOD9347219 Si02
#       8
#     4   4   4   4   4   4   4   4
#     4   9  17  31  51  75 102 133 168 210 261 313
#     4   9  17  32  55  80 105 133 171 220 271 320
#     4   9  17  32  55  80 105 133 171 220 271 320
#     4  10  19  31  49  74 102 133 173 212 252 308
#     4   9  18  32  50  73 102 132 165 214 263 304
#     4   9  18  32  50  73 102 132 165 214 263 304
#     4  10  19  31  49  74 102 133 173 212 252 308
#     4   9  17  31  51  75 102 133 168 210 261 313
#
# _framework density 20.731684999999999
#
# number of rings (size 3 to 8) (size 9 to 14) (size 15 to 20)
#    0.000    2.750    0.000    3.750    0.000    2.000 
#    0.000   12.500    0.000    3.000    0.000    7.000 
#    0.000    0.000    0.000    0.000    0.000    0.000 
#
# Total GULP energy -178146.967442 kJ/mol
# GULP energy per Si atom -5567.092733 kJ/mol
# Density = 2.068450 g / cm^3
# Si number density = 20.731685 Si / 1000 Ang^3
#
#
#
# Elastic Constant Matrix: (Units=GPa)
#
#
# Indices 1 2 3 4 5 6 
#
# 1 40.9472 13.5898 0.6143 0.0000 0.0000 0.0000
# 2 13.5898 68.1914 53.5691 0.0000 0.0000 0.0000
# 3 0.6143 53.5691 118.7461 0.0000 0.0000 0.0000
# 4 0.0000 0.0000 0.0000 37.2799 0.0000 0.0000
# 5 0.0000 0.0000 0.0000 0.0000 1.5144 0.0000
# 6 0.0000 0.0000 0.0000 0.0000 0.0000 -2.1363
#
#
#
# Elastic Compliance Matrix: (Units=1/GPa)
#
#
# Indices 1 2 3 4 5 6 
#
# 1 0.027087 -0.008191 0.003555 0.000000 0.000000 0.000000
# 2 -0.008191 0.025191 -0.011322 0.000000 0.000000 0.000000
# 3 0.003555 -0.011322 0.013511 0.000000 0.000000 0.000000
# 4 0.000000 0.000000 0.000000 0.026824 0.000000 0.000000
# 5 0.000000 0.000000 0.000000 0.000000 0.660318 0.000000
# 6 0.000000 0.000000 0.000000 0.000000 0.000000 -0.468095
#
#
# Mechanical properties :
#
#
# Convention : Reuss Voigt Hill
#
# Bulk Modulus (GPa) = 29.52211 40.38122 34.95167
# Shear Modulus (GPa) = 15.24196 18.00570 16.62383
#
# Velocity S-wave (km/s) = 2.71440 2.95025 2.83478
# Velocity P-wave (km/s) = 4.90866 5.57903 5.25455
#
# Compressibility (1/GPa) = 0.03387292
#
# Stress axis : x y z
#
# Youngs Moduli (GPa) = 36.91840 39.69664 74.01649
#
# Poissons Ratio (x) = 0.32514 -0.26312
# Poissons Ratio (y) = 0.30239 0.83801
# Poissons Ratio (z) = -0.13124 0.44944
#
# Static dielectric constant tensor:
#      x y z
#    x 1.518190 0.000000 0.000000 
#    y 0.000000 1.789570 0.000000 
#    z 0.000000 0.000000 1.860120 
# 
# From -- ./inp_files/3936.got.cif
#   From: 2010.05.17/outbox.cif.g08.bks.cpg/sg34_2_cif.got.tgz:3936.got - 2010.06.03 17:23:11.
