data_PCOD9347889
_publ_section_title
;
Structure prediction by ZEFSAII (Michael W. Deem and Ramdas Pophale) SiO2 
 PCOD9347889
Probable space group: P N N 2
;
_chemical_formula_sum "Si O2"
_cell_formula_units_Z 32
_cell_length_a 14.468927
_cell_length_b 8.418815
_cell_length_c 11.733670
_cell_angle_alpha 90.000000
_cell_angle_beta 90.000000
_cell_angle_gamma 90.000000
_cell_volume 1429.292654
_symmetry_space_group_name_H-M "P N N 2"
_symmetry_group_IT_number 34
_symmetry_cell_setting 'orthorhombic'
loop_
_space_group_symop_operation_xyz
x,y,z
-x,-y,z
1/2-x,1/2+y,1/2+z
1/2+x,1/2-y,1/2+z
loop_
_atom_site_type_symbol
_atom_site_label
_atom_site_fract_x
_atom_site_fract_y
_atom_site_fract_z
Si Si1 0.631428 0.921301 0.787120
Si Si2 0.762782 0.519467 0.923644
Si Si3 0.269073 0.723244 0.125483
Si Si4 0.542504 0.175010 0.432023
Si Si5 0.645128 0.778851 0.015674
Si Si6 0.020005 0.309002 0.679452
Si Si7 0.787702 0.936746 0.179697
Si Si8 0.960949 0.740654 0.186708
O O1 0.729644 0.869631 0.735987
O O2 0.555806 0.788576 0.751998
O O3 0.597564 0.082045 0.724656
O O4 0.631194 0.921337 0.924206
O O5 0.848493 0.639488 0.932083
O O6 0.766514 0.447524 0.798511
O O7 0.759183 0.384083 0.018645
O O8 0.672677 0.626191 0.942501
O O9 0.377418 0.763615 0.137311
O O10 0.217746 0.891575 0.122562
O O11 0.512644 0.247189 0.311133
O O12 0.518061 0.251805 0.552108
O O13 0.500000 0.000000 0.437592
O O14 0.556685 0.746113 0.093111
O O15 0.730644 0.819368 0.098461
O O16 0.000000 0.500000 0.680667
O O17 0.890622 0.882244 0.209046
#
# Coordination Sequence:
#
# PCOD9347889 Si02
#       8
#     4   4   4   4   4   4   4   4
#     4  11  24  44  71 102 146 187 239 303 363 444
#     4  12  25  46  71 100 149 190 232 306 365 425
#     4  12  24  45  69 104 139 190 242 292 366 428
#     4  11  18  43  71  95 134 188 237 288 354 440
#     4  12  25  46  69 107 143 186 243 298 364 440
#     4  11  24  40  71 101 139 185 238 300 365 428
#     4  12  25  43  71 108 141 190 238 301 364 436
#     4  11  24  42  71 104 138 190 240 293 377 436
#
# _framework density 22.388698000000002
#
# number of rings (size 3 to 8) (size 9 to 14) (size 15 to 20)
#    0.000    0.500    7.500    0.750    5.250    1.000 
#    0.000    0.000    0.000    4.500    0.000    0.000 
#    0.000    0.000    0.000    0.000    0.000    0.000 
#
# Total GULP energy -178905.038288 kJ/mol
# GULP energy per Si atom -5590.782447 kJ/mol
# Density = 2.233774 g / cm^3
# Si number density = 22.388698 Si / 1000 Ang^3
#
#
#
# Elastic Constant Matrix: (Units=GPa)
#
#
# Indices 1 2 3 4 5 6 
#
# 1 73.3137 5.1844 33.1794 0.0000 0.0000 0.0000
# 2 5.1844 36.8230 16.4271 0.0000 0.0000 0.0000
# 3 33.1794 16.4271 141.3394 0.0000 0.0000 0.0000
# 4 0.0000 0.0000 0.0000 18.1484 0.0000 0.0000
# 5 0.0000 0.0000 0.0000 0.0000 36.4691 0.0000
# 6 0.0000 0.0000 0.0000 0.0000 0.0000 33.6879
#
#
#
# Elastic Compliance Matrix: (Units=1/GPa)
#
#
# Indices 1 2 3 4 5 6 
#
# 1 0.015273 -0.000581 -0.003518 0.000000 0.000000 0.000000
# 2 -0.000581 0.028664 -0.003195 0.000000 0.000000 0.000000
# 3 -0.003518 -0.003195 0.008272 0.000000 0.000000 0.000000
# 4 0.000000 0.000000 0.000000 0.055101 0.000000 0.000000
# 5 0.000000 0.000000 0.000000 0.000000 0.027420 0.000000
# 6 0.000000 0.000000 0.000000 0.000000 0.000000 0.029684
#
#
# Mechanical properties :
#
#
# Convention : Reuss Voigt Hill
#
# Bulk Modulus (GPa) = 26.58040 40.11756 33.34898
# Shear Modulus (GPa) = 26.10366 30.77342 28.43854
#
# Velocity S-wave (km/s) = 3.41828 3.71146 3.56788
# Velocity P-wave (km/s) = 5.24190 6.02695 5.64808
#
# Compressibility (1/GPa) = 0.03762171
#
# Stress axis : x y z
#
# Youngs Moduli (GPa) = 65.47432 34.88687 120.88496
#
# Poissons Ratio (x) = 0.02027 0.42525
# Poissons Ratio (y) = 0.03804 0.38624
# Poissons Ratio (z) = 0.23033 0.11147
#
# Static dielectric constant tensor:
#      x y z
#    x 1.773060 0.000000 0.000000 
#    y 0.000000 1.854380 0.000000 
#    z 0.000000 0.000000 1.832990 
# 
# From -- ./inp_files/5110.got.cif
#   From: 2010.05.17/outbox.cif.g08.bks.cpg/sg34_3_cif.got.tgz:5110.got - 2010.06.03 17:23:11.
