data_PCOD9347346
_publ_section_title
;
Structure prediction by ZEFSAII (Michael W. Deem and Ramdas Pophale) SiO2 
 PCOD9347346
Probable space group: P N N 2
;
_chemical_formula_sum "Si O2"
_cell_formula_units_Z 30
_cell_length_a 11.689712
_cell_length_b 5.376764
_cell_length_c 22.763388
_cell_angle_alpha 90.000000
_cell_angle_beta 90.000000
_cell_angle_gamma 90.000000
_cell_volume 1430.743189
_symmetry_space_group_name_H-M "P N N 2"
_symmetry_group_IT_number 34
_symmetry_cell_setting 'orthorhombic'
loop_
_space_group_symop_operation_xyz
x,y,z
-x,-y,z
1/2-x,1/2+y,1/2+z
1/2+x,1/2-y,1/2+z
loop_
_atom_site_type_symbol
_atom_site_label
_atom_site_fract_x
_atom_site_fract_y
_atom_site_fract_z
Si Si1 0.600280 0.840070 0.232300
Si Si2 0.255518 0.843672 0.638846
Si Si3 0.815360 0.867509 0.402434
Si Si4 0.500000 0.000000 0.936350
Si Si5 0.379315 0.380247 0.019341
Si Si6 0.109843 0.900895 0.847874
Si Si7 0.616676 0.658511 0.674104
Si Si8 0.215613 0.802127 0.295018
O O1 0.656809 0.637010 0.189335
O O2 0.549677 0.730561 0.292323
O O3 0.500000 0.000000 0.202374
O O4 0.700065 0.007490 0.260973
O O5 0.199325 0.844224 0.575076
O O6 0.298911 0.562006 0.651554
O O7 0.344686 0.075825 0.644792
O O8 0.689500 0.769886 0.387606
O O9 0.918564 0.672353 0.397605
O O10 0.821446 0.950642 0.469628
O O11 0.836050 0.077492 0.353540
O O12 0.584563 0.856342 0.980607
O O13 0.500000 0.500000 0.038384
O O14 0.204032 0.081498 0.818151
O O15 0.000000 0.000000 0.882638
O O16 0.500000 0.500000 0.665270
O O17 0.624672 0.737147 0.743167
#
# Coordination Sequence:
#
# PCOD9347346 Si02
#       8
#     4   4   4   2   4   4   4   4
#     4  10  20  35  59  97 134 170 217 277 342 405
#     4  11  25  43  70 100 136 176 230 284 341 412
#     4  10  23  40  63  97 130 171 223 281 336 403
#     4  10  22  44  66  94 124 176 226 290 340 406
#     4  10  24  42  68  95 128 168 225 281 342 404
#     4  11  20  36  64  93 138 171 216 273 345 409
#     4  11  25  45  69  98 136 183 227 281 343 415
#     4  10  21  38  61  94 128 174 217 275 332 408
#
# _framework density 20.968124
#
# number of rings (size 3 to 8) (size 9 to 14) (size 15 to 20)
#    0.000    1.600    2.667    1.200    4.667    4.267 
#    0.000    0.667    5.867    0.000    0.000    0.000 
#    0.000    0.000    0.000    0.000    0.000    0.000 
#
# Total GULP energy -167073.587528 kJ/mol
# GULP energy per Si atom -5569.119584 kJ/mol
# Density = 2.092040 g / cm^3
# Si number density = 20.968124 Si / 1000 Ang^3
#
#
#
# Elastic Constant Matrix: (Units=GPa)
#
#
# Indices 1 2 3 4 5 6 
#
# 1 69.5680 10.9990 32.4513 0.0000 0.0000 0.0000
# 2 10.9990 65.0361 -2.9865 0.0000 0.0000 0.0000
# 3 32.4513 -2.9865 54.1500 0.0000 0.0000 0.0000
# 4 0.0000 0.0000 0.0000 -17.8462 0.0000 0.0000
# 5 0.0000 0.0000 0.0000 0.0000 17.7091 0.0000
# 6 0.0000 0.0000 0.0000 0.0000 0.0000 39.9604
#
#
#
# Elastic Compliance Matrix: (Units=1/GPa)
#
#
# Indices 1 2 3 4 5 6 
#
# 1 0.021009 -0.004142 -0.012819 0.000000 0.000000 0.000000
# 2 -0.004142 0.016232 0.003377 0.000000 0.000000 0.000000
# 3 -0.012819 0.003377 0.026336 0.000000 0.000000 0.000000
# 4 0.000000 0.000000 0.000000 -0.056034 0.000000 0.000000
# 5 0.000000 0.000000 0.000000 0.000000 0.056468 0.000000
# 6 0.000000 0.000000 0.000000 0.000000 0.000000 0.025025
#
#
# Mechanical properties :
#
#
# Convention : Reuss Voigt Hill
#
# Bulk Modulus (GPa) = 27.46517 29.96463 28.71490
# Shear Modulus (GPa) = 38.95989 17.85068 28.40529
#
# Velocity S-wave (km/s) = 4.31519 2.92091 3.68460
# Velocity P-wave (km/s) = 6.16075 5.06924 5.64145
#
# Compressibility (1/GPa) = 0.03640975
#
# Stress axis : x y z
#
# Youngs Moduli (GPa) = 47.59925 61.60815 37.97153
#
# Poissons Ratio (x) = 0.25516 0.48674
# Poissons Ratio (y) = 0.19714 -0.12824
# Poissons Ratio (z) = 0.61016 -0.20807
#
# Static dielectric constant tensor:
#      x y z
#    x 1.748320 0.000000 0.000000 
#    y 0.000000 1.943060 0.000000 
#    z 0.000000 0.000000 1.716100 
# 
# From -- ./inp_files/8159.got.cif
#   From: 2010.05.17/outbox.cif.g08.bks.cpg/sg34_5_cif.got.tgz:8159.got - 2010.06.03 17:23:11.
