data_PCOD9347127
_publ_section_title
;
Structure prediction by ZEFSAII (Michael W. Deem and Ramdas Pophale) SiO2 
 PCOD9347127
Probable space group: P N N 2
;
_chemical_formula_sum "Si O2"
_cell_formula_units_Z 24
_cell_length_a 8.372145
_cell_length_b 7.112698
_cell_length_c 17.450865
_cell_angle_alpha 90.000000
_cell_angle_beta 90.000000
_cell_angle_gamma 90.000000
_cell_volume 1039.173515
_symmetry_space_group_name_H-M "P N N 2"
_symmetry_group_IT_number 34
_symmetry_cell_setting 'orthorhombic'
loop_
_space_group_symop_operation_xyz
x,y,z
-x,-y,z
1/2-x,1/2+y,1/2+z
1/2+x,1/2-y,1/2+z
loop_
_atom_site_type_symbol
_atom_site_label
_atom_site_fract_x
_atom_site_fract_y
_atom_site_fract_z
Si Si1 0.828622 0.226291 0.349340
Si Si2 0.663123 0.607575 0.015954
Si Si3 0.843191 0.817571 0.281687
Si Si4 0.478343 0.228666 0.346555
Si Si5 0.301418 0.611932 0.606686
Si Si6 0.118049 0.757144 0.020301
O O1 0.822254 0.241175 0.441197
O O2 0.654885 0.296657 0.322225
O O3 0.993428 0.286032 0.307546
O O4 0.833007 0.001002 0.335501
O O5 0.500000 0.500000 0.006752
O O6 0.662180 0.741938 0.089263
O O7 0.798110 0.445418 0.021667
O O8 0.673212 0.719876 0.294760
O O9 0.841919 0.896135 0.195635
O O10 0.427439 0.291406 0.431889
O O11 0.500000 0.000000 0.347947
O O12 0.275745 0.415879 0.562675
O O13 0.453789 0.712503 0.566524
#
# Coordination Sequence:
#
# PCOD9347127 Si02
#       6
#     4   4   4   4   4   4
#     4  10  17  35  68  92 120 178 221 260 329 404
#     4  12  22  42  70  96 134 179 228 273 331 411
#     4  10  20  39  62  96 130 173 224 274 335 396
#     4  10  17  34  68  91 123 181 222 257 329 405
#     4  11  25  40  69 101 134 171 224 283 346 386
#     4  11  20  41  69  95 132 176 219 278 333 406
#
# _framework density 23.095279000000001
#
# number of rings (size 3 to 8) (size 9 to 14) (size 15 to 20)
#    0.000    1.333    6.667    2.500    0.000    0.667 
#   12.000    0.000   14.667    0.000    0.000    0.000 
#    0.000    0.000    0.000    0.000    0.000    0.000 
#
# Total GULP energy -133853.784367 kJ/mol
# GULP energy per Si atom -5577.241015 kJ/mol
# Density = 2.304271 g / cm^3
# Si number density = 23.095279 Si / 1000 Ang^3
#
#
#
# Elastic Constant Matrix: (Units=GPa)
#
#
# Indices 1 2 3 4 5 6 
#
# 1 148.0703 16.3435 24.0829 0.0000 0.0000 0.0000
# 2 16.3435 87.1397 10.0043 0.0000 0.0000 0.0000
# 3 24.0829 10.0043 86.3582 0.0000 0.0000 0.0000
# 4 0.0000 0.0000 0.0000 0.2511 0.0000 0.0000
# 5 0.0000 0.0000 0.0000 0.0000 35.0470 0.0000
# 6 0.0000 0.0000 0.0000 0.0000 0.0000 -4.9169
#
#
#
# Elastic Compliance Matrix: (Units=1/GPa)
#
#
# Indices 1 2 3 4 5 6 
#
# 1 0.007183 -0.001132 -0.001872 0.000000 0.000000 0.000000
# 2 -0.001132 0.011809 -0.001052 0.000000 0.000000 0.000000
# 3 -0.001872 -0.001052 0.012224 0.000000 0.000000 0.000000
# 4 0.000000 0.000000 0.000000 3.982669 0.000000 0.000000
# 5 0.000000 0.000000 0.000000 0.000000 0.028533 0.000000
# 6 0.000000 0.000000 0.000000 0.000000 0.000000 -0.203380
#
#
# Mechanical properties :
#
#
# Convention : Reuss Voigt Hill
#
# Bulk Modulus (GPa) = 43.28525 46.93663 45.11094
# Shear Modulus (GPa) = 1.29707 24.15207 12.72457
#
# Velocity S-wave (km/s) = 0.75022 3.23733 2.34980
# Velocity P-wave (km/s) = 4.41963 5.86011 5.19009
#
# Compressibility (1/GPa) = 0.02310256
#
# Stress axis : x y z
#
# Youngs Moduli (GPa) = 139.21776 84.68113 81.80889
#
# Poissons Ratio (x) = 0.09588 0.15314
# Poissons Ratio (y) = 0.15764 0.08609
# Poissons Ratio (z) = 0.26061 0.08911
#
# Static dielectric constant tensor:
#      x y z
#    x 1.995260 0.000000 0.000000 
#    y 0.000000 1.955430 0.000000 
#    z 0.000000 0.000000 1.829400 
# 
# From -- ./inp_files/7470.got.cif
#   From: 2010.05.17/outbox.cif.g08.bks.cpg/sg34_4_cif.got.tgz:7470.got - 2010.06.03 17:23:11.
