data_PCOD9347653
_publ_section_title
;
Structure prediction by ZEFSAII (Michael W. Deem and Ramdas Pophale) SiO2 
 PCOD9347653
Probable space group: P N N 2
;
_chemical_formula_sum "Si O2"
_cell_formula_units_Z 20
_cell_length_a 5.093647
_cell_length_b 18.179657
_cell_length_c 8.218362
_cell_angle_alpha 90.000000
_cell_angle_beta 90.000000
_cell_angle_gamma 90.000000
_cell_volume 761.026529
_symmetry_space_group_name_H-M "P N N 2"
_symmetry_group_IT_number 34
_symmetry_cell_setting 'orthorhombic'
loop_
_space_group_symop_operation_xyz
x,y,z
-x,-y,z
1/2-x,1/2+y,1/2+z
1/2+x,1/2-y,1/2+z
loop_
_atom_site_type_symbol
_atom_site_label
_atom_site_fract_x
_atom_site_fract_y
_atom_site_fract_z
Si Si1 0.245878 0.446968 0.988280
Si Si2 0.456886 0.412441 0.310906
Si Si3 0.826743 0.296405 0.182516
Si Si4 0.043104 0.912441 0.165656
Si Si5 0.173256 0.703596 0.794040
O O1 0.500000 0.500000 0.988286
O O2 0.273254 0.401432 0.822723
O O3 0.000000 0.500000 0.988268
O O4 0.273230 0.401436 0.153844
O O5 0.500000 0.500000 0.321461
O O6 0.726133 0.370927 0.268874
O O7 0.361598 0.387176 0.488282
O O8 0.578667 0.242452 0.217143
O O9 0.078667 0.257549 0.259412
O O10 0.853178 0.307250 0.988278
O O11 0.773853 0.870926 0.207680
O O12 0.000000 0.000000 0.155109
#
# Coordination Sequence:
#
# PCOD9347653 Si02
#       5
#     4   4   4   4   4
#     4  10  22  40  64  96 134 174 221 278 343 404
#     4  10  22  44  72 104 141 185 237 294 356 426
#     4  12  26  47  73 105 146 191 243 301 364 436
#     4  10  22  44  72 104 141 185 237 294 356 426
#     4  12  26  47  73 105 146 191 243 301 364 436
#
# _framework density 26.280291999999999
#
# number of rings (size 3 to 8) (size 9 to 14) (size 15 to 20)
#    0.000    1.200    2.000    3.600    0.000    7.200 
#    0.000    8.000    0.000    0.000    0.000    0.000 
#    0.000    0.000    0.000    0.000    0.000    0.000 
#
# Total GULP energy -112187.728379 kJ/mol
# GULP energy per Si atom -5609.386419 kJ/mol
# Density = 2.622048 g / cm^3
# Si number density = 26.280292 Si / 1000 Ang^3
#
#
#
# Elastic Constant Matrix: (Units=GPa)
#
#
# Indices 1 2 3 4 5 6 
#
# 1 132.7527 19.5844 44.0191 0.0000 0.0000 0.0000
# 2 19.5844 129.1410 7.3686 0.0000 0.0000 0.0000
# 3 44.0191 7.3686 293.2942 0.0000 0.0000 0.0000
# 4 0.0000 0.0000 0.0000 38.0352 0.0000 0.0000
# 5 0.0000 0.0000 0.0000 0.0000 45.0405 0.0000
# 6 0.0000 0.0000 0.0000 0.0000 0.0000 53.7600
#
#
#
# Elastic Compliance Matrix: (Units=1/GPa)
#
#
# Indices 1 2 3 4 5 6 
#
# 1 0.008097 -0.001160 -0.001186 0.000000 0.000000 0.000000
# 2 -0.001160 0.007921 -0.000025 0.000000 0.000000 0.000000
# 3 -0.001186 -0.000025 0.003588 0.000000 0.000000 0.000000
# 4 0.000000 0.000000 0.000000 0.026291 0.000000 0.000000
# 5 0.000000 0.000000 0.000000 0.000000 0.022202 0.000000
# 6 0.000000 0.000000 0.000000 0.000000 0.000000 0.018601
#
#
# Mechanical properties :
#
#
# Convention : Reuss Voigt Hill
#
# Bulk Modulus (GPa) = 67.27767 77.45914 72.36840
# Shear Modulus (GPa) = 51.86810 59.64817 55.75813
#
# Velocity S-wave (km/s) = 4.44740 4.76930 4.61116
# Velocity P-wave (km/s) = 7.21305 7.73734 7.47979
#
# Compressibility (1/GPa) = 0.01486377
#
# Stress axis : x y z
#
# Youngs Moduli (GPa) = 123.49828 126.24902 278.69193
#
# Poissons Ratio (x) = 0.14648 0.33057
# Poissons Ratio (y) = 0.14329 0.00693
# Poissons Ratio (z) = 0.14649 0.00314
#
# Static dielectric constant tensor:
#      x y z
#    x 1.976540 0.000000 0.000000 
#    y 0.000000 2.000730 0.000000 
#    z 0.000000 0.000000 2.079760 
# 
# From -- ./inp_files/2028.got.cif
#   From: 2010.05.17/outbox.cif.g08.bks.cpg/sg34_2_cif.got.tgz:2028.got - 2010.06.03 17:23:11.
