data_PCOD9347505
_publ_section_title
;
Structure prediction by ZEFSAII (Michael W. Deem and Ramdas Pophale) SiO2 
 PCOD9347505
Probable space group: P N N 2
;
_chemical_formula_sum "Si O2"
_cell_formula_units_Z 32
_cell_length_a 26.261310
_cell_length_b 8.953750
_cell_length_c 6.204213
_cell_angle_alpha 90.000000
_cell_angle_beta 90.000000
_cell_angle_gamma 90.000000
_cell_volume 1458.841300
_symmetry_space_group_name_H-M "P N N 2"
_symmetry_group_IT_number 34
_symmetry_cell_setting 'orthorhombic'
loop_
_space_group_symop_operation_xyz
x,y,z
-x,-y,z
1/2-x,1/2+y,1/2+z
1/2+x,1/2-y,1/2+z
loop_
_atom_site_type_symbol
_atom_site_label
_atom_site_fract_x
_atom_site_fract_y
_atom_site_fract_z
Si Si1 0.277458 0.736093 0.063920
Si Si2 0.270722 0.414362 0.916387
Si Si3 0.943272 0.623672 0.648644
Si Si4 0.951897 0.318799 0.419865
Si Si5 0.910411 0.410133 0.004410
Si Si6 0.133311 0.148594 0.857072
Si Si7 0.128277 0.834717 0.683923
Si Si8 0.331587 0.865348 0.688859
O O1 0.233762 0.829344 0.186273
O O2 0.310819 0.662112 0.252126
O O3 0.268257 0.595843 0.904468
O O4 0.313274 0.848708 0.932079
O O5 0.319260 0.357037 0.052592
O O6 0.220258 0.379301 0.053215
O O7 0.931994 0.485543 0.487458
O O8 0.903264 0.752579 0.703570
O O9 0.994538 0.690054 0.545003
O O10 0.943069 0.532120 0.873321
O O11 0.947996 0.321378 0.162706
O O12 0.915361 0.190755 0.507206
O O13 0.866324 0.494383 0.135009
O O14 0.879544 0.307484 0.837044
O O15 0.118760 0.977843 0.833837
O O16 0.137648 0.222825 0.092332
#
# Coordination Sequence:
#
# PCOD9347505 Si02
#       8
#     4   4   4   4   4   4   4   4
#     4  10  22  41  62  89 126 168 227 266 331 390
#     4  10  24  39  61  92 128 176 217 275 325 399
#     4   9  20  40  64  90 126 167 217 269 326 406
#     4  10  21  36  64  97 124 166 214 276 329 387
#     4  10  22  41  66  96 129 167 221 275 333 400
#     4   9  20  42  61  89 125 169 209 266 329 393
#     4  10  23  39  62  94 134 166 214 274 328 401
#     4  10  22  39  64  89 122 174 214 269 323 390
#
# _framework density 21.935217000000002
#
# number of rings (size 3 to 8) (size 9 to 14) (size 15 to 20)
#    0.000    2.250    0.000    0.750    3.500   10.500 
#    0.000    0.000    0.000    4.500    0.000    0.000 
#    0.000    0.000    0.000    0.000    0.000    0.000 
#
# Total GULP energy -178365.548558 kJ/mol
# GULP energy per Si atom -5573.923392 kJ/mol
# Density = 2.188529 g / cm^3
# Si number density = 21.935217 Si / 1000 Ang^3
#
#
#
# Elastic Constant Matrix: (Units=GPa)
#
#
# Indices 1 2 3 4 5 6 
#
# 1 84.7421 36.2421 22.3608 0.0000 0.0000 0.0000
# 2 36.2421 63.7716 4.7468 0.0000 0.0000 0.0000
# 3 22.3608 4.7468 63.2218 0.0000 0.0000 0.0000
# 4 0.0000 0.0000 0.0000 11.9188 0.0000 0.0000
# 5 0.0000 0.0000 0.0000 0.0000 29.5533 0.0000
# 6 0.0000 0.0000 0.0000 0.0000 0.0000 27.7174
#
#
#
# Elastic Compliance Matrix: (Units=1/GPa)
#
#
# Indices 1 2 3 4 5 6 
#
# 1 0.017243 -0.009398 -0.005393 0.000000 0.000000 0.000000
# 2 -0.009398 0.020891 0.001755 0.000000 0.000000 0.000000
# 3 -0.005393 0.001755 0.017593 0.000000 0.000000 0.000000
# 4 0.000000 0.000000 0.000000 0.083901 0.000000 0.000000
# 5 0.000000 0.000000 0.000000 0.000000 0.033837 0.000000
# 6 0.000000 0.000000 0.000000 0.000000 0.000000 0.036078
#
#
# Mechanical properties :
#
#
# Convention : Reuss Voigt Hill
#
# Bulk Modulus (GPa) = 33.71993 37.60388 35.66190
# Shear Modulus (GPa) = 20.36663 23.73030 22.04847
#
# Velocity S-wave (km/s) = 3.05042 3.29270 3.17387
# Velocity P-wave (km/s) = 5.27377 5.62460 5.45201
#
# Compressibility (1/GPa) = 0.02965605
#
# Stress axis : x y z
#
# Youngs Moduli (GPa) = 57.99527 47.86699 56.84095
#
# Poissons Ratio (x) = 0.44985 0.30654
# Poissons Ratio (y) = 0.54503 -0.09978
# Poissons Ratio (z) = 0.31277 -0.08402
#
# Static dielectric constant tensor:
#      x y z
#    x 1.826170 0.000000 0.000000 
#    y 0.000000 1.821200 0.000000 
#    z 0.000000 0.000000 1.853250 
# 
# From -- ./inp_files/1831.got.cif
#   From: 2010.05.17/outbox.cif.g08.bks.cpg/sg34_1_cif.got.tgz:1831.got - 2010.06.03 17:23:11.
