data_PCOD9347382
_publ_section_title
;
Structure prediction by ZEFSAII (Michael W. Deem and Ramdas Pophale) SiO2 
 PCOD9347382
Probable space group: P N N 2
;
_chemical_formula_sum "Si O2"
_cell_formula_units_Z 28
_cell_length_a 8.858856
_cell_length_b 10.628722
_cell_length_c 14.390082
_cell_angle_alpha 90.000000
_cell_angle_beta 90.000000
_cell_angle_gamma 90.000000
_cell_volume 1354.945912
_symmetry_space_group_name_H-M "P N N 2"
_symmetry_group_IT_number 34
_symmetry_cell_setting 'orthorhombic'
loop_
_space_group_symop_operation_xyz
x,y,z
-x,-y,z
1/2-x,1/2+y,1/2+z
1/2+x,1/2-y,1/2+z
loop_
_atom_site_type_symbol
_atom_site_label
_atom_site_fract_x
_atom_site_fract_y
_atom_site_fract_z
Si Si1 0.093997 0.630769 0.199880
Si Si2 0.239433 0.319213 0.585338
Si Si3 0.283800 0.738011 0.369993
Si Si4 0.682829 0.016950 0.263898
Si Si5 0.157479 0.245742 0.296015
Si Si6 0.025006 0.650298 0.469378
Si Si7 0.906603 0.126250 0.892675
O O1 0.191113 0.685255 0.115115
O O2 0.208155 0.650660 0.288157
O O3 0.000000 0.500000 0.196699
O O4 0.957729 0.729875 0.213530
O O5 0.243321 0.420849 0.667928
O O6 0.322103 0.364253 0.491417
O O7 0.061930 0.311293 0.561579
O O8 0.262517 0.881452 0.340106
O O9 0.198379 0.688349 0.461151
O O10 0.461917 0.727562 0.381912
O O11 0.500000 0.000000 0.260736
O O12 0.761291 0.885815 0.286192
O O13 0.285999 0.350801 0.311510
O O14 0.055254 0.269014 0.387720
O O15 0.000000 0.500000 0.454619
O O16 0.000000 0.000000 0.884936
#
# Coordination Sequence:
#
# PCOD9347382 Si02
#       7
#     4   4   4   4   4   4   4
#     4  10  21  41  63  89 127 168 212 268 323 378
#     4  10  24  38  62  93 133 168 208 265 335 369
#     4  10  20  37  66  89 117 171 213 259 321 373
#     4  11  22  40  63  95 133 163 211 275 315 383
#     4  10  21  38  65  90 120 168 208 259 319 376
#     4  10  20  41  62  91 127 165 212 268 311 380
#     4  11  21  37  61  96 121 161 220 262 304 388
#
# _framework density 20.665030999999999
#
# number of rings (size 3 to 8) (size 9 to 14) (size 15 to 20)
#    0.000    1.714    1.429    4.714    2.000    4.571 
#    5.143    0.000    0.000    0.000    0.000    0.000 
#    0.000    0.000    0.000    0.000    0.000    0.000 
#
# Total GULP energy -156053.534044 kJ/mol
# GULP energy per Si atom -5573.340502 kJ/mol
# Density = 2.061800 g / cm^3
# Si number density = 20.665031 Si / 1000 Ang^3
#
#
#
# Elastic Constant Matrix: (Units=GPa)
#
#
# Indices 1 2 3 4 5 6 
#
# 1 91.3827 17.9318 14.6002 0.0000 0.0000 0.0000
# 2 17.9318 104.1063 17.8498 0.0000 0.0000 0.0000
# 3 14.6002 17.8498 33.0182 0.0000 0.0000 0.0000
# 4 0.0000 0.0000 0.0000 18.0261 0.0000 0.0000
# 5 0.0000 0.0000 0.0000 0.0000 29.7670 0.0000
# 6 0.0000 0.0000 0.0000 0.0000 0.0000 36.8123
#
#
#
# Elastic Compliance Matrix: (Units=1/GPa)
#
#
# Indices 1 2 3 4 5 6 
#
# 1 0.011925 -0.001267 -0.004588 0.000000 0.000000 0.000000
# 2 -0.001267 0.010722 -0.005236 0.000000 0.000000 0.000000
# 3 -0.004588 -0.005236 0.035145 0.000000 0.000000 0.000000
# 4 0.000000 0.000000 0.000000 0.055475 0.000000 0.000000
# 5 0.000000 0.000000 0.000000 0.000000 0.033594 0.000000
# 6 0.000000 0.000000 0.000000 0.000000 0.000000 0.027165
#
#
# Mechanical properties :
#
#
# Convention : Reuss Voigt Hill
#
# Bulk Modulus (GPa) = 28.08205 36.58565 32.33385
# Shear Modulus (GPa) = 24.02948 28.79609 26.41278
#
# Velocity S-wave (km/s) = 3.41370 3.73697 3.57899
# Velocity P-wave (km/s) = 5.39967 6.03013 5.72359
#
# Compressibility (1/GPa) = 0.03560994
#
# Stress axis : x y z
#
# Youngs Moduli (GPa) = 83.85977 93.27004 28.45320
#
# Poissons Ratio (x) = 0.11821 0.13054
# Poissons Ratio (y) = 0.10628 0.14897
# Poissons Ratio (z) = 0.38473 0.48833
#
# Static dielectric constant tensor:
#      x y z
#    x 1.821480 0.000000 0.000000 
#    y 0.000000 1.774670 0.000000 
#    z 0.000000 0.000000 1.778670 
# 
# From -- ./inp_files/6477.got.cif
#   From: 2010.05.17/outbox.cif.g08.bks.cpg/sg34_4_cif.got.tgz:6477.got - 2010.06.03 17:23:11.
