data_PCOD9347314
_publ_section_title
;
Structure prediction by ZEFSAII (Michael W. Deem and Ramdas Pophale) SiO2 
 PCOD9347314
Probable space group: P N N 2
;
_chemical_formula_sum "Si O2"
_cell_formula_units_Z 30
_cell_length_a 7.561093
_cell_length_b 21.546719
_cell_length_c 8.050412
_cell_angle_alpha 90.000000
_cell_angle_beta 90.000000
_cell_angle_gamma 90.000000
_cell_volume 1311.546929
_symmetry_space_group_name_H-M "P N N 2"
_symmetry_group_IT_number 34
_symmetry_cell_setting 'orthorhombic'
loop_
_space_group_symop_operation_xyz
x,y,z
-x,-y,z
1/2-x,1/2+y,1/2+z
1/2+x,1/2-y,1/2+z
loop_
_atom_site_type_symbol
_atom_site_label
_atom_site_fract_x
_atom_site_fract_y
_atom_site_fract_z
Si Si1 0.159900 0.037913 0.270690
Si Si2 0.003246 0.069024 0.909939
Si Si3 0.303222 0.819844 0.354791
Si Si4 0.832441 0.708343 0.211179
Si Si5 0.104562 0.167535 0.366427
Si Si6 0.113723 0.378322 0.503920
Si Si7 0.500000 0.000000 0.124228
Si Si8 0.907720 0.808463 0.733007
O O1 0.205017 0.102951 0.352757
O O2 0.328643 0.995625 0.239624
O O3 0.090900 0.058400 0.088926
O O4 0.000000 0.000000 0.352384
O O5 0.101941 0.122339 0.806659
O O6 0.806249 0.094069 0.951844
O O7 0.000000 0.000000 0.830534
O O8 0.383794 0.824950 0.538971
O O9 0.306439 0.745385 0.329441
O O10 0.104968 0.846163 0.366423
O O11 0.385991 0.848302 0.187993
O O12 0.872386 0.781429 0.223789
O O13 0.923074 0.672796 0.364530
O O14 0.619246 0.705298 0.232542
O O15 0.153463 0.196053 0.543146
O O16 0.989481 0.438279 0.514670
#
# Coordination Sequence:
#
# PCOD9347314 Si02
#       8
#     4   4   4   4   4   4   2   4
#     4  11  22  41  66  94 132 175 224 271 334 396
#     4  10  19  41  64  87 129 178 217 268 334 389
#     4  11  22  40  64  92 135 171 215 278 338 387
#     4  10  24  39  62  98 131 170 220 274 332 399
#     4  11  22  40  62  96 130 172 220 273 336 400
#     4  11  22  43  64  95 134 170 223 272 327 401
#     4  12  24  40  74  98 128 184 226 272 328 408
#     4  10  23  38  64  96 127 175 222 273 336 398
#
# _framework density 22.873753000000001
#
# number of rings (size 3 to 8) (size 9 to 14) (size 15 to 20)
#    0.000    1.333    5.333    0.800    3.733    1.600 
#    0.000    2.000    0.000    0.000    0.000    0.000 
#    0.000    0.000    0.000    0.000    0.000    0.000 
#
# Total GULP energy -167620.805539 kJ/mol
# GULP energy per Si atom -5587.360185 kJ/mol
# Density = 2.282169 g / cm^3
# Si number density = 22.873753 Si / 1000 Ang^3
#
#
#
# Elastic Constant Matrix: (Units=GPa)
#
#
# Indices 1 2 3 4 5 6 
#
# 1 42.3206 -1.1441 -9.9584 0.0000 0.0000 0.0000
# 2 -1.1441 126.2696 22.0218 0.0000 0.0000 0.0000
# 3 -9.9584 22.0218 92.0647 0.0000 0.0000 0.0000
# 4 0.0000 0.0000 0.0000 31.7584 0.0000 0.0000
# 5 0.0000 0.0000 0.0000 0.0000 5.2106 0.0000
# 6 0.0000 0.0000 0.0000 0.0000 0.0000 31.6798
#
#
#
# Elastic Compliance Matrix: (Units=1/GPa)
#
#
# Indices 1 2 3 4 5 6 
#
# 1 0.024254 -0.000248 0.002683 0.000000 0.000000 0.000000
# 2 -0.000248 0.008267 -0.002004 0.000000 0.000000 0.000000
# 3 0.002683 -0.002004 0.011632 0.000000 0.000000 0.000000
# 4 0.000000 0.000000 0.000000 0.031488 0.000000 0.000000
# 5 0.000000 0.000000 0.000000 0.000000 0.191916 0.000000
# 6 0.000000 0.000000 0.000000 0.000000 0.000000 0.031566
#
#
# Mechanical properties :
#
#
# Convention : Reuss Voigt Hill
#
# Bulk Modulus (GPa) = 22.21582 31.38817 26.80199
# Shear Modulus (GPa) = 15.96093 30.37880 23.16986
#
# Velocity S-wave (km/s) = 2.64442 3.64827 3.18613
# Velocity P-wave (km/s) = 4.36548 5.61237 5.02773
#
# Compressibility (1/GPa) = 0.04501298
#
# Stress axis : x y z
#
# Youngs Moduli (GPa) = 41.23072 120.96485 85.97321
#
# Poissons Ratio (x) = 0.03002 -0.23065
# Poissons Ratio (y) = 0.01023 0.17231
# Poissons Ratio (z) = -0.11061 0.24245
#
# Static dielectric constant tensor:
#      x y z
#    x 1.896240 0.000000 0.000000 
#    y 0.000000 1.885110 0.000000 
#    z 0.000000 0.000000 1.851410 
# 
# From -- ./inp_files/2867.got.cif
#   From: 2010.05.17/outbox.cif.g08.bks.cpg/sg34_2_cif.got.tgz:2867.got - 2010.06.03 17:23:11.
