data_PCOD9347695
_publ_section_title
;
Structure prediction by ZEFSAII (Michael W. Deem and Ramdas Pophale) SiO2 
 PCOD9347695
Probable space group: P N N 2
;
_chemical_formula_sum "Si O2"
_cell_formula_units_Z 20
_cell_length_a 8.806674
_cell_length_b 19.168656
_cell_length_c 5.460146
_cell_angle_alpha 90.000000
_cell_angle_beta 90.000000
_cell_angle_gamma 90.000000
_cell_volume 921.738737
_symmetry_space_group_name_H-M "P N N 2"
_symmetry_group_IT_number 34
_symmetry_cell_setting 'orthorhombic'
loop_
_space_group_symop_operation_xyz
x,y,z
-x,-y,z
1/2-x,1/2+y,1/2+z
1/2+x,1/2-y,1/2+z
loop_
_atom_site_type_symbol
_atom_site_label
_atom_site_fract_x
_atom_site_fract_y
_atom_site_fract_z
Si Si1 0.000000 0.500000 0.254230
Si Si2 0.816419 0.783666 0.254529
Si Si3 0.250083 0.565390 0.578771
Si Si4 0.000000 0.000000 0.754232
Si Si5 0.749917 0.565391 0.929691
Si Si6 0.816419 0.216335 0.253936
O O1 0.103243 0.552371 0.412592
O O2 0.103242 0.447628 0.095868
O O3 0.764827 0.864065 0.229194
O O4 0.749999 0.750000 0.504232
O O5 1.000000 0.778827 0.254233
O O6 0.750000 0.750000 0.004232
O O7 0.395955 0.551717 0.410870
O O8 0.248137 0.500000 0.754230
O O9 0.895954 0.051716 0.597593
O O10 0.735173 0.635935 0.779271
#
# Coordination Sequence:
#
# PCOD9347695 Si02
#       6
#     2   4   4   2   4   4
#     4  10  26  42  80 112 148 194 256 330 378 462
#     4  12  30  50  78 113 158 206 257 321 391 462
#     4  11  25  46  76 107 149 194 262 311 392 454
#     4  10  22  42  80 108 140 194 260 322 382 462
#     4  11  25  46  76 107 149 194 262 311 392 454
#     4  12  30  50  78 113 158 206 257 321 391 462
#
# _framework density 21.698122000000001
#
# number of rings (size 3 to 8) (size 9 to 14) (size 15 to 20)
#    0.000    0.800    0.000    4.800   19.600    3.200 
#    0.000    0.000    0.000    0.000    0.000    0.000 
#    0.000    0.000    0.000    0.000    0.000    0.000 
#
# Total GULP energy -111926.927583 kJ/mol
# GULP energy per Si atom -5596.346379 kJ/mol
# Density = 2.164874 g / cm^3
# Si number density = 21.698122 Si / 1000 Ang^3
#
#
#
# Elastic Constant Matrix: (Units=GPa)
#
#
# Indices 1 2 3 4 5 6 
#
# 1 190.9703 74.9632 106.1636 0.0000 0.0000 0.0000
# 2 74.9632 202.4629 107.9489 0.0000 0.0000 0.0000
# 3 106.1636 107.9489 192.5786 0.0000 0.0000 0.0000
# 4 0.0000 0.0000 0.0000 53.5636 0.0000 0.0000
# 5 0.0000 0.0000 0.0000 0.0000 143.4539 0.0000
# 6 0.0000 0.0000 0.0000 0.0000 0.0000 8.0498
#
#
#
# Elastic Compliance Matrix: (Units=1/GPa)
#
#
# Indices 1 2 3 4 5 6 
#
# 1 0.007647 -0.000833 -0.003749 0.000000 0.000000 0.000000
# 2 -0.000833 0.007135 -0.003541 0.000000 0.000000 0.000000
# 3 -0.003749 -0.003541 0.009244 0.000000 0.000000 0.000000
# 4 0.000000 0.000000 0.000000 0.018669 0.000000 0.000000
# 5 0.000000 0.000000 0.000000 0.000000 0.006971 0.000000
# 6 0.000000 0.000000 0.000000 0.000000 0.000000 0.124227
#
#
# Mechanical properties :
#
#
# Convention : Reuss Voigt Hill
#
# Bulk Modulus (GPa) = 128.49916 129.35147 128.92531
# Shear Modulus (GPa) = 25.94266 60.80920 43.37593
#
# Velocity S-wave (km/s) = 3.46152 5.29962 4.47594
# Velocity P-wave (km/s) = 8.67906 9.85857 9.28756
#
# Compressibility (1/GPa) = 0.00778215
#
# Stress axis : x y z
#
# Youngs Moduli (GPa) = 130.76264 140.14957 108.17603
#
# Poissons Ratio (x) = 0.11668 0.40557
# Poissons Ratio (y) = 0.10887 0.38301
# Poissons Ratio (z) = 0.49025 0.49622
#
# Static dielectric constant tensor:
#      x y z
#    x 1.765350 0.000000 0.000000 
#    y 0.000000 1.749360 0.000000 
#    z 0.000000 0.000000 1.794910 
# 
# From -- ./inp_files/390.got.cif
#   From: 2010.05.17/outbox.cif.g08.bks.cpg/sg34_1_cif.got.tgz:390.got - 2010.06.03 17:23:11.
