data_PCOD9347018
_publ_section_title
;
Structure prediction by ZEFSAII (Michael W. Deem and Ramdas Pophale) SiO2 
 PCOD9347018
Probable space group: P N A 21
;
_chemical_formula_sum "Si O2"
_cell_formula_units_Z 20
_cell_length_a 19.210116
_cell_length_b 5.014467
_cell_length_c 7.511218
_cell_angle_alpha 90.000000
_cell_angle_beta 90.000000
_cell_angle_gamma 90.000000
_cell_volume 723.544309
_symmetry_space_group_name_H-M "P N A 21"
_symmetry_group_IT_number 33
_symmetry_cell_setting 'orthorhombic'
loop_
_space_group_symop_operation_xyz
x,y,z
-x,-y,1/2+z
1/2-x,1/2+y,1/2+z
1/2+x,1/2-y,z
loop_
_atom_site_type_symbol
_atom_site_label
_atom_site_fract_x
_atom_site_fract_y
_atom_site_fract_z
Si Si1 0.817566 0.659121 0.108540
Si Si2 0.074030 0.687296 0.769125
Si Si3 0.610683 0.463379 0.062125
Si Si4 0.467295 0.479672 0.921685
Si Si5 0.749123 0.182670 0.971679
O O1 0.893911 0.568863 0.173249
O O2 0.769690 0.587739 0.276229
O O3 0.794522 0.451597 0.959097
O O4 0.793992 0.954025 0.062441
O O5 0.068205 0.898733 0.605652
O O6 0.125715 0.796425 0.923652
O O7 0.999216 0.725959 0.869475
O O8 0.542407 0.338106 0.962580
O O9 0.675607 0.267634 0.061688
O O10 0.582231 0.568295 0.251976
#
# Coordination Sequence:
#
# PCOD9347018 Si02
#       5
#     4   4   4   4   4
#     4  12  27  49  77 111 161 218 271 334 403 493
#     4   9  18  41  76 115 163 198 276 335 420 486
#     4   9  18  41  76 115 163 198 276 335 420 486
#     4   8  18  38  82 118 150 214 256 356 418 486
#     4  12  27  49  77 111 161 218 271 334 403 493
#
# _framework density 27.641708999999999
#
# number of rings (size 3 to 8) (size 9 to 14) (size 15 to 20)
#    1.200    0.800    0.000    3.600    2.800    0.000 
#    7.200    0.000   35.200    0.000    0.000    0.000 
#    0.000    0.000    0.000    0.000    0.000    0.000 
#
# Total GULP energy -111528.314082 kJ/mol
# GULP energy per Si atom -5576.415704 kJ/mol
# Density = 2.757879 g / cm^3
# Si number density = 27.641709 Si / 1000 Ang^3
#
#
#
# Elastic Constant Matrix: (Units=GPa)
#
#
# Indices 1 2 3 4 5 6 
#
# 1 129.1104 74.4184 41.6891 0.0000 0.0000 0.0000
# 2 74.4184 125.5535 32.8564 0.0000 0.0000 0.0000
# 3 41.6891 32.8564 138.9072 0.0000 0.0000 0.0000
# 4 0.0000 0.0000 0.0000 32.7466 0.0000 0.0000
# 5 0.0000 0.0000 0.0000 0.0000 42.4719 0.0000
# 6 0.0000 0.0000 0.0000 0.0000 0.0000 59.4313
#
#
#
# Elastic Compliance Matrix: (Units=1/GPa)
#
#
# Indices 1 2 3 4 5 6 
#
# 1 0.012313 -0.006749 -0.002099 0.000000 0.000000 0.000000
# 2 -0.006749 0.012189 -0.000858 0.000000 0.000000 0.000000
# 3 -0.002099 -0.000858 0.008032 0.000000 0.000000 0.000000
# 4 0.000000 0.000000 0.000000 0.030538 0.000000 0.000000
# 5 0.000000 0.000000 0.000000 0.000000 0.023545 0.000000
# 6 0.000000 0.000000 0.000000 0.000000 0.000000 0.016826
#
#
# Mechanical properties :
#
#
# Convention : Reuss Voigt Hill
#
# Bulk Modulus (GPa) = 76.20217 76.83320 76.51769
# Shear Modulus (GPa) = 39.29920 43.23712 41.26816
#
# Velocity S-wave (km/s) = 3.77468 3.95929 3.86808
# Velocity P-wave (km/s) = 6.82827 6.98267 6.90590
#
# Compressibility (1/GPa) = 0.01312299
#
# Stress axis : x y z
#
# Youngs Moduli (GPa) = 81.21390 82.03810 124.50342
#
# Poissons Ratio (x) = 0.55367 0.26134
# Poissons Ratio (y) = 0.54811 0.10679
# Poissons Ratio (z) = 0.17047 0.07037
#
# Static dielectric constant tensor:
#      x y z
#    x 2.238870 0.000000 0.000000 
#    y 0.000000 2.186670 0.000000 
#    z 0.000000 0.000000 2.109630 
# 
# From -- ./inp_files/5085.got.cif
#   From: 2010.05.17/outbox.cif.g08.bks.cpg/sg33_3_cif.got.tgz:5085.got - 2010.06.03 17:15:25.
