data_PCOD9347789
_publ_section_title
;
Structure prediction by ZEFSAII (Michael W. Deem and Ramdas Pophale) SiO2 
 PCOD9347789
Probable space group: P N N 2
;
_chemical_formula_sum "Si O2"
_cell_formula_units_Z 18
_cell_length_a 8.777418
_cell_length_b 17.120234
_cell_length_c 4.849917
_cell_angle_alpha 90.000000
_cell_angle_beta 90.000000
_cell_angle_gamma 90.000000
_cell_volume 728.804060
_symmetry_space_group_name_H-M "P N N 2"
_symmetry_group_IT_number 34
_symmetry_cell_setting 'orthorhombic'
loop_
_space_group_symop_operation_xyz
x,y,z
-x,-y,z
1/2-x,1/2+y,1/2+z
1/2+x,1/2-y,1/2+z
loop_
_atom_site_type_symbol
_atom_site_label
_atom_site_fract_x
_atom_site_fract_y
_atom_site_fract_z
Si Si1 0.208112 0.631174 0.578470
Si Si2 0.764723 0.105633 0.351770
Si Si3 0.500000 0.000000 0.332678
Si Si4 0.035332 0.883068 0.876033
Si Si5 0.685982 0.761476 0.596112
O O1 0.096361 0.562466 0.661473
O O2 0.361546 0.599907 0.435222
O O3 0.246796 0.683499 0.850503
O O4 0.132186 0.685003 0.345445
O O5 0.628647 0.053983 0.472246
O O6 0.899746 0.110240 0.572230
O O7 0.847877 0.072797 0.079476
O O8 0.714932 0.192195 0.244733
O O9 0.057039 0.792459 0.962305
#
# Coordination Sequence:
#
# PCOD9347789 Si02
#       5
#     4   4   2   4   4
#     4  12  26  45  77 111 156 207 262 330 404 467
#     4  10  24  47  75 108 156 201 261 322 397 478
#     4  12  32  48  76 128 168 200 262 366 414 456
#     4  10  23  46  75 105 140 218 260 315 373 499
#     4  10  23  43  78 106 149 202 276 309 381 493
#
# _framework density 24.697997000000001
#
# number of rings (size 3 to 8) (size 9 to 14) (size 15 to 20)
#    1.333    0.000    2.222    1.333    6.222    6.222 
#    0.000    2.222    0.000    0.000    0.000    0.000 
#    0.000    0.000    0.000    0.000    0.000    0.000 
#
# Total GULP energy -100472.882900 kJ/mol
# GULP energy per Si atom -5581.826828 kJ/mol
# Density = 2.464178 g / cm^3
# Si number density = 24.697997 Si / 1000 Ang^3
#
#
#
# Elastic Constant Matrix: (Units=GPa)
#
#
# Indices 1 2 3 4 5 6 
#
# 1 94.7524 49.0094 8.9068 0.0000 0.0000 0.0000
# 2 49.0094 134.4982 42.7458 0.0000 0.0000 0.0000
# 3 8.9068 42.7458 129.5507 0.0000 0.0000 0.0000
# 4 0.0000 0.0000 0.0000 -24.2221 0.0000 0.0000
# 5 0.0000 0.0000 0.0000 0.0000 30.0565 0.0000
# 6 0.0000 0.0000 0.0000 0.0000 0.0000 41.4775
#
#
#
# Elastic Compliance Matrix: (Units=1/GPa)
#
#
# Indices 1 2 3 4 5 6 
#
# 1 0.013070 -0.005001 0.000752 0.000000 0.000000 0.000000
# 2 -0.005001 0.010220 -0.003028 0.000000 0.000000 0.000000
# 3 0.000752 -0.003028 0.008666 0.000000 0.000000 0.000000
# 4 0.000000 0.000000 0.000000 -0.041285 0.000000 0.000000
# 5 0.000000 0.000000 0.000000 0.000000 0.033271 0.000000
# 6 0.000000 0.000000 0.000000 0.000000 0.000000 0.024109
#
#
# Mechanical properties :
#
#
# Convention : Reuss Voigt Hill
#
# Bulk Modulus (GPa) = 57.46984 62.23613 59.85299
# Shear Modulus (GPa) = 73.09064 26.67168 49.88116
#
# Velocity S-wave (km/s) = 5.44592 3.28977 4.49892
# Velocity P-wave (km/s) = 7.92865 6.29950 7.16056
#
# Compressibility (1/GPa) = 0.01740043
#
# Stress axis : x y z
#
# Youngs Moduli (GPa) = 76.51043 97.84788 115.38696
#
# Poissons Ratio (x) = 0.48938 -0.08673
# Poissons Ratio (y) = 0.38266 0.34942
# Poissons Ratio (z) = -0.05751 0.29631
#
# Static dielectric constant tensor:
#      x y z
#    x 1.927790 0.000000 0.000000 
#    y 0.000000 2.023520 0.000000 
#    z 0.000000 0.000000 1.949410 
# 
# From -- ./inp_files/367.got.cif
#   From: 2010.05.17/outbox.cif.g08.bks.cpg/sg34_1_cif.got.tgz:367.got - 2010.06.03 17:23:11.
