data_PCOD9347085
_publ_section_title
;
Structure prediction by ZEFSAII (Michael W. Deem and Ramdas Pophale) SiO2 
 PCOD9347085
Probable space group: P N A 21
;
_chemical_formula_sum "Si O2"
_cell_formula_units_Z 24
_cell_length_a 9.000000
_cell_length_b 15.000000
_cell_length_c 9.000000
_cell_angle_alpha 90.000000
_cell_angle_beta 90.000000
_cell_angle_gamma 90.000000
_cell_volume 1215.000000
_symmetry_space_group_name_H-M "P N A 21"
_symmetry_group_IT_number 33
_symmetry_cell_setting 'orthorhombic'
loop_
_space_group_symop_operation_xyz
x,y,z
-x,-y,1/2+z
1/2-x,1/2+y,1/2+z
1/2+x,1/2-y,z
loop_
_atom_site_type_symbol
_atom_site_label
_atom_site_fract_x
_atom_site_fract_y
_atom_site_fract_z
Si Si1 0.853601 0.084531 0.167420
Si Si2 0.130459 0.402497 0.674835
Si Si3 0.964516 0.564760 0.824158
Si Si4 0.596726 0.791631 0.602694
Si Si5 0.434104 0.445029 0.823792
Si Si6 0.134019 0.229794 0.877736
O O1 0.692783 0.068522 0.238804
O O2 0.881675 0.191273 0.166307
O O3 0.870931 0.051798 0.994371
O O4 0.970179 0.029428 0.268933
O O5 0.033663 0.467631 0.783346
O O6 0.299823 0.434577 0.705601
O O7 0.139565 0.300468 0.740289
O O8 0.069546 0.414987 0.502342
O O9 0.072003 0.636729 0.735864
O O10 0.721191 0.804287 0.471279
O O11 0.447512 0.785793 0.506574
O O12 0.538060 0.356206 0.828518
#
# Coordination Sequence:
#
# PCOD9347085 Si02
#       6
#     4   4   4   4   4   4
#     4  11  24  44  68 104 138 185 233 291 353 421
#     4  12  26  46  69 105 139 188 242 292 354 422
#     4  12  27  43  74 101 142 189 239 295 353 422
#     4  11  23  47  70  98 143 182 230 292 358 420
#     4  11  25  43  72 103 143 186 236 296 353 424
#     4  11  23  47  71  97 141 184 228 292 359 419
#
# _framework density 19.753086
#
# number of rings (size 3 to 8) (size 9 to 14) (size 15 to 20)
#    0.000    0.667    5.000    3.000    9.333    2.667 
#    0.000    0.000    0.000    0.000    0.000    0.000 
#    0.000    0.000    0.000    0.000    0.000    0.000 
#
# Total GULP energy -133905.118837 kJ/mol
# GULP energy per Si atom -5579.379952 kJ/mol
# Density = 1.970813 g / cm^3
# Si number density = 19.753086 Si / 1000 Ang^3
#
#
#
# Elastic Constant Matrix: (Units=GPa)
#
#
# Indices 1 2 3 4 5 6 
#
# 1 107.2535 34.8500 46.4337 0.0000 0.0000 0.0000
# 2 34.8500 103.7779 44.7744 0.0000 0.0000 0.0000
# 3 46.4337 44.7744 138.5541 0.0000 0.0000 0.0000
# 4 0.0000 0.0000 0.0000 45.1081 0.0000 0.0000
# 5 0.0000 0.0000 0.0000 0.0000 49.5831 0.0000
# 6 0.0000 0.0000 0.0000 0.0000 0.0000 35.1888
#
#
#
# Elastic Compliance Matrix: (Units=1/GPa)
#
#
# Indices 1 2 3 4 5 6 
#
# 1 0.011457 -0.002546 -0.003017 0.000000 0.000000 0.000000
# 2 -0.002546 0.011763 -0.002948 0.000000 0.000000 0.000000
# 3 -0.003017 -0.002948 0.009181 0.000000 0.000000 0.000000
# 4 0.000000 0.000000 0.000000 0.022169 0.000000 0.000000
# 5 0.000000 0.000000 0.000000 0.000000 0.020168 0.000000
# 6 0.000000 0.000000 0.000000 0.000000 0.000000 0.028418
#
#
# Mechanical properties :
#
#
# Convention : Reuss Voigt Hill
#
# Bulk Modulus (GPa) = 65.02173 66.85575 65.93874
# Shear Modulus (GPa) = 39.90289 40.87782 40.39036
#
# Velocity S-wave (km/s) = 4.49941 4.55404 4.52681
# Velocity P-wave (km/s) = 7.74478 7.84676 7.79594
#
# Compressibility (1/GPa) = 0.01537947
#
# Stress axis : x y z
#
# Youngs Moduli (GPa) = 87.28261 85.01390 108.91908
#
# Poissons Ratio (x) = 0.21643 0.32860
# Poissons Ratio (y) = 0.22220 0.32110
# Poissons Ratio (z) = 0.26332 0.25062
#
# Static dielectric constant tensor:
#      x y z
#    x 1.767800 0.000000 0.000000 
#    y 0.000000 1.719440 0.000000 
#    z 0.000000 0.000000 1.693650 
# 
# From -- ./inp_files/3148.got.cif
#   From: 2010.05.17/outbox.ucp.g08.bks.cvg/sg33_2_cif.got.tgz:3148.got - 2010.06.11 10:35:07.
