data_PCOD9347956
_publ_section_title
;
Structure prediction by ZEFSAII (Michael W. Deem and Ramdas Pophale) SiO2 
 PCOD9347956
Probable space group: P N N 2
;
_chemical_formula_sum "Si O2"
_cell_formula_units_Z 32
_cell_length_a 4.965396
_cell_length_b 18.606285
_cell_length_c 14.067229
_cell_angle_alpha 90.000000
_cell_angle_beta 90.000000
_cell_angle_gamma 90.000000
_cell_volume 1299.637148
_symmetry_space_group_name_H-M "P N N 2"
_symmetry_group_IT_number 34
_symmetry_cell_setting 'orthorhombic'
loop_
_space_group_symop_operation_xyz
x,y,z
-x,-y,z
1/2-x,1/2+y,1/2+z
1/2+x,1/2-y,1/2+z
loop_
_atom_site_type_symbol
_atom_site_label
_atom_site_fract_x
_atom_site_fract_y
_atom_site_fract_z
Si Si1 0.391923 0.581090 0.313990
Si Si2 0.608146 0.764999 0.423178
Si Si3 0.567727 0.918728 0.165001
Si Si4 0.265485 0.452974 0.047507
Si Si5 0.679485 0.116009 0.366321
Si Si6 0.599959 0.301726 0.751536
Si Si7 0.604078 0.143962 0.708662
Si Si8 0.616195 0.829589 0.980556
O O1 0.500000 0.500000 0.323377
O O2 0.660645 0.625812 0.285945
O O3 0.238400 0.610062 0.408795
O O4 0.158305 0.597513 0.237009
O O5 0.552172 0.850028 0.435262
O O6 0.629704 0.775334 0.306868
O O7 0.369833 0.724648 0.478310
O O8 0.869902 0.719848 0.447574
O O9 0.426039 0.916476 0.268278
O O10 0.846212 0.875261 0.193233
O O11 0.500000 0.000000 0.132808
O O12 0.504556 0.867763 0.075419
O O13 0.500000 0.500000 0.092040
O O14 0.230629 0.382829 0.111205
O O15 0.000000 0.500000 0.050459
O O16 0.326846 0.436237 0.938077
O O17 0.890481 0.175773 0.332023
O O18 0.517827 0.227549 0.702446
#
# Coordination Sequence:
#
# PCOD9347956 Si02
#       8
#     4   4   4   4   4   4   4   4
#     4  12  24  45  78 110 161 208 251 322 397 478
#     4  11  23  47  75 113 143 199 253 327 385 460
#     4  11  30  50  74 115 159 212 263 321 393 480
#     4  12  29  50  77 116 155 207 264 329 405 474
#     4  11  27  50  82 109 158 205 270 326 397 462
#     4  11  25  49  80 112 150 209 263 330 398 459
#     4  12  25  47  77 117 157 200 265 330 399 477
#     4  12  25  47  76 111 162 197 266 313 396 474
#
# _framework density 24.622257000000001
#
# number of rings (size 3 to 8) (size 9 to 14) (size 15 to 20)
#    0.000    0.500    3.750    2.625   10.500    2.000 
#    0.000    0.000    0.000    0.000    0.000    0.000 
#    0.000    0.000    0.000    0.000    0.000    0.000 
#
# Total GULP energy -178238.989044 kJ/mol
# GULP energy per Si atom -5569.968408 kJ/mol
# Density = 2.456622 g / cm^3
# Si number density = 24.622257 Si / 1000 Ang^3
#
#
#
# Elastic Constant Matrix: (Units=GPa)
#
#
# Indices 1 2 3 4 5 6 
#
# 1 131.2614 61.9001 16.4260 0.0000 0.0000 0.0000
# 2 61.9001 85.1567 7.0850 0.0000 0.0000 0.0000
# 3 16.4260 7.0850 77.9649 0.0000 0.0000 0.0000
# 4 0.0000 0.0000 0.0000 49.5872 0.0000 0.0000
# 5 0.0000 0.0000 0.0000 0.0000 17.7141 0.0000
# 6 0.0000 0.0000 0.0000 0.0000 0.0000 36.7434
#
#
#
# Elastic Compliance Matrix: (Units=1/GPa)
#
#
# Indices 1 2 3 4 5 6 
#
# 1 0.011817 -0.008447 -0.001722 0.000000 0.000000 0.000000
# 2 -0.008447 0.017870 0.000156 0.000000 0.000000 0.000000
# 3 -0.001722 0.000156 0.013175 0.000000 0.000000 0.000000
# 4 0.000000 0.000000 0.000000 0.020167 0.000000 0.000000
# 5 0.000000 0.000000 0.000000 0.000000 0.056452 0.000000
# 6 0.000000 0.000000 0.000000 0.000000 0.000000 0.027216
#
#
# Mechanical properties :
#
#
# Convention : Reuss Voigt Hill
#
# Bulk Modulus (GPa) = 43.79062 51.68946 47.74004
# Shear Modulus (GPa) = 28.68052 34.74039 31.71046
#
# Velocity S-wave (km/s) = 3.41665 3.76032 3.59259
# Velocity P-wave (km/s) = 5.77826 6.31600 6.05310
#
# Compressibility (1/GPa) = 0.02283594
#
# Stress axis : x y z
#
# Youngs Moduli (GPa) = 84.62315 55.96013 75.90153
#
# Poissons Ratio (x) = 0.47267 0.13071
# Poissons Ratio (y) = 0.71477 -0.01181
# Poissons Ratio (z) = 0.14573 -0.00871
#
# Static dielectric constant tensor:
#      x y z
#    x 2.067250 0.000000 0.000000 
#    y 0.000000 2.060260 0.000000 
#    z 0.000000 0.000000 2.036080 
# 
# From -- ./inp_files/6174.got.cif
#   From: 2010.05.17/outbox.cif.g08.bks.cpg/sg34_4_cif.got.tgz:6174.got - 2010.06.03 17:23:11.
