data_PCOD9347946
_publ_section_title
;
Structure prediction by ZEFSAII (Michael W. Deem and Ramdas Pophale) SiO2 
 PCOD9347946
Probable space group: P N N 2
;
_chemical_formula_sum "Si O2"
_cell_formula_units_Z 24
_cell_length_a 5.064227
_cell_length_b 13.593084
_cell_length_c 14.230207
_cell_angle_alpha 90.000000
_cell_angle_beta 90.000000
_cell_angle_gamma 90.000000
_cell_volume 979.585578
_symmetry_space_group_name_H-M "P N N 2"
_symmetry_group_IT_number 34
_symmetry_cell_setting 'orthorhombic'
loop_
_space_group_symop_operation_xyz
x,y,z
-x,-y,z
1/2-x,1/2+y,1/2+z
1/2+x,1/2-y,1/2+z
loop_
_atom_site_type_symbol
_atom_site_label
_atom_site_fract_x
_atom_site_fract_y
_atom_site_fract_z
Si Si1 0.000000 0.000000 0.669150
Si Si2 0.228303 0.870213 0.923687
Si Si3 0.000000 0.000000 0.328950
Si Si4 0.500000 0.000000 0.553248
Si Si5 0.585619 0.134060 0.236548
Si Si6 0.000000 0.500000 0.569583
Si Si7 0.726148 0.841254 0.799597
Si Si8 0.243992 0.157540 0.423977
O O1 0.140242 0.083118 0.729484
O O2 0.753321 0.037381 0.609906
O O3 0.436946 0.874174 0.835970
O O4 0.307086 0.763595 0.964511
O O5 0.930385 0.851515 0.887756
O O6 0.280736 0.957470 0.996495
O O7 0.005953 0.908623 0.401326
O O8 0.230957 0.959657 0.262706
O O9 0.586061 0.908607 0.491066
O O10 0.462819 0.096592 0.137486
O O11 0.759709 0.234495 0.248072
O O12 0.373982 0.155310 0.319303
#
# Coordination Sequence:
#
# PCOD9347946 Si02
#       8
#     2   4   2   2   4   2   4   4
#     4  12  27  44  73 100 148 190 252 299 352 447
#     4  11  26  45  76  99 148 187 244 295 378 441
#     4  12  17  42  73  94 132 198 230 293 356 471
#     4  12  25  41  70 110 138 184 248 313 339 428
#     4  11  24  42  71 103 146 184 248 302 380 433
#     4  12  25  47  68 118 138 188 248 335 343 442
#     4  11  25  51  69 103 143 211 230 294 382 462
#     4  11  23  43  67 102 143 192 232 292 382 439
#
# _framework density 24.500157999999999
#
# number of rings (size 3 to 8) (size 9 to 14) (size 15 to 20)
#    0.000    0.667    5.000    2.500    2.333    1.333 
#    0.000    0.000    0.000    0.000    0.000    0.000 
#    0.000    0.000    0.000    0.000    0.000    0.000 
#
# Total GULP energy -133818.517089 kJ/mol
# GULP energy per Si atom -5575.771545 kJ/mol
# Density = 2.444439 g / cm^3
# Si number density = 24.500158 Si / 1000 Ang^3
#
#
#
# Elastic Constant Matrix: (Units=GPa)
#
#
# Indices 1 2 3 4 5 6 
#
# 1 81.9615 21.3268 16.3618 0.0000 0.0000 0.0000
# 2 21.3268 130.2067 49.2036 0.0000 0.0000 0.0000
# 3 16.3618 49.2036 81.3620 0.0000 0.0000 0.0000
# 4 0.0000 0.0000 0.0000 34.8288 0.0000 0.0000
# 5 0.0000 0.0000 0.0000 0.0000 -20.0386 0.0000
# 6 0.0000 0.0000 0.0000 0.0000 0.0000 34.2079
#
#
#
# Elastic Compliance Matrix: (Units=1/GPa)
#
#
# Indices 1 2 3 4 5 6 
#
# 1 0.012925 -0.001471 -0.001710 0.000000 0.000000 0.000000
# 2 -0.001471 0.010123 -0.005826 0.000000 0.000000 0.000000
# 3 -0.001710 -0.005826 0.016158 0.000000 0.000000 0.000000
# 4 0.000000 0.000000 0.000000 0.028712 0.000000 0.000000
# 5 0.000000 0.000000 0.000000 0.000000 -0.049904 0.000000
# 6 0.000000 0.000000 0.000000 0.000000 0.000000 0.029233
#
#
# Mechanical properties :
#
#
# Convention : Reuss Voigt Hill
#
# Bulk Modulus (GPa) = 47.18673 51.92382 49.55528
# Shear Modulus (GPa) = 69.13421 23.57550 46.35485
#
# Velocity S-wave (km/s) = 5.31781 3.10540 4.35446
# Velocity P-wave (km/s) = 7.55030 5.83928 6.74923
#
# Compressibility (1/GPa) = 0.02119240
#
# Stress axis : x y z
#
# Youngs Moduli (GPa) = 77.37016 98.78962 61.89003
#
# Poissons Ratio (x) = 0.14531 0.10581
# Poissons Ratio (y) = 0.11381 0.36056
# Poissons Ratio (z) = 0.13227 0.57553
#
# Static dielectric constant tensor:
#      x y z
#    x 2.130750 0.000000 0.000000 
#    y 0.000000 2.105090 0.000000 
#    z 0.000000 0.000000 2.067580 
# 
# From -- ./inp_files/6132.got.cif
#   From: 2010.05.17/outbox.cif.g08.bks.cpg/sg34_4_cif.got.tgz:6132.got - 2010.06.03 17:23:11.
