data_PCOD9347590
_publ_section_title
;
Structure prediction by ZEFSAII (Michael W. Deem and Ramdas Pophale) SiO2 
 PCOD9347590
Probable space group: P N N 2
;
_chemical_formula_sum "Si O2"
_cell_formula_units_Z 30
_cell_length_a 19.499971
_cell_length_b 7.450362
_cell_length_c 11.063834
_cell_angle_alpha 90.000000
_cell_angle_beta 90.000000
_cell_angle_gamma 90.000000
_cell_volume 1607.374193
_symmetry_space_group_name_H-M "P N N 2"
_symmetry_group_IT_number 34
_symmetry_cell_setting 'orthorhombic'
loop_
_space_group_symop_operation_xyz
x,y,z
-x,-y,z
1/2-x,1/2+y,1/2+z
1/2+x,1/2-y,1/2+z
loop_
_atom_site_type_symbol
_atom_site_label
_atom_site_fract_x
_atom_site_fract_y
_atom_site_fract_z
Si Si1 0.078723 0.007765 0.092640
Si Si2 0.183061 0.685501 0.064745
Si Si3 0.172150 0.363495 0.494734
Si Si4 0.500000 0.500000 0.067315
Si Si5 0.859404 0.681545 0.933594
Si Si6 0.612484 0.478733 0.871663
Si Si7 0.942398 0.649871 0.695153
Si Si8 0.285810 0.201655 0.842527
O O1 0.081043 0.018362 0.238194
O O2 0.122312 0.832109 0.055762
O O3 0.114571 0.181702 0.035562
O O4 0.000000 0.000000 0.052268
O O5 0.253795 0.776809 0.021641
O O6 0.196253 0.645005 0.206133
O O7 0.163945 0.506659 0.991971
O O8 0.133072 0.222034 0.408971
O O9 0.124965 0.384835 0.612985
O O10 0.184189 0.552768 0.431599
O O11 0.525937 0.337428 0.149528
O O12 0.561354 0.550393 0.975193
O O13 0.917801 0.654514 0.833172
O O14 0.794427 0.772282 0.866910
O O15 0.677979 0.608035 0.866598
O O16 0.000000 0.500000 0.675887
#
# Coordination Sequence:
#
# PCOD9347590 Si02
#       8
#     4   4   4   2   4   4   4   4
#     4  11  25  43  66  95 130 170 208 257 327 389
#     4  11  24  42  62  97 127 166 214 265 318 380
#     4  11  21  42  68  95 124 167 218 266 316 375
#     4  10  22  44  66  92 126 172 214 264 314 382
#     4  12  25  41  64  95 132 168 211 265 325 389
#     4  10  21  42  68  93 127 161 217 265 314 379
#     4  11  26  43  64  96 131 173 217 265 324 384
#     4  11  22  41  64  93 124 164 213 266 319 376
#
# _framework density 18.663979000000001
#
# number of rings (size 3 to 8) (size 9 to 14) (size 15 to 20)
#    0.000    1.067    4.667    1.600    2.800    0.000 
#    2.400    0.000    0.000    0.000    0.000    0.000 
#    0.000    0.000    0.000    0.000    0.000    0.000 
#
# Total GULP energy -167616.098557 kJ/mol
# GULP energy per Si atom -5587.203285 kJ/mol
# Density = 1.862150 g / cm^3
# Si number density = 18.663979 Si / 1000 Ang^3
#
#
#
# Elastic Constant Matrix: (Units=GPa)
#
#
# Indices 1 2 3 4 5 6 
#
# 1 111.3299 35.8400 27.8494 0.0000 0.0000 0.0000
# 2 35.8400 96.2733 54.2894 0.0000 0.0000 0.0000
# 3 27.8494 54.2894 79.7685 0.0000 0.0000 0.0000
# 4 0.0000 0.0000 0.0000 25.2467 0.0000 0.0000
# 5 0.0000 0.0000 0.0000 0.0000 24.2557 0.0000
# 6 0.0000 0.0000 0.0000 0.0000 0.0000 32.2216
#
#
#
# Elastic Compliance Matrix: (Units=1/GPa)
#
#
# Indices 1 2 3 4 5 6 
#
# 1 0.010331 -0.002940 -0.001605 0.000000 0.000000 0.000000
# 2 -0.002940 0.017693 -0.011015 0.000000 0.000000 0.000000
# 3 -0.001605 -0.011015 0.020594 0.000000 0.000000 0.000000
# 4 0.000000 0.000000 0.000000 0.039609 0.000000 0.000000
# 5 0.000000 0.000000 0.000000 0.000000 0.041227 0.000000
# 6 0.000000 0.000000 0.000000 0.000000 0.000000 0.031035
#
#
# Mechanical properties :
#
#
# Convention : Reuss Voigt Hill
#
# Bulk Modulus (GPa) = 57.15862 58.14771 57.65316
# Shear Modulus (GPa) = 25.32373 27.63766 26.48069
#
# Velocity S-wave (km/s) = 3.68750 3.85229 3.77080
# Velocity P-wave (km/s) = 6.98726 7.14210 7.06510
#
# Compressibility (1/GPa) = 0.01749518
#
# Stress axis : x y z
#
# Youngs Moduli (GPa) = 96.80054 56.51832 48.55865
#
# Poissons Ratio (x) = 0.16619 0.07796
# Poissons Ratio (y) = 0.28464 0.53489
# Poissons Ratio (z) = 0.15541 0.62257
#
# Static dielectric constant tensor:
#      x y z
#    x 1.645730 0.000000 0.000000 
#    y 0.000000 1.603600 0.000000 
#    z 0.000000 0.000000 1.629100 
# 
# From -- ./inp_files/4514.got.cif
#   From: 2010.05.17/outbox.cif.g08.bks.cpg/sg34_3_cif.got.tgz:4514.got - 2010.06.03 17:23:11.
