data_PCOD9347324
_publ_section_title
;
Structure prediction by ZEFSAII (Michael W. Deem and Ramdas Pophale) SiO2 
 PCOD9347324
Probable space group: P N N 2
;
_chemical_formula_sum "Si O2"
_cell_formula_units_Z 26
_cell_length_a 11.695401
_cell_length_b 8.594769
_cell_length_c 14.024532
_cell_angle_alpha 90.000000
_cell_angle_beta 90.000000
_cell_angle_gamma 90.000000
_cell_volume 1409.735718
_symmetry_space_group_name_H-M "P N N 2"
_symmetry_group_IT_number 34
_symmetry_cell_setting 'orthorhombic'
loop_
_space_group_symop_operation_xyz
x,y,z
-x,-y,z
1/2-x,1/2+y,1/2+z
1/2+x,1/2-y,1/2+z
loop_
_atom_site_type_symbol
_atom_site_label
_atom_site_fract_x
_atom_site_fract_y
_atom_site_fract_z
Si Si1 0.728446 0.048762 0.718390
Si Si2 0.374302 0.959455 0.378949
Si Si3 0.500000 0.000000 0.838005
Si Si4 0.972760 0.256970 0.505527
Si Si5 0.312095 0.547810 0.017423
Si Si6 0.391001 0.171795 0.207130
Si Si7 0.576732 0.365858 0.332386
O O1 0.776831 0.224005 0.711139
O O2 0.608275 0.037336 0.771257
O O3 0.738256 0.977310 0.612746
O O4 0.822969 0.952836 0.777606
O O5 0.366100 0.774296 0.390463
O O6 0.500000 0.000000 0.417265
O O7 0.276217 0.053722 0.431197
O O8 0.374049 0.017332 0.269251
O O9 0.528983 0.857738 0.909787
O O10 0.928999 0.348975 0.598575
O O11 0.100758 0.191343 0.522702
O O12 0.891143 0.105183 0.502551
O O13 0.488546 0.277386 0.260306
O O14 0.500000 0.500000 0.381813
#
# Coordination Sequence:
#
# PCOD9347324 Si02
#       7
#     4   4   2   4   4   4   4
#     4  10  20  35  53  76 115 146 175 225 286 332
#     4  10  20  31  56  85 108 139 184 232 272 332
#     4  12  24  32  54  88 116 136 178 240 288 320
#     4  10  21  36  57  81 106 146 192 231 266 332
#     4  10  20  38  57  77 110 152 188 219 279 338
#     4   9  18  35  55  81 104 142 190 232 262 321
#     4   9  17  33  56  80 105 141 181 224 274 318
#
# _framework density 18.443173000000002
#
# number of rings (size 3 to 8) (size 9 to 14) (size 15 to 20)
#    0.000    2.154    1.538    1.846    4.308    0.000 
#    0.000    0.000    0.000    0.000    4.000    0.000 
#    0.000    0.000    0.000    0.000    0.000    0.000 
#
# Total GULP energy -144940.092935 kJ/mol
# GULP energy per Si atom -5574.618959 kJ/mol
# Density = 1.840120 g / cm^3
# Si number density = 18.443173 Si / 1000 Ang^3
#
#
#
# Elastic Constant Matrix: (Units=GPa)
#
#
# Indices 1 2 3 4 5 6 
#
# 1 86.7061 25.0806 62.9738 0.0000 0.0000 0.0000
# 2 25.0806 78.2278 27.7641 0.0000 0.0000 0.0000
# 3 62.9738 27.7641 88.4711 0.0000 0.0000 0.0000
# 4 0.0000 0.0000 0.0000 18.2182 0.0000 0.0000
# 5 0.0000 0.0000 0.0000 0.0000 25.0339 0.0000
# 6 0.0000 0.0000 0.0000 0.0000 0.0000 14.0210
#
#
#
# Elastic Compliance Matrix: (Units=1/GPa)
#
#
# Indices 1 2 3 4 5 6 
#
# 1 0.024111 -0.001845 -0.016583 0.000000 0.000000 0.000000
# 2 -0.001845 0.014527 -0.003246 0.000000 0.000000 0.000000
# 3 -0.016583 -0.003246 0.024126 0.000000 0.000000 0.000000
# 4 0.000000 0.000000 0.000000 0.054890 0.000000 0.000000
# 5 0.000000 0.000000 0.000000 0.000000 0.039946 0.000000
# 6 0.000000 0.000000 0.000000 0.000000 0.000000 0.071322
#
#
# Mechanical properties :
#
#
# Convention : Reuss Voigt Hill
#
# Bulk Modulus (GPa) = 51.50412 53.89355 52.69883
# Shear Modulus (GPa) = 17.93781 20.62706 19.28244
#
# Velocity S-wave (km/s) = 3.12204 3.34789 3.23694
# Velocity P-wave (km/s) = 6.40177 6.65052 6.52733
#
# Compressibility (1/GPa) = 0.01941592
#
# Stress axis : x y z
#
# Youngs Moduli (GPa) = 41.47451 68.83952 41.44933
#
# Poissons Ratio (x) = 0.12698 0.68737
# Poissons Ratio (y) = 0.07650 0.13453
# Poissons Ratio (z) = 0.68779 0.22344
#
# Static dielectric constant tensor:
#      x y z
#    x 1.634400 0.000000 0.000000 
#    y 0.000000 1.676960 0.000000 
#    z 0.000000 0.000000 1.635130 
# 
# From -- ./inp_files/6500.got.cif
#   From: 2010.05.17/outbox.cif.g08.bks.cpg/sg34_4_cif.got.tgz:6500.got - 2010.06.03 17:23:11.
