data_PCOD9347674
_publ_section_title
;
Structure prediction by ZEFSAII (Michael W. Deem and Ramdas Pophale) SiO2 
 PCOD9347674
Probable space group: P N N 2
;
_chemical_formula_sum "Si O2"
_cell_formula_units_Z 24
_cell_length_a 11.944902
_cell_length_b 9.666694
_cell_length_c 8.731054
_cell_angle_alpha 90.000000
_cell_angle_beta 90.000000
_cell_angle_gamma 90.000000
_cell_volume 1008.154833
_symmetry_space_group_name_H-M "P N N 2"
_symmetry_group_IT_number 34
_symmetry_cell_setting 'orthorhombic'
loop_
_space_group_symop_operation_xyz
x,y,z
-x,-y,z
1/2-x,1/2+y,1/2+z
1/2+x,1/2-y,1/2+z
loop_
_atom_site_type_symbol
_atom_site_label
_atom_site_fract_x
_atom_site_fract_y
_atom_site_fract_z
Si Si1 0.103147 0.724804 0.069210
Si Si2 0.925842 0.640730 0.835163
Si Si3 0.360573 0.750131 0.998067
Si Si4 0.840282 0.514040 0.283800
Si Si5 0.609180 0.539376 0.129283
Si Si6 0.325794 0.279778 0.889036
O O1 0.105829 0.567792 0.140128
O O2 0.112307 0.811268 0.227847
O O3 0.001705 0.733147 0.950938
O O4 0.224141 0.754488 0.995387
O O5 0.000000 0.500000 0.823869
O O6 0.902690 0.694780 0.662935
O O7 0.796534 0.647802 0.896377
O O8 0.218509 0.946199 0.726646
O O9 0.398628 0.855747 0.864292
O O10 0.619725 0.414297 0.005949
O O11 0.816901 0.385922 0.397299
O O12 0.500000 0.500000 0.222998
O O13 0.600384 0.675244 0.030012
#
# Coordination Sequence:
#
# PCOD9347674 Si02
#       6
#     4   4   4   4   4   4
#     4   8  20  42  64  96 144 179 240 296 357 430
#     4  11  20  39  73 103 137 190 244 294 373 434
#     4  10  22  41  69 105 136 189 242 300 362 443
#     4   9  21  45  65  99 144 180 242 302 354 432
#     4  11  23  45  66  98 146 188 231 307 372 426
#     4   9  22  46  63 101 143 184 244 301 358 433
#
# _framework density 23.805866999999999
#
# number of rings (size 3 to 8) (size 9 to 14) (size 15 to 20)
#    1.000    1.333    1.667    2.000    2.333    1.333 
#   12.000    0.000    0.000    0.000    0.000    0.000 
#    0.000    0.000    0.000    0.000    0.000    0.000 
#
# Total GULP energy -133700.207829 kJ/mol
# GULP energy per Si atom -5570.841993 kJ/mol
# Density = 2.375168 g / cm^3
# Si number density = 23.805867 Si / 1000 Ang^3
#
#
#
# Elastic Constant Matrix: (Units=GPa)
#
#
# Indices 1 2 3 4 5 6 
#
# 1 136.9917 -0.5050 61.1771 0.0000 0.0000 0.0000
# 2 -0.5050 80.5278 41.9200 0.0000 0.0000 0.0000
# 3 61.1771 41.9200 79.2926 0.0000 0.0000 0.0000
# 4 0.0000 0.0000 0.0000 38.9735 0.0000 0.0000
# 5 0.0000 0.0000 0.0000 0.0000 26.5819 0.0000
# 6 0.0000 0.0000 0.0000 0.0000 0.0000 21.2686
#
#
#
# Elastic Compliance Matrix: (Units=1/GPa)
#
#
# Indices 1 2 3 4 5 6 
#
# 1 0.014024 0.007893 -0.014993 0.000000 0.000000 0.000000
# 2 0.007893 0.021575 -0.017496 0.000000 0.000000 0.000000
# 3 -0.014993 -0.017496 0.033429 0.000000 0.000000 0.000000
# 4 0.000000 0.000000 0.000000 0.025658 0.000000 0.000000
# 5 0.000000 0.000000 0.000000 0.000000 0.037620 0.000000
# 6 0.000000 0.000000 0.000000 0.000000 0.000000 0.047018
#
#
# Mechanical properties :
#
#
# Convention : Reuss Voigt Hill
#
# Bulk Modulus (GPa) = 50.41284 55.77739 53.09511
# Shear Modulus (GPa) = 21.26498 30.31278 25.78888
#
# Velocity S-wave (km/s) = 2.99200 3.57225 3.29492
# Velocity P-wave (km/s) = 5.75836 6.36361 6.06854
#
# Compressibility (1/GPa) = 0.01983622
#
# Stress axis : x y z
#
# Youngs Moduli (GPa) = 71.30489 46.34923 29.91437
#
# Poissons Ratio (x) = -0.36582 0.44850
# Poissons Ratio (y) = -0.56279 0.52338
# Poissons Ratio (z) = 1.06907 0.81092
#
# Static dielectric constant tensor:
#      x y z
#    x 2.022460 0.000000 0.000000 
#    y 0.000000 1.930480 0.000000 
#    z 0.000000 0.000000 1.884120 
# 
# From -- ./inp_files/3170.got.cif
#   From: 2010.05.17/outbox.cif.g08.bks.cpg/sg34_2_cif.got.tgz:3170.got - 2010.06.03 17:23:11.
