data_PCOD9347560
_publ_section_title
;
Structure prediction by ZEFSAII (Michael W. Deem and Ramdas Pophale) SiO2 
 PCOD9347560
Probable space group: P N N 2
;
_chemical_formula_sum "Si O2"
_cell_formula_units_Z 24
_cell_length_a 12.627177
_cell_length_b 16.264266
_cell_length_c 5.293209
_cell_angle_alpha 90.000000
_cell_angle_beta 90.000000
_cell_angle_gamma 90.000000
_cell_volume 1087.075678
_symmetry_space_group_name_H-M "P N N 2"
_symmetry_group_IT_number 34
_symmetry_cell_setting 'orthorhombic'
loop_
_space_group_symop_operation_xyz
x,y,z
-x,-y,z
1/2-x,1/2+y,1/2+z
1/2+x,1/2-y,1/2+z
loop_
_atom_site_type_symbol
_atom_site_label
_atom_site_fract_x
_atom_site_fract_y
_atom_site_fract_z
Si Si1 0.372118 0.956310 0.666860
Si Si2 0.875052 0.642340 0.659564
Si Si3 0.263024 0.690600 0.655039
Si Si4 0.359105 0.143950 0.651057
Si Si5 0.984113 0.781972 0.942225
Si Si6 0.689816 0.635333 0.331567
O O1 0.393647 0.912567 0.403355
O O2 0.244072 0.945801 0.718777
O O3 0.400687 0.050894 0.651794
O O4 0.413786 0.904922 0.909134
O O5 0.930776 0.728962 0.714998
O O6 0.749589 0.649031 0.600694
O O7 0.198109 0.657130 0.417318
O O8 0.387358 0.683829 0.604346
O O9 0.236496 0.787641 0.674687
O O10 0.221700 0.651609 0.914391
O O11 0.444672 0.215220 0.593389
O O12 0.065780 0.851364 0.851547
#
# Coordination Sequence:
#
# PCOD9347560 Si02
#       6
#     4   4   4   4   4   4
#     4  10  22  45  63  91 137 169 202 277 324 382
#     4  10  21  40  64  92 132 160 223 264 313 390
#     4  11  23  42  62  99 128 166 225 266 308 408
#     4  11  26  42  69  93 137 170 213 271 336 377
#     4  11  21  41  67  99 123 175 218 268 323 373
#     4   9  23  40  68  87 136 169 209 269 324 368
#
# _framework density 22.077580999999999
#
# number of rings (size 3 to 8) (size 9 to 14) (size 15 to 20)
#    1.000    0.667    1.667    3.000    0.000    8.667 
#    0.000    4.167    0.000    0.000    0.000    0.000 
#    0.000    0.000    0.000    0.000    0.000    0.000 
#
# Total GULP energy -134062.025076 kJ/mol
# GULP energy per Si atom -5585.917711 kJ/mol
# Density = 2.202733 g / cm^3
# Si number density = 22.077581 Si / 1000 Ang^3
#
#
#
# Elastic Constant Matrix: (Units=GPa)
#
#
# Indices 1 2 3 4 5 6 
#
# 1 75.6711 -8.7193 -2.1034 0.0000 0.0000 0.0000
# 2 -8.7193 35.9263 25.3775 0.0000 0.0000 0.0000
# 3 -2.1034 25.3775 125.3154 0.0000 0.0000 0.0000
# 4 0.0000 0.0000 0.0000 29.1822 0.0000 0.0000
# 5 0.0000 0.0000 0.0000 0.0000 32.5003 0.0000
# 6 0.0000 0.0000 0.0000 0.0000 0.0000 38.1119
#
#
#
# Elastic Compliance Matrix: (Units=1/GPa)
#
#
# Indices 1 2 3 4 5 6 
#
# 1 0.013624 0.003670 -0.000515 0.000000 0.000000 0.000000
# 2 0.003670 0.033470 -0.006716 0.000000 0.000000 0.000000
# 3 -0.000515 -0.006716 0.009331 0.000000 0.000000 0.000000
# 4 0.000000 0.000000 0.000000 0.034267 0.000000 0.000000
# 5 0.000000 0.000000 0.000000 0.000000 0.030769 0.000000
# 6 0.000000 0.000000 0.000000 0.000000 0.000000 0.026239
#
#
# Mechanical properties :
#
#
# Convention : Reuss Voigt Hill
#
# Bulk Modulus (GPa) = 20.28282 29.55804 24.92043
# Shear Modulus (GPa) = 29.19611 34.78274 31.98942
#
# Velocity S-wave (km/s) = 3.64047 3.97353 3.81064
# Velocity P-wave (km/s) = 5.18437 5.87106 5.53837
#
# Compressibility (1/GPa) = 0.04930280
#
# Stress axis : x y z
#
# Youngs Moduli (GPa) = 73.40172 29.87783 107.16581
#
# Poissons Ratio (x) = -0.10965 0.05514
# Poissons Ratio (y) = -0.26938 0.71976
# Poissons Ratio (z) = 0.03777 0.20067
#
# Static dielectric constant tensor:
#      x y z
#    x 1.967180 0.000000 0.000000 
#    y 0.000000 1.798980 0.000000 
#    z 0.000000 0.000000 1.806900 
# 
# From -- ./inp_files/930.got.cif
#   From: 2010.05.17/outbox.cif.g08.bks.cpg/sg34_1_cif.got.tgz:930.got - 2010.06.03 17:23:11.
