data_PCOD9347958
_publ_section_title
;
Structure prediction by ZEFSAII (Michael W. Deem and Ramdas Pophale) SiO2 
 PCOD9347958
Probable space group: P N N 2
;
_chemical_formula_sum "Si O2"
_cell_formula_units_Z 24
_cell_length_a 16.730205
_cell_length_b 11.893060
_cell_length_c 5.290009
_cell_angle_alpha 90.000000
_cell_angle_beta 90.000000
_cell_angle_gamma 90.000000
_cell_volume 1052.570716
_symmetry_space_group_name_H-M "P N N 2"
_symmetry_group_IT_number 34
_symmetry_cell_setting 'orthorhombic'
loop_
_space_group_symop_operation_xyz
x,y,z
-x,-y,z
1/2-x,1/2+y,1/2+z
1/2+x,1/2-y,1/2+z
loop_
_atom_site_type_symbol
_atom_site_label
_atom_site_fract_x
_atom_site_fract_y
_atom_site_fract_z
Si Si1 0.500000 0.500000 0.011160
Si Si2 0.286566 0.191923 0.394185
Si Si3 0.497465 0.786823 0.546754
Si Si4 0.500000 0.000000 0.171536
Si Si5 0.621359 0.888043 0.890582
Si Si6 0.118682 0.130336 0.218176
Si Si7 0.122557 0.906355 0.893685
O O1 0.419728 0.459697 0.150572
O O2 0.464045 0.603119 0.858944
O O3 0.326910 0.127839 0.634183
O O4 0.194426 0.159981 0.383250
O O5 0.300460 0.326607 0.403212
O O6 0.327833 0.158436 0.126421
O O7 0.502869 0.892057 0.356500
O O8 0.539572 0.824427 0.808455
O O9 0.408128 0.737636 0.554575
O O10 0.554521 0.685538 0.457593
O O11 0.580426 0.000712 0.999415
O O12 0.134439 0.014288 0.070112
#
# Coordination Sequence:
#
# PCOD9347958 Si02
#       7
#     2   4   4   2   4   4   4
#     4  12  22  44  84 114 142 208 270 312 386 472
#     4  11  28  48  72 112 162 195 250 328 403 450
#     4  11  23  48  77 114 143 207 266 316 382 475
#     4  12  24  46  82 110 154 208 262 316 392 482
#     4  11  24  49  73 106 156 202 245 317 390 459
#     4  12  26  47  78 114 149 208 263 322 391 474
#     4  11  23  48  76 107 152 195 258 325 380 460
#
# _framework density 22.801317999999998
#
# number of rings (size 3 to 8) (size 9 to 14) (size 15 to 20)
#    0.000    0.667    6.667    1.500    4.667    0.000 
#    9.000    0.000    0.000    0.000    0.000    0.000 
#    0.000    0.000    0.000    0.000    0.000    0.000 
#
# Total GULP energy -133755.779843 kJ/mol
# GULP energy per Si atom -5573.157493 kJ/mol
# Density = 2.274942 g / cm^3
# Si number density = 22.801318 Si / 1000 Ang^3
#
#
#
# Elastic Constant Matrix: (Units=GPa)
#
#
# Indices 1 2 3 4 5 6 
#
# 1 110.5886 65.3798 36.2566 0.0000 0.0000 0.0000
# 2 65.3798 83.8167 37.1903 0.0000 0.0000 0.0000
# 3 36.2566 37.1903 110.4953 0.0000 0.0000 0.0000
# 4 0.0000 0.0000 0.0000-2524.7284 0.0000 0.0000
# 5 0.0000 0.0000 0.0000 0.0000 46.8092 0.0000
# 6 0.0000 0.0000 0.0000 0.0000 0.0000 35.9814
#
#
#
# Elastic Compliance Matrix: (Units=1/GPa)
#
#
# Indices 1 2 3 4 5 6 
#
# 1 0.016940 -0.012634 -0.001306 0.000000 0.000000 0.000000
# 2 -0.012634 0.023448 -0.003747 0.000000 0.000000 0.000000
# 3 -0.001306 -0.003747 0.010740 0.000000 0.000000 0.000000
# 4 0.000000 0.000000 0.000000 -0.000396 0.000000 0.000000
# 5 0.000000 0.000000 0.000000 0.000000 0.021363 0.000000
# 6 0.000000 0.000000 0.000000 0.000000 0.000000 0.027792
#
#
# Mechanical properties :
#
#
# Convention : Reuss Voigt Hill
#
# Bulk Modulus (GPa) = 63.47469 64.72824 64.10147
# Shear Modulus (GPa) = 35.58392 -477.31597 -220.86603
#
# Velocity S-wave (km/s) = 3.95474 -14.48418 -9.85270
# Velocity P-wave (km/s) = 6.98225 15.85157 10.06282
#
# Compressibility (1/GPa) = 0.01575431
#
# Stress axis : x y z
#
# Youngs Moduli (GPa) = 59.03143 42.64688 93.11230
#
# Poissons Ratio (x) = 0.53882 0.12161
# Poissons Ratio (y) = 0.74582 0.34885
# Poissons Ratio (z) = 0.07710 0.15978
#
# Static dielectric constant tensor:
#      x y z
#    x 1.868960 0.000000 0.000000 
#    y 0.000000 3.986650 0.000000 
#    z 0.000000 0.000000 1.982260 
# 
# From -- ./inp_files/941.got.cif
#   From: 2010.05.17/outbox.cif.g08.bks.cpg/sg34_1_cif.got.tgz:941.got - 2010.06.03 17:23:11.
