data_PCOD9347775
_publ_section_title
;
Structure prediction by ZEFSAII (Michael W. Deem and Ramdas Pophale) SiO2 
 PCOD9347775
Probable space group: P N N 2
;
_chemical_formula_sum "Si O2"
_cell_formula_units_Z 32
_cell_length_a 27.838409
_cell_length_b 8.751649
_cell_length_c 5.495098
_cell_angle_alpha 90.000000
_cell_angle_beta 90.000000
_cell_angle_gamma 90.000000
_cell_volume 1338.781630
_symmetry_space_group_name_H-M "P N N 2"
_symmetry_group_IT_number 34
_symmetry_cell_setting 'orthorhombic'
loop_
_space_group_symop_operation_xyz
x,y,z
-x,-y,z
1/2-x,1/2+y,1/2+z
1/2+x,1/2-y,1/2+z
loop_
_atom_site_type_symbol
_atom_site_label
_atom_site_fract_x
_atom_site_fract_y
_atom_site_fract_z
Si Si1 0.444028 0.451964 0.284820
Si Si2 0.587131 0.133879 0.594508
Si Si3 0.683149 0.652457 0.487157
Si Si4 0.552421 0.427430 0.796650
Si Si5 0.833445 0.546635 0.471876
Si Si6 0.832644 0.804447 0.827682
Si Si7 0.901823 0.356634 0.839731
Si Si8 0.270248 0.239873 0.984693
O O1 0.500000 0.500000 0.298042
O O2 0.427214 0.490225 0.557849
O O3 0.435400 0.274323 0.230159
O O4 0.421637 0.537128 0.050724
O O5 0.553354 0.247253 0.743289
O O6 0.615761 0.239546 0.404707
O O7 0.631487 0.070106 0.748442
O O8 0.566173 0.983546 0.472948
O O9 0.670494 0.483755 0.385393
O O10 0.636204 0.761010 0.501009
O O11 0.707645 0.663679 0.755072
O O12 0.712623 0.719027 0.255898
O O13 0.500000 0.500000 0.822575
O O14 0.822886 0.717062 0.572786
O O15 0.867486 0.450232 0.657726
O O16 0.787882 0.435518 0.434023
O O17 0.786822 0.742511 0.978768
#
# Coordination Sequence:
#
# PCOD9347775 Si02
#       8
#     4   4   4   4   4   4   4   4
#     4  10  23  45  74 103 136 176 227 284 350 424
#     4  11  24  42  69 100 138 182 234 285 358 415
#     4  11  25  42  65  97 131 187 234 278 346 407
#     4  10  24  45  73 100 139 178 228 290 350 430
#     4  10  24  43  63  98 138 181 233 285 347 417
#     4  11  26  39  67  97 134 184 234 288 342 408
#     4  10  23  42  68 100 140 181 227 289 344 422
#     4  11  25  44  63  94 141 180 231 291 341 405
#
# _framework density 23.902331
#
# number of rings (size 3 to 8) (size 9 to 14) (size 15 to 20)
#    0.000    1.500    1.250    1.500   12.250    1.000 
#    0.000    2.500    0.000    0.000    0.000    0.000 
#    0.000    0.000    0.000    0.000    0.000    0.000 
#
# Total GULP energy -178460.843283 kJ/mol
# GULP energy per Si atom -5576.901353 kJ/mol
# Density = 2.384793 g / cm^3
# Si number density = 23.902331 Si / 1000 Ang^3
#
#
#
# Elastic Constant Matrix: (Units=GPa)
#
#
# Indices 1 2 3 4 5 6 
#
# 1 58.4376 21.6286 4.3569 0.0000 0.0000 0.0000
# 2 21.6286 159.7675 34.6503 0.0000 0.0000 0.0000
# 3 4.3569 34.6503 119.3969 0.0000 0.0000 0.0000
# 4 0.0000 0.0000 0.0000 1816.4669 0.0000 0.0000
# 5 0.0000 0.0000 0.0000 0.0000 -0.6637 0.0000
# 6 0.0000 0.0000 0.0000 0.0000 0.0000 25.5771
#
#
#
# Elastic Compliance Matrix: (Units=1/GPa)
#
#
# Indices 1 2 3 4 5 6 
#
# 1 0.018015 -0.002450 0.000054 0.000000 0.000000 0.000000
# 2 -0.002450 0.007013 -0.001946 0.000000 0.000000 0.000000
# 3 0.000054 -0.001946 0.008938 0.000000 0.000000 0.000000
# 4 0.000000 0.000000 0.000000 0.000551 0.000000 0.000000
# 5 0.000000 0.000000 0.000000 0.000000 -1.506787 0.000000
# 6 0.000000 0.000000 0.000000 0.000000 0.000000 0.039097
#
#
# Mechanical properties :
#
#
# Convention : Reuss Voigt Hill
#
# Bulk Modulus (GPa) = 39.55507 50.98595 45.27051
# Shear Modulus (GPa) = -3.53092 386.74049 191.60478
#
# Velocity S-wave (km/s) = -1.21673 12.73388 8.96301
# Velocity P-wave (km/s) = 3.82239 15.41361 11.22920
#
# Compressibility (1/GPa) = 0.02528121
#
# Stress axis : x y z
#
# Youngs Moduli (GPa) = 55.50861 142.59583 111.88001
#
# Poissons Ratio (x) = 0.34943 -0.00601
# Poissons Ratio (y) = 0.13602 0.21769
# Poissons Ratio (z) = -0.00298 0.27746
#
# Static dielectric constant tensor:
#      x y z
#    x 2.771070 0.000000 0.000000 
#    y 0.000000 1.484320 0.000000 
#    z 0.000000 0.000000 2.013360 
# 
# From -- ./inp_files/1834.got.cif
#   From: 2010.05.17/outbox.cif.g08.bks.cpg/sg34_1_cif.got.tgz:1834.got - 2010.06.03 17:23:11.
