data_PCOD9347494
_publ_section_title
;
Structure prediction by ZEFSAII (Michael W. Deem and Ramdas Pophale) SiO2 
 PCOD9347494
Probable space group: P N N 2
;
_chemical_formula_sum "Si O2"
_cell_formula_units_Z 32
_cell_length_a 11.299960
_cell_length_b 11.630979
_cell_length_c 12.429032
_cell_angle_alpha 90.000000
_cell_angle_beta 90.000000
_cell_angle_gamma 90.000000
_cell_volume 1633.542673
_symmetry_space_group_name_H-M "P N N 2"
_symmetry_group_IT_number 34
_symmetry_cell_setting 'orthorhombic'
loop_
_space_group_symop_operation_xyz
x,y,z
-x,-y,z
1/2-x,1/2+y,1/2+z
1/2+x,1/2-y,1/2+z
loop_
_atom_site_type_symbol
_atom_site_label
_atom_site_fract_x
_atom_site_fract_y
_atom_site_fract_z
Si Si1 0.117815 0.570595 0.843220
Si Si2 0.302005 0.203347 0.034576
Si Si3 0.537287 0.645567 0.774332
Si Si4 0.190611 0.947460 0.474781
Si Si5 0.093553 0.602090 0.316368
Si Si6 0.186675 0.033009 0.181156
Si Si7 0.941890 0.196608 0.740984
Si Si8 0.161327 0.042430 0.707767
O O1 0.215785 0.538420 0.930347
O O2 0.185086 0.524176 0.735837
O O3 0.085218 0.703426 0.825994
O O4 0.000000 0.500000 0.862299
O O5 0.207903 0.111816 0.078675
O O6 0.392292 0.246921 0.129046
O O7 0.246046 0.325266 0.999826
O O8 0.365548 0.140502 0.935824
O O9 0.594440 0.596147 0.885881
O O10 0.539341 0.781056 0.770240
O O11 0.403968 0.604526 0.756455
O O12 0.620096 0.588596 0.681546
O O13 0.143186 0.004895 0.583442
O O14 0.206766 0.570189 0.244291
O O15 0.000000 0.500000 0.319662
O O16 0.076247 0.150884 0.731557
O O17 0.874722 0.077097 0.766043
#
# Coordination Sequence:
#
# PCOD9347494 Si02
#       8
#     4   4   4   4   4   4   4   4
#     4  10  21  34  61  92 118 156 201 253 305 365
#     4   9  20  39  61  90 124 164 204 257 307 368
#     4   9  20  39  65  91 118 161 208 260 302 372
#     4   9  20  38  62  92 122 161 209 252 310 368
#     4  11  25  39  60  92 132 164 200 254 315 371
#     4   9  19  38  66  88 120 157 211 255 306 355
#     4   9  21  40  65  85 119 160 208 254 306 367
#     4  10  22  42  62  90 121 167 204 256 309 367
#
# _framework density 19.589327999999998
#
# number of rings (size 3 to 8) (size 9 to 14) (size 15 to 20)
#    0.000    2.500    0.000    0.000   10.500   13.500 
#    0.000    2.500    0.000    0.000    0.000    0.000 
#    0.000    0.000    0.000    0.000    0.000    0.000 
#
# Total GULP energy -178160.818637 kJ/mol
# GULP energy per Si atom -5567.525582 kJ/mol
# Density = 1.954474 g / cm^3
# Si number density = 19.589328 Si / 1000 Ang^3
#
#
#
# Elastic Constant Matrix: (Units=GPa)
#
#
# Indices 1 2 3 4 5 6 
#
# 1 74.3334 45.4910 19.3615 0.0000 0.0000 0.0000
# 2 45.4910 155.9256 42.9363 0.0000 0.0000 0.0000
# 3 19.3615 42.9363 33.6332 0.0000 0.0000 0.0000
# 4 0.0000 0.0000 0.0000 29.2642 0.0000 0.0000
# 5 0.0000 0.0000 0.0000 0.0000 0.8669 0.0000
# 6 0.0000 0.0000 0.0000 0.0000 0.0000 29.9652
#
#
#
# Elastic Compliance Matrix: (Units=1/GPa)
#
#
# Indices 1 2 3 4 5 6 
#
# 1 0.016972 -0.003487 -0.005319 0.000000 0.000000 0.000000
# 2 -0.003487 0.010606 -0.011533 0.000000 0.000000 0.000000
# 3 -0.005319 -0.011533 0.047517 0.000000 0.000000 0.000000
# 4 0.000000 0.000000 0.000000 0.034171 0.000000 0.000000
# 5 0.000000 0.000000 0.000000 0.000000 1.153485 0.000000
# 6 0.000000 0.000000 0.000000 0.000000 0.000000 0.033372
#
#
# Mechanical properties :
#
#
# Convention : Reuss Voigt Hill
#
# Bulk Modulus (GPa) = 29.05405 53.27443 41.16424
# Shear Modulus (GPa) = 3.70844 22.42614 13.06729
#
# Velocity S-wave (km/s) = 1.37739 3.38718 2.58556
# Velocity P-wave (km/s) = 4.17054 6.52319 5.47473
#
# Compressibility (1/GPa) = 0.03441861
#
# Stress axis : x y z
#
# Youngs Moduli (GPa) = 58.91950 94.28302 21.04500
#
# Poissons Ratio (x) = 0.32877 0.11194
# Poissons Ratio (y) = 0.20545 0.24271
# Poissons Ratio (z) = 0.31338 1.08735
#
# Static dielectric constant tensor:
#      x y z
#    x 1.678340 0.000000 0.000000 
#    y 0.000000 1.697750 0.000000 
#    z 0.000000 0.000000 1.758480 
# 
# From -- ./inp_files/5470.got.cif
#   From: 2010.05.17/outbox.cif.g08.bks.cpg/sg34_3_cif.got.tgz:5470.got - 2010.06.03 17:23:11.
