data_PCOD9347592
_publ_section_title
;
Structure prediction by ZEFSAII (Michael W. Deem and Ramdas Pophale) SiO2 
 PCOD9347592
Probable space group: P N N 2
;
_chemical_formula_sum "Si O2"
_cell_formula_units_Z 22
_cell_length_a 7.502649
_cell_length_b 13.718019
_cell_length_c 9.151902
_cell_angle_alpha 90.000000
_cell_angle_beta 90.000000
_cell_angle_gamma 90.000000
_cell_volume 941.927313
_symmetry_space_group_name_H-M "P N N 2"
_symmetry_group_IT_number 34
_symmetry_cell_setting 'orthorhombic'
loop_
_space_group_symop_operation_xyz
x,y,z
-x,-y,z
1/2-x,1/2+y,1/2+z
1/2+x,1/2-y,1/2+z
loop_
_atom_site_type_symbol
_atom_site_label
_atom_site_fract_x
_atom_site_fract_y
_atom_site_fract_z
Si Si1 0.478483 0.647520 0.794570
Si Si2 0.000000 0.500000 0.247232
Si Si3 0.067256 0.340740 0.459652
Si Si4 0.145003 0.255678 0.741009
Si Si5 0.025027 0.890106 0.968525
Si Si6 0.323278 0.555634 0.073212
O O1 0.410492 0.750531 0.851297
O O2 0.695608 0.672852 0.797597
O O3 0.442179 0.620146 0.629161
O O4 0.372243 0.574883 0.903281
O O5 0.954565 0.415186 0.363512
O O6 0.164346 0.489596 0.135856
O O7 0.014823 0.309833 0.624142
O O8 0.263507 0.381655 0.481211
O O9 0.211128 0.163742 0.640423
O O10 0.048228 0.198415 0.870817
O O11 0.000000 0.000000 0.916824
O O12 0.500000 0.500000 0.123485
#
# Coordination Sequence:
#
# PCOD9347592 Si02
#       6
#     4   2   4   4   4   4
#     4  10  23  44  66  99 141 174 233 287 349 422
#     4  12  22  42  76 104 144 184 238 296 358 426
#     4  10  23  41  66 101 133 179 234 283 349 427
#     4  10  21  42  69  95 135 184 229 280 353 409
#     4  11  23  42  71  98 134 185 226 291 354 412
#     4  11  23  42  71 101 140 185 230 289 351 423
#
# _framework density 23.356365
#
# number of rings (size 3 to 8) (size 9 to 14) (size 15 to 20)
#    0.000    1.455    1.818    3.273    0.000    4.364 
#    0.000    0.000    8.000    0.000    0.000    0.000 
#    0.000    0.000    0.000    0.000    0.000    0.000 
#
# Total GULP energy -122518.521477 kJ/mol
# GULP energy per Si atom -5569.023704 kJ/mol
# Density = 2.330320 g / cm^3
# Si number density = 23.356365 Si / 1000 Ang^3
#
#
#
# Elastic Constant Matrix: (Units=GPa)
#
#
# Indices 1 2 3 4 5 6 
#
# 1 83.8409 4.5602 44.8250 0.0000 0.0000 0.0000
# 2 4.5602 59.0161 43.3368 0.0000 0.0000 0.0000
# 3 44.8250 43.3368 216.5700 0.0000 0.0000 0.0000
# 4 0.0000 0.0000 0.0000 43.8255 0.0000 0.0000
# 5 0.0000 0.0000 0.0000 0.0000 16.2386 0.0000
# 6 0.0000 0.0000 0.0000 0.0000 0.0000 11.3172
#
#
#
# Elastic Compliance Matrix: (Units=1/GPa)
#
#
# Indices 1 2 3 4 5 6 
#
# 1 0.013481 0.001181 -0.003027 0.000000 0.000000 0.000000
# 2 0.001181 0.019967 -0.004240 0.000000 0.000000 0.000000
# 3 -0.003027 -0.004240 0.006092 0.000000 0.000000 0.000000
# 4 0.000000 0.000000 0.000000 0.022818 0.000000 0.000000
# 5 0.000000 0.000000 0.000000 0.000000 0.061582 0.000000
# 6 0.000000 0.000000 0.000000 0.000000 0.000000 0.088361
#
#
# Mechanical properties :
#
#
# Convention : Reuss Voigt Hill
#
# Bulk Modulus (GPa) = 36.53772 60.54120 48.53946
# Shear Modulus (GPa) = 21.40457 32.05660 26.73059
#
# Velocity S-wave (km/s) = 3.03055 3.70875 3.38667
# Velocity P-wave (km/s) = 5.28424 6.65707 6.00998
#
# Compressibility (1/GPa) = 0.02736898
#
# Stress axis : x y z
#
# Youngs Moduli (GPa) = 74.17698 50.08347 164.14183
#
# Poissons Ratio (x) = -0.05914 0.49679
# Poissons Ratio (y) = -0.08759 0.69593
# Poissons Ratio (z) = 0.22450 0.21235
#
# Static dielectric constant tensor:
#      x y z
#    x 2.089400 0.000000 0.000000 
#    y 0.000000 1.856180 0.000000 
#    z 0.000000 0.000000 1.936770 
# 
# From -- ./inp_files/2599.got.cif
#   From: 2010.05.17/outbox.cif.g08.bks.cpg/sg34_2_cif.got.tgz:2599.got - 2010.06.03 17:23:11.
