data_PCOD9347610
_publ_section_title
;
Structure prediction by ZEFSAII (Michael W. Deem and Ramdas Pophale) SiO2 
 PCOD9347610
Probable space group: P N N 2
;
_chemical_formula_sum "Si O2"
_cell_formula_units_Z 24
_cell_length_a 11.348041
_cell_length_b 9.204869
_cell_length_c 10.752627
_cell_angle_alpha 90.000000
_cell_angle_beta 90.000000
_cell_angle_gamma 90.000000
_cell_volume 1123.189640
_symmetry_space_group_name_H-M "P N N 2"
_symmetry_group_IT_number 34
_symmetry_cell_setting 'orthorhombic'
loop_
_space_group_symop_operation_xyz
x,y,z
-x,-y,z
1/2-x,1/2+y,1/2+z
1/2+x,1/2-y,1/2+z
loop_
_atom_site_type_symbol
_atom_site_label
_atom_site_fract_x
_atom_site_fract_y
_atom_site_fract_z
Si Si1 0.707024 0.748018 0.255800
Si Si2 0.528535 0.168358 0.120192
Si Si3 0.416740 0.369667 0.487390
Si Si4 0.563577 0.154699 0.637892
Si Si5 0.731779 0.584668 0.739278
Si Si6 0.971895 0.169512 0.374524
O O1 0.577866 0.764649 0.197987
O O2 0.683359 0.672161 0.388056
O O3 0.795730 0.663718 0.161972
O O4 0.748184 0.915650 0.272062
O O5 0.648374 0.161196 0.197372
O O6 0.500000 0.000000 0.088863
O O7 0.527954 0.261074 0.995465
O O8 0.500000 0.500000 0.443443
O O9 0.507115 0.239281 0.521128
O O10 0.352512 0.412998 0.616988
O O11 0.522055 0.241601 0.759543
O O12 0.500000 0.000000 0.639360
O O13 0.668875 0.669846 0.851727
O O14 0.000000 0.000000 0.366490
#
# Coordination Sequence:
#
# PCOD9347610 Si02
#       6
#     4   4   4   4   4   4
#     4  11  23  43  69  99 140 178 232 288 349 426
#     4  10  24  41  64  99 137 177 227 287 352 415
#     4  11  23  44  72  96 136 184 226 293 355 411
#     4  11  23  44  68 100 134 180 235 279 351 425
#     4  10  21  44  69  97 138 179 231 287 346 421
#     4  11  21  41  70  91 133 179 226 287 348 411
#
# _framework density 21.367719999999998
#
# number of rings (size 3 to 8) (size 9 to 14) (size 15 to 20)
#    0.000    1.333    3.333    2.500    0.000    6.667 
#    9.000    0.000    0.000    0.000    0.000    0.000 
#    0.000    0.000    0.000    0.000    0.000    0.000 
#
# Total GULP energy -134019.907342 kJ/mol
# GULP energy per Si atom -5584.162806 kJ/mol
# Density = 2.131909 g / cm^3
# Si number density = 21.367720 Si / 1000 Ang^3
#
#
#
# Elastic Constant Matrix: (Units=GPa)
#
#
# Indices 1 2 3 4 5 6 
#
# 1 146.9075 46.8667 19.9431 0.0000 0.0000 0.0000
# 2 46.8667 92.9518 42.0598 0.0000 0.0000 0.0000
# 3 19.9431 42.0598 43.5984 0.0000 0.0000 0.0000
# 4 0.0000 0.0000 0.0000 18.8238 0.0000 0.0000
# 5 0.0000 0.0000 0.0000 0.0000 12.8647 0.0000
# 6 0.0000 0.0000 0.0000 0.0000 0.0000 29.5623
#
#
#
# Elastic Compliance Matrix: (Units=1/GPa)
#
#
# Indices 1 2 3 4 5 6 
#
# 1 0.008116 -0.004281 0.000417 0.000000 0.000000 0.000000
# 2 -0.004281 0.021351 -0.018639 0.000000 0.000000 0.000000
# 3 0.000417 -0.018639 0.040727 0.000000 0.000000 0.000000
# 4 0.000000 0.000000 0.000000 0.053124 0.000000 0.000000
# 5 0.000000 0.000000 0.000000 0.000000 0.077732 0.000000
# 6 0.000000 0.000000 0.000000 0.000000 0.000000 0.033827
#
#
# Mechanical properties :
#
#
# Convention : Reuss Voigt Hill
#
# Bulk Modulus (GPa) = 39.70062 55.68856 47.69459
# Shear Modulus (GPa) = 17.34434 23.88936 20.61685
#
# Velocity S-wave (km/s) = 2.85214 3.34730 3.10959
# Velocity P-wave (km/s) = 5.42829 6.40763 5.93819
#
# Compressibility (1/GPa) = 0.02518852
#
# Stress axis : x y z
#
# Youngs Moduli (GPa) = 123.21212 46.83680 24.55381
#
# Poissons Ratio (x) = 0.20051 -0.01025
# Poissons Ratio (y) = 0.52748 0.45766
# Poissons Ratio (z) = -0.05143 0.87299
#
# Static dielectric constant tensor:
#      x y z
#    x 2.059000 0.000000 0.000000 
#    y 0.000000 1.737900 0.000000 
#    z 0.000000 0.000000 1.801280 
# 
# From -- ./inp_files/4903.got.cif
#   From: 2010.05.17/outbox.cif.g08.bks.cpg/sg34_3_cif.got.tgz:4903.got - 2010.06.03 17:23:11.
