data_PCOD9347417
_publ_section_title
;
Structure prediction by ZEFSAII (Michael W. Deem and Ramdas Pophale) SiO2 
 PCOD9347417
Probable space group: P N N 2
;
_chemical_formula_sum "Si O2"
_cell_formula_units_Z 32
_cell_length_a 10.812562
_cell_length_b 9.424601
_cell_length_c 15.555310
_cell_angle_alpha 90.000000
_cell_angle_beta 90.000000
_cell_angle_gamma 90.000000
_cell_volume 1585.149596
_symmetry_space_group_name_H-M "P N N 2"
_symmetry_group_IT_number 34
_symmetry_cell_setting 'orthorhombic'
loop_
_space_group_symop_operation_xyz
x,y,z
-x,-y,z
1/2-x,1/2+y,1/2+z
1/2+x,1/2-y,1/2+z
loop_
_atom_site_type_symbol
_atom_site_label
_atom_site_fract_x
_atom_site_fract_y
_atom_site_fract_z
Si Si1 0.976401 0.840619 0.495240
Si Si2 0.507721 0.168581 0.834913
Si Si3 0.322348 0.292863 0.132049
Si Si4 0.895208 0.383947 0.901267
Si Si5 0.287353 0.276948 0.748970
Si Si6 0.688752 0.394104 0.751073
Si Si7 0.488616 0.667198 0.290189
Si Si8 0.275136 0.090576 0.587457
O O1 0.864848 0.864514 0.561701
O O2 0.943589 0.719689 0.427444
O O3 0.098264 0.792789 0.545696
O O4 0.000000 0.000000 0.456253
O O5 0.366282 0.217380 0.827739
O O6 0.586926 0.272934 0.772621
O O7 0.500000 0.000000 0.819913
O O8 0.247073 0.156646 0.160969
O O9 0.419926 0.305225 0.210100
O O10 0.236782 0.432024 0.124966
O O11 0.782559 0.393921 0.833323
O O12 0.000000 0.500000 0.881770
O O13 0.959736 0.237055 0.876820
O O14 0.849737 0.401806 0.998534
O O15 0.331202 0.438915 0.740840
O O16 0.143807 0.237910 0.767239
O O17 0.322114 0.192272 0.662415
O O18 0.500000 0.500000 0.300205
#
# Coordination Sequence:
#
# PCOD9347417 Si02
#       8
#     4   4   4   4   4   4   4   4
#     4  10  20  39  65  97 131 173 221 276 335 404
#     4  12  27  43  65  97 136 177 229 284 349 413
#     4  10  21  38  69  98 133 172 228 280 334 413
#     4  11  24  41  69 102 138 179 227 289 347 420
#     4  12  24  42  71  97 136 181 230 283 352 415
#     4  11  24  45  67  98 137 179 231 281 347 413
#     4  11  21  41  69 102 132 178 235 285 348 414
#     4  11  22  41  66 100 142 177 222 281 349 412
#
# _framework density 20.187366999999998
#
# number of rings (size 3 to 8) (size 9 to 14) (size 15 to 20)
#    0.000    1.000    5.000    2.250    3.500    2.500 
#    0.000    2.500    0.000    0.000    0.000    0.000 
#    0.000    0.000    0.000    0.000    0.000    0.000 
#
# Total GULP energy -178409.822549 kJ/mol
# GULP energy per Si atom -5575.306955 kJ/mol
# Density = 2.014142 g / cm^3
# Si number density = 20.187367 Si / 1000 Ang^3
#
#
#
# Elastic Constant Matrix: (Units=GPa)
#
#
# Indices 1 2 3 4 5 6 
#
# 1 38.3322 26.8287 16.3207 0.0000 0.0000 0.0000
# 2 26.8287 130.4896 16.2363 0.0000 0.0000 0.0000
# 3 16.3207 16.2363 49.7197 0.0000 0.0000 0.0000
# 4 0.0000 0.0000 0.0000 25.3661 0.0000 0.0000
# 5 0.0000 0.0000 0.0000 0.0000 28.6299 0.0000
# 6 0.0000 0.0000 0.0000 0.0000 0.0000 29.4555
#
#
#
# Elastic Compliance Matrix: (Units=1/GPa)
#
#
# Indices 1 2 3 4 5 6 
#
# 1 0.034150 -0.005865 -0.009295 0.000000 0.000000 0.000000
# 2 -0.005865 0.008995 -0.001012 0.000000 0.000000 0.000000
# 3 -0.009295 -0.001012 0.023494 0.000000 0.000000 0.000000
# 4 0.000000 0.000000 0.000000 0.039423 0.000000 0.000000
# 5 0.000000 0.000000 0.000000 0.000000 0.034929 0.000000
# 6 0.000000 0.000000 0.000000 0.000000 0.000000 0.033950
#
#
# Mechanical properties :
#
#
# Convention : Reuss Voigt Hill
#
# Bulk Modulus (GPa) = 29.15797 37.47922 33.31859
# Shear Modulus (GPa) = 22.86074 27.30068 25.08071
#
# Velocity S-wave (km/s) = 3.36881 3.68144 3.52859
# Velocity P-wave (km/s) = 5.44122 6.05613 5.75689
#
# Compressibility (1/GPa) = 0.03429595
#
# Stress axis : x y z
#
# Youngs Moduli (GPa) = 29.28271 111.17044 42.56343
#
# Poissons Ratio (x) = 0.65198 0.39561
# Poissons Ratio (y) = 0.17174 0.04309
# Poissons Ratio (z) = 0.27217 0.11254
#
# Static dielectric constant tensor:
#      x y z
#    x 1.780340 0.000000 0.000000 
#    y 0.000000 1.759570 0.000000 
#    z 0.000000 0.000000 1.686560 
# 
# From -- ./inp_files/6586.got.cif
#   From: 2010.05.17/outbox.cif.g08.bks.cpg/sg34_4_cif.got.tgz:6586.got - 2010.06.03 17:23:11.
