data_PCOD9347740
_publ_section_title
;
Structure prediction by ZEFSAII (Michael W. Deem and Ramdas Pophale) SiO2 
 PCOD9347740
Probable space group: P N N 2
;
_chemical_formula_sum "Si O2"
_cell_formula_units_Z 14
_cell_length_a 9.949082
_cell_length_b 7.414618
_cell_length_c 8.075991
_cell_angle_alpha 90.000000
_cell_angle_beta 90.000000
_cell_angle_gamma 90.000000
_cell_volume 595.754893
_symmetry_space_group_name_H-M "P N N 2"
_symmetry_group_IT_number 34
_symmetry_cell_setting 'orthorhombic'
loop_
_space_group_symop_operation_xyz
x,y,z
-x,-y,z
1/2-x,1/2+y,1/2+z
1/2+x,1/2-y,1/2+z
loop_
_atom_site_type_symbol
_atom_site_label
_atom_site_fract_x
_atom_site_fract_y
_atom_site_fract_z
Si Si1 0.772102 0.777340 0.521240
Si Si2 0.996792 0.315260 0.931963
Si Si3 0.347432 0.583913 0.657270
Si Si4 0.500000 0.500000 0.207264
O O1 0.623035 0.856467 0.560724
O O2 0.753225 0.572614 0.590810
O O3 0.805579 0.824450 0.329309
O O4 0.887314 0.889576 0.612346
O O5 0.938957 0.151438 0.825792
O O6 0.000000 0.500000 0.832719
O O7 0.129352 0.236233 0.016162
O O8 0.500000 0.500000 0.676798
#
# Coordination Sequence:
#
# PCOD9347740 Si02
#       4
#     4   4   4   2
#     4  11  23  45  74 103 150 192 249 314 372 459
#     4  11  25  45  72 105 149 193 247 314 374 456
#     4  10  22  47  73 106 149 196 251 308 385 452
#     4  12  24  46  72 108 144 196 256 304 386 444
#
# _framework density 23.499597000000001
#
# number of rings (size 3 to 8) (size 9 to 14) (size 15 to 20)
#    0.000    1.143    5.714    1.714    4.000    0.000 
#    0.000    4.286    0.000    0.000    0.000    0.000 
#    0.000    0.000    0.000    0.000    0.000    0.000 
#
# Total GULP energy -77969.002839 kJ/mol
# GULP energy per Si atom -5569.214489 kJ/mol
# Density = 2.344611 g / cm^3
# Si number density = 23.499597 Si / 1000 Ang^3
#
#
#
# Elastic Constant Matrix: (Units=GPa)
#
#
# Indices 1 2 3 4 5 6 
#
# 1 108.2772 69.1709 45.2108 0.0000 0.0000 0.0000
# 2 69.1709 228.2842 81.8929 0.0000 0.0000 0.0000
# 3 45.2108 81.8929 130.6798 0.0000 0.0000 0.0000
# 4 0.0000 0.0000 0.0000 -6.2802 0.0000 0.0000
# 5 0.0000 0.0000 0.0000 0.0000 26.7662 0.0000
# 6 0.0000 0.0000 0.0000 0.0000 0.0000 51.8338
#
#
#
# Elastic Compliance Matrix: (Units=1/GPa)
#
#
# Indices 1 2 3 4 5 6 
#
# 1 0.012018 -0.002773 -0.002420 0.000000 0.000000 0.000000
# 2 -0.002773 0.006291 -0.002983 0.000000 0.000000 0.000000
# 3 -0.002420 -0.002983 0.010359 0.000000 0.000000 0.000000
# 4 0.000000 0.000000 0.000000 -0.159230 0.000000 0.000000
# 5 0.000000 0.000000 0.000000 0.000000 0.037361 0.000000
# 6 0.000000 0.000000 0.000000 0.000000 0.000000 0.019292
#
#
# Mechanical properties :
#
#
# Convention : Reuss Voigt Hill
#
# Bulk Modulus (GPa) = 81.19918 95.53228 88.36573
# Shear Modulus (GPa) = -93.53984 32.52838 -30.50573
#
# Velocity S-wave (km/s) = -6.31595 3.72453 -3.60688
# Velocity P-wave (km/s) = 4.30812 7.69657 4.50984
#
# Compressibility (1/GPa) = 0.01231540
#
# Stress axis : x y z
#
# Youngs Moduli (GPa) = 83.21131 158.96057 96.53751
#
# Poissons Ratio (x) = 0.44085 0.23359
# Poissons Ratio (y) = 0.23077 0.28795
# Poissons Ratio (z) = 0.20135 0.47415
#
# Static dielectric constant tensor:
#      x y z
#    x 2.081120 0.000000 0.000000 
#    y 0.000000 1.976610 0.000000 
#    z 0.000000 0.000000 1.963460 
# 
# From -- ./inp_files/2249.got.cif
#   From: 2010.05.17/outbox.cif.g08.bks.cpg/sg34_2_cif.got.tgz:2249.got - 2010.06.03 17:23:11.
