data_PCOD9347011
_publ_section_title
;
Structure prediction by ZEFSAII (Michael W. Deem and Ramdas Pophale) SiO2 
 PCOD9347011
Probable space group: P N A 21
;
_chemical_formula_sum "Si O2"
_cell_formula_units_Z 28
_cell_length_a 15.230897
_cell_length_b 5.043947
_cell_length_c 14.718145
_cell_angle_alpha 90.000000
_cell_angle_beta 90.000000
_cell_angle_gamma 90.000000
_cell_volume 1130.704376
_symmetry_space_group_name_H-M "P N A 21"
_symmetry_group_IT_number 33
_symmetry_cell_setting 'orthorhombic'
loop_
_space_group_symop_operation_xyz
x,y,z
-x,-y,1/2+z
1/2-x,1/2+y,1/2+z
1/2+x,1/2-y,z
loop_
_atom_site_type_symbol
_atom_site_label
_atom_site_fract_x
_atom_site_fract_y
_atom_site_fract_z
Si Si1 0.576905 0.879437 0.378930
Si Si2 0.537529 0.039342 0.716698
Si Si3 0.793058 0.836380 0.137093
Si Si4 0.184349 0.107857 0.420932
Si Si5 0.909836 0.838867 0.465816
Si Si6 0.838688 0.145469 0.305222
Si Si7 0.390112 0.132950 0.578497
O O1 0.527193 0.811761 0.285898
O O2 0.658399 0.686615 0.393072
O O3 0.503884 0.797440 0.452060
O O4 0.611096 0.178445 0.387843
O O5 0.626812 0.164546 0.677412
O O6 0.470591 0.009390 0.634072
O O7 0.572480 0.795294 0.776624
O O8 0.691272 0.750729 0.136474
O O9 0.794599 0.077376 0.208919
O O10 0.813549 0.872835 0.030429
O O11 0.272518 0.192264 0.368670
O O12 0.855620 0.622219 0.522253
O O13 0.865597 0.899132 0.368853
O O14 0.918497 0.121250 0.515595
#
# Coordination Sequence:
#
# PCOD9347011 Si02
#       7
#     4   4   4   4   4   4   4
#     4  12  27  51  83 115 166 217 267 347 414 497
#     4  12  29  51  81 123 161 218 277 345 411 499
#     4  12  29  50  84 117 166 212 284 339 412 508
#     4  12  30  50  82 122 163 221 277 340 428 495
#     4  12  26  53  77 113 163 210 267 339 411 490
#     4  12  29  51  81 119 169 214 277 350 415 495
#     4  12  30  50  82 119 162 214 271 342 415 494
#
# _framework density 24.763324000000001
#
# number of rings (size 3 to 8) (size 9 to 14) (size 15 to 20)
#    0.000    0.000    2.857    5.143   14.000    0.000 
#    0.000    0.000    0.000    0.000    0.000    0.000 
#    0.000    0.000    0.000    0.000    0.000    0.000 
#
# Total GULP energy -156640.069346 kJ/mol
# GULP energy per Si atom -5594.288191 kJ/mol
# Density = 2.470696 g / cm^3
# Si number density = 24.763324 Si / 1000 Ang^3
#
#
#
# Elastic Constant Matrix: (Units=GPa)
#
#
# Indices 1 2 3 4 5 6 
#
# 1 117.1740 11.2349 68.2045 0.0000 0.0000 0.0000
# 2 11.2349 66.7608 47.4387 0.0000 0.0000 0.0000
# 3 68.2045 47.4387 160.3692 0.0000 0.0000 0.0000
# 4 0.0000 0.0000 0.0000 34.0020 0.0000 0.0000
# 5 0.0000 0.0000 0.0000 0.0000 32.1561 0.0000
# 6 0.0000 0.0000 0.0000 0.0000 0.0000 50.2651
#
#
#
# Elastic Compliance Matrix: (Units=1/GPa)
#
#
# Indices 1 2 3 4 5 6 
#
# 1 0.011541 0.001957 -0.005487 0.000000 0.000000 0.000000
# 2 0.001957 0.019297 -0.006540 0.000000 0.000000 0.000000
# 3 -0.005487 -0.006540 0.010504 0.000000 0.000000 0.000000
# 4 0.000000 0.000000 0.000000 0.029410 0.000000 0.000000
# 5 0.000000 0.000000 0.000000 0.000000 0.031098 0.000000
# 6 0.000000 0.000000 0.000000 0.000000 0.000000 0.019895
#
#
# Mechanical properties :
#
#
# Convention : Reuss Voigt Hill
#
# Bulk Modulus (GPa) = 47.16926 66.45114 56.81020
# Shear Modulus (GPa) = 33.56774 37.77970 35.67372
#
# Velocity S-wave (km/s) = 3.68576 3.91017 3.79962
# Velocity P-wave (km/s) = 6.09939 6.87595 6.49928
#
# Compressibility (1/GPa) = 0.02120025
#
# Stress axis : x y z
#
# Youngs Moduli (GPa) = 86.65088 51.82133 95.20217
#
# Poissons Ratio (x) = -0.10141 0.52238
# Poissons Ratio (y) = -0.16956 0.62267
# Poissons Ratio (z) = 0.47545 0.33894
#
# Static dielectric constant tensor:
#      x y z
#    x 2.017790 0.000000 0.000000 
#    y 0.000000 1.997650 0.000000 
#    z 0.000000 0.000000 2.018260 
# 
# From -- ./inp_files/8082.got.cif
#   From: 2010.05.17/outbox.cif.g08.bks.cpg/sg33_5_cif.got.tgz:8082.got - 2010.06.03 17:15:25.
