data_PCOD9347230
_publ_section_title
;
Structure prediction by ZEFSAII (Michael W. Deem and Ramdas Pophale) SiO2 
 PCOD9347230
Probable space group: P N N 2
;
_chemical_formula_sum "Si O2"
_cell_formula_units_Z 24
_cell_length_a 8.944447
_cell_length_b 8.183446
_cell_length_c 16.863804
_cell_angle_alpha 90.000000
_cell_angle_beta 90.000000
_cell_angle_gamma 90.000000
_cell_volume 1234.369727
_symmetry_space_group_name_H-M "P N N 2"
_symmetry_group_IT_number 34
_symmetry_cell_setting 'orthorhombic'
loop_
_space_group_symop_operation_xyz
x,y,z
-x,-y,z
1/2-x,1/2+y,1/2+z
1/2+x,1/2-y,1/2+z
loop_
_atom_site_type_symbol
_atom_site_label
_atom_site_fract_x
_atom_site_fract_y
_atom_site_fract_z
Si Si1 0.176200 0.490474 0.063280
Si Si2 0.408870 0.658617 0.943661
Si Si3 0.844417 0.914361 0.716072
Si Si4 0.800234 0.103803 0.877247
Si Si5 0.284481 0.201564 0.973127
Si Si6 0.922182 0.675239 0.839937
O O1 0.222296 0.557786 0.149130
O O2 0.000000 0.500000 0.046748
O O3 0.282285 0.598012 0.005233
O O4 0.220436 0.300632 0.048135
O O5 0.500000 0.500000 0.918063
O O6 0.323430 0.756312 0.876713
O O7 0.537310 0.777926 0.977626
O O8 0.881945 0.735188 0.751099
O O9 0.793018 0.004410 0.796187
O O10 0.000000 0.000000 0.688889
O O11 0.959536 0.193715 0.876191
O O12 0.767037 0.981495 0.950648
O O13 0.218529 0.307210 0.898410
O O14 0.000000 0.500000 0.841389
#
# Coordination Sequence:
#
# PCOD9347230 Si02
#       6
#     4   4   4   4   4   4
#     4  11  22  37  57  81 115 155 194 239 299 355
#     4  10  20  34  56  83 113 147 189 239 289 345
#     4   9  20  37  57  82 117 156 192 236 293 349
#     4  10  20  36  59  87 114 149 196 240 289 350
#     4  10  19  33  57  83 113 149 191 241 288 345
#     4  10  19  35  60  86 116 154 196 243 289 348
#
# _framework density 19.44312
#
# number of rings (size 3 to 8) (size 9 to 14) (size 15 to 20)
#    0.000    2.000    0.000    7.000    0.000    2.667 
#    0.000    5.000    0.000    2.000    0.000    0.000 
#    0.000    0.000    0.000    0.000    0.000    0.000 
#
# Total GULP energy -133747.063686 kJ/mol
# GULP energy per Si atom -5572.794320 kJ/mol
# Density = 1.939887 g / cm^3
# Si number density = 19.443120 Si / 1000 Ang^3
#
#
#
# Elastic Constant Matrix: (Units=GPa)
#
#
# Indices 1 2 3 4 5 6 
#
# 1 134.0472 37.8188 35.3503 0.0000 0.0000 0.0000
# 2 37.8188 98.8497 37.6878 0.0000 0.0000 0.0000
# 3 35.3503 37.6878 37.1410 0.0000 0.0000 0.0000
# 4 0.0000 0.0000 0.0000 17.6418 0.0000 0.0000
# 5 0.0000 0.0000 0.0000 0.0000 25.1482 0.0000
# 6 0.0000 0.0000 0.0000 0.0000 0.0000 34.6969
#
#
#
# Elastic Compliance Matrix: (Units=1/GPa)
#
#
# Indices 1 2 3 4 5 6 
#
# 1 0.009966 -0.000320 -0.009161 0.000000 0.000000 0.000000
# 2 -0.000320 0.016510 -0.016448 0.000000 0.000000 0.000000
# 3 -0.009161 -0.016448 0.052334 0.000000 0.000000 0.000000
# 4 0.000000 0.000000 0.000000 0.056684 0.000000 0.000000
# 5 0.000000 0.000000 0.000000 0.000000 0.039764 0.000000
# 6 0.000000 0.000000 0.000000 0.000000 0.000000 0.028821
#
#
# Mechanical properties :
#
#
# Convention : Reuss Voigt Hill
#
# Bulk Modulus (GPa) = 37.10352 54.63909 45.87130
# Shear Modulus (GPa) = 18.87353 26.10944 22.49149
#
# Velocity S-wave (km/s) = 3.11899 3.66848 3.40484
# Velocity P-wave (km/s) = 5.66528 6.79019 6.25308
#
# Compressibility (1/GPa) = 0.02695162
#
# Stress axis : x y z
#
# Youngs Moduli (GPa) = 100.33861 60.56929 19.10812
#
# Poissons Ratio (x) = 0.01940 0.17504
# Poissons Ratio (y) = 0.03214 0.31429
# Poissons Ratio (z) = 0.91917 0.99625
#
# Static dielectric constant tensor:
#      x y z
#    x 1.718220 0.000000 0.000000 
#    y 0.000000 1.754560 0.000000 
#    z 0.000000 0.000000 1.678310 
# 
# From -- ./inp_files/6414.got.cif
#   From: 2010.05.17/outbox.cif.g08.bks.cpg/sg34_4_cif.got.tgz:6414.got - 2010.06.03 17:23:11.
