data_PCOD9347724
_publ_section_title
;
Structure prediction by ZEFSAII (Michael W. Deem and Ramdas Pophale) SiO2 
 PCOD9347724
Probable space group: P N N 2
;
_chemical_formula_sum "Si O2"
_cell_formula_units_Z 18
_cell_length_a 18.302091
_cell_length_b 6.074339
_cell_length_c 7.012856
_cell_angle_alpha 90.000000
_cell_angle_beta 90.000000
_cell_angle_gamma 90.000000
_cell_volume 779.640977
_symmetry_space_group_name_H-M "P N N 2"
_symmetry_group_IT_number 34
_symmetry_cell_setting 'orthorhombic'
loop_
_space_group_symop_operation_xyz
x,y,z
-x,-y,z
1/2-x,1/2+y,1/2+z
1/2+x,1/2-y,1/2+z
loop_
_atom_site_type_symbol
_atom_site_label
_atom_site_fract_x
_atom_site_fract_y
_atom_site_fract_z
Si Si1 0.347249 0.691892 0.857490
Si Si2 0.500000 0.000000 0.497216
Si Si3 0.609096 0.285660 0.256917
Si Si4 0.398459 0.368082 0.551146
Si Si5 0.259822 0.083234 0.653443
O O1 0.178084 0.741772 0.070928
O O2 0.299750 0.888661 0.766597
O O3 0.399515 0.758782 0.032310
O O4 0.292380 0.527995 0.972564
O O5 0.564776 0.103327 0.370323
O O6 0.461167 0.197664 0.606392
O O7 0.587200 0.524470 0.343509
O O8 0.697537 0.294596 0.281096
O O9 0.390283 0.570151 0.693861
#
# Coordination Sequence:
#
# PCOD9347724 Si02
#       5
#     4   2   4   4   4
#     4  10  24  44  76 108 141 188 253 304 364 432
#     4  12  28  48  72 104 162 200 236 306 388 442
#     4  10  24  48  71 105 146 194 239 302 366 445
#     4  12  25  46  75 107 149 191 247 304 376 441
#     4  10  22  44  79 107 141 183 252 311 360 428
#
# _framework density 23.087548999999999
#
# number of rings (size 3 to 8) (size 9 to 14) (size 15 to 20)
#    1.333    0.000    2.222    2.000    6.222    1.778 
#    0.000   16.667    0.000    0.000    0.000    0.000 
#    0.000    0.000    0.000    0.000    0.000    0.000 
#
# Total GULP energy -100380.257300 kJ/mol
# GULP energy per Si atom -5576.680961 kJ/mol
# Density = 2.303500 g / cm^3
# Si number density = 23.087549 Si / 1000 Ang^3
#
#
#
# Elastic Constant Matrix: (Units=GPa)
#
#
# Indices 1 2 3 4 5 6 
#
# 1 126.5507 55.1437 31.1759 0.0000 0.0000 0.0000
# 2 55.1437 76.6892 37.2916 0.0000 0.0000 0.0000
# 3 31.1759 37.2916 87.5812 0.0000 0.0000 0.0000
# 4 0.0000 0.0000 0.0000 20.3777 0.0000 0.0000
# 5 0.0000 0.0000 0.0000 0.0000 26.2019 0.0000
# 6 0.0000 0.0000 0.0000 0.0000 0.0000 64.5823
#
#
#
# Elastic Compliance Matrix: (Units=1/GPa)
#
#
# Indices 1 2 3 4 5 6 
#
# 1 0.011544 -0.007948 -0.000725 0.000000 0.000000 0.000000
# 2 -0.007948 0.021917 -0.006503 0.000000 0.000000 0.000000
# 3 -0.000725 -0.006503 0.014445 0.000000 0.000000 0.000000
# 4 0.000000 0.000000 0.000000 0.049073 0.000000 0.000000
# 5 0.000000 0.000000 0.000000 0.000000 0.038165 0.000000
# 6 0.000000 0.000000 0.000000 0.000000 0.000000 0.015484
#
#
# Mechanical properties :
#
#
# Convention : Reuss Voigt Hill
#
# Bulk Modulus (GPa) = 56.96758 59.78260 58.37509
# Shear Modulus (GPa) = 26.76205 33.37969 30.07087
#
# Velocity S-wave (km/s) = 3.40833 3.80648 3.61289
# Velocity P-wave (km/s) = 6.34170 6.72823 6.53782
#
# Compressibility (1/GPa) = 0.01755384
#
# Stress axis : x y z
#
# Youngs Moduli (GPa) = 86.62553 45.62672 69.22850
#
# Poissons Ratio (x) = 0.36265 0.05019
# Poissons Ratio (y) = 0.68852 0.45018
# Poissons Ratio (z) = 0.06280 0.29670
#
# Static dielectric constant tensor:
#      x y z
#    x 1.894310 0.000000 0.000000 
#    y 0.000000 1.873690 0.000000 
#    z 0.000000 0.000000 1.909780 
# 
# From -- ./inp_files/3783.got.cif
#   From: 2010.05.17/outbox.cif.g08.bks.cpg/sg34_2_cif.got.tgz:3783.got - 2010.06.03 17:23:11.
