data_PCOD9347082
_publ_section_title
;
Structure prediction by ZEFSAII (Michael W. Deem and Ramdas Pophale) SiO2 
 PCOD9347082
Probable space group: P N A 21
;
_chemical_formula_sum "Si O2"
_cell_formula_units_Z 24
_cell_length_a 15.000000
_cell_length_b 9.000000
_cell_length_c 9.000000
_cell_angle_alpha 90.000000
_cell_angle_beta 90.000000
_cell_angle_gamma 90.000000
_cell_volume 1215.000000
_symmetry_space_group_name_H-M "P N A 21"
_symmetry_group_IT_number 33
_symmetry_cell_setting 'orthorhombic'
loop_
_space_group_symop_operation_xyz
x,y,z
-x,-y,1/2+z
1/2-x,1/2+y,1/2+z
1/2+x,1/2-y,z
loop_
_atom_site_type_symbol
_atom_site_label
_atom_site_fract_x
_atom_site_fract_y
_atom_site_fract_z
Si Si1 0.376768 0.375495 0.239600
Si Si2 0.676200 0.053610 0.176822
Si Si3 0.634964 0.110048 0.523708
Si Si4 0.017624 0.174300 0.719266
Si Si5 0.004623 0.669129 0.533632
Si Si6 0.666835 0.709009 0.073405
O O1 0.279499 0.393528 0.160518
O O2 0.422342 0.535178 0.269903
O O3 0.448624 0.293843 0.135402
O O4 0.357973 0.294654 0.397439
O O5 0.650837 0.095205 0.346834
O O6 0.596128 0.127330 0.082289
O O7 0.674659 0.877466 0.136794
O O8 0.575184 0.244150 0.589855
O O9 0.736157 0.128350 0.589041
O O10 0.572916 0.967948 0.557739
O O11 0.918738 0.137146 0.656439
O O12 0.001461 0.279745 0.862126
#
# Coordination Sequence:
#
# PCOD9347082 Si02
#       6
#     4   4   4   4   4   4
#     4  11  27  44  67 107 138 185 237 293 354 422
#     4  11  24  45  69 102 137 188 234 287 359 416
#     4  11  23  43  72  99 138 183 237 289 349 424
#     4  12  24  45  71 102 144 181 235 298 353 420
#     4  12  25  43  72 105 138 184 241 286 367 416
#     4  11  23  44  71  95 147 183 232 293 350 422
#
# _framework density 19.753086
#
# number of rings (size 3 to 8) (size 9 to 14) (size 15 to 20)
#    0.000    0.667    5.000    2.000    2.333    5.333 
#    0.000    0.000    0.000    0.000    0.000    0.000 
#    0.000    0.000    0.000    0.000    0.000    0.000 
#
# Total GULP energy -134028.818141 kJ/mol
# GULP energy per Si atom -5584.534089 kJ/mol
# Density = 1.970813 g / cm^3
# Si number density = 19.753086 Si / 1000 Ang^3
#
#
#
# Elastic Constant Matrix: (Units=GPa)
#
#
# Indices 1 2 3 4 5 6 
#
# 1 190.1808 31.5581 40.2392 0.0000 0.0000 0.0000
# 2 31.5581 68.1787 26.2254 0.0000 0.0000 0.0000
# 3 40.2392 26.2254 82.2070 0.0000 0.0000 0.0000
# 4 0.0000 0.0000 0.0000 30.7816 0.0000 0.0000
# 5 0.0000 0.0000 0.0000 0.0000 43.2967 0.0000
# 6 0.0000 0.0000 0.0000 0.0000 0.0000 40.2136
#
#
#
# Elastic Compliance Matrix: (Units=1/GPa)
#
#
# Indices 1 2 3 4 5 6 
#
# 1 0.006074 -0.001901 -0.002367 0.000000 0.000000 0.000000
# 2 -0.001901 0.017314 -0.004593 0.000000 0.000000 0.000000
# 3 -0.002367 -0.004593 0.014788 0.000000 0.000000 0.000000
# 4 0.000000 0.000000 0.000000 0.032487 0.000000 0.000000
# 5 0.000000 0.000000 0.000000 0.000000 0.023096 0.000000
# 6 0.000000 0.000000 0.000000 0.000000 0.000000 0.024867
#
#
# Mechanical properties :
#
#
# Convention : Reuss Voigt Hill
#
# Bulk Modulus (GPa) = 48.88831 59.62354 54.25593
# Shear Modulus (GPa) = 34.92419 39.02796 36.97607
#
# Velocity S-wave (km/s) = 4.20936 4.44981 4.33126
# Velocity P-wave (km/s) = 6.95905 7.52669 7.24843
#
# Compressibility (1/GPa) = 0.02045479
#
# Stress axis : x y z
#
# Youngs Moduli (GPa) = 164.62454 57.75660 67.62186
#
# Poissons Ratio (x) = 0.10981 0.16005
# Poissons Ratio (y) = 0.31300 0.31057
# Poissons Ratio (z) = 0.38964 0.26526
#
# Static dielectric constant tensor:
#      x y z
#    x 1.679800 0.000000 0.000000 
#    y 0.000000 1.720000 0.000000 
#    z 0.000000 0.000000 1.682350 
# 
# From -- ./inp_files/4263.got.cif
#   From: 2010.05.17/outbox.ucp.g08.bks.cvg/sg33_3_cif.got.tgz:4263.got - 2010.06.11 10:35:07.
