data_PCOD9347521
_publ_section_title
;
Structure prediction by ZEFSAII (Michael W. Deem and Ramdas Pophale) SiO2 
 PCOD9347521
Probable space group: P N N 2
;
_chemical_formula_sum "Si O2"
_cell_formula_units_Z 32
_cell_length_a 7.387716
_cell_length_b 9.552886
_cell_length_c 17.716575
_cell_angle_alpha 90.000000
_cell_angle_beta 90.000000
_cell_angle_gamma 90.000000
_cell_volume 1250.329719
_symmetry_space_group_name_H-M "P N N 2"
_symmetry_group_IT_number 34
_symmetry_cell_setting 'orthorhombic'
loop_
_space_group_symop_operation_xyz
x,y,z
-x,-y,z
1/2-x,1/2+y,1/2+z
1/2+x,1/2-y,1/2+z
loop_
_atom_site_type_symbol
_atom_site_label
_atom_site_fract_x
_atom_site_fract_y
_atom_site_fract_z
Si Si1 0.255477 0.758789 0.427520
Si Si2 0.647535 0.884812 0.284567
Si Si3 0.960578 0.339101 0.548866
Si Si4 0.148652 0.146156 0.778439
Si Si5 0.286909 0.964702 0.899732
Si Si6 0.275657 0.170740 0.614484
Si Si7 0.106221 0.140129 0.148009
Si Si8 0.158833 0.656903 0.950041
O O1 0.230633 0.746824 0.336746
O O2 0.292848 0.593770 0.448100
O O3 0.082956 0.773239 0.481356
O O4 0.439663 0.834723 0.447955
O O5 0.822483 0.876790 0.232964
O O6 0.531246 0.741565 0.279208
O O7 0.706680 0.915864 0.370957
O O8 0.500000 0.000000 0.259653
O O9 0.787782 0.335630 0.601852
O O10 0.000000 0.500000 0.526297
O O11 0.133386 0.293547 0.596600
O O12 0.183469 0.001049 0.822288
O O13 0.204244 0.111197 0.693181
O O14 0.500000 0.000000 0.883680
O O15 0.234166 0.816567 0.935511
O O16 0.471084 0.232739 0.633577
O O17 0.286306 0.098816 0.531983
O O18 0.000000 0.000000 0.125718
#
# Coordination Sequence:
#
# PCOD9347521 Si02
#       8
#     4   4   4   4   4   4   4   4
#     4   9  20  36  60  94 132 171 211 272 343 410
#     4  11  24  47  65  91 133 188 230 283 340 416
#     4  12  21  36  58  96 140 168 215 292 345 395
#     4   9  23  40  63  94 140 171 221 275 353 411
#     4  10  21  38  62 102 131 173 222 282 349 415
#     4  12  23  38  63 100 134 171 225 280 349 417
#     4  12  24  37  64  98 131 173 226 283 349 405
#     4  11  23  40  68  97 130 178 233 281 339 415
#
# _framework density 25.593249
#
# number of rings (size 3 to 8) (size 9 to 14) (size 15 to 20)
#    0.750    0.500    3.750    3.375    1.750    0.000 
#    0.000    0.625    0.000    0.000    3.250    0.000 
#    0.000    0.000    0.000    0.000    0.000    0.000 
#
# Total GULP energy -178469.104221 kJ/mol
# GULP energy per Si atom -5577.159507 kJ/mol
# Density = 2.553500 g / cm^3
# Si number density = 25.593249 Si / 1000 Ang^3
#
#
#
# Elastic Constant Matrix: (Units=GPa)
#
#
# Indices 1 2 3 4 5 6 
#
# 1 114.8547 16.9528 34.0263 0.0000 0.0000 0.0000
# 2 16.9528 57.2800 5.7106 0.0000 0.0000 0.0000
# 3 34.0263 5.7106 176.0929 0.0000 0.0000 0.0000
# 4 0.0000 0.0000 0.0000 165.3134 0.0000 0.0000
# 5 0.0000 0.0000 0.0000 0.0000 34.1130 0.0000
# 6 0.0000 0.0000 0.0000 0.0000 0.0000 18.7821
#
#
#
# Elastic Compliance Matrix: (Units=1/GPa)
#
#
# Indices 1 2 3 4 5 6 
#
# 1 0.009626 -0.002672 -0.001773 0.000000 0.000000 0.000000
# 2 -0.002672 0.018257 -0.000076 0.000000 0.000000 0.000000
# 3 -0.001773 -0.000076 0.006024 0.000000 0.000000 0.000000
# 4 0.000000 0.000000 0.000000 0.006049 0.000000 0.000000
# 5 0.000000 0.000000 0.000000 0.000000 0.029314 0.000000
# 6 0.000000 0.000000 0.000000 0.000000 0.000000 0.053242
#
#
# Mechanical properties :
#
#
# Convention : Reuss Voigt Hill
#
# Bulk Modulus (GPa) = 40.21856 51.28966 45.75411
# Shear Modulus (GPa) = 35.75424 63.07756 49.41590
#
# Velocity S-wave (km/s) = 3.74173 4.96988 4.39887
# Velocity P-wave (km/s) = 5.86651 7.28126 6.61183
#
# Compressibility (1/GPa) = 0.02486414
#
# Stress axis : x y z
#
# Youngs Moduli (GPa) = 103.88007 54.77484 166.00379
#
# Poissons Ratio (x) = 0.14637 0.29440
# Poissons Ratio (y) = 0.27760 0.01257
# Poissons Ratio (z) = 0.18423 0.00415
#
# Static dielectric constant tensor:
#      x y z
#    x 2.103130 0.000000 0.000000 
#    y 0.000000 2.077700 0.000000 
#    z 0.000000 0.000000 2.145060 
# 
# From -- ./inp_files/7645.got.cif
#   From: 2010.05.17/outbox.cif.g08.bks.cpg/sg34_4_cif.got.tgz:7645.got - 2010.06.03 17:23:11.
