data_PCOD9347489
_publ_section_title
;
Structure prediction by ZEFSAII (Michael W. Deem and Ramdas Pophale) SiO2 
 PCOD9347489
Probable space group: P N N 2
;
_chemical_formula_sum "Si O2"
_cell_formula_units_Z 30
_cell_length_a 19.272201
_cell_length_b 5.294863
_cell_length_c 12.213358
_cell_angle_alpha 90.000000
_cell_angle_beta 90.000000
_cell_angle_gamma 90.000000
_cell_volume 1246.295800
_symmetry_space_group_name_H-M "P N N 2"
_symmetry_group_IT_number 34
_symmetry_cell_setting 'orthorhombic'
loop_
_space_group_symop_operation_xyz
x,y,z
-x,-y,z
1/2-x,1/2+y,1/2+z
1/2+x,1/2-y,1/2+z
loop_
_atom_site_type_symbol
_atom_site_label
_atom_site_fract_x
_atom_site_fract_y
_atom_site_fract_z
Si Si1 0.372422 0.825808 0.722220
Si Si2 0.823436 0.982980 0.421920
Si Si3 0.657866 0.112661 0.102554
Si Si4 0.426896 0.132621 0.905241
Si Si5 0.102857 0.861287 0.955292
Si Si6 0.500000 0.500000 0.633237
Si Si7 0.924600 0.625863 0.822434
Si Si8 0.222630 0.197467 0.037390
O O1 0.325075 0.677783 0.811774
O O2 0.391654 0.076666 0.787972
O O3 0.443535 0.668983 0.697726
O O4 0.330562 0.860006 0.610265
O O5 0.903588 0.082633 0.427751
O O6 0.763779 0.194501 0.431765
O O7 0.810326 0.847305 0.537692
O O8 0.616230 0.169757 0.210614
O O9 0.717584 0.907167 0.116995
O O10 0.607978 0.004281 0.008273
O O11 0.500000 0.000000 0.897585
O O12 0.110573 0.600410 0.891151
O O13 0.075383 0.105646 0.885090
O O14 0.047650 0.828390 0.053519
O O15 0.175567 0.963626 0.999117
O O16 0.000000 0.500000 0.801298
#
# Coordination Sequence:
#
# PCOD9347489 Si02
#       8
#     4   4   4   4   4   2   4   4
#     4  10  22  41  69  97 134 180 228 292 362 422
#     4  10  23  44  63 101 136 182 241 293 352 440
#     4  10  25  41  67  95 141 185 244 286 361 427
#     4  10  21  42  65 101 132 173 232 299 355 427
#     4  11  26  46  72 104 149 183 247 300 360 441
#     4  10  20  48  66 106 136 178 240 296 364 430
#     4  12  25  48  74 106 142 197 239 303 369 435
#     4  10  25  44  64 101 140 188 238 297 361 426
#
# _framework density 24.07133
#
# number of rings (size 3 to 8) (size 9 to 14) (size 15 to 20)
#    0.000    1.600    1.333    1.200    7.467    4.800 
#   16.800    0.000    0.000    0.000    0.000    0.000 
#    0.000    0.000    0.000    0.000    0.000    0.000 
#
# Total GULP energy -167558.089917 kJ/mol
# GULP energy per Si atom -5585.269664 kJ/mol
# Density = 2.401654 g / cm^3
# Si number density = 24.071330 Si / 1000 Ang^3
#
#
#
# Elastic Constant Matrix: (Units=GPa)
#
#
# Indices 1 2 3 4 5 6 
#
# 1 108.6424 6.3649 45.3952 0.0000 0.0000 0.0000
# 2 6.3649 63.2581 31.5905 0.0000 0.0000 0.0000
# 3 45.3952 31.5905 117.6117 0.0000 0.0000 0.0000
# 4 0.0000 0.0000 0.0000 13.2020 0.0000 0.0000
# 5 0.0000 0.0000 0.0000 0.0000 29.2895 0.0000
# 6 0.0000 0.0000 0.0000 0.0000 0.0000 23.0850
#
#
#
# Elastic Compliance Matrix: (Units=1/GPa)
#
#
# Indices 1 2 3 4 5 6 
#
# 1 0.011050 0.001176 -0.004581 0.000000 0.000000 0.000000
# 2 0.001176 0.018382 -0.005391 0.000000 0.000000 0.000000
# 3 -0.004581 -0.005391 0.011719 0.000000 0.000000 0.000000
# 4 0.000000 0.000000 0.000000 0.075746 0.000000 0.000000
# 5 0.000000 0.000000 0.000000 0.000000 0.034142 0.000000
# 6 0.000000 0.000000 0.000000 0.000000 0.000000 0.043318
#
#
# Mechanical properties :
#
#
# Convention : Reuss Voigt Hill
#
# Bulk Modulus (GPa) = 42.44813 50.69039 46.56926
# Shear Modulus (GPa) = 22.74776 26.85941 24.80358
#
# Velocity S-wave (km/s) = 3.07744 3.34402 3.21350
# Velocity P-wave (km/s) = 5.50456 6.00117 5.75822
#
# Compressibility (1/GPa) = 0.02355816
#
# Stress axis : x y z
#
# Youngs Moduli (GPa) = 90.50082 54.40011 85.33376
#
# Poissons Ratio (x) = -0.06396 0.39089
# Poissons Ratio (y) = -0.10641 0.46006
# Poissons Ratio (z) = 0.41456 0.29329
#
# Static dielectric constant tensor:
#      x y z
#    x 1.959350 0.000000 0.000000 
#    y 0.000000 2.085170 0.000000 
#    z 0.000000 0.000000 1.863650 
# 
# From -- ./inp_files/4521.got.cif
#   From: 2010.05.17/outbox.cif.g08.bks.cpg/sg34_3_cif.got.tgz:4521.got - 2010.06.03 17:23:11.
