data_PCOD9347098
_publ_section_title
;
Structure prediction by ZEFSAII (Michael W. Deem and Ramdas Pophale) SiO2 
 PCOD9347098
Probable space group: P N N 2
;
_chemical_formula_sum "Si O2"
_cell_formula_units_Z 28
_cell_length_a 19.068223
_cell_length_b 5.594471
_cell_length_c 9.220854
_cell_angle_alpha 90.000000
_cell_angle_beta 90.000000
_cell_angle_gamma 90.000000
_cell_volume 983.649544
_symmetry_space_group_name_H-M "P N N 2"
_symmetry_group_IT_number 34
_symmetry_cell_setting 'orthorhombic'
loop_
_space_group_symop_operation_xyz
x,y,z
-x,-y,z
1/2-x,1/2+y,1/2+z
1/2+x,1/2-y,1/2+z
loop_
_atom_site_type_symbol
_atom_site_label
_atom_site_fract_x
_atom_site_fract_y
_atom_site_fract_z
Si Si1 0.658320 0.749999 0.211800
Si Si2 0.236565 0.750001 0.073966
Si Si3 0.355641 0.250001 0.863775
Si Si4 0.028915 0.250000 0.079072
Si Si5 0.933978 0.749999 0.376414
Si Si6 0.892720 0.749999 0.676829
Si Si7 0.197207 0.250001 0.078430
O O1 0.616031 0.507258 0.255302
O O2 0.745433 0.749999 0.214810
O O3 0.616031 0.992740 0.255302
O O4 0.656233 0.749999 0.036002
O O5 0.200873 0.750001 0.233504
O O6 0.318791 0.750001 0.090772
O O7 0.213357 0.503226 0.002776
O O8 0.213357 0.996776 0.002775
O O9 0.392083 0.507010 0.848176
O O10 0.392083 0.992992 0.848176
O O11 0.008055 0.250000 0.250431
O O12 0.113082 0.250000 0.084908
O O13 0.000000 0.500000 0.017178
O O14 0.000000 0.000000 0.017178
O O15 0.951197 0.749998 0.549146
#
# Coordination Sequence:
#
# PCOD9347098 Si02
#       7
#     4   4   4   4   4   4   4
#     4   8  16  25  40  58  77 104 130 155 203 252
#     4  10  15  26  44  62  80 105 129 159 206 254
#     4  10  15  26  44  62  80 105 129 159 206 254
#     4  12  22  30  42  58  78 114 154 172 192 226
#     4  10  18  30  39  55  84 108 134 172 199 228
#     4   8  16  25  40  58  77 104 130 155 203 252
#     4  10  18  30  39  55  84 108 134 172 199 228
#
# _framework density 28.465425
#
# number of rings (size 3 to 8) (size 9 to 14) (size 15 to 20)
#    0.000    2.286    2.857    1.714    0.000    0.000 
#    0.000    0.000    0.000    0.000    0.000    0.000 
#    0.000    2.286    0.000    0.000    0.000    9.714 
#
# Total GULP energy -156161.431203 kJ/mol
# GULP energy per Si atom -5577.193972 kJ/mol
# Density = 2.840064 g / cm^3
# Si number density = 28.465425 Si / 1000 Ang^3
#
#
#
# Elastic Constant Matrix: (Units=GPa)
#
#
# Indices 1 2 3 4 5 6 
#
# 1 70.5102 60.7466 14.1319 0.0000 0.0000 0.0000
# 2 60.7466 330.7277 10.1791 0.0000 0.0000 0.0000
# 3 14.1319 10.1791 100.1298 0.0000 0.0000 0.0000
# 4 0.0000 0.0000 0.0000 -5.7708 0.0000 0.0000
# 5 0.0000 0.0000 0.0000 0.0000 22.6903 0.0000
# 6 0.0000 0.0000 0.0000 0.0000 0.0000 57.3340
#
#
#
# Elastic Compliance Matrix: (Units=1/GPa)
#
#
# Indices 1 2 3 4 5 6 
#
# 1 0.017287 -0.003110 -0.002124 0.000000 0.000000 0.000000
# 2 -0.003110 0.003593 0.000074 0.000000 0.000000 0.000000
# 3 -0.002124 0.000074 0.010279 0.000000 0.000000 0.000000
# 4 0.000000 0.000000 0.000000 -0.173286 0.000000 0.000000
# 5 0.000000 0.000000 0.000000 0.000000 0.044072 0.000000
# 6 0.000000 0.000000 0.000000 0.000000 0.000000 0.017442
#
#
# Mechanical properties :
#
#
# Convention : Reuss Voigt Hill
#
# Bulk Modulus (GPa) = 47.98618 74.60921 61.29770
# Shear Modulus (GPa) = -78.93026 42.60469 -18.16279
#
# Velocity S-wave (km/s) = -5.27150 3.87294 -2.52873
# Velocity P-wave (km/s) = 4.48968 6.80198 3.61315
#
# Compressibility (1/GPa) = 0.02083933
#
# Stress axis : x y z
#
# Youngs Moduli (GPa) = 57.84611 278.35171 97.28308
#
# Poissons Ratio (x) = 0.86564 0.20660
# Poissons Ratio (y) = 0.17989 -0.00717
# Poissons Ratio (z) = 0.12285 -0.02051
#
# Static dielectric constant tensor:
#      x y z
#    x 2.281220 0.000000 0.000000 
#    y 0.000000 2.251390 0.000000 
#    z 0.000000 0.000000 2.318990 
# 
# From -- ./inp_files/5845.got.cif
#   From: 2010.05.17/outbox.cif.g08.bks.cpg/sg34_3_cif.got.tgz:5845.got - 2010.06.03 17:23:11.
