data_PCOD9347141
_publ_section_title
;
Structure prediction by ZEFSAII (Michael W. Deem and Ramdas Pophale) SiO2 
 PCOD9347141
Probable space group: P N N 2
;
_chemical_formula_sum "Si O2"
_cell_formula_units_Z 32
_cell_length_a 5.426911
_cell_length_b 14.482987
_cell_length_c 22.562070
_cell_angle_alpha 90.000000
_cell_angle_beta 90.000000
_cell_angle_gamma 90.000000
_cell_volume 1773.330903
_symmetry_space_group_name_H-M "P N N 2"
_symmetry_group_IT_number 34
_symmetry_cell_setting 'orthorhombic'
loop_
_space_group_symop_operation_xyz
x,y,z
-x,-y,z
1/2-x,1/2+y,1/2+z
1/2+x,1/2-y,1/2+z
loop_
_atom_site_type_symbol
_atom_site_label
_atom_site_fract_x
_atom_site_fract_y
_atom_site_fract_z
Si Si1 0.000000 0.224002 0.060660
Si Si2 1.000000 0.813660 0.849986
Si Si3 0.000000 0.605480 0.147804
Si Si4 0.000000 0.390592 0.408222
Si Si5 1.000000 0.663471 0.941643
Si Si6 0.000000 0.893286 0.723900
Si Si7 1.000000 0.899763 0.494240
Si Si8 0.000000 0.304617 0.539163
O O1 0.249369 0.169291 0.071044
O O2 1.000000 0.318750 0.096835
O O3 0.750631 0.169291 0.071044
O O4 0.000000 0.253871 0.991115
O O5 0.251143 0.860377 0.874408
O O6 0.000000 0.825512 0.779663
O O7 0.748857 0.860377 0.874408
O O8 1.000000 0.711335 0.877976
O O9 0.249812 0.617437 0.185993
O O10 0.000000 0.500000 0.124676
O O11 0.750188 0.617437 0.185993
O O12 0.000000 0.500000 0.415437
O O13 1.000000 0.342290 0.472471
O O14 0.748601 0.609595 0.955610
O O15 0.251399 0.609595 0.955610
O O16 0.000000 0.000000 0.746238
O O17 1.000000 0.808386 0.535213
O O18 0.000000 0.000000 0.524777
#
# Coordination Sequence:
#
# PCOD9347141 Si02
#       8
#     4   4   4   4   4   4   4   4
#     4  10  18  32  52  66 104 140 169 216 273 295
#     4  12  20  37  54  75 112 148 181 228 273 315
#     4  10  21  35  50  75 107 143 189 223 253 319
#     4  12  21  33  53  78 109 148 179 216 281 333
#     4  10  19  33  49  75 104 137 174 223 266 324
#     4  10  21  35  50  75 107 143 189 223 253 319
#     4  10  18  30  47  68 103 137 167 207 261 320
#     4  10  19  33  46  76 106 136 174 224 254 333
#
# _framework density 18.045138000000001
#
# number of rings (size 3 to 8) (size 9 to 14) (size 15 to 20)
#    0.000    1.500    5.000    3.000    0.000    5.000 
#    0.000    1.250    0.000    0.000    0.000    0.000 
#    0.000   20.000    0.000    0.000    0.000    0.000 
#
# Total GULP energy -178505.716303 kJ/mol
# GULP energy per Si atom -5578.303634 kJ/mol
# Density = 1.800407 g / cm^3
# Si number density = 18.045138 Si / 1000 Ang^3
#
#
#
# Elastic Constant Matrix: (Units=GPa)
#
#
# Indices 1 2 3 4 5 6 
#
# 1 195.5193 12.7551 23.7037 0.0000 0.0000 0.0000
# 2 12.7551 16.6369 -3.5990 0.0000 0.0000 0.0000
# 3 23.7037 -3.5990 46.1964 0.0000 0.0000 0.0000
# 4 0.0000 0.0000 0.0000 7.9965 0.0000 0.0000
# 5 0.0000 0.0000 0.0000 0.0000 22.2671 0.0000
# 6 0.0000 0.0000 0.0000 0.0000 0.0000 13.0628
#
#
#
# Elastic Compliance Matrix: (Units=1/GPa)
#
#
# Indices 1 2 3 4 5 6 
#
# 1 0.005871 -0.005241 -0.003421 0.000000 0.000000 0.000000
# 2 -0.005241 0.065817 0.007817 0.000000 0.000000 0.000000
# 3 -0.003421 0.007817 0.024011 0.000000 0.000000 0.000000
# 4 0.000000 0.000000 0.000000 0.125055 0.000000 0.000000
# 5 0.000000 0.000000 0.000000 0.000000 0.044909 0.000000
# 6 0.000000 0.000000 0.000000 0.000000 0.000000 0.076553
#
#
# Mechanical properties :
#
#
# Convention : Reuss Voigt Hill
#
# Bulk Modulus (GPa) = 10.63733 36.00802 23.32267
# Shear Modulus (GPa) = 13.32466 23.69812 18.51139
#
# Velocity S-wave (km/s) = 2.72031 3.62784 3.20635
# Velocity P-wave (km/s) = 3.97171 6.12748 5.16335
#
# Compressibility (1/GPa) = 0.09400860
#
# Stress axis : x y z
#
# Youngs Moduli (GPa) = 170.32147 15.19366 41.64753
#
# Poissons Ratio (x) = 0.07964 0.14247
# Poissons Ratio (y) = 0.89272 -0.32556
# Poissons Ratio (z) = 0.58266 -0.11877
#
# Static dielectric constant tensor:
#      x y z
#    x 1.729010 0.000000 0.000000 
#    y 0.000000 1.606050 0.000000 
#    z 0.000000 0.000000 1.593530 
# 
# From -- ./inp_files/7260.got.cif
#   From: 2010.05.17/outbox.cif.g08.bks.cpg/sg34_4_cif.got.tgz:7260.got - 2010.06.03 17:23:11.
