data_PCOD9347507
_publ_section_title
;
Structure prediction by ZEFSAII (Michael W. Deem and Ramdas Pophale) SiO2 
 PCOD9347507
Probable space group: P N N 2
;
_chemical_formula_sum "Si O2"
_cell_formula_units_Z 32
_cell_length_a 21.089314
_cell_length_b 9.028377
_cell_length_c 9.283169
_cell_angle_alpha 90.000000
_cell_angle_beta 90.000000
_cell_angle_gamma 90.000000
_cell_volume 1767.536520
_symmetry_space_group_name_H-M "P N N 2"
_symmetry_group_IT_number 34
_symmetry_cell_setting 'orthorhombic'
loop_
_space_group_symop_operation_xyz
x,y,z
-x,-y,z
1/2-x,1/2+y,1/2+z
1/2+x,1/2-y,1/2+z
loop_
_atom_site_type_symbol
_atom_site_label
_atom_site_fract_x
_atom_site_fract_y
_atom_site_fract_z
Si Si1 0.559898 0.895038 0.236540
Si Si2 0.697188 0.928180 0.920714
Si Si3 0.311713 0.428996 0.919335
Si Si4 0.433222 0.418603 0.393559
Si Si5 0.181158 0.079174 0.729045
Si Si6 0.440772 0.102694 0.893309
Si Si7 0.434781 0.411858 0.735601
Si Si8 0.689944 0.066839 0.228052
O O1 0.561343 0.744432 0.325839
O O2 0.624814 0.983530 0.264123
O O3 0.500000 0.000000 0.269919
O O4 0.557231 0.860172 0.064656
O O5 0.690688 0.749828 0.941345
O O6 0.752985 0.957829 0.809309
O O7 0.627149 0.975152 0.868786
O O8 0.710365 0.008297 0.071038
O O9 0.372637 0.467653 0.820975
O O10 0.246407 0.466943 0.838648
O O11 0.317973 0.510531 0.070470
O O12 0.500000 0.500000 0.368985
O O13 0.376948 0.508501 0.316819
O O14 0.422128 0.411701 0.565056
O O15 0.177446 0.257334 0.723865
O O16 0.444342 0.247190 0.796117
O O17 0.500000 0.000000 0.861907
O O18 0.500000 0.500000 0.763180
#
# Coordination Sequence:
#
# PCOD9347507 Si02
#       8
#     4   4   4   4   4   4   4   4
#     4  10  21  38  61  87 117 150 189 236 284 339
#     4   9  20  38  55  81 118 148 185 234 282 337
#     4  10  22  38  58  82 112 152 191 231 286 343
#     4  11  23  39  58  83 116 150 189 236 286 340
#     4  11  22  37  60  85 111 150 193 235 284 338
#     4   9  19  37  58  83 112 145 185 231 280 337
#     4  10  22  38  56  81 112 147 186 233 283 336
#     4  10  21  37  58  86 116 148 190 236 285 338
#
# _framework density 18.104293999999999
#
# number of rings (size 3 to 8) (size 9 to 14) (size 15 to 20)
#    0.000    2.000    0.000    3.750    0.000   10.500 
#    0.000    5.000    0.000    0.000    0.000    0.000 
#    0.000    0.000    0.000    0.000    0.000    0.000 
#
# Total GULP energy -178682.315928 kJ/mol
# GULP energy per Si atom -5583.822373 kJ/mol
# Density = 1.806309 g / cm^3
# Si number density = 18.104294 Si / 1000 Ang^3
#
#
#
# Elastic Constant Matrix: (Units=GPa)
#
#
# Indices 1 2 3 4 5 6 
#
# 1 168.7902 76.5903 116.4186 0.0000 0.0000 0.0000
# 2 76.5903 72.4988 77.8870 0.0000 0.0000 0.0000
# 3 116.4186 77.8870 132.0537 0.0000 0.0000 0.0000
# 4 0.0000 0.0000 0.0000 -2.0118 0.0000 0.0000
# 5 0.0000 0.0000 0.0000 0.0000-4751.2935 0.0000
# 6 0.0000 0.0000 0.0000 0.0000 0.0000 28.2130
#
#
#
# Elastic Compliance Matrix: (Units=1/GPa)
#
#
# Indices 1 2 3 4 5 6 
#
# 1 0.015676 -0.004677 -0.011061 0.000000 0.000000 0.000000
# 2 -0.004677 0.039046 -0.018906 0.000000 0.000000 0.000000
# 3 -0.011061 -0.018906 0.028476 0.000000 0.000000 0.000000
# 4 0.000000 0.000000 0.000000 -0.497066 0.000000 0.000000
# 5 0.000000 0.000000 0.000000 0.000000 -0.000210 0.000000
# 6 0.000000 0.000000 0.000000 0.000000 0.000000 0.035445
#
#
# Mechanical properties :
#
#
# Convention : Reuss Voigt Hill
#
# Bulk Modulus (GPa) = 71.90228 101.68161 86.79194
# Shear Modulus (GPa) = -16.40919 -938.18868 -477.29894
#
# Velocity S-wave (km/s) = -3.01386 -22.78900 -16.25456
# Velocity P-wave (km/s) = 5.26219 25.22231 17.44239
#
# Compressibility (1/GPa) = 0.01390777
#
# Stress axis : x y z
#
# Youngs Moduli (GPa) = 63.79081 25.61059 35.11778
#
# Poissons Ratio (x) = 0.11979 0.38845
# Poissons Ratio (y) = 0.29838 0.66395
# Poissons Ratio (z) = 0.70561 0.48420
#
# Static dielectric constant tensor:
#      x y z
#    x 1.909490 0.000000 0.000000 
#    y 0.000000 1.609910 0.000000 
#    z 0.000000 0.000000 1.595470 
# 
# From -- ./inp_files/4005.got.cif
#   From: 2010.05.17/outbox.cif.g08.bks.cpg/sg34_3_cif.got.tgz:4005.got - 2010.06.03 17:23:11.
