data_PCOD9347475
_publ_section_title
;
Structure prediction by ZEFSAII (Michael W. Deem and Ramdas Pophale) SiO2 
 PCOD9347475
Probable space group: P N N 2
;
_chemical_formula_sum "Si O2"
_cell_formula_units_Z 24
_cell_length_a 8.850649
_cell_length_b 8.914504
_cell_length_c 11.391464
_cell_angle_alpha 90.000000
_cell_angle_beta 90.000000
_cell_angle_gamma 90.000000
_cell_volume 898.776780
_symmetry_space_group_name_H-M "P N N 2"
_symmetry_group_IT_number 34
_symmetry_cell_setting 'orthorhombic'
loop_
_space_group_symop_operation_xyz
x,y,z
-x,-y,z
1/2-x,1/2+y,1/2+z
1/2+x,1/2-y,1/2+z
loop_
_atom_site_type_symbol
_atom_site_label
_atom_site_fract_x
_atom_site_fract_y
_atom_site_fract_z
Si Si1 0.163143 0.448957 0.807270
Si Si2 0.168761 0.079646 0.530759
Si Si3 0.129820 0.173850 0.210109
Si Si4 0.500572 0.176542 0.932336
Si Si5 0.330338 0.451539 0.261398
Si Si6 0.669952 0.332863 0.456941
O O1 0.217221 0.528107 0.929161
O O2 0.298222 0.508137 0.724505
O O3 0.137561 0.278560 0.849077
O O4 0.000000 0.500000 0.762244
O O5 0.127579 0.253821 0.515571
O O6 0.246745 0.041252 0.654261
O O7 0.000000 0.000000 0.509586
O O8 0.015208 0.230427 0.310519
O O9 0.269991 0.285684 0.242556
O O10 0.077997 0.187599 0.075696
O O11 0.500000 0.000000 0.906860
O O12 0.659245 0.792722 0.992399
O O13 0.500000 0.500000 0.234920
O O14 0.319074 0.506094 0.394956
#
# Coordination Sequence:
#
# PCOD9347475 Si02
#       6
#     4   4   4   4   4   4
#     4  11  24  43  69 100 137 176 232 292 348 412
#     4  10  20  42  72  93 135 188 226 279 358 416
#     4  11  25  44  66 104 137 179 240 285 346 431
#     4  11  23  43  72  99 136 186 239 283 352 422
#     4  11  22  43  65  95 137 182 221 288 348 415
#     4  12  24  44  68  99 140 180 229 293 351 417
#
# _framework density 26.702961999999999
#
# number of rings (size 3 to 8) (size 9 to 14) (size 15 to 20)
#    0.000    1.000    5.000    2.000    0.000    4.000 
#    3.000    0.000    0.000    0.000    0.000    0.000 
#    0.000    0.000    0.000    0.000    0.000    0.000 
#
# Total GULP energy -133995.045088 kJ/mol
# GULP energy per Si atom -5583.126879 kJ/mol
# Density = 2.664219 g / cm^3
# Si number density = 26.702962 Si / 1000 Ang^3
#
#
#
# Elastic Constant Matrix: (Units=GPa)
#
#
# Indices 1 2 3 4 5 6 
#
# 1 27.7410 5.4355 -13.6006 0.0000 0.0000 0.0000
# 2 5.4355 126.1428 33.3774 0.0000 0.0000 0.0000
# 3 -13.6006 33.3774 103.2298 0.0000 0.0000 0.0000
# 4 0.0000 0.0000 0.0000 27.9888 0.0000 0.0000
# 5 0.0000 0.0000 0.0000 0.0000 27.0226 0.0000
# 6 0.0000 0.0000 0.0000 0.0000 0.0000 33.4916
#
#
#
# Elastic Compliance Matrix: (Units=1/GPa)
#
#
# Indices 1 2 3 4 5 6 
#
# 1 0.039823 -0.003395 0.006344 0.000000 0.000000 0.000000
# 2 -0.003395 0.008959 -0.003344 0.000000 0.000000 0.000000
# 3 0.006344 -0.003344 0.011604 0.000000 0.000000 0.000000
# 4 0.000000 0.000000 0.000000 0.035729 0.000000 0.000000
# 5 0.000000 0.000000 0.000000 0.000000 0.037006 0.000000
# 6 0.000000 0.000000 0.000000 0.000000 0.000000 0.029858
#
#
# Mechanical properties :
#
#
# Convention : Reuss Voigt Hill
#
# Bulk Modulus (GPa) = 16.77919 34.17092 25.47506
# Shear Modulus (GPa) = 27.22820 33.16069 30.19444
#
# Velocity S-wave (km/s) = 3.19669 3.52779 3.36631
# Velocity P-wave (km/s) = 4.46345 5.42386 4.96692
#
# Compressibility (1/GPa) = 0.05959763
#
# Stress axis : x y z
#
# Youngs Moduli (GPa) = 25.11094 111.62486 86.17602
#
# Poissons Ratio (x) = 0.37893 -0.54673
# Poissons Ratio (y) = 0.08524 0.28816
# Poissons Ratio (z) = -0.15931 0.37326
#
# Static dielectric constant tensor:
#      x y z
#    x 2.230430 0.000000 0.000000 
#    y 0.000000 2.182350 0.000000 
#    z 0.000000 0.000000 2.074770 
# 
# From -- ./inp_files/5330.got.cif
#   From: 2010.05.17/outbox.cif.g08.bks.cpg/sg34_3_cif.got.tgz:5330.got - 2010.06.03 17:23:11.
