data_PCOD9347496
_publ_section_title
;
Structure prediction by ZEFSAII (Michael W. Deem and Ramdas Pophale) SiO2 
 PCOD9347496
Probable space group: P N N 2
;
_chemical_formula_sum "Si O2"
_cell_formula_units_Z 30
_cell_length_a 13.760309
_cell_length_b 8.963341
_cell_length_c 10.597956
_cell_angle_alpha 90.000000
_cell_angle_beta 90.000000
_cell_angle_gamma 90.000000
_cell_volume 1307.134320
_symmetry_space_group_name_H-M "P N N 2"
_symmetry_group_IT_number 34
_symmetry_cell_setting 'orthorhombic'
loop_
_space_group_symop_operation_xyz
x,y,z
-x,-y,z
1/2-x,1/2+y,1/2+z
1/2+x,1/2-y,1/2+z
loop_
_atom_site_type_symbol
_atom_site_label
_atom_site_fract_x
_atom_site_fract_y
_atom_site_fract_z
Si Si1 0.445686 0.639164 0.870210
Si Si2 0.204192 0.278001 0.224768
Si Si3 0.320574 0.309665 0.475299
Si Si4 0.121969 0.217386 0.766179
Si Si5 0.290091 0.986970 0.179038
Si Si6 0.966868 0.341926 0.565628
Si Si7 0.500000 0.500000 0.446453
Si Si8 0.769831 0.966369 0.558109
O O1 0.500000 0.500000 0.805977
O O2 0.401238 0.778586 0.791398
O O3 0.527104 0.714816 0.961687
O O4 0.358765 0.571377 0.961111
O O5 0.284291 0.318232 0.331391
O O6 0.230475 0.372460 0.101143
O O7 0.203946 0.099172 0.205477
O O8 0.237122 0.386909 0.559344
O O9 0.419842 0.392599 0.506778
O O10 0.318529 0.136128 0.510082
O O11 0.182641 0.370663 0.789821
O O12 0.066766 0.117934 0.867929
O O13 0.191108 0.106782 0.688500
O O14 0.040617 0.284087 0.672342
O O15 0.371349 0.106886 0.139279
O O16 0.000000 0.500000 0.509441
#
# Coordination Sequence:
#
# PCOD9347496 Si02
#       8
#     4   4   4   4   4   4   2   4
#     4  10  21  35  58  96 124 156 215 261 310 379
#     4  11  20  40  67  87 126 168 209 258 323 378
#     4  10  23  40  63  95 125 166 218 259 314 400
#     4   9  19  33  62  93 114 155 208 265 320 365
#     4  10  21  40  61  91 125 161 213 261 319 378
#     4   9  17  33  58  88 121 147 201 269 308 355
#     4  12  20  38  66  90 128 166 214 270 330 370
#     4   9  19  38  63  93 124 163 209 265 319 380
#
# _framework density 22.950970000000002
#
# number of rings (size 3 to 8) (size 9 to 14) (size 15 to 20)
#    0.000    2.133    1.333    4.000    3.733    0.000 
#    8.400    1.333    2.933    0.000    0.000    0.000 
#    0.000    0.000    0.000    0.000    0.000    0.000 
#
# Total GULP energy -167032.389561 kJ/mol
# GULP energy per Si atom -5567.746319 kJ/mol
# Density = 2.289873 g / cm^3
# Si number density = 22.950970 Si / 1000 Ang^3
#
#
#
# Elastic Constant Matrix: (Units=GPa)
#
#
# Indices 1 2 3 4 5 6 
#
# 1 61.8890 28.0303 6.5823 0.0000 0.0000 0.0000
# 2 28.0303 133.6661 32.9919 0.0000 0.0000 0.0000
# 3 6.5823 32.9919 51.3088 0.0000 0.0000 0.0000
# 4 0.0000 0.0000 0.0000 31.3140 0.0000 0.0000
# 5 0.0000 0.0000 0.0000 0.0000 15.2412 0.0000
# 6 0.0000 0.0000 0.0000 0.0000 0.0000 45.5522
#
#
#
# Elastic Compliance Matrix: (Units=1/GPa)
#
#
# Indices 1 2 3 4 5 6 
#
# 1 0.017854 -0.003778 0.000139 0.000000 0.000000 0.000000
# 2 -0.003778 0.009692 -0.005747 0.000000 0.000000 0.000000
# 3 0.000139 -0.005747 0.023168 0.000000 0.000000 0.000000
# 4 0.000000 0.000000 0.000000 0.031935 0.000000 0.000000
# 5 0.000000 0.000000 0.000000 0.000000 0.065612 0.000000
# 6 0.000000 0.000000 0.000000 0.000000 0.000000 0.021953
#
#
# Mechanical properties :
#
#
# Convention : Reuss Voigt Hill
#
# Bulk Modulus (GPa) = 31.30807 42.45255 36.88031
# Shear Modulus (GPa) = 25.04583 30.37211 27.70897
#
# Velocity S-wave (km/s) = 3.30703 3.64173 3.47841
# Velocity P-wave (km/s) = 5.31534 6.01832 5.67772
#
# Compressibility (1/GPa) = 0.03194065
#
# Stress axis : x y z
#
# Youngs Moduli (GPa) = 56.00835 103.17471 43.16364
#
# Poissons Ratio (x) = 0.38984 -0.00600
# Poissons Ratio (y) = 0.21163 0.24808
# Poissons Ratio (z) = -0.00779 0.59299
#
# Static dielectric constant tensor:
#      x y z
#    x 1.948170 0.000000 0.000000 
#    y 0.000000 1.924160 0.000000 
#    z 0.000000 0.000000 1.920030 
# 
# From -- ./inp_files/5664.got.cif
#   From: 2010.05.17/outbox.cif.g08.bks.cpg/sg34_3_cif.got.tgz:5664.got - 2010.06.03 17:23:11.
