data_PCOD9347002
_publ_section_title
;
Structure prediction by ZEFSAII (Michael W. Deem and Ramdas Pophale) SiO2 
 PCOD9347002
Probable space group: P N A 21
;
_chemical_formula_sum "Si O2"
_cell_formula_units_Z 20
_cell_length_a 14.502269
_cell_length_b 9.503977
_cell_length_c 5.477113
_cell_angle_alpha 90.000000
_cell_angle_beta 90.000000
_cell_angle_gamma 90.000000
_cell_volume 754.906273
_symmetry_space_group_name_H-M "P N A 21"
_symmetry_group_IT_number 33
_symmetry_cell_setting 'orthorhombic'
loop_
_space_group_symop_operation_xyz
x,y,z
-x,-y,1/2+z
1/2-x,1/2+y,1/2+z
1/2+x,1/2-y,z
loop_
_atom_site_type_symbol
_atom_site_label
_atom_site_fract_x
_atom_site_fract_y
_atom_site_fract_z
Si Si1 0.404350 0.329231 0.375000
Si Si2 0.474690 0.921905 0.697572
Si Si3 0.187085 0.343152 0.907043
Si Si4 0.750293 0.360046 0.264477
Si Si5 0.913889 0.884864 0.108574
O O1 0.467726 0.222528 0.217356
O O2 0.316054 0.234167 0.440862
O O3 0.476256 0.381524 0.579451
O O4 0.380295 0.471237 0.232465
O O5 0.366835 0.902796 0.643383
O O6 0.509556 0.004367 0.457728
O O7 0.218072 0.479152 0.759568
O O8 0.113945 0.250804 0.761699
O O9 0.256936 0.227937 0.015072
O O10 0.646320 0.370177 0.363300
#
# Coordination Sequence:
#
# PCOD9347002 Si02
#       5
#     4   4   4   4   4
#     4  12  27  51  82 118 162 223 274 364 420 520
#     4  12  26  49  82 119 161 215 279 341 425 507
#     4  12  28  51  78 118 165 215 281 349 433 519
#     4  12  28  49  79 121 159 224 276 357 429 518
#     4  12  29  52  79 118 169 213 294 345 439 510
#
# _framework density 26.493355999999999
#
# number of rings (size 3 to 8) (size 9 to 14) (size 15 to 20)
#    0.000    0.000    6.000    2.400    2.800    1.600 
#    0.000    0.000    0.000    0.000    0.000    0.000 
#    0.000    0.000    0.000    0.000    0.000    0.000 
#
# Total GULP energy -112055.512714 kJ/mol
# GULP energy per Si atom -5602.775636 kJ/mol
# Density = 2.643306 g / cm^3
# Si number density = 26.493356 Si / 1000 Ang^3
#
#
#
# Elastic Constant Matrix: (Units=GPa)
#
#
# Indices 1 2 3 4 5 6 
#
# 1 87.0306 39.4121 11.5374 0.0000 0.0000 0.0000
# 2 39.4121 226.5234 65.0530 0.0000 0.0000 0.0000
# 3 11.5374 65.0530 86.0977 0.0000 0.0000 0.0000
# 4 0.0000 0.0000 0.0000 50.9752 0.0000 0.0000
# 5 0.0000 0.0000 0.0000 0.0000 28.6685 0.0000
# 6 0.0000 0.0000 0.0000 0.0000 0.0000 55.0598
#
#
#
# Elastic Compliance Matrix: (Units=1/GPa)
#
#
# Indices 1 2 3 4 5 6 
#
# 1 0.012473 -0.002159 -0.000041 0.000000 0.000000 0.000000
# 2 -0.002159 0.006011 -0.004253 0.000000 0.000000 0.000000
# 3 -0.000041 -0.004253 0.014833 0.000000 0.000000 0.000000
# 4 0.000000 0.000000 0.000000 0.019617 0.000000 0.000000
# 5 0.000000 0.000000 0.000000 0.000000 0.034881 0.000000
# 6 0.000000 0.000000 0.000000 0.000000 0.000000 0.018162
#
#
# Mechanical properties :
#
#
# Convention : Reuss Voigt Hill
#
# Bulk Modulus (GPa) = 48.98542 70.18409 59.58475
# Shear Modulus (GPa) = 39.78124 45.85064 42.81594
#
# Velocity S-wave (km/s) = 3.87919 4.16462 4.02444
# Velocity P-wave (km/s) = 6.21241 7.04799 6.64335
#
# Compressibility (1/GPa) = 0.02041424
#
# Stress axis : x y z
#
# Youngs Moduli (GPa) = 80.17267 166.34966 67.41520
#
# Poissons Ratio (x) = 0.35907 0.00273
# Poissons Ratio (y) = 0.17305 0.28670
# Poissons Ratio (z) = 0.00325 0.70746
#
# Static dielectric constant tensor:
#      x y z
#    x 2.153880 0.000000 0.000000 
#    y 0.000000 2.034770 0.000000 
#    z 0.000000 0.000000 2.154800 
# 
# From -- ./inp_files/1650.got.cif
#   From: 2010.05.17/outbox.cif.g08.bks.cpg/sg33_1_cif.got.tgz:1650.got - 2010.06.03 17:15:25.
