data_PCOD9347130
_publ_section_title
;
Structure prediction by ZEFSAII (Michael W. Deem and Ramdas Pophale) SiO2 
 PCOD9347130
Probable space group: P N N 2
;
_chemical_formula_sum "Si O2"
_cell_formula_units_Z 32
_cell_length_a 16.415816
_cell_length_b 20.768801
_cell_length_c 5.183349
_cell_angle_alpha 90.000000
_cell_angle_beta 90.000000
_cell_angle_gamma 90.000000
_cell_volume 1767.194503
_symmetry_space_group_name_H-M "P N N 2"
_symmetry_group_IT_number 34
_symmetry_cell_setting 'orthorhombic'
loop_
_space_group_symop_operation_xyz
x,y,z
-x,-y,z
1/2-x,1/2+y,1/2+z
1/2+x,1/2-y,1/2+z
loop_
_atom_site_type_symbol
_atom_site_label
_atom_site_fract_x
_atom_site_fract_y
_atom_site_fract_z
Si Si1 0.131389 0.594563 0.154280
Si Si2 0.242701 0.486515 0.047413
Si Si3 0.216221 0.402756 0.546877
Si Si4 0.048510 0.560762 0.655919
Si Si5 0.027045 0.725286 0.116150
Si Si6 0.564194 0.183926 0.119854
Si Si7 0.931164 0.053300 0.539776
Si Si8 0.094864 0.866595 0.038927
O O1 0.217413 0.561569 0.078408
O O2 0.118684 0.578504 0.454013
O O3 0.095810 0.667351 0.113099
O O4 0.075399 0.555053 0.951489
O O5 0.206329 0.444193 0.284764
O O6 0.340319 0.477471 0.051301
O O7 0.209961 0.452513 0.786542
O O8 0.155114 0.342464 0.576506
O O9 0.307789 0.375592 0.546964
O O10 0.000000 0.500000 0.560246
O O11 0.985815 0.618193 0.635906
O O12 0.975597 0.720894 0.379520
O O13 0.070821 0.793176 0.083909
O O14 0.961238 0.717500 0.886045
O O15 0.939868 0.088834 0.266764
O O16 0.934918 0.105957 0.766236
O O17 0.000000 0.000000 0.574353
#
# Coordination Sequence:
#
# PCOD9347130 Si02
#       8
#     4   4   4   4   4   4   4   4
#     4  10  19  30  46  71 105 137 167 204 255 315
#     4  10  19  33  54  80 107 135 173 226 273 315
#     4  10  20  34  55  78 103 138 181 224 269 314
#     4  10  18  27  44  70 101 136 167 204 251 298
#     4  10  21  35  51  75 110 148 176 209 263 324
#     4  10  19  32  51  76 106 138 181 219 247 314
#     4  10  21  38  62  84 102 132 182 234 276 310
#     4  10  21  39  59  78 108 144 176 220 273 322
#
# _framework density 18.107796
#
# number of rings (size 3 to 8) (size 9 to 14) (size 15 to 20)
#    0.000    2.000    0.000    4.500    0.000    2.000 
#    0.000    2.500    0.000    3.000    0.000    0.000 
#    0.000    0.000    0.000    0.000    0.000    0.000 
#
# Total GULP energy -178273.252402 kJ/mol
# GULP energy per Si atom -5571.039138 kJ/mol
# Density = 1.806658 g / cm^3
# Si number density = 18.107796 Si / 1000 Ang^3
#
#
#
# Elastic Constant Matrix: (Units=GPa)
#
#
# Indices 1 2 3 4 5 6 
#
# 1 33.2731 23.8164 1.8940 0.0000 0.0000 0.0000
# 2 23.8164 52.1680 -3.5746 0.0000 0.0000 0.0000
# 3 1.8940 -3.5746 90.2626 0.0000 0.0000 0.0000
# 4 0.0000 0.0000 0.0000 16.5589 0.0000 0.0000
# 5 0.0000 0.0000 0.0000 0.0000 12.0344 0.0000
# 6 0.0000 0.0000 0.0000 0.0000 0.0000 27.2934
#
#
#
# Elastic Compliance Matrix: (Units=1/GPa)
#
#
# Indices 1 2 3 4 5 6 
#
# 1 0.044919 -0.020628 -0.001759 0.000000 0.000000 0.000000
# 2 -0.020628 0.028694 0.001569 0.000000 0.000000 0.000000
# 3 -0.001759 0.001569 0.011178 0.000000 0.000000 0.000000
# 4 0.000000 0.000000 0.000000 0.060390 0.000000 0.000000
# 5 0.000000 0.000000 0.000000 0.000000 0.083095 0.000000
# 6 0.000000 0.000000 0.000000 0.000000 0.000000 0.036639
#
#
# Mechanical properties :
#
#
# Convention : Reuss Voigt Hill
#
# Bulk Modulus (GPa) = 23.17239 24.44170 23.80705
# Shear Modulus (GPa) = 15.57943 21.41521 18.49732
#
# Velocity S-wave (km/s) = 2.93639 3.44270 3.19958
# Velocity P-wave (km/s) = 4.93165 5.41573 5.17935
#
# Compressibility (1/GPa) = 0.04315481
#
# Stress axis : x y z
#
# Youngs Moduli (GPa) = 22.26207 34.85102 89.46262
#
# Poissons Ratio (x) = 0.71890 0.15741
# Poissons Ratio (y) = 0.45922 -0.14038
# Poissons Ratio (z) = 0.03917 -0.05469
#
# Static dielectric constant tensor:
#      x y z
#    x 1.612750 0.000000 0.000000 
#    y 0.000000 1.598110 0.000000 
#    z 0.000000 0.000000 1.669450 
# 
# From -- ./inp_files/1326.got.cif
#   From: 2010.05.17/outbox.cif.g08.bks.cpg/sg34_1_cif.got.tgz:1326.got - 2010.06.03 17:23:11.
