data_PCOD9347657
_publ_section_title
;
Structure prediction by ZEFSAII (Michael W. Deem and Ramdas Pophale) SiO2 
 PCOD9347657
Probable space group: P N N 2
;
_chemical_formula_sum "Si O2"
_cell_formula_units_Z 26
_cell_length_a 25.111762
_cell_length_b 8.651614
_cell_length_c 5.253416
_cell_angle_alpha 90.000000
_cell_angle_beta 90.000000
_cell_angle_gamma 90.000000
_cell_volume 1141.342827
_symmetry_space_group_name_H-M "P N N 2"
_symmetry_group_IT_number 34
_symmetry_cell_setting 'orthorhombic'
loop_
_space_group_symop_operation_xyz
x,y,z
-x,-y,z
1/2-x,1/2+y,1/2+z
1/2+x,1/2-y,1/2+z
loop_
_atom_site_type_symbol
_atom_site_label
_atom_site_fract_x
_atom_site_fract_y
_atom_site_fract_z
Si Si1 0.101728 0.628318 0.104950
Si Si2 0.687882 0.060511 0.882836
Si Si3 0.500000 0.000000 0.903477
Si Si4 0.146188 0.129783 0.845019
Si Si5 0.353553 0.428255 0.846547
Si Si6 0.086827 0.395945 0.708104
Si Si7 0.752946 0.270509 0.516138
O O1 0.158078 0.545091 0.169501
O O2 0.049085 0.559862 0.238697
O O3 0.108007 0.797416 0.224256
O O4 0.092561 0.570759 0.815466
O O5 0.726164 0.184564 0.754568
O O6 0.719656 0.937474 0.055315
O O7 0.635635 0.128327 0.015812
O O8 0.529458 0.122269 0.085535
O O9 0.131341 0.020222 0.605958
O O10 0.101488 0.260080 0.900686
O O11 0.205318 0.203166 0.814421
O O12 0.153722 0.039960 0.108447
O O13 0.298998 0.341555 0.917299
#
# Coordination Sequence:
#
# PCOD9347657 Si02
#       7
#     4   4   2   4   4   4   4
#     4  10  23  45  72 104 135 187 244 308 363 446
#     4  10  22  40  67 101 143 189 241 290 355 433
#     4  10  24  46  82 100 134 178 254 308 380 430
#     4  12  26  44  69 101 151 191 237 297 360 434
#     4  11  28  44  69 104 154 191 238 295 368 430
#     4  11  24  45  76 103 138 187 251 307 366 444
#     4  11  22  42  65 102 146 199 240 287 351 431
#
# _framework density 22.780186
#
# number of rings (size 3 to 8) (size 9 to 14) (size 15 to 20)
#    0.000    1.231    3.077    1.385   10.769    1.231 
#    2.769    0.769    0.000    0.000    0.000    0.000 
#    0.000    0.000    0.000    0.000    0.000    0.000 
#
# Total GULP energy -145080.436455 kJ/mol
# GULP energy per Si atom -5580.016787 kJ/mol
# Density = 2.272834 g / cm^3
# Si number density = 22.780186 Si / 1000 Ang^3
#
#
#
# Elastic Constant Matrix: (Units=GPa)
#
#
# Indices 1 2 3 4 5 6 
#
# 1 114.7692 42.0960 22.7161 0.0000 0.0000 0.0000
# 2 42.0960 105.9547 38.8791 0.0000 0.0000 0.0000
# 3 22.7161 38.8791 93.0595 0.0000 0.0000 0.0000
# 4 0.0000 0.0000 0.0000 26.0448 0.0000 0.0000
# 5 0.0000 0.0000 0.0000 0.0000 30.6448 0.0000
# 6 0.0000 0.0000 0.0000 0.0000 0.0000 19.5641
#
#
#
# Elastic Compliance Matrix: (Units=1/GPa)
#
#
# Indices 1 2 3 4 5 6 
#
# 1 0.010270 -0.003733 -0.000947 0.000000 0.000000 0.000000
# 2 -0.003733 0.012503 -0.004313 0.000000 0.000000 0.000000
# 3 -0.000947 -0.004313 0.012779 0.000000 0.000000 0.000000
# 4 0.000000 0.000000 0.000000 0.038395 0.000000 0.000000
# 5 0.000000 0.000000 0.000000 0.000000 0.032632 0.000000
# 6 0.000000 0.000000 0.000000 0.000000 0.000000 0.051114
#
#
# Mechanical properties :
#
#
# Convention : Reuss Voigt Hill
#
# Bulk Modulus (GPa) = 56.92581 57.90731 57.41656
# Shear Modulus (GPa) = 27.54302 29.25690 28.39996
#
# Velocity S-wave (km/s) = 3.48095 3.58762 3.53469
# Velocity P-wave (km/s) = 6.41868 6.52967 6.47441
#
# Compressibility (1/GPa) = 0.01756672
#
# Stress axis : x y z
#
# Youngs Moduli (GPa) = 97.37371 79.97810 78.25422
#
# Poissons Ratio (x) = 0.29852 0.07414
# Poissons Ratio (y) = 0.36345 0.33748
# Poissons Ratio (z) = 0.09226 0.34492
#
# Static dielectric constant tensor:
#      x y z
#    x 1.802760 0.000000 0.000000 
#    y 0.000000 1.981860 0.000000 
#    z 0.000000 0.000000 1.984460 
# 
# From -- ./inp_files/1750.got.cif
#   From: 2010.05.17/outbox.cif.g08.bks.cpg/sg34_1_cif.got.tgz:1750.got - 2010.06.03 17:23:11.
