data_PCOD9347465
_publ_section_title
;
Structure prediction by ZEFSAII (Michael W. Deem and Ramdas Pophale) SiO2 
 PCOD9347465
Probable space group: P N N 2
;
_chemical_formula_sum "Si O2"
_cell_formula_units_Z 22
_cell_length_a 15.178181
_cell_length_b 5.129461
_cell_length_c 11.975602
_cell_angle_alpha 90.000000
_cell_angle_beta 90.000000
_cell_angle_gamma 90.000000
_cell_volume 932.371122
_symmetry_space_group_name_H-M "P N N 2"
_symmetry_group_IT_number 34
_symmetry_cell_setting 'orthorhombic'
loop_
_space_group_symop_operation_xyz
x,y,z
-x,-y,z
1/2-x,1/2+y,1/2+z
1/2+x,1/2-y,1/2+z
loop_
_atom_site_type_symbol
_atom_site_label
_atom_site_fract_x
_atom_site_fract_y
_atom_site_fract_z
Si Si1 0.904833 0.616021 0.777400
Si Si2 0.000000 0.500000 0.229676
Si Si3 0.406843 0.397352 0.559006
Si Si4 0.226435 0.499629 0.947203
Si Si5 0.337820 0.740260 0.758943
Si Si6 0.173007 0.905239 0.670120
O O1 0.850935 0.672330 0.891519
O O2 0.859300 0.378073 0.709291
O O3 0.000000 0.500000 0.804677
O O4 0.896624 0.873659 0.702509
O O5 0.055822 0.686477 0.148532
O O6 0.070023 0.345589 0.301864
O O7 0.500000 0.500000 0.505633
O O8 0.332223 0.251137 0.486797
O O9 0.361568 0.612600 0.639061
O O10 0.293124 0.554165 0.846776
O O11 0.289930 0.408760 0.045611
O O12 0.263566 0.958020 0.738613
#
# Coordination Sequence:
#
# PCOD9347465 Si02
#       6
#     4   2   4   4   4   4
#     4  11  27  47  71 102 144 182 231 290 348 414
#     4  10  20  42  64  90 140 168 226 288 336 390
#     4  10  22  42  65 100 136 175 226 294 338 398
#     4  11  23  41  72  98 131 184 235 274 345 415
#     4  10  23  41  67  98 139 177 227 287 340 407
#     4  11  24  46  69 102 142 181 227 289 347 408
#
# _framework density 23.595758
#
# number of rings (size 3 to 8) (size 9 to 14) (size 15 to 20)
#    0.000    1.455    1.818    2.727    1.273    8.727 
#    1.636    3.636    0.000    0.000    0.000    0.000 
#    0.000    0.000    0.000    0.000    0.000    0.000 
#
# Total GULP energy -122873.997665 kJ/mol
# GULP energy per Si atom -5585.181712 kJ/mol
# Density = 2.354205 g / cm^3
# Si number density = 23.595758 Si / 1000 Ang^3
#
#
#
# Elastic Constant Matrix: (Units=GPa)
#
#
# Indices 1 2 3 4 5 6 
#
# 1 74.4080 13.3610 15.4471 0.0000 0.0000 0.0000
# 2 13.3610 71.7164 -0.6486 0.0000 0.0000 0.0000
# 3 15.4471 -0.6486 79.0861 0.0000 0.0000 0.0000
# 4 0.0000 0.0000 0.0000 12.0500 0.0000 0.0000
# 5 0.0000 0.0000 0.0000 0.0000 28.9444 0.0000
# 6 0.0000 0.0000 0.0000 0.0000 0.0000 46.1880
#
#
#
# Elastic Compliance Matrix: (Units=1/GPa)
#
#
# Indices 1 2 3 4 5 6 
#
# 1 0.014523 -0.002732 -0.002859 0.000000 0.000000 0.000000
# 2 -0.002732 0.014459 0.000652 0.000000 0.000000 0.000000
# 3 -0.002859 0.000652 0.013208 0.000000 0.000000 0.000000
# 4 0.000000 0.000000 0.000000 0.082987 0.000000 0.000000
# 5 0.000000 0.000000 0.000000 0.000000 0.034549 0.000000
# 6 0.000000 0.000000 0.000000 0.000000 0.000000 0.021651
#
#
# Mechanical properties :
#
#
# Convention : Reuss Voigt Hill
#
# Bulk Modulus (GPa) = 30.94724 31.28106 31.11415
# Shear Modulus (GPa) = 24.74932 30.57321 27.66126
#
# Velocity S-wave (km/s) = 3.24217 3.60350 3.42760
# Velocity P-wave (km/s) = 5.21149 5.53168 5.37397
#
# Compressibility (1/GPa) = 0.03231306
#
# Stress axis : x y z
#
# Youngs Moduli (GPa) = 68.85409 69.16287 75.71033
#
# Poissons Ratio (x) = 0.18893 0.21646
# Poissons Ratio (y) = 0.18808 -0.04937
# Poissons Ratio (z) = 0.19686 -0.04510
#
# Static dielectric constant tensor:
#      x y z
#    x 1.912440 0.000000 0.000000 
#    y 0.000000 1.951930 0.000000 
#    z 0.000000 0.000000 1.893900 
# 
# From -- ./inp_files/4390.got.cif
#   From: 2010.05.17/outbox.cif.g08.bks.cpg/sg34_3_cif.got.tgz:4390.got - 2010.06.03 17:23:11.
