data_PCOD9347019
_publ_section_title
;
Structure prediction by ZEFSAII (Michael W. Deem and Ramdas Pophale) SiO2 
 PCOD9347019
Probable space group: P N A 21
;
_chemical_formula_sum "Si O2"
_cell_formula_units_Z 16
_cell_length_a 9.247949
_cell_length_b 3.476339
_cell_length_c 15.767996
_cell_angle_alpha 90.000000
_cell_angle_beta 90.000000
_cell_angle_gamma 90.000000
_cell_volume 506.925395
_symmetry_space_group_name_H-M "P N A 21"
_symmetry_group_IT_number 33
_symmetry_cell_setting 'orthorhombic'
loop_
_space_group_symop_operation_xyz
x,y,z
-x,-y,1/2+z
1/2-x,1/2+y,1/2+z
1/2+x,1/2-y,z
loop_
_atom_site_type_symbol
_atom_site_label
_atom_site_fract_x
_atom_site_fract_y
_atom_site_fract_z
Si Si1 0.890506 0.502006 0.016800
Si Si2 0.489618 0.715766 0.838219
Si Si3 0.294018 0.000562 0.592706
Si Si4 0.707223 0.225987 0.774821
O O1 0.845901 0.005238 0.020853
O O2 0.036255 0.500519 0.072569
O O3 0.560833 0.975953 0.763644
O O4 0.945080 0.543023 0.919816
O O5 0.638725 0.475746 0.853300
O O6 0.348963 0.497910 0.804639
O O7 0.734835 0.496730 0.074734
O O8 0.245210 0.041271 0.690733
#
# Coordination Sequence:
#
# PCOD9347019 Si02
#       4
#     4   4   4   4
#     4  12  27  50  78 113 158 210 266 332 405 482
#     4  12  27  50  80 119 161 211 271 339 408 485
#     4  12  27  50  77 113 159 211 265 329 405 487
#     4  12  27  50  79 117 162 212 270 338 408 488
#
# _framework density 31.562826999999999
#
# number of rings (size 3 to 8) (size 9 to 14) (size 15 to 20)
#    0.000    0.000    0.000    9.000    0.000    8.000 
#    0.000    2.500    0.000    0.000    0.000    0.000 
#    0.000    0.000    0.000    0.000    0.000    0.000 
#
# Total GULP energy -89483.776477 kJ/mol
# GULP energy per Si atom -5592.736030 kJ/mol
# Density = 3.149099 g / cm^3
# Si number density = 31.562827 Si / 1000 Ang^3
#
#
#
# Elastic Constant Matrix: (Units=GPa)
#
#
# Indices 1 2 3 4 5 6 
#
# 1 179.2048 32.5878 37.0489 0.0000 0.0000 0.0000
# 2 32.5878 137.0970 13.6550 0.0000 0.0000 0.0000
# 3 37.0489 13.6550 146.8997 0.0000 0.0000 0.0000
# 4 0.0000 0.0000 0.0000 116.5656 0.0000 0.0000
# 5 0.0000 0.0000 0.0000 0.0000 43.8699 0.0000
# 6 0.0000 0.0000 0.0000 0.0000 0.0000 143.5985
#
#
#
# Elastic Compliance Matrix: (Units=1/GPa)
#
#
# Indices 1 2 3 4 5 6 
#
# 1 0.006112 -0.001311 -0.001420 0.000000 0.000000 0.000000
# 2 -0.001311 0.007644 -0.000380 0.000000 0.000000 0.000000
# 3 -0.001420 -0.000380 0.007201 0.000000 0.000000 0.000000
# 4 0.000000 0.000000 0.000000 0.008579 0.000000 0.000000
# 5 0.000000 0.000000 0.000000 0.000000 0.022795 0.000000
# 6 0.000000 0.000000 0.000000 0.000000 0.000000 0.006964
#
#
# Mechanical properties :
#
#
# Convention : Reuss Voigt Hill
#
# Bulk Modulus (GPa) = 67.86622 69.97611 68.92116
# Shear Modulus (GPa) = 70.99524 86.13412 78.56468
#
# Velocity S-wave (km/s) = 4.74786 5.22963 4.99455
# Velocity P-wave (km/s) = 7.18365 7.66054 7.42592
#
# Compressibility (1/GPa) = 0.01473487
#
# Stress axis : x y z
#
# Youngs Moduli (GPa) = 163.60759 130.82736 138.87532
#
# Poissons Ratio (x) = 0.17158 0.19715
# Poissons Ratio (y) = 0.21457 0.05274
# Poissons Ratio (z) = 0.23226 0.04968
#
# Static dielectric constant tensor:
#      x y z
#    x 2.196910 0.000000 0.000000 
#    y 0.000000 3.922920 0.000000 
#    z 0.000000 0.000000 2.309730 
# 
# From -- ./inp_files/2961.got.cif
#   From: 2010.05.17/outbox.cif.g08.bks.cpg/sg33_2_cif.got.tgz:2961.got - 2010.06.03 17:15:25.
