data_PCOD9347431
_publ_section_title
;
Structure prediction by ZEFSAII (Michael W. Deem and Ramdas Pophale) SiO2 
 PCOD9347431
Probable space group: P N N 2
;
_chemical_formula_sum "Si O2"
_cell_formula_units_Z 32
_cell_length_a 7.659834
_cell_length_b 12.466186
_cell_length_c 15.459489
_cell_angle_alpha 90.000000
_cell_angle_beta 90.000000
_cell_angle_gamma 90.000000
_cell_volume 1476.209837
_symmetry_space_group_name_H-M "P N N 2"
_symmetry_group_IT_number 34
_symmetry_cell_setting 'orthorhombic'
loop_
_space_group_symop_operation_xyz
x,y,z
-x,-y,z
1/2-x,1/2+y,1/2+z
1/2+x,1/2-y,1/2+z
loop_
_atom_site_type_symbol
_atom_site_label
_atom_site_fract_x
_atom_site_fract_y
_atom_site_fract_z
Si Si1 0.291224 0.257779 0.325730
Si Si2 0.783822 0.378451 0.660121
Si Si3 0.694494 0.013047 0.610345
Si Si4 0.716498 0.719162 0.009143
Si Si5 0.804983 0.015536 0.793722
Si Si6 0.206135 0.223576 0.813225
Si Si7 0.710846 0.125239 0.156890
Si Si8 0.700432 0.295243 0.016625
O O1 0.224508 0.185821 0.246105
O O2 0.215888 0.378899 0.332556
O O3 0.495624 0.276143 0.305053
O O4 0.268513 0.204267 0.418767
O O5 0.727695 0.313544 0.574742
O O6 0.728271 0.502462 0.659322
O O7 0.997425 0.378317 0.659668
O O8 0.699787 0.109082 0.542261
O O9 0.815200 0.041345 0.691516
O O10 0.500000 0.000000 0.645505
O O11 0.747769 0.902374 0.566752
O O12 0.756856 0.740714 0.910067
O O13 0.508506 0.708119 0.015952
O O14 0.724612 0.897330 0.800691
O O15 0.000000 0.000000 0.831122
O O16 0.270363 0.305325 0.739776
O O17 0.761831 0.191664 0.071297
#
# Coordination Sequence:
#
# PCOD9347431 Si02
#       8
#     4   4   4   4   4   4   4   4
#     4  10  21  38  61  88 121 161 205 251 303 361
#     4   9  19  37  60  85 119 161 200 241 296 359
#     4  12  24  40  64  89 118 157 212 263 307 363
#     4  11  23  40  62  89 124 161 203 253 309 365
#     4  10  20  40  64  87 122 165 206 253 309 359
#     4  10  21  38  61  88 121 161 205 251 303 361
#     4   9  19  37  60  85 119 161 200 241 296 359
#     4  11  23  40  62  89 124 161 203 253 309 365
#
# _framework density 21.677136000000001
#
# number of rings (size 3 to 8) (size 9 to 14) (size 15 to 20)
#    0.000    1.750    2.500    1.875    3.500    1.000 
#    0.000    0.000    0.000    3.000    0.000    0.000 
#    0.000    0.000    0.000    0.000    0.000    0.000 
#
# Total GULP energy -178792.621095 kJ/mol
# GULP energy per Si atom -5587.269409 kJ/mol
# Density = 2.162780 g / cm^3
# Si number density = 21.677136 Si / 1000 Ang^3
#
#
#
# Elastic Constant Matrix: (Units=GPa)
#
#
# Indices 1 2 3 4 5 6 
#
# 1 44.3144 8.4177 -0.8807 0.0000 0.0000 0.0000
# 2 8.4177 121.9259 7.5243 0.0000 0.0000 0.0000
# 3 -0.8807 7.5243 79.3714 0.0000 0.0000 0.0000
# 4 0.0000 0.0000 0.0000 44.3842 0.0000 0.0000
# 5 0.0000 0.0000 0.0000 0.0000 22.2095 0.0000
# 6 0.0000 0.0000 0.0000 0.0000 0.0000 -6.0755
#
#
#
# Elastic Compliance Matrix: (Units=1/GPa)
#
#
# Indices 1 2 3 4 5 6 
#
# 1 0.022879 -0.001605 0.000406 0.000000 0.000000 0.000000
# 2 -0.001605 0.008363 -0.000811 0.000000 0.000000 0.000000
# 3 0.000406 -0.000811 0.012680 0.000000 0.000000 0.000000
# 4 0.000000 0.000000 0.000000 0.022531 0.000000 0.000000
# 5 0.000000 0.000000 0.000000 0.000000 0.045026 0.000000
# 6 0.000000 0.000000 0.000000 0.000000 0.000000 -0.164595
#
#
# Mechanical properties :
#
#
# Convention : Reuss Voigt Hill
#
# Bulk Modulus (GPa) = 25.06051 30.63713 27.84882
# Shear Modulus (GPa) = -139.67521 27.47367 -56.10077
#
# Velocity S-wave (km/s) = -8.03581 3.56392 -5.09277
# Velocity P-wave (km/s) = 8.63210 5.57669 4.65906
#
# Compressibility (1/GPa) = 0.03990341
#
# Stress axis : x y z
#
# Youngs Moduli (GPa) = 43.70836 119.58140 78.86220
#
# Poissons Ratio (x) = 0.19188 -0.03202
# Poissons Ratio (y) = 0.07013 0.06392
# Poissons Ratio (z) = -0.01775 0.09693
#
# Static dielectric constant tensor:
#      x y z
#    x 1.824820 0.000000 0.000000 
#    y 0.000000 1.749810 0.000000 
#    z 0.000000 0.000000 1.740510 
# 
# From -- ./inp_files/6563.got.cif
#   From: 2010.05.17/outbox.cif.g08.bks.cpg/sg34_4_cif.got.tgz:6563.got - 2010.06.03 17:23:11.
