data_PCOD9347481
_publ_section_title
;
Structure prediction by ZEFSAII (Michael W. Deem and Ramdas Pophale) SiO2 
 PCOD9347481
Probable space group: P N N 2
;
_chemical_formula_sum "Si O2"
_cell_formula_units_Z 24
_cell_length_a 12.214255
_cell_length_b 11.326815
_cell_length_c 9.026974
_cell_angle_alpha 90.000000
_cell_angle_beta 90.000000
_cell_angle_gamma 90.000000
_cell_volume 1248.869276
_symmetry_space_group_name_H-M "P N N 2"
_symmetry_group_IT_number 34
_symmetry_cell_setting 'orthorhombic'
loop_
_space_group_symop_operation_xyz
x,y,z
-x,-y,z
1/2-x,1/2+y,1/2+z
1/2+x,1/2-y,1/2+z
loop_
_atom_site_type_symbol
_atom_site_label
_atom_site_fract_x
_atom_site_fract_y
_atom_site_fract_z
Si Si1 0.349781 0.945018 0.754300
Si Si2 0.500000 0.000000 0.021702
Si Si3 0.304477 0.185961 0.613418
Si Si4 0.952060 0.758308 0.617337
Si Si5 0.500000 0.500000 0.580495
Si Si6 0.997061 0.781743 0.275130
Si Si7 0.375923 0.343807 0.354625
O O1 0.432649 0.836856 0.725535
O O2 0.231991 0.887796 0.774279
O O3 0.335982 0.050011 0.638549
O O4 0.396552 0.002279 0.907622
O O5 0.518880 0.118562 0.114296
O O6 0.176433 0.213603 0.636343
O O7 0.377235 0.259562 0.730867
O O8 0.342760 0.230735 0.452771
O O9 0.981482 0.797791 0.449766
O O10 0.025831 0.819204 0.741787
O O11 0.543137 0.394711 0.683913
O O12 0.410800 0.442850 0.472857
#
# Coordination Sequence:
#
# PCOD9347481 Si02
#       7
#     4   2   4   4   2   4   4
#     4  11  20  43  71  91 136 182 221 283 343 406
#     4  10  20  44  68  90 140 180 224 276 336 416
#     4  11  21  42  70  97 136 176 228 280 346 410
#     4  11  23  45  67 105 135 180 230 284 347 409
#     4  10  24  42  64  96 142 174 230 274 340 406
#     4  10  22  44  69  94 134 187 223 281 350 405
#     4  11  24  42  66 103 135 175 229 284 338 411
#
# _framework density 19.217383999999999
#
# number of rings (size 3 to 8) (size 9 to 14) (size 15 to 20)
#    0.000    1.333    6.667    1.000    0.000    3.333 
#   12.000    0.000    0.000    0.000    0.000    0.000 
#    0.000    0.000    0.000    0.000    0.000    0.000 
#
# Total GULP energy -133909.888057 kJ/mol
# GULP energy per Si atom -5579.578669 kJ/mol
# Density = 1.917364 g / cm^3
# Si number density = 19.217384 Si / 1000 Ang^3
#
#
#
# Elastic Constant Matrix: (Units=GPa)
#
#
# Indices 1 2 3 4 5 6 
#
# 1 150.4213 45.5697 69.3165 0.0000 0.0000 0.0000
# 2 45.5697 123.0840 65.0204 0.0000 0.0000 0.0000
# 3 69.3165 65.0204 88.5922 0.0000 0.0000 0.0000
# 4 0.0000 0.0000 0.0000 32.4824 0.0000 0.0000
# 5 0.0000 0.0000 0.0000 0.0000 13.2403 0.0000
# 6 0.0000 0.0000 0.0000 0.0000 0.0000 17.2491
#
#
#
# Elastic Compliance Matrix: (Units=1/GPa)
#
#
# Indices 1 2 3 4 5 6 
#
# 1 0.010437 0.000735 -0.008705 0.000000 0.000000 0.000000
# 2 0.000735 0.013321 -0.010351 0.000000 0.000000 0.000000
# 3 -0.008705 -0.010351 0.025696 0.000000 0.000000 0.000000
# 4 0.000000 0.000000 0.000000 0.030786 0.000000 0.000000
# 5 0.000000 0.000000 0.000000 0.000000 0.075527 0.000000
# 6 0.000000 0.000000 0.000000 0.000000 0.000000 0.057974
#
#
# Mechanical properties :
#
#
# Convention : Reuss Voigt Hill
#
# Bulk Modulus (GPa) = 78.06506 80.21230 79.13868
# Shear Modulus (GPa) = 19.63446 24.74040 22.18743
#
# Velocity S-wave (km/s) = 3.19988 3.59192 3.40155
# Velocity P-wave (km/s) = 7.37310 7.68327 7.52978
#
# Compressibility (1/GPa) = 0.01280983
#
# Stress axis : x y z
#
# Youngs Moduli (GPa) = 95.81328 75.07115 38.91683
#
# Poissons Ratio (x) = -0.05514 0.33878
# Poissons Ratio (y) = -0.07037 0.40283
# Poissons Ratio (z) = 0.83407 0.77707
#
# Static dielectric constant tensor:
#      x y z
#    x 1.652870 0.000000 0.000000 
#    y 0.000000 1.708050 0.000000 
#    z 0.000000 0.000000 1.664810 
# 
# From -- ./inp_files/3178.got.cif
#   From: 2010.05.17/outbox.cif.g08.bks.cpg/sg34_2_cif.got.tgz:3178.got - 2010.06.03 17:23:11.
