data_PCOD9347917
_publ_section_title
;
Structure prediction by ZEFSAII (Michael W. Deem and Ramdas Pophale) SiO2 
 PCOD9347917
Probable space group: P N N 2
;
_chemical_formula_sum "Si O2"
_cell_formula_units_Z 24
_cell_length_a 7.698448
_cell_length_b 11.345528
_cell_length_c 12.002836
_cell_angle_alpha 90.000000
_cell_angle_beta 90.000000
_cell_angle_gamma 90.000000
_cell_volume 1048.363193
_symmetry_space_group_name_H-M "P N N 2"
_symmetry_group_IT_number 34
_symmetry_cell_setting 'orthorhombic'
loop_
_space_group_symop_operation_xyz
x,y,z
-x,-y,z
1/2-x,1/2+y,1/2+z
1/2+x,1/2-y,1/2+z
loop_
_atom_site_type_symbol
_atom_site_label
_atom_site_fract_x
_atom_site_fract_y
_atom_site_fract_z
Si Si1 0.163217 0.410545 0.445560
Si Si2 0.809237 0.535470 0.871891
Si Si3 0.709174 0.017199 0.702663
Si Si4 0.274634 0.663794 0.028590
Si Si5 0.682363 0.466800 0.643970
Si Si6 0.859137 0.716101 0.032216
O O1 0.249686 0.433366 0.325095
O O2 0.120900 0.276633 0.481930
O O3 0.295500 0.449882 0.539373
O O4 0.000000 0.500000 0.453912
O O5 0.808562 0.503687 0.742673
O O6 0.000000 0.500000 0.915261
O O7 0.695590 0.440113 0.938698
O O8 0.791417 0.671482 0.910677
O O9 0.727552 0.119068 0.612260
O O10 0.500000 0.000000 0.706898
O O11 0.797096 0.899834 0.649811
O O12 0.070173 0.704865 0.030642
O O13 0.500000 0.500000 0.698169
O O14 0.690213 0.338228 0.590234
#
# Coordination Sequence:
#
# PCOD9347917 Si02
#       6
#     4   4   4   4   4   4
#     4  11  22  36  57  89 123 156 201 250 316 382
#     4   9  20  39  65  86 115 165 213 261 315 374
#     4   8  17  34  61  85 109 155 206 252 302 361
#     4   9  17  37  63  86 116 157 207 258 310 374
#     4  12  23  37  57  87 128 160 202 259 321 378
#     4   9  18  38  61  87 116 155 208 256 312 372
#
# _framework density 22.892828999999999
#
# number of rings (size 3 to 8) (size 9 to 14) (size 15 to 20)
#    0.000    2.333    1.667    3.500    0.000    1.333 
#    6.000    0.000    0.000    0.000    0.000    0.000 
#    0.000    0.000    0.000    0.000    0.000    0.000 
#
# Total GULP energy -133611.018164 kJ/mol
# GULP energy per Si atom -5567.125757 kJ/mol
# Density = 2.284072 g / cm^3
# Si number density = 22.892829 Si / 1000 Ang^3
#
#
#
# Elastic Constant Matrix: (Units=GPa)
#
#
# Indices 1 2 3 4 5 6 
#
# 1 39.7344 17.4269 7.0081 0.0000 0.0000 0.0000
# 2 17.4269 165.6585 69.9401 0.0000 0.0000 0.0000
# 3 7.0081 69.9401 129.9585 0.0000 0.0000 0.0000
# 4 0.0000 0.0000 0.0000 24.4880 0.0000 0.0000
# 5 0.0000 0.0000 0.0000 0.0000 -49.6154 0.0000
# 6 0.0000 0.0000 0.0000 0.0000 0.0000 -69.2978
#
#
#
# Elastic Compliance Matrix: (Units=1/GPa)
#
#
# Indices 1 2 3 4 5 6 
#
# 1 0.026385 -0.002814 0.000092 0.000000 0.000000 0.000000
# 2 -0.002814 0.008112 -0.004214 0.000000 0.000000 0.000000
# 3 0.000092 -0.004214 0.009957 0.000000 0.000000 0.000000
# 4 0.000000 0.000000 0.000000 0.040836 0.000000 0.000000
# 5 0.000000 0.000000 0.000000 0.000000 -0.020155 0.000000
# 6 0.000000 0.000000 0.000000 0.000000 0.000000 -0.014430
#
#
# Mechanical properties :
#
#
# Convention : Reuss Voigt Hill
#
# Bulk Modulus (GPa) = 32.69920 58.23350 45.46635
# Shear Modulus (GPa) = 66.87032 -2.81995 32.02519
#
# Velocity S-wave (km/s) = 5.41051 -1.11107 3.74427
# Velocity P-wave (km/s) = 7.30384 4.88331 6.21260
#
# Compressibility (1/GPa) = 0.03058179
#
# Stress axis : x y z
#
# Youngs Moduli (GPa) = 37.89992 123.28076 100.42693
#
# Poissons Ratio (x) = 0.34696 -0.00922
# Poissons Ratio (y) = 0.10667 0.42316
# Poissons Ratio (z) = -0.00348 0.51946
#
# Static dielectric constant tensor:
#      x y z
#    x 2.361900 0.000000 0.000000 
#    y 0.000000 1.970240 0.000000 
#    z 0.000000 0.000000 1.864710 
# 
# From -- ./inp_files/4926.got.cif
#   From: 2010.05.17/outbox.cif.g08.bks.cpg/sg34_3_cif.got.tgz:4926.got - 2010.06.03 17:23:11.
