data_PCOD9347541
_publ_section_title
;
Structure prediction by ZEFSAII (Michael W. Deem and Ramdas Pophale) SiO2 
 PCOD9347541
Probable space group: P N N 2
;
_chemical_formula_sum "Si O2"
_cell_formula_units_Z 32
_cell_length_a 8.742772
_cell_length_b 12.267370
_cell_length_c 14.617627
_cell_angle_alpha 90.000000
_cell_angle_beta 90.000000
_cell_angle_gamma 90.000000
_cell_volume 1567.752467
_symmetry_space_group_name_H-M "P N N 2"
_symmetry_group_IT_number 34
_symmetry_cell_setting 'orthorhombic'
loop_
_space_group_symop_operation_xyz
x,y,z
-x,-y,z
1/2-x,1/2+y,1/2+z
1/2+x,1/2-y,1/2+z
loop_
_atom_site_type_symbol
_atom_site_label
_atom_site_fract_x
_atom_site_fract_y
_atom_site_fract_z
Si Si1 0.177690 0.758804 0.536990
Si Si2 0.826571 0.499004 0.765233
Si Si3 0.456555 0.124612 0.800942
Si Si4 0.606932 0.823785 0.422453
Si Si5 0.301495 0.768344 0.342901
Si Si6 0.872591 0.670024 0.491615
Si Si7 0.177673 0.029095 0.079268
Si Si8 0.937177 0.622187 0.111881
O O1 0.206406 0.799832 0.434212
O O2 0.274983 0.646278 0.539526
O O3 0.258474 0.848492 0.600600
O O4 0.002893 0.725059 0.555318
O O5 0.840455 0.426440 0.858727
O O6 0.784068 0.624304 0.782155
O O7 0.714140 0.457822 0.687101
O O8 0.000000 0.500000 0.727684
O O9 0.280339 0.160036 0.807659
O O10 0.536171 0.147401 0.897770
O O11 0.513878 0.180098 0.706647
O O12 0.500000 0.000000 0.790405
O O13 0.481595 0.758649 0.362500
O O14 0.747650 0.755447 0.458316
O O15 0.513754 0.846010 0.515599
O O16 0.787946 0.565290 0.536113
O O17 0.000000 0.000000 0.063481
O O18 0.000000 0.500000 0.118024
#
# Coordination Sequence:
#
# PCOD9347541 Si02
#       8
#     4   4   4   4   4   4   4   4
#     4  10  21  39  63  86 129 171 212 270 340 394
#     4  10  22  39  63  97 132 168 217 279 338 409
#     4  10  22  39  64  90 125 172 224 273 334 411
#     4  10  21  39  63  94 130 173 217 276 342 403
#     4   9  19  38  63  87 125 169 211 270 333 393
#     4  11  23  40  61  94 134 175 217 283 341 406
#     4  12  25  39  65  97 130 173 230 282 338 410
#     4  10  21  41  66  91 125 174 226 274 339 413
#
# _framework density 20.411384999999999
#
# number of rings (size 3 to 8) (size 9 to 14) (size 15 to 20)
#    0.000    1.750    0.000    6.000    5.250    1.000 
#    0.000    3.125    0.000    3.000    0.000    0.000 
#    0.000    0.000    0.000    0.000    0.000    0.000 
#
# Total GULP energy -178136.472857 kJ/mol
# GULP energy per Si atom -5566.764777 kJ/mol
# Density = 2.036493 g / cm^3
# Si number density = 20.411385 Si / 1000 Ang^3
#
#
#
# Elastic Constant Matrix: (Units=GPa)
#
#
# Indices 1 2 3 4 5 6 
#
# 1 101.7619 56.5479 30.0151 0.0000 0.0000 0.0000
# 2 56.5479 83.4714 13.9271 0.0000 0.0000 0.0000
# 3 30.0151 13.9271 73.3371 0.0000 0.0000 0.0000
# 4 0.0000 0.0000 0.0000 -2.1208 0.0000 0.0000
# 5 0.0000 0.0000 0.0000 0.0000 31.0273 0.0000
# 6 0.0000 0.0000 0.0000 0.0000 0.0000 31.5044
#
#
#
# Elastic Compliance Matrix: (Units=1/GPa)
#
#
# Indices 1 2 3 4 5 6 
#
# 1 0.017395 -0.010943 -0.005041 0.000000 0.000000 0.000000
# 2 -0.010943 0.019256 0.000822 0.000000 0.000000 0.000000
# 3 -0.005041 0.000822 0.015543 0.000000 0.000000 0.000000
# 4 0.000000 0.000000 0.000000 -0.471516 0.000000 0.000000
# 5 0.000000 0.000000 0.000000 0.000000 0.032230 0.000000
# 6 0.000000 0.000000 0.000000 0.000000 0.000000 0.031742
#
#
# Mechanical properties :
#
#
# Convention : Reuss Voigt Hill
#
# Bulk Modulus (GPa) = 45.72612 51.06116 48.39364
# Shear Modulus (GPa) = -15.73629 22.62086 3.44229
#
# Velocity S-wave (km/s) = -2.77962 3.33265 1.30004
# Velocity P-wave (km/s) = 3.48556 6.31498 5.10040
#
# Compressibility (1/GPa) = 0.02186934
#
# Stress axis : x y z
#
# Youngs Moduli (GPa) = 57.48916 51.93099 64.33857
#
# Poissons Ratio (x) = 0.56828 0.32434
# Poissons Ratio (y) = 0.62910 -0.05287
# Poissons Ratio (z) = 0.28981 -0.04268
#
# Static dielectric constant tensor:
#      x y z
#    x 1.828620 0.000000 0.000000 
#    y 0.000000 1.755010 0.000000 
#    z 0.000000 0.000000 1.898410 
# 
# From -- ./inp_files/6589.got.cif
#   From: 2010.05.17/outbox.cif.g08.bks.cpg/sg34_4_cif.got.tgz:6589.got - 2010.06.03 17:23:11.
