data_PCOD9347050
_publ_section_title
;
Structure prediction by ZEFSAII (Michael W. Deem and Ramdas Pophale) SiO2 
 PCOD9347050
Probable space group: P N A 21
;
_chemical_formula_sum "Si O2"
_cell_formula_units_Z 28
_cell_length_a 9.906707
_cell_length_b 16.454685
_cell_length_c 6.990136
_cell_angle_alpha 90.000000
_cell_angle_beta 90.000000
_cell_angle_gamma 90.000000
_cell_volume 1139.474254
_symmetry_space_group_name_H-M "P N A 21"
_symmetry_group_IT_number 33
_symmetry_cell_setting 'orthorhombic'
loop_
_space_group_symop_operation_xyz
x,y,z
-x,-y,1/2+z
1/2-x,1/2+y,1/2+z
1/2+x,1/2-y,z
loop_
_atom_site_type_symbol
_atom_site_label
_atom_site_fract_x
_atom_site_fract_y
_atom_site_fract_z
Si Si1 0.131626 0.914590 0.980210
Si Si2 0.508901 0.158967 0.773638
Si Si3 0.271948 0.721895 0.309247
Si Si4 0.360092 0.997643 0.805432
Si Si5 0.500643 0.836109 0.808541
Si Si6 0.743808 0.256663 0.361955
Si Si7 0.907446 0.933969 0.266960
O O1 0.273230 0.964825 0.988952
O O2 0.175836 0.829372 0.887934
O O3 0.045188 0.981799 0.863810
O O4 0.036145 0.899495 0.157663
O O5 0.650153 0.194539 0.844573
O O6 0.386986 0.217397 0.842719
O O7 0.505430 0.160002 0.541716
O O8 0.463248 0.069900 0.833968
O O9 0.348106 0.641944 0.387000
O O10 0.285649 0.712311 0.076401
O O11 0.439583 0.919529 0.734250
O O12 0.235465 0.031987 0.676405
O O13 0.396036 0.764224 0.761692
O O14 0.653686 0.816720 0.759836
#
# Coordination Sequence:
#
# PCOD9347050 Si02
#       7
#     4   4   4   4   4   4   4
#     4   9  17  30  51  77 105 137 176 216 264 308
#     4   9  16  29  52  74 101 129 173 218 260 302
#     4   9  16  28  53  78 100 129 180 222 255 302
#     4   8  18  30  50  74 106 136 166 224 264 308
#     4   9  16  29  52  74 101 129 173 218 260 302
#     4   9  16  28  53  78 100 129 180 222 255 302
#     4   9  17  30  51  77 105 137 176 216 264 308
#
# _framework density 24.572735999999999
#
# number of rings (size 3 to 8) (size 9 to 14) (size 15 to 20)
#    0.857    2.286    0.000    2.571    0.000    0.000 
#    0.000    0.000   50.286    3.429    0.000    0.000 
#    0.000    0.000    0.000    0.000    0.000    0.000 
#
# Total GULP energy -155934.674991 kJ/mol
# GULP energy per Si atom -5569.095535 kJ/mol
# Density = 2.451681 g / cm^3
# Si number density = 24.572736 Si / 1000 Ang^3
#
#
#
# Elastic Constant Matrix: (Units=GPa)
#
#
# Indices 1 2 3 4 5 6 
#
# 1 120.5431 44.6005 3.6808 0.0000 0.0000 0.0000
# 2 44.6005 107.9972 -8.7374 0.0000 0.0000 0.0000
# 3 3.6808 -8.7374 70.6303 0.0000 0.0000 0.0000
# 4 0.0000 0.0000 0.0000 10.8840 0.0000 0.0000
# 5 0.0000 0.0000 0.0000 0.0000 -2.6055 0.0000
# 6 0.0000 0.0000 0.0000 0.0000 0.0000 90.5999
#
#
#
# Elastic Compliance Matrix: (Units=1/GPa)
#
#
# Indices 1 2 3 4 5 6 
#
# 1 0.009865 -0.004157 -0.001028 0.000000 0.000000 0.000000
# 2 -0.004157 0.011105 0.001590 0.000000 0.000000 0.000000
# 3 -0.001028 0.001590 0.014409 0.000000 0.000000 0.000000
# 4 0.000000 0.000000 0.000000 0.091878 0.000000 0.000000
# 5 0.000000 0.000000 0.000000 0.000000 -0.383800 0.000000
# 6 0.000000 0.000000 0.000000 0.000000 0.000000 0.011038
#
#
# Mechanical properties :
#
#
# Convention : Reuss Voigt Hill
#
# Bulk Modulus (GPa) = 35.47573 42.02870 38.75222
# Shear Modulus (GPa) = -21.84183 37.08415 7.62116
#
# Velocity S-wave (km/s) = -2.98462 3.88900 1.76301
# Velocity P-wave (km/s) = 1.60970 6.10792 4.46642
#
# Compressibility (1/GPa) = 0.02818828
#
# Stress axis : x y z
#
# Youngs Moduli (GPa) = 101.36424 90.04883 69.40315
#
# Poissons Ratio (x) = 0.37437 0.07138
# Poissons Ratio (y) = 0.42141 -0.11038
# Poissons Ratio (z) = 0.10424 -0.14322
#
# Static dielectric constant tensor:
#      x y z
#    x 1.952850 0.000000 0.000000 
#    y 0.000000 1.960660 0.000000 
#    z 0.000000 0.000000 2.093220 
# 
# From -- ./inp_files/6062.got.cif
#   From: 2010.05.17/outbox.cif.g08.bks.cpg/sg33_4_cif.got.tgz:6062.got - 2010.06.03 17:15:25.
