data_PCOD9347637
_publ_section_title
;
Structure prediction by ZEFSAII (Michael W. Deem and Ramdas Pophale) SiO2 
 PCOD9347637
Probable space group: P N N 2
;
_chemical_formula_sum "Si O2"
_cell_formula_units_Z 28
_cell_length_a 13.387308
_cell_length_b 20.974245
_cell_length_c 5.148932
_cell_angle_alpha 90.000000
_cell_angle_beta 90.000000
_cell_angle_gamma 90.000000
_cell_volume 1445.761809
_symmetry_space_group_name_H-M "P N N 2"
_symmetry_group_IT_number 34
_symmetry_cell_setting 'orthorhombic'
loop_
_space_group_symop_operation_xyz
x,y,z
-x,-y,z
1/2-x,1/2+y,1/2+z
1/2+x,1/2-y,1/2+z
loop_
_atom_site_type_symbol
_atom_site_label
_atom_site_fract_x
_atom_site_fract_y
_atom_site_fract_z
Si Si1 0.534452 0.887758 0.379440
Si Si2 0.959826 0.268146 0.210441
Si Si3 0.674287 0.057242 0.191256
Si Si4 0.308632 0.752953 0.745675
Si Si5 0.666124 0.970786 0.685368
Si Si6 0.199261 0.641293 0.496186
Si Si7 0.712179 0.684409 0.739198
O O1 0.533541 0.813308 0.456189
O O2 0.431898 0.909270 0.253961
O O3 0.561022 0.934786 0.618718
O O4 0.630482 0.896279 0.199034
O O5 0.881505 0.308839 0.380988
O O6 0.905378 0.200016 0.214519
O O7 0.074282 0.263394 0.290611
O O8 0.755348 0.113210 0.171728
O O9 0.697442 0.011551 0.435451
O O10 0.663361 0.019148 0.924714
O O11 0.282685 0.682483 0.640091
O O12 0.261946 0.798178 0.518406
O O13 0.256966 0.768765 0.018120
O O14 0.731705 0.909605 0.779218
#
# Coordination Sequence:
#
# PCOD9347637 Si02
#       7
#     4   4   4   4   4   4   4
#     4  11  21  37  58  86 122 153 191 239 298 358
#     4  10  22  38  63  91 121 153 200 246 298 362
#     4  12  24  36  57  85 124 156 192 241 298 359
#     4  11  22  40  62  88 119 159 194 246 302 353
#     4  11  25  36  55  86 118 161 198 234 293 362
#     4  10  22  39  60  87 122 157 198 244 293 358
#     4  11  23  39  59  91 121 157 194 245 303 352
#
# _framework density 19.366952999999999
#
# number of rings (size 3 to 8) (size 9 to 14) (size 15 to 20)
#    0.000    1.143    4.286    2.143    6.000    0.000 
#    0.000    0.000    0.000    0.857    3.714    0.000 
#    0.000    0.000    0.000    0.000    0.000    0.000 
#
# Total GULP energy -156147.231225 kJ/mol
# GULP energy per Si atom -5576.686829 kJ/mol
# Density = 1.932287 g / cm^3
# Si number density = 19.366953 Si / 1000 Ang^3
#
#
#
# Elastic Constant Matrix: (Units=GPa)
#
#
# Indices 1 2 3 4 5 6 
#
# 1 41.2369 2.5066 8.0048 0.0000 0.0000 0.0000
# 2 2.5066 79.8243 17.0371 0.0000 0.0000 0.0000
# 3 8.0048 17.0371 87.1467 0.0000 0.0000 0.0000
# 4 0.0000 0.0000 0.0000 37.0448 0.0000 0.0000
# 5 0.0000 0.0000 0.0000 0.0000 12.8941 0.0000
# 6 0.0000 0.0000 0.0000 0.0000 0.0000 16.9738
#
#
#
# Elastic Compliance Matrix: (Units=1/GPa)
#
#
# Indices 1 2 3 4 5 6 
#
# 1 0.024697 -0.000304 -0.002209 0.000000 0.000000 0.000000
# 2 -0.000304 0.013077 -0.002529 0.000000 0.000000 0.000000
# 3 -0.002209 -0.002529 0.012172 0.000000 0.000000 0.000000
# 4 0.000000 0.000000 0.000000 0.026994 0.000000 0.000000
# 5 0.000000 0.000000 0.000000 0.000000 0.077555 0.000000
# 6 0.000000 0.000000 0.000000 0.000000 0.000000 0.058914
#
#
# Mechanical properties :
#
#
# Convention : Reuss Voigt Hill
#
# Bulk Modulus (GPa) = 25.08602 29.25611 27.17106
# Shear Modulus (GPa) = 21.11658 25.42651 23.27155
#
# Velocity S-wave (km/s) = 3.30561 3.62730 3.47019
# Velocity P-wave (km/s) = 5.24886 5.71682 5.48783
#
# Compressibility (1/GPa) = 0.03986285
#
# Stress axis : x y z
#
# Youngs Moduli (GPa) = 40.49007 76.47165 82.15473
#
# Poissons Ratio (x) = 0.02325 0.18149
# Poissons Ratio (y) = 0.01231 0.20773
# Poissons Ratio (z) = 0.08945 0.19336
#
# Static dielectric constant tensor:
#      x y z
#    x 1.645130 0.000000 0.000000 
#    y 0.000000 1.770980 0.000000 
#    z 0.000000 0.000000 1.795780 
# 
# From -- ./inp_files/1010.got.cif
#   From: 2010.05.17/outbox.cif.g08.bks.cpg/sg34_1_cif.got.tgz:1010.got - 2010.06.03 17:23:11.
