data_PCOD9347338
_publ_section_title
;
Structure prediction by ZEFSAII (Michael W. Deem and Ramdas Pophale) SiO2 
 PCOD9347338
Probable space group: P N N 2
;
_chemical_formula_sum "Si O2"
_cell_formula_units_Z 28
_cell_length_a 13.565620
_cell_length_b 5.240357
_cell_length_c 21.203059
_cell_angle_alpha 90.000000
_cell_angle_beta 90.000000
_cell_angle_gamma 90.000000
_cell_volume 1507.297725
_symmetry_space_group_name_H-M "P N N 2"
_symmetry_group_IT_number 34
_symmetry_cell_setting 'orthorhombic'
loop_
_space_group_symop_operation_xyz
x,y,z
-x,-y,z
1/2-x,1/2+y,1/2+z
1/2+x,1/2-y,1/2+z
loop_
_atom_site_type_symbol
_atom_site_label
_atom_site_fract_x
_atom_site_fract_y
_atom_site_fract_z
Si Si1 0.695090 0.553237 0.431640
Si Si2 0.824236 0.539012 0.713555
Si Si3 0.747056 0.261053 0.607049
Si Si4 0.615365 0.055513 0.501469
Si Si5 0.881116 0.035768 0.790243
Si Si6 0.600536 0.359420 0.114070
Si Si7 0.616680 0.043155 0.001178
O O1 0.644797 0.293924 0.457142
O O2 0.658116 0.582097 0.360813
O O3 0.813622 0.535883 0.440537
O O4 0.664897 0.795552 0.475191
O O5 0.734452 0.457066 0.665510
O O6 0.855677 0.291447 0.752005
O O7 0.900761 0.614514 0.658414
O O8 0.829261 0.782703 0.760275
O O9 0.654477 0.149476 0.569619
O O10 0.821195 0.370620 0.552016
O O11 0.806937 0.024358 0.635004
O O12 0.500000 0.000000 0.501756
O O13 0.000000 0.000000 0.789988
O O14 0.500000 0.500000 0.123819
O O15 0.615761 0.305155 0.040491
O O16 0.500000 0.000000 0.991438
#
# Coordination Sequence:
#
# PCOD9347338 Si02
#       7
#     4   4   4   4   4   4   4
#     4  11  24  41  58  87 119 156 202 244 282 348
#     4  11  24  36  55  84 117 154 191 234 293 350
#     4  10  21  35  58  91 121 146 186 239 301 356
#     4  11  22  40  63  87 118 157 196 243 296 346
#     4  12  24  37  55  81 116 160 199 235 284 345
#     4  11  19  33  58  89 126 145 180 233 301 361
#     4  10  20  34  59  91 118 152 184 240 302 356
#
# _framework density 18.576291000000001
#
# number of rings (size 3 to 8) (size 9 to 14) (size 15 to 20)
#    0.000    1.143    4.286    3.000    2.000    0.000 
#    0.000    0.000    0.000    0.857    3.714    0.000 
#    0.000    0.000    0.000    0.000    0.000    0.000 
#
# Total GULP energy -155888.001184 kJ/mol
# GULP energy per Si atom -5567.428614 kJ/mol
# Density = 1.853401 g / cm^3
# Si number density = 18.576291 Si / 1000 Ang^3
#
#
#
# Elastic Constant Matrix: (Units=GPa)
#
#
# Indices 1 2 3 4 5 6 
#
# 1 93.7161 21.7373 29.7366 0.0000 0.0000 0.0000
# 2 21.7373 95.5648 16.4174 0.0000 0.0000 0.0000
# 3 29.7366 16.4174 71.3017 0.0000 0.0000 0.0000
# 4 0.0000 0.0000 0.0000 37.8806 0.0000 0.0000
# 5 0.0000 0.0000 0.0000 0.0000 -17.7363 0.0000
# 6 0.0000 0.0000 0.0000 0.0000 0.0000 19.2236
#
#
#
# Elastic Compliance Matrix: (Units=1/GPa)
#
#
# Indices 1 2 3 4 5 6 
#
# 1 0.012674 -0.002056 -0.004812 0.000000 0.000000 0.000000
# 2 -0.002056 0.011229 -0.001728 0.000000 0.000000 0.000000
# 3 -0.004812 -0.001728 0.016430 0.000000 0.000000 0.000000
# 4 0.000000 0.000000 0.000000 0.026399 0.000000 0.000000
# 5 0.000000 0.000000 0.000000 0.000000 -0.056382 0.000000
# 6 0.000000 0.000000 0.000000 0.000000 0.000000 0.052019
#
#
# Mechanical properties :
#
#
# Convention : Reuss Voigt Hill
#
# Bulk Modulus (GPa) = 43.21555 44.04057 43.62806
# Shear Modulus (GPa) = 57.28956 20.71967 39.00462
#
# Velocity S-wave (km/s) = 5.55942 3.34336 4.58722
# Velocity P-wave (km/s) = 8.03267 6.21800 7.18287
#
# Compressibility (1/GPa) = 0.02313982
#
# Stress axis : x y z
#
# Youngs Moduli (GPa) = 78.89867 89.05797 60.86499
#
# Poissons Ratio (x) = 0.18312 0.29291
# Poissons Ratio (y) = 0.16223 0.10517
# Poissons Ratio (z) = 0.37970 0.15388
#
# Static dielectric constant tensor:
#      x y z
#    x 1.647910 0.000000 0.000000 
#    y 0.000000 1.733390 0.000000 
#    z 0.000000 0.000000 1.694510 
# 
# From -- ./inp_files/8134.got.cif
#   From: 2010.05.17/outbox.cif.g08.bks.cpg/sg34_5_cif.got.tgz:8134.got - 2010.06.03 17:23:11.
