data_PCOD9347642
_publ_section_title
;
Structure prediction by ZEFSAII (Michael W. Deem and Ramdas Pophale) SiO2 
 PCOD9347642
Probable space group: P N N 2
;
_chemical_formula_sum "Si O2"
_cell_formula_units_Z 30
_cell_length_a 8.066177
_cell_length_b 29.226290
_cell_length_c 5.162349
_cell_angle_alpha 90.000000
_cell_angle_beta 90.000000
_cell_angle_gamma 90.000000
_cell_volume 1216.995013
_symmetry_space_group_name_H-M "P N N 2"
_symmetry_group_IT_number 34
_symmetry_cell_setting 'orthorhombic'
loop_
_space_group_symop_operation_xyz
x,y,z
-x,-y,z
1/2-x,1/2+y,1/2+z
1/2+x,1/2-y,1/2+z
loop_
_atom_site_type_symbol
_atom_site_label
_atom_site_fract_x
_atom_site_fract_y
_atom_site_fract_z
Si Si1 0.807138 0.954883 0.290400
Si Si2 0.274178 0.899972 0.469105
Si Si3 0.000000 0.500000 0.570695
Si Si4 0.741513 0.361020 0.522051
Si Si5 0.827990 0.703845 0.138990
Si Si6 0.924021 0.088132 0.962780
Si Si7 0.402802 0.074005 0.671476
Si Si8 0.952975 0.275019 0.643216
O O1 0.973749 0.951096 0.124237
O O2 0.770102 0.951606 0.597372
O O3 0.742355 0.902891 0.225218
O O4 0.677304 0.993691 0.210028
O O5 0.300969 0.849749 0.588657
O O6 0.452499 0.923721 0.462980
O O7 0.206634 0.896797 0.180069
O O8 0.151430 0.923211 0.682110
O O9 0.992848 0.455968 0.388140
O O10 0.552312 0.368983 0.434127
O O11 0.854652 0.377040 0.283344
O O12 0.810570 0.314372 0.630418
O O13 0.945924 0.721789 0.908462
O O14 0.649987 0.728479 0.121476
O O15 0.919177 0.715681 0.408728
#
# Coordination Sequence:
#
# PCOD9347642 Si02
#       8
#     4   4   2   4   4   4   4   4
#     4   9  21  40  68  96 125 180 227 271 339 408
#     4  12  25  43  69 103 135 178 227 287 340 407
#     4  10  22  38  72  96 132 170 242 276 334 414
#     4   9  22  40  68  90 132 178 233 262 336 410
#     4  12  28  44  69 100 143 178 234 284 351 399
#     4  10  25  40  71  95 138 172 224 276 344 401
#     4  11  21  42  72  95 131 177 236 280 330 414
#     4  12  26  45  66 101 136 184 225 288 335 408
#
# _framework density 24.650879
#
# number of rings (size 3 to 8) (size 9 to 14) (size 15 to 20)
#    0.800    0.533    1.333    3.600    7.467    0.000 
#    0.000    0.667    0.000    0.000    0.000    0.000 
#    0.000    0.000    0.000    0.000    0.000    0.000 
#
# Total GULP energy -167435.972310 kJ/mol
# GULP energy per Si atom -5581.199077 kJ/mol
# Density = 2.459477 g / cm^3
# Si number density = 24.650879 Si / 1000 Ang^3
#
#
#
# Elastic Constant Matrix: (Units=GPa)
#
#
# Indices 1 2 3 4 5 6 
#
# 1 79.0428 9.3879 13.8819 0.0000 0.0000 0.0000
# 2 9.3879 50.9143 -1.8636 0.0000 0.0000 0.0000
# 3 13.8819 -1.8636 84.3735 0.0000 0.0000 0.0000
# 4 0.0000 0.0000 0.0000 16.3224 0.0000 0.0000
# 5 0.0000 0.0000 0.0000 0.0000 55.0494 0.0000
# 6 0.0000 0.0000 0.0000 0.0000 0.0000 38.9461
#
#
#
# Elastic Compliance Matrix: (Units=1/GPa)
#
#
# Indices 1 2 3 4 5 6 
#
# 1 0.013349 -0.002544 -0.002253 0.000000 0.000000 0.000000
# 2 -0.002544 0.020141 0.000863 0.000000 0.000000 0.000000
# 3 -0.002253 0.000863 0.012242 0.000000 0.000000 0.000000
# 4 0.000000 0.000000 0.000000 0.061265 0.000000 0.000000
# 5 0.000000 0.000000 0.000000 0.000000 0.018165 0.000000
# 6 0.000000 0.000000 0.000000 0.000000 0.000000 0.025677
#
#
# Mechanical properties :
#
#
# Convention : Reuss Voigt Hill
#
# Bulk Modulus (GPa) = 26.40862 28.57147 27.49004
# Shear Modulus (GPa) = 29.18383 34.92521 32.05452
#
# Velocity S-wave (km/s) = 3.44450 3.76812 3.60993
# Velocity P-wave (km/s) = 5.15322 5.52695 5.34336
#
# Compressibility (1/GPa) = 0.03786643
#
# Stress axis : x y z
#
# Youngs Moduli (GPa) = 74.91138 49.64876 81.68779
#
# Poissons Ratio (x) = 0.12630 0.18400
# Poissons Ratio (y) = 0.19056 -0.07053
# Poissons Ratio (z) = 0.16874 -0.04287
#
# Static dielectric constant tensor:
#      x y z
#    x 2.052000 0.000000 0.000000 
#    y 0.000000 1.929210 0.000000 
#    z 0.000000 0.000000 2.051190 
# 
# From -- ./inp_files/630.got.cif
#   From: 2010.05.17/outbox.cif.g08.bks.cpg/sg34_1_cif.got.tgz:630.got - 2010.06.03 17:23:11.
