data_PCOD9347033
_publ_section_title
;
Structure prediction by ZEFSAII (Michael W. Deem and Ramdas Pophale) SiO2 
 PCOD9347033
Probable space group: P N A 21
;
_chemical_formula_sum "Si O2"
_cell_formula_units_Z 12
_cell_length_a 9.974003
_cell_length_b 9.271035
_cell_length_c 4.848383
_cell_angle_alpha 90.000000
_cell_angle_beta 90.000000
_cell_angle_gamma 90.000000
_cell_volume 448.326732
_symmetry_space_group_name_H-M "P N A 21"
_symmetry_group_IT_number 33
_symmetry_cell_setting 'orthorhombic'
loop_
_space_group_symop_operation_xyz
x,y,z
-x,-y,1/2+z
1/2-x,1/2+y,1/2+z
1/2+x,1/2-y,z
loop_
_atom_site_type_symbol
_atom_site_label
_atom_site_fract_x
_atom_site_fract_y
_atom_site_fract_z
Si Si1 0.474031 0.908803 0.427090
Si Si2 0.095552 0.978826 0.929020
Si Si3 0.778230 0.250256 0.046133
O O1 0.325065 0.853885 0.391405
O O2 0.587914 0.790906 0.383195
O O3 0.492672 0.954398 0.743521
O O4 0.194336 0.100446 0.057796
O O5 0.025401 0.036388 0.646610
O O6 0.174236 0.836923 0.818007
#
# Coordination Sequence:
#
# PCOD9347033 Si02
#       3
#     4   4   4
#     4  12  30  48  80 118 162 214 276 342 410 494
#     4  12  30  52  86 124 170 218 282 348 422 498
#     4  12  28  54  80 122 164 220 276 346 416 500
#
# _framework density 26.766192
#
# number of rings (size 3 to 8) (size 9 to 14) (size 15 to 20)
#    0.000    0.000    6.667    0.000    9.333    5.333 
#    0.000    0.000    0.000    0.000    0.000    0.000 
#    0.000    0.000    0.000    0.000    0.000    0.000 
#
# Total GULP energy -67216.145201 kJ/mol
# GULP energy per Si atom -5601.345433 kJ/mol
# Density = 2.670527 g / cm^3
# Si number density = 26.766192 Si / 1000 Ang^3
#
#
#
# Elastic Constant Matrix: (Units=GPa)
#
#
# Indices 1 2 3 4 5 6 
#
# 1 173.2890 73.0977 82.7863 0.0000 0.0000 0.0000
# 2 73.0977 155.7462 57.4247 0.0000 0.0000 0.0000
# 3 82.7863 57.4247 92.5633 0.0000 0.0000 0.0000
# 4 0.0000 0.0000 0.0000 49.2473 0.0000 0.0000
# 5 0.0000 0.0000 0.0000 0.0000 40.8068 0.0000
# 6 0.0000 0.0000 0.0000 0.0000 0.0000 49.4064
#
#
#
# Elastic Compliance Matrix: (Units=1/GPa)
#
#
# Indices 1 2 3 4 5 6 
#
# 1 0.010492 -0.001899 -0.008206 0.000000 0.000000 0.000000
# 2 -0.001899 0.008669 -0.003680 0.000000 0.000000 0.000000
# 3 -0.008206 -0.003680 0.020425 0.000000 0.000000 0.000000
# 4 0.000000 0.000000 0.000000 0.020306 0.000000 0.000000
# 5 0.000000 0.000000 0.000000 0.000000 0.024506 0.000000
# 6 0.000000 0.000000 0.000000 0.000000 0.000000 0.020240
#
#
# Mechanical properties :
#
#
# Convention : Reuss Voigt Hill
#
# Bulk Modulus (GPa) = 83.21250 94.24619 88.72935
# Shear Modulus (GPa) = 36.70775 41.77807 39.24291
#
# Velocity S-wave (km/s) = 3.70729 3.95505 3.83317
# Velocity P-wave (km/s) = 7.03431 7.49292 7.26723
#
# Compressibility (1/GPa) = 0.01201743
#
# Stress axis : x y z
#
# Youngs Moduli (GPa) = 95.31294 115.35939 48.95927
#
# Poissons Ratio (x) = 0.21903 0.40174
# Poissons Ratio (y) = 0.18097 0.18015
# Poissons Ratio (z) = 0.78210 0.42448
#
# Static dielectric constant tensor:
#      x y z
#    x 2.032630 0.000000 0.000000 
#    y 0.000000 2.125680 0.000000 
#    z 0.000000 0.000000 1.967630 
# 
# From -- ./inp_files/250.got.cif
#   From: 2010.05.17/outbox.cif.g08.bks.cpg/sg33_1_cif.got.tgz:250.got - 2010.06.03 17:15:25.
