data_PCOD9347238
_publ_section_title
;
Structure prediction by ZEFSAII (Michael W. Deem and Ramdas Pophale) SiO2 
 PCOD9347238
Probable space group: P N N 2
;
_chemical_formula_sum "Si O2"
_cell_formula_units_Z 32
_cell_length_a 14.273870
_cell_length_b 7.432863
_cell_length_c 12.520631
_cell_angle_alpha 90.000000
_cell_angle_beta 90.000000
_cell_angle_gamma 90.000000
_cell_volume 1328.385363
_symmetry_space_group_name_H-M "P N N 2"
_symmetry_group_IT_number 34
_symmetry_cell_setting 'orthorhombic'
loop_
_space_group_symop_operation_xyz
x,y,z
-x,-y,z
1/2-x,1/2+y,1/2+z
1/2+x,1/2-y,1/2+z
loop_
_atom_site_type_symbol
_atom_site_label
_atom_site_fract_x
_atom_site_fract_y
_atom_site_fract_z
Si Si1 0.799171 0.761949 0.622300
Si Si2 0.809931 0.195692 0.637983
Si Si3 0.929729 0.640893 0.436667
Si Si4 0.596368 0.612118 0.344344
Si Si5 0.591638 0.764928 0.577399
Si Si6 0.117674 0.720194 0.403870
Si Si7 0.183200 0.262772 0.850864
Si Si8 0.609298 0.183407 0.585600
O O1 0.855186 0.718414 0.515591
O O2 0.692330 0.693170 0.614920
O O3 0.847999 0.691744 0.730849
O O4 0.802519 0.978665 0.628082
O O5 0.871690 0.226100 0.742462
O O6 0.855681 0.267136 0.529381
O O7 0.702395 0.259369 0.640675
O O8 0.883169 0.488691 0.362527
O O9 0.000000 0.500000 0.497326
O O10 0.008563 0.772920 0.388992
O O11 0.500000 0.500000 0.326531
O O12 0.590486 0.729669 0.450267
O O13 0.672374 0.453755 0.361010
O O14 0.486132 0.710976 0.610474
O O15 0.596889 0.973702 0.609725
O O16 0.207272 0.816198 0.354608
O O17 0.130486 0.323681 0.957252
#
# Coordination Sequence:
#
# PCOD9347238 Si02
#       8
#     4   4   4   4   4   4   4   4
#     4  10  20  34  54  80 107 137 181 220 267 316
#     4   9  20  33  53  78 110 137 175 224 270 315
#     4   8  19  33  50  77 103 142 173 213 267 310
#     4  11  21  31  54  85 105 136 180 230 269 314
#     4  10  20  36  55  78 107 142 178 223 266 326
#     4   8  18  34  52  71 107 141 172 211 269 310
#     4  10  19  35  52  78 105 138 176 217 264 319
#     4   9  19  38  54  75 107 145 178 214 276 320
#
# _framework density 24.089393999999999
#
# number of rings (size 3 to 8) (size 9 to 14) (size 15 to 20)
#    0.750    1.750    1.250    0.750    3.500    1.000 
#    2.250    8.750    0.000    0.000    3.250    0.000 
#    0.000    0.000    0.000    0.000    0.000    0.000 
#
# Total GULP energy -178135.976183 kJ/mol
# GULP energy per Si atom -5566.749256 kJ/mol
# Density = 2.403457 g / cm^3
# Si number density = 24.089394 Si / 1000 Ang^3
#
#
#
# Elastic Constant Matrix: (Units=GPa)
#
#
# Indices 1 2 3 4 5 6 
#
# 1 128.3905 11.3992 33.4145 0.0000 0.0000 0.0000
# 2 11.3992 50.5105 5.8391 0.0000 0.0000 0.0000
# 3 33.4145 5.8391 79.0364 0.0000 0.0000 0.0000
# 4 0.0000 0.0000 0.0000 -1.7624 0.0000 0.0000
# 5 0.0000 0.0000 0.0000 0.0000 12.9386 0.0000
# 6 0.0000 0.0000 0.0000 0.0000 0.0000 16.1819
#
#
#
# Elastic Compliance Matrix: (Units=1/GPa)
#
#
# Indices 1 2 3 4 5 6 
#
# 1 0.008875 -0.001583 -0.003635 0.000000 0.000000 0.000000
# 2 -0.001583 0.020251 -0.000827 0.000000 0.000000 0.000000
# 3 -0.003635 -0.000827 0.014250 0.000000 0.000000 0.000000
# 4 0.000000 0.000000 0.000000 -0.567395 0.000000 0.000000
# 5 0.000000 0.000000 0.000000 0.000000 0.077288 0.000000
# 6 0.000000 0.000000 0.000000 0.000000 0.000000 0.061797
#
#
# Mechanical properties :
#
#
# Convention : Reuss Voigt Hill
#
# Bulk Modulus (GPa) = 31.96280 39.91589 35.93935
# Shear Modulus (GPa) = -13.79638 19.29059 2.74711
#
# Velocity S-wave (km/s) = -2.39574 2.83290 1.06904
# Velocity P-wave (km/s) = 2.37580 5.22554 4.05898
#
# Compressibility (1/GPa) = 0.03128637
#
# Stress axis : x y z
#
# Youngs Moduli (GPa) = 112.67120 49.38116 70.17334
#
# Poissons Ratio (x) = 0.07816 0.25510
# Poissons Ratio (y) = 0.17833 0.05803
# Poissons Ratio (z) = 0.40960 0.04084
#
# Static dielectric constant tensor:
#      x y z
#    x 2.028520 0.000000 0.000000 
#    y 0.000000 2.064870 0.000000 
#    z 0.000000 0.000000 1.943820 
# 
# From -- ./inp_files/6930.got.cif
#   From: 2010.05.17/outbox.cif.g08.bks.cpg/sg34_4_cif.got.tgz:6930.got - 2010.06.03 17:23:11.
