data_PCOD9347738
_publ_section_title
;
Structure prediction by ZEFSAII (Michael W. Deem and Ramdas Pophale) SiO2 
 PCOD9347738
Probable space group: P N N 2
;
_chemical_formula_sum "Si O2"
_cell_formula_units_Z 24
_cell_length_a 5.719694
_cell_length_b 24.491466
_cell_length_c 8.083620
_cell_angle_alpha 90.000000
_cell_angle_beta 90.000000
_cell_angle_gamma 90.000000
_cell_volume 1132.383327
_symmetry_space_group_name_H-M "P N N 2"
_symmetry_group_IT_number 34
_symmetry_cell_setting 'orthorhombic'
loop_
_space_group_symop_operation_xyz
x,y,z
-x,-y,z
1/2-x,1/2+y,1/2+z
1/2+x,1/2-y,1/2+z
loop_
_atom_site_type_symbol
_atom_site_label
_atom_site_fract_x
_atom_site_fract_y
_atom_site_fract_z
Si Si1 0.000000 0.500000 0.272960
Si Si2 0.616197 0.118034 0.689247
Si Si3 0.500000 0.500000 0.466784
Si Si4 0.090012 0.222687 0.896800
Si Si5 0.742618 0.298782 0.066708
Si Si6 0.081004 0.878922 0.027958
Si Si7 0.864214 0.164964 0.376647
O O1 0.008116 0.442317 0.179659
O O2 0.250585 0.501104 0.369112
O O3 0.755684 0.122492 0.863122
O O4 0.769014 0.128098 0.525386
O O5 0.422708 0.165022 0.671262
O O6 0.495471 0.441314 0.555676
O O7 0.126216 0.163989 0.981978
O O8 0.045877 0.214516 0.701959
O O9 0.273186 0.272590 0.897299
O O10 0.869108 0.246476 0.994321
O O11 0.640323 0.331297 0.911833
O O12 0.194492 0.857899 0.197499
#
# Coordination Sequence:
#
# PCOD9347738 Si02
#       7
#     2   4   2   4   4   4   4
#     4  10  22  46  80  98 140 190 244 294 366 432
#     4  10  24  46  68 100 137 183 235 294 360 431
#     4  10  24  48  72 110 134 200 238 298 370 442
#     4  11  23  39  66  97 139 181 225 291 360 426
#     4  11  24  41  65  99 136 181 230 290 359 432
#     4  11  23  46  70  99 145 181 239 302 359 441
#     4  11  25  43  66 107 133 185 240 289 366 427
#
# _framework density 21.194234999999999
#
# number of rings (size 3 to 8) (size 9 to 14) (size 15 to 20)
#    0.000    1.333    3.333    1.000    7.000    0.000 
#   18.000    0.833    0.000    0.000    0.000    0.000 
#    0.000    0.000    0.000    0.000    0.000    0.000 
#
# Total GULP energy -133720.151032 kJ/mol
# GULP energy per Si atom -5571.672960 kJ/mol
# Density = 2.114600 g / cm^3
# Si number density = 21.194235 Si / 1000 Ang^3
#
#
#
# Elastic Constant Matrix: (Units=GPa)
#
#
# Indices 1 2 3 4 5 6 
#
# 1 49.7011 26.1402 27.9358 0.0000 0.0000 0.0000
# 2 26.1402 154.3661 53.1094 0.0000 0.0000 0.0000
# 3 27.9358 53.1094 137.3551 0.0000 0.0000 0.0000
# 4 0.0000 0.0000 0.0000 16.3567 0.0000 0.0000
# 5 0.0000 0.0000 0.0000 0.0000 16.9327 0.0000
# 6 0.0000 0.0000 0.0000 0.0000 0.0000 19.5663
#
#
#
# Elastic Compliance Matrix: (Units=1/GPa)
#
#
# Indices 1 2 3 4 5 6 
#
# 1 0.023662 -0.002712 -0.003764 0.000000 0.000000 0.000000
# 2 -0.002712 0.007783 -0.002458 0.000000 0.000000 0.000000
# 3 -0.003764 -0.002458 0.008996 0.000000 0.000000 0.000000
# 4 0.000000 0.000000 0.000000 0.061137 0.000000 0.000000
# 5 0.000000 0.000000 0.000000 0.000000 0.059057 0.000000
# 6 0.000000 0.000000 0.000000 0.000000 0.000000 0.051108
#
#
# Mechanical properties :
#
#
# Convention : Reuss Voigt Hill
#
# Bulk Modulus (GPa) = 44.29849 61.75476 53.02662
# Shear Modulus (GPa) = 21.08494 26.18693 23.63594
#
# Velocity S-wave (km/s) = 3.15754 3.51888 3.34309
# Velocity P-wave (km/s) = 5.85149 6.76098 6.32261
#
# Compressibility (1/GPa) = 0.02257413
#
# Stress axis : x y z
#
# Youngs Moduli (GPa) = 42.26142 128.48626 111.15768
#
# Poissons Ratio (x) = 0.34845 0.41839
# Poissons Ratio (y) = 0.11461 0.27320
# Poissons Ratio (z) = 0.15907 0.31579
#
# Static dielectric constant tensor:
#      x y z
#    x 1.860650 0.000000 0.000000 
#    y 0.000000 1.779640 0.000000 
#    z 0.000000 0.000000 1.759350 
# 
# From -- ./inp_files/2128.got.cif
#   From: 2010.05.17/outbox.cif.g08.bks.cpg/sg34_2_cif.got.tgz:2128.got - 2010.06.03 17:23:11.
