data_PCOD9347142
_publ_section_title
;
Structure prediction by ZEFSAII (Michael W. Deem and Ramdas Pophale) SiO2 
 PCOD9347142
Probable space group: P N N 2
;
_chemical_formula_sum "Si O2"
_cell_formula_units_Z 32
_cell_length_a 9.577592
_cell_length_b 7.161282
_cell_length_c 18.652559
_cell_angle_alpha 90.000000
_cell_angle_beta 90.000000
_cell_angle_gamma 90.000000
_cell_volume 1279.338680
_symmetry_space_group_name_H-M "P N N 2"
_symmetry_group_IT_number 34
_symmetry_cell_setting 'orthorhombic'
loop_
_space_group_symop_operation_xyz
x,y,z
-x,-y,z
1/2-x,1/2+y,1/2+z
1/2+x,1/2-y,1/2+z
loop_
_atom_site_type_symbol
_atom_site_label
_atom_site_fract_x
_atom_site_fract_y
_atom_site_fract_z
Si Si1 0.520380 0.778241 0.014150
Si Si2 0.875329 0.606773 0.153778
Si Si3 0.179896 0.780948 0.766932
Si Si4 0.707201 0.241910 0.124395
Si Si5 0.145515 0.233878 0.779073
Si Si6 0.227425 0.223712 0.418337
Si Si7 0.709282 0.331626 0.436352
Si Si8 0.439680 0.262377 0.524876
O O1 0.448065 0.740546 0.091094
O O2 0.500000 0.000000 0.007937
O O3 0.419590 0.687079 0.954984
O O4 0.678158 0.745106 0.990966
O O5 0.779235 0.745321 0.198618
O O6 0.771880 0.448897 0.124385
O O7 0.000000 0.500000 0.198485
O O8 0.963680 0.692620 0.089559
O O9 0.254475 0.689762 0.835166
O O10 0.018846 0.722587 0.771338
O O11 0.168420 0.008734 0.771402
O O12 0.710328 0.179126 0.206774
O O13 0.813031 0.135649 0.069952
O O14 0.202151 0.269180 0.858891
O O15 0.252905 0.450107 0.423021
O O16 0.346480 0.138777 0.470105
O O17 0.557448 0.332897 0.470839
#
# Coordination Sequence:
#
# PCOD9347142 Si02
#       8
#     4   4   4   4   4   4   4   4
#     4   9  19  31  49  75 101 129 166 212 265 305
#     4   9  19  31  47  73 104 137 169 205 260 321
#     4   9  16  28  48  73  99 126 161 202 259 306
#     4   9  19  34  48  69 106 133 163 211 257 303
#     4   9  17  29  48  71 100 127 157 208 260 301
#     4   9  17  31  49  74 105 127 158 217 265 307
#     4  10  18  30  51  76  98 129 171 209 259 314
#     4  10  18  30  48  73 100 135 165 199 255 316
#
# _framework density 25.012924000000002
#
# number of rings (size 3 to 8) (size 9 to 14) (size 15 to 20)
#    0.000    2.750    1.250    0.375    1.750    4.500 
#    0.000    0.000    0.000    2.250    0.000    7.000 
#    0.000    0.000    0.000    0.000    0.000    0.000 
#
# Total GULP energy -178465.378657 kJ/mol
# GULP energy per Si atom -5577.043083 kJ/mol
# Density = 2.495599 g / cm^3
# Si number density = 25.012924 Si / 1000 Ang^3
#
#
#
# Elastic Constant Matrix: (Units=GPa)
#
#
# Indices 1 2 3 4 5 6 
#
# 1 146.4110 23.3539 60.0043 0.0000 0.0000 0.0000
# 2 23.3539 69.0806 18.4857 0.0000 0.0000 0.0000
# 3 60.0043 18.4857 172.3297 0.0000 0.0000 0.0000
# 4 0.0000 0.0000 0.0000 8.0496 0.0000 0.0000
# 5 0.0000 0.0000 0.0000 0.0000 53.6058 0.0000
# 6 0.0000 0.0000 0.0000 0.0000 0.0000 17.8445
#
#
#
# Elastic Compliance Matrix: (Units=1/GPa)
#
#
# Indices 1 2 3 4 5 6 
#
# 1 0.008247 -0.002079 -0.002649 0.000000 0.000000 0.000000
# 2 -0.002079 0.015428 -0.000931 0.000000 0.000000 0.000000
# 3 -0.002649 -0.000931 0.006825 0.000000 0.000000 0.000000
# 4 0.000000 0.000000 0.000000 0.124230 0.000000 0.000000
# 5 0.000000 0.000000 0.000000 0.000000 0.018655 0.000000
# 6 0.000000 0.000000 0.000000 0.000000 0.000000 0.056040
#
#
# Mechanical properties :
#
#
# Convention : Reuss Voigt Hill
#
# Bulk Modulus (GPa) = 52.13136 65.72324 58.92730
# Shear Modulus (GPa) = 20.23178 34.96514 27.59846
#
# Velocity S-wave (km/s) = 2.84712 3.74288 3.32530
# Velocity P-wave (km/s) = 5.62984 6.70907 6.19301
#
# Compressibility (1/GPa) = 0.01918231
#
# Stress axis : x y z
#
# Youngs Moduli (GPa) = 121.25251 64.81757 146.52196
#
# Poissons Ratio (x) = 0.13478 0.38808
# Poissons Ratio (y) = 0.25213 0.13640
# Poissons Ratio (z) = 0.32115 0.06034
#
# Static dielectric constant tensor:
#      x y z
#    x 1.972120 0.000000 0.000000 
#    y 0.000000 2.214630 0.000000 
#    z 0.000000 0.000000 2.009030 
# 
# From -- ./inp_files/7622.got.cif
#   From: 2010.05.17/outbox.cif.g08.bks.cpg/sg34_4_cif.got.tgz:7622.got - 2010.06.03 17:23:11.
