data_PCOD9347241
_publ_section_title
;
Structure prediction by ZEFSAII (Michael W. Deem and Ramdas Pophale) SiO2 
 PCOD9347241
Probable space group: P N N 2
;
_chemical_formula_sum "Si O2"
_cell_formula_units_Z 30
_cell_length_a 18.491943
_cell_length_b 9.868862
_cell_length_c 9.006831
_cell_angle_alpha 90.000000
_cell_angle_beta 90.000000
_cell_angle_gamma 90.000000
_cell_volume 1643.696522
_symmetry_space_group_name_H-M "P N N 2"
_symmetry_group_IT_number 34
_symmetry_cell_setting 'orthorhombic'
loop_
_space_group_symop_operation_xyz
x,y,z
-x,-y,z
1/2-x,1/2+y,1/2+z
1/2+x,1/2-y,1/2+z
loop_
_atom_site_type_symbol
_atom_site_label
_atom_site_fract_x
_atom_site_fract_y
_atom_site_fract_z
Si Si1 0.000000 0.000000 0.962000
Si Si2 0.906321 0.087670 0.523587
Si Si3 0.536649 0.320124 0.188443
Si Si4 0.114816 0.897477 0.196112
Si Si5 0.836343 0.637083 0.740947
Si Si6 0.780376 0.332149 0.094244
Si Si7 0.734748 0.127004 0.565314
Si Si8 0.746496 0.393857 0.749991
O O1 0.030048 0.114654 0.851449
O O2 0.936150 0.051251 0.066151
O O3 0.926621 0.111565 0.352378
O O4 0.820879 0.113550 0.534943
O O5 0.955766 0.185926 0.623559
O O6 0.924771 0.936236 0.584875
O O7 0.583222 0.184981 0.203692
O O8 0.151520 0.758307 0.141470
O O9 0.178648 0.004715 0.233011
O O10 0.786361 0.750625 0.663760
O O11 0.812849 0.486541 0.690948
O O12 0.811942 0.639183 0.914302
O O13 0.786256 0.487373 0.147060
O O14 0.765699 0.349208 0.917966
O O15 0.727400 0.261175 0.659772
#
# Coordination Sequence:
#
# PCOD9347241 Si02
#       8
#     2   4   4   4   4   4   4   4
#     4  10  22  32  60  90 116 156 206 240 296 382
#     4  10  19  35  57  84 118 156 195 237 305 356
#     4  10  21  35  58  89 117 159 195 251 296 367
#     4  11  20  39  56  91 115 159 199 249 299 363
#     4  10  19  39  55  85 116 145 198 247 295 354
#     4  10  20  34  58  85 117 146 199 246 292 348
#     4  11  20  36  58  88 118 153 192 252 302 353
#     4  10  22  33  60  86 114 151 195 250 303 346
#
# _framework density 18.251543999999999
#
# number of rings (size 3 to 8) (size 9 to 14) (size 15 to 20)
#    0.000    1.867    5.333    1.600    3.733    2.133 
#    0.000    0.667    0.000    2.400   10.400    0.000 
#    0.000    0.000    0.000    0.000    0.000    0.000 
#
# Total GULP energy -167175.229322 kJ/mol
# GULP energy per Si atom -5572.507644 kJ/mol
# Density = 1.821000 g / cm^3
# Si number density = 18.251544 Si / 1000 Ang^3
#
#
#
# Elastic Constant Matrix: (Units=GPa)
#
#
# Indices 1 2 3 4 5 6 
#
# 1 62.5370 30.4638 24.1492 0.0000 0.0000 0.0000
# 2 30.4638 117.7267 55.4157 0.0000 0.0000 0.0000
# 3 24.1492 55.4157 83.7877 0.0000 0.0000 0.0000
# 4 0.0000 0.0000 0.0000 12.2760 0.0000 0.0000
# 5 0.0000 0.0000 0.0000 0.0000 26.1336 0.0000
# 6 0.0000 0.0000 0.0000 0.0000 0.0000 -4.8680
#
#
#
# Elastic Compliance Matrix: (Units=1/GPa)
#
#
# Indices 1 2 3 4 5 6 
#
# 1 0.018873 -0.003373 -0.003208 0.000000 0.000000 0.000000
# 2 -0.003373 0.012937 -0.007584 0.000000 0.000000 0.000000
# 3 -0.003208 -0.007584 0.017876 0.000000 0.000000 0.000000
# 4 0.000000 0.000000 0.000000 0.081460 0.000000 0.000000
# 5 0.000000 0.000000 0.000000 0.000000 0.038265 0.000000
# 6 0.000000 0.000000 0.000000 0.000000 0.000000 -0.205424
#
#
# Mechanical properties :
#
#
# Convention : Reuss Voigt Hill
#
# Bulk Modulus (GPa) = 46.83022 53.78988 50.31005
# Shear Modulus (GPa) = -8866.38958 16.97652 -4424.70653
#
# Velocity S-wave (km/s) = -69.77414 3.05313 -49.29051
# Velocity P-wave (km/s) = 80.40850 6.47798 56.67258
#
# Compressibility (1/GPa) = 0.02135373
#
# Stress axis : x y z
#
# Youngs Moduli (GPa) = 52.98643 77.29693 55.94210
#
# Poissons Ratio (x) = 0.26075 0.17948
# Poissons Ratio (y) = 0.17875 0.42427
# Poissons Ratio (z) = 0.17000 0.58623
#
# Static dielectric constant tensor:
#      x y z
#    x 1.656260 0.000000 0.000000 
#    y 0.000000 1.633890 0.000000 
#    z 0.000000 0.000000 1.646270 
# 
# From -- ./inp_files/4009.got.cif
#   From: 2010.05.17/outbox.cif.g08.bks.cpg/sg34_3_cif.got.tgz:4009.got - 2010.06.03 17:23:11.
