data_PCOD9347981
_publ_section_title
;
Structure prediction by ZEFSAII (Michael W. Deem and Ramdas Pophale) SiO2 
 PCOD9347981
Probable space group: P N N 2
;
_chemical_formula_sum "Si O2"
_cell_formula_units_Z 16
_cell_length_a 5.282445
_cell_length_b 5.189195
_cell_length_c 22.997020
_cell_angle_alpha 90.000000
_cell_angle_beta 90.000000
_cell_angle_gamma 90.000000
_cell_volume 630.385969
_symmetry_space_group_name_H-M "P N N 2"
_symmetry_group_IT_number 34
_symmetry_cell_setting 'orthorhombic'
loop_
_space_group_symop_operation_xyz
x,y,z
-x,-y,z
1/2-x,1/2+y,1/2+z
1/2+x,1/2-y,1/2+z
loop_
_atom_site_type_symbol
_atom_site_label
_atom_site_fract_x
_atom_site_fract_y
_atom_site_fract_z
Si Si1 0.248970 0.826285 0.444170
Si Si2 0.000000 0.000000 0.271137
Si Si3 0.500000 0.000000 0.856510
Si Si4 0.363423 0.251553 0.198386
Si Si5 0.671359 0.253134 0.577434
O O1 0.235970 0.737566 0.511391
O O2 0.224012 0.585212 0.400674
O O3 0.500000 0.000000 0.435927
O O4 0.000000 0.000000 0.435866
O O5 0.974189 0.761509 0.318470
O O6 0.917433 0.793041 0.219258
O O7 0.500000 0.500000 0.222540
O O8 0.374975 0.251828 0.129005
O O9 0.500000 0.000000 0.225503
O O10 0.500000 0.500000 0.587432
O O11 0.500000 0.000000 0.583662
#
# Coordination Sequence:
#
# PCOD9347981 Si02
#       5
#     4   2   2   4   4
#     4  11  28  52  80 120 159 212 270 336 412 487
#     4  12  28  52  72 114 156 206 268 324 398 482
#     4  12  28  50  80 106 160 218 266 334 394 490
#     4  12  26  46  78 114 153 206 263 332 404 481
#     4  11  25  45  78 114 158 199 258 334 408 486
#
# _framework density 25.381273
#
# number of rings (size 3 to 8) (size 9 to 14) (size 15 to 20)
#    0.000    0.500    2.500    3.750   10.500    3.000 
#    4.500    0.000    0.000    0.000    0.000    0.000 
#    0.000    0.000    0.000    0.000    0.000    0.000 
#
# Total GULP energy -89088.843481 kJ/mol
# GULP energy per Si atom -5568.052718 kJ/mol
# Density = 2.532350 g / cm^3
# Si number density = 25.381273 Si / 1000 Ang^3
#
#
#
# Elastic Constant Matrix: (Units=GPa)
#
#
# Indices 1 2 3 4 5 6 
#
# 1 65.5275 42.2459 6.1663 0.0000 0.0000 0.0000
# 2 42.2459 247.9306 60.7483 0.0000 0.0000 0.0000
# 3 6.1663 60.7483 166.8997 0.0000 0.0000 0.0000
# 4 0.0000 0.0000 0.0000 29.1188 0.0000 0.0000
# 5 0.0000 0.0000 0.0000 0.0000 -22.3131 0.0000
# 6 0.0000 0.0000 0.0000 0.0000 0.0000 50.6958
#
#
#
# Elastic Compliance Matrix: (Units=1/GPa)
#
#
# Indices 1 2 3 4 5 6 
#
# 1 0.017178 -0.003043 0.000473 0.000000 0.000000 0.000000
# 2 -0.003043 0.004967 -0.001696 0.000000 0.000000 0.000000
# 3 0.000473 -0.001696 0.006591 0.000000 0.000000 0.000000
# 4 0.000000 0.000000 0.000000 0.034342 0.000000 0.000000
# 5 0.000000 0.000000 0.000000 0.000000 -0.044817 0.000000
# 6 0.000000 0.000000 0.000000 0.000000 0.000000 0.019725
#
#
# Mechanical properties :
#
#
# Convention : Reuss Voigt Hill
#
# Bulk Modulus (GPa) = 49.49147 77.63096 63.56121
# Shear Modulus (GPa) = 93.88976 36.24679 65.06828
#
# Velocity S-wave (km/s) = 6.08868 3.78311 5.06873
# Velocity P-wave (km/s) = 8.30487 7.05230 7.70408
#
# Compressibility (1/GPa) = 0.02020550
#
# Stress axis : x y z
#
# Youngs Moduli (GPa) = 58.21382 201.31516 151.71483
#
# Poissons Ratio (x) = 0.61258 -0.07175
# Poissons Ratio (y) = 0.17714 0.25725
# Poissons Ratio (z) = -0.02753 0.34135
#
# Static dielectric constant tensor:
#      x y z
#    x 1.922460 0.000000 0.000000 
#    y 0.000000 1.967400 0.000000 
#    z 0.000000 0.000000 2.013460 
# 
# From -- ./inp_files/7861.got.cif
#   From: 2010.05.17/outbox.cif.g08.bks.cpg/sg34_4_cif.got.tgz:7861.got - 2010.06.03 17:23:11.
