data_PCOD9347148
_publ_section_title
;
Structure prediction by ZEFSAII (Michael W. Deem and Ramdas Pophale) SiO2 
 PCOD9347148
Probable space group: P N N 2
;
_chemical_formula_sum "Si O2"
_cell_formula_units_Z 28
_cell_length_a 14.989627
_cell_length_b 12.506538
_cell_length_c 5.527556
_cell_angle_alpha 90.000000
_cell_angle_beta 90.000000
_cell_angle_gamma 90.000000
_cell_volume 1036.241746
_symmetry_space_group_name_H-M "P N N 2"
_symmetry_group_IT_number 34
_symmetry_cell_setting 'orthorhombic'
loop_
_space_group_symop_operation_xyz
x,y,z
-x,-y,z
1/2-x,1/2+y,1/2+z
1/2+x,1/2-y,1/2+z
loop_
_atom_site_type_symbol
_atom_site_label
_atom_site_fract_x
_atom_site_fract_y
_atom_site_fract_z
Si Si1 0.068206 0.293022 0.415910
Si Si2 0.132295 0.791180 0.427071
Si Si3 0.601810 0.497533 0.723149
Si Si4 0.395788 0.026272 0.394075
Si Si5 0.143407 0.528624 0.390158
Si Si6 0.659764 0.508765 0.228458
Si Si7 0.335784 0.783125 0.416314
O O1 0.081599 0.422367 0.406302
O O2 0.114569 0.257167 0.665775
O O3 0.965358 0.260750 0.420604
O O4 0.115015 0.254198 0.167783
O O5 0.132832 0.879017 0.210330
O O6 0.131833 0.871054 0.659489
O O7 0.233299 0.744696 0.417455
O O8 0.500000 0.500000 0.807704
O O9 0.605029 0.456729 0.448459
O O10 0.655196 0.455103 0.959739
O O11 0.380311 0.088132 0.642121
O O12 0.341437 0.914479 0.411330
O O13 0.500000 0.000000 0.381704
O O14 0.366628 0.082755 0.149642
O O15 0.243130 0.491103 0.346367
#
# Coordination Sequence:
#
# PCOD9347148 Si02
#       7
#     4   4   4   4   4   4   4
#     4  10  20  33  58  84 111 144 188 233 272 334
#     4  10  22  35  64  80 112 155 189 220 294 324
#     4  10  20  33  54  82 107 139 190 231 266 329
#     4  10  18  31  55  79 106 141 182 231 275 322
#     4  10  18  35  52  83 109 139 184 233 266 330
#     4  10  19  34  56  81 105 144 188 218 279 325
#     4  10  21  37  55  85 115 142 193 232 271 337
#
# _framework density 27.020719
#
# number of rings (size 3 to 8) (size 9 to 14) (size 15 to 20)
#    0.857    1.143    2.857    3.429    2.000    0.000 
#    0.000    0.000    0.000   27.429    0.000    0.000 
#    0.000    0.000    0.000    0.000    0.000    0.000 
#
# Total GULP energy -156485.446614 kJ/mol
# GULP energy per Si atom -5588.765950 kJ/mol
# Density = 2.695922 g / cm^3
# Si number density = 27.020719 Si / 1000 Ang^3
#
#
#
# Elastic Constant Matrix: (Units=GPa)
#
#
# Indices 1 2 3 4 5 6 
#
# 1 201.7944 36.7789 97.8379 0.0000 0.0000 0.0000
# 2 36.7789 74.6157 28.8443 0.0000 0.0000 0.0000
# 3 97.8379 28.8443 296.8997 0.0000 0.0000 0.0000
# 4 0.0000 0.0000 0.0000 35.8738 0.0000 0.0000
# 5 0.0000 0.0000 0.0000 0.0000 51.5754 0.0000
# 6 0.0000 0.0000 0.0000 0.0000 0.0000 34.5295
#
#
#
# Elastic Compliance Matrix: (Units=1/GPa)
#
#
# Indices 1 2 3 4 5 6 
#
# 1 0.006282 -0.002386 -0.001838 0.000000 0.000000 0.000000
# 2 -0.002386 0.014831 -0.000655 0.000000 0.000000 0.000000
# 3 -0.001838 -0.000655 0.004037 0.000000 0.000000 0.000000
# 4 0.000000 0.000000 0.000000 0.027875 0.000000 0.000000
# 5 0.000000 0.000000 0.000000 0.000000 0.019389 0.000000
# 6 0.000000 0.000000 0.000000 0.000000 0.000000 0.028961
#
#
# Mechanical properties :
#
#
# Convention : Reuss Voigt Hill
#
# Bulk Modulus (GPa) = 64.96490 100.02581 82.49535
# Shear Modulus (GPa) = 43.00573 51.71899 47.36236
#
# Velocity S-wave (km/s) = 3.99379 4.37973 4.19121
# Velocity P-wave (km/s) = 6.73513 7.91673 7.34971
#
# Compressibility (1/GPa) = 0.01539293
#
# Stress axis : x y z
#
# Youngs Moduli (GPa) = 159.19550 67.42628 247.67834
#
# Poissons Ratio (x) = 0.16086 0.45528
# Poissons Ratio (y) = 0.37979 0.16216
# Poissons Ratio (z) = 0.29263 0.04414
#
# Static dielectric constant tensor:
#      x y z
#    x 2.045880 0.000000 0.000000 
#    y 0.000000 2.399470 0.000000 
#    z 0.000000 0.000000 2.135910 
# 
# From -- ./inp_files/1074.got.cif
#   From: 2010.05.17/outbox.cif.g08.bks.cpg/sg34_1_cif.got.tgz:1074.got - 2010.06.03 17:23:11.
