data_PCOD9347731
_publ_section_title
;
Structure prediction by ZEFSAII (Michael W. Deem and Ramdas Pophale) SiO2 
 PCOD9347731
Probable space group: P N N 2
;
_chemical_formula_sum "Si O2"
_cell_formula_units_Z 16
_cell_length_a 7.105019
_cell_length_b 7.002012
_cell_length_c 11.515240
_cell_angle_alpha 90.000000
_cell_angle_beta 90.000000
_cell_angle_gamma 90.000000
_cell_volume 572.876607
_symmetry_space_group_name_H-M "P N N 2"
_symmetry_group_IT_number 34
_symmetry_cell_setting 'orthorhombic'
loop_
_space_group_symop_operation_xyz
x,y,z
-x,-y,z
1/2-x,1/2+y,1/2+z
1/2+x,1/2-y,1/2+z
loop_
_atom_site_type_symbol
_atom_site_label
_atom_site_fract_x
_atom_site_fract_y
_atom_site_fract_z
Si Si1 0.636514 0.872456 0.107430
Si Si2 0.817207 0.867971 0.358230
Si Si3 0.847424 0.875269 0.611437
Si Si4 0.223655 0.047711 0.860584
O O1 0.751977 0.353084 0.236349
O O2 0.707614 0.897943 0.239604
O O3 0.401016 0.872124 0.094962
O O4 0.743300 0.855169 0.984230
O O5 0.849488 0.641971 0.354939
O O6 0.735598 0.893875 0.488495
O O7 0.000000 0.000000 0.357920
O O8 0.092345 0.876460 0.618647
O O9 0.000000 0.000000 0.860413
#
# Coordination Sequence:
#
# PCOD9347731 Si02
#       4
#     4   4   4   4
#     4  12  24  45  73 110 151 200 257 326 389 469
#     4  11  24  47  74 111 150 209 260 320 392 473
#     4  10  22  45  72 100 155 193 252 314 392 455
#     4  11  23  48  75 108 159 200 255 328 396 464
#
# _framework density 27.929224000000001
#
# number of rings (size 3 to 8) (size 9 to 14) (size 15 to 20)
#    0.000    1.000    7.500    0.750    0.000    4.000 
#    4.500    1.250    0.000    0.000    0.000    0.000 
#    0.000    0.000    0.000    0.000    0.000    0.000 
#
# Total GULP energy -89246.642320 kJ/mol
# GULP energy per Si atom -5577.915145 kJ/mol
# Density = 2.786566 g / cm^3
# Si number density = 27.929224 Si / 1000 Ang^3
#
#
#
# Elastic Constant Matrix: (Units=GPa)
#
#
# Indices 1 2 3 4 5 6 
#
# 1 59.7432 35.8056 84.7378 0.0000 0.0000 0.0000
# 2 35.8056 210.7652 47.6705 0.0000 0.0000 0.0000
# 3 84.7378 47.6705 416.2845 0.0000 0.0000 0.0000
# 4 0.0000 0.0000 0.0000 47.9910 0.0000 0.0000
# 5 0.0000 0.0000 0.0000 0.0000 -3.6582 0.0000
# 6 0.0000 0.0000 0.0000 0.0000 0.0000 50.9825
#
#
#
# Elastic Compliance Matrix: (Units=1/GPa)
#
#
# Indices 1 2 3 4 5 6 
#
# 1 0.025526 -0.003245 -0.004824 0.000000 0.000000 0.000000
# 2 -0.003245 0.005283 0.000056 0.000000 0.000000 0.000000
# 3 -0.004824 0.000056 0.003378 0.000000 0.000000 0.000000
# 4 0.000000 0.000000 0.000000 0.020837 0.000000 0.000000
# 5 0.000000 0.000000 0.000000 0.000000 -0.273355 0.000000
# 6 0.000000 0.000000 0.000000 0.000000 0.000000 0.019615
#
#
# Mechanical properties :
#
#
# Convention : Reuss Voigt Hill
#
# Bulk Modulus (GPa) = 55.06884 113.69121 84.38003
# Shear Modulus (GPa) = -28.30694 53.63498 12.66402
#
# Velocity S-wave (km/s) = -3.18704 4.38698 2.13171
# Velocity P-wave (km/s) = 2.49341 8.15206 6.02798
#
# Compressibility (1/GPa) = 0.01815909
#
# Stress axis : x y z
#
# Youngs Moduli (GPa) = 39.17569 189.27323 296.04391
#
# Poissons Ratio (x) = 0.61425 1.42823
# Poissons Ratio (y) = 0.12714 -0.01646
# Poissons Ratio (z) = 0.18900 -0.01052
#
# Static dielectric constant tensor:
#      x y z
#    x 2.190950 0.000000 0.000000 
#    y 0.000000 2.792840 0.000000 
#    z 0.000000 0.000000 1.910620 
# 
# From -- ./inp_files/4660.got.cif
#   From: 2010.05.17/outbox.cif.g08.bks.cpg/sg34_3_cif.got.tgz:4660.got - 2010.06.03 17:23:11.
