data_PCOD9347555
_publ_section_title
;
Structure prediction by ZEFSAII (Michael W. Deem and Ramdas Pophale) SiO2 
 PCOD9347555
Probable space group: P N N 2
;
_chemical_formula_sum "Si O2"
_cell_formula_units_Z 18
_cell_length_a 7.339309
_cell_length_b 9.413970
_cell_length_c 11.043212
_cell_angle_alpha 90.000000
_cell_angle_beta 90.000000
_cell_angle_gamma 90.000000
_cell_volume 762.997987
_symmetry_space_group_name_H-M "P N N 2"
_symmetry_group_IT_number 34
_symmetry_cell_setting 'orthorhombic'
loop_
_space_group_symop_operation_xyz
x,y,z
-x,-y,z
1/2-x,1/2+y,1/2+z
1/2+x,1/2-y,1/2+z
loop_
_atom_site_type_symbol
_atom_site_label
_atom_site_fract_x
_atom_site_fract_y
_atom_site_fract_z
Si Si1 0.230982 0.137040 0.342810
Si Si2 0.646793 0.794130 0.584157
Si Si3 0.927583 0.351945 0.348358
Si Si4 0.000000 0.000000 0.142762
Si Si5 0.451182 0.663554 0.257560
O O1 0.331832 0.103802 0.469078
O O2 0.166530 0.031985 0.237257
O O3 0.369765 0.250007 0.286111
O O4 0.047452 0.218266 0.384356
O O5 0.543486 0.854408 0.701615
O O6 0.558992 0.637958 0.566278
O O7 0.848345 0.774955 0.640857
O O8 0.711317 0.330734 0.358103
O O9 0.000000 0.500000 0.400033
O O10 0.500000 0.500000 0.238728
#
# Coordination Sequence:
#
# PCOD9347555 Si02
#       5
#     4   4   4   2   4
#     4  11  21  43  63  88 135 168 202 274 329 360
#     4   9  23  40  62  93 123 176 202 262 334 362
#     4   9  19  40  56  92 119 156 218 262 298 398
#     4  10  24  44  60 100 138 150 234 266 290 424
#     4  10  21  40  62  91 122 163 223 252 315 398
#
# _framework density 23.591146999999999
#
# number of rings (size 3 to 8) (size 9 to 14) (size 15 to 20)
#    1.333    0.889    2.222    0.000    3.111    0.889 
#   16.000    0.000    0.000    0.000    0.000    0.000 
#    0.000    0.000    0.000    0.000    0.000    0.000 
#
# Total GULP energy -100231.909981 kJ/mol
# GULP energy per Si atom -5568.439443 kJ/mol
# Density = 2.353745 g / cm^3
# Si number density = 23.591147 Si / 1000 Ang^3
#
#
#
# Elastic Constant Matrix: (Units=GPa)
#
#
# Indices 1 2 3 4 5 6 
#
# 1 109.0910 44.0163 26.3153 0.0000 0.0000 0.0000
# 2 44.0163 40.6812 -10.9435 0.0000 0.0000 0.0000
# 3 26.3153 -10.9435 71.0264 0.0000 0.0000 0.0000
# 4 0.0000 0.0000 0.0000 10.8827 0.0000 0.0000
# 5 0.0000 0.0000 0.0000 0.0000 15.9940 0.0000
# 6 0.0000 0.0000 0.0000 0.0000 0.0000 47.3044
#
#
#
# Elastic Compliance Matrix: (Units=1/GPa)
#
#
# Indices 1 2 3 4 5 6 
#
# 1 0.024949 -0.030755 -0.013982 0.000000 0.000000 0.000000
# 2 -0.030755 0.063558 0.021188 0.000000 0.000000 0.000000
# 3 -0.013982 0.021188 0.022524 0.000000 0.000000 0.000000
# 4 0.000000 0.000000 0.000000 0.091889 0.000000 0.000000
# 5 0.000000 0.000000 0.000000 0.000000 0.062524 0.000000
# 6 0.000000 0.000000 0.000000 0.000000 0.000000 0.021140
#
#
# Mechanical properties :
#
#
# Convention : Reuss Voigt Hill
#
# Bulk Modulus (GPa) = 15.64196 37.73053 26.68624
# Shear Modulus (GPa) = 14.08480 25.59690 19.84085
#
# Velocity S-wave (km/s) = 2.44609 3.29754 2.90320
# Velocity P-wave (km/s) = 3.82395 5.52509 4.75127
#
# Compressibility (1/GPa) = 0.06393060
#
# Stress axis : x y z
#
# Youngs Moduli (GPa) = 40.08228 15.73378 44.39679
#
# Poissons Ratio (x) = 0.48390 0.62076
# Poissons Ratio (y) = 1.23274 -0.94066
# Poissons Ratio (z) = 0.56044 -0.33336
#
# Static dielectric constant tensor:
#      x y z
#    x 1.865650 0.000000 0.000000 
#    y 0.000000 1.858500 0.000000 
#    z 0.000000 0.000000 1.971210 
# 
# From -- ./inp_files/4833.got.cif
#   From: 2010.05.17/outbox.cif.g08.bks.cpg/sg34_3_cif.got.tgz:4833.got - 2010.06.03 17:23:11.
