data_PCOD9347727
_publ_section_title
;
Structure prediction by ZEFSAII (Michael W. Deem and Ramdas Pophale) SiO2 
 PCOD9347727
Probable space group: P N N 2
;
_chemical_formula_sum "Si O2"
_cell_formula_units_Z 26
_cell_length_a 11.995456
_cell_length_b 10.926547
_cell_length_c 8.696283
_cell_angle_alpha 90.000000
_cell_angle_beta 90.000000
_cell_angle_gamma 90.000000
_cell_volume 1139.812367
_symmetry_space_group_name_H-M "P N N 2"
_symmetry_group_IT_number 34
_symmetry_cell_setting 'orthorhombic'
loop_
_space_group_symop_operation_xyz
x,y,z
-x,-y,z
1/2-x,1/2+y,1/2+z
1/2+x,1/2-y,1/2+z
loop_
_atom_site_type_symbol
_atom_site_label
_atom_site_fract_x
_atom_site_fract_y
_atom_site_fract_z
Si Si1 0.397503 0.340406 0.270530
Si Si2 0.673933 0.221443 0.955168
Si Si3 0.500000 0.500000 0.514022
Si Si4 0.671684 0.636388 0.710131
Si Si5 0.950663 0.378995 0.547093
Si Si6 0.603794 0.908861 0.731746
Si Si7 0.195318 0.003469 0.519597
O O1 0.275321 0.319050 0.346126
O O2 0.486632 0.383633 0.398450
O O3 0.423144 0.219251 0.174271
O O4 0.384999 0.447747 0.147208
O O5 0.716535 0.174041 0.120928
O O6 0.659569 0.366662 0.951761
O O7 0.551182 0.169113 0.938606
O O8 0.605510 0.526577 0.624347
O O9 0.599981 0.762410 0.698946
O O10 0.699360 0.593762 0.881689
O O11 0.860807 0.412011 0.414399
O O12 0.000000 0.500000 0.622737
O O13 0.693192 0.963482 0.612845
O O14 0.500000 0.000000 0.711033
#
# Coordination Sequence:
#
# PCOD9347727 Si02
#       7
#     4   4   2   4   4   4   4
#     4  11  22  45  70 101 136 189 235 290 358 427
#     4  10  25  43  64 104 141 173 235 295 346 431
#     4  10  24  42  66 100 142 176 246 286 340 440
#     4  10  23  45  66 102 140 185 230 297 360 417
#     4  11  23  42  71 100 141 182 232 293 362 425
#     4  10  22  45  68 105 138 179 240 296 356 432
#     4  11  23  45  72  97 140 182 236 292 358 420
#
# _framework density 22.810770000000002
#
# number of rings (size 3 to 8) (size 9 to 14) (size 15 to 20)
#    0.000    1.538    1.538    2.769    4.308    0.615 
#   13.846    0.000    0.000    0.000    0.000    0.000 
#    0.000    0.000    0.000    0.000    0.000    0.000 
#
# Total GULP energy -145058.002213 kJ/mol
# GULP energy per Si atom -5579.153931 kJ/mol
# Density = 2.275885 g / cm^3
# Si number density = 22.810770 Si / 1000 Ang^3
#
#
#
# Elastic Constant Matrix: (Units=GPa)
#
#
# Indices 1 2 3 4 5 6 
#
# 1 57.9137 49.6975 41.1071 0.0000 0.0000 0.0000
# 2 49.6975 130.4796 56.8286 0.0000 0.0000 0.0000
# 3 41.1071 56.8286 125.9480 0.0000 0.0000 0.0000
# 4 0.0000 0.0000 0.0000 183.4755 0.0000 0.0000
# 5 0.0000 0.0000 0.0000 0.0000 26.7640 0.0000
# 6 0.0000 0.0000 0.0000 0.0000 0.0000 29.7159
#
#
#
# Elastic Compliance Matrix: (Units=1/GPa)
#
#
# Indices 1 2 3 4 5 6 
#
# 1 0.028375 -0.008431 -0.005457 0.000000 0.000000 0.000000
# 2 -0.008431 0.012044 -0.002682 0.000000 0.000000 0.000000
# 3 -0.005457 -0.002682 0.010931 0.000000 0.000000 0.000000
# 4 0.000000 0.000000 0.000000 0.005450 0.000000 0.000000
# 5 0.000000 0.000000 0.000000 0.000000 0.037364 0.000000
# 6 0.000000 0.000000 0.000000 0.000000 0.000000 0.033652
#
#
# Mechanical properties :
#
#
# Convention : Reuss Voigt Hill
#
# Bulk Modulus (GPa) = 54.91732 67.73419 61.32575
# Shear Modulus (GPa) = 29.93534 59.10497 44.52015
#
# Velocity S-wave (km/s) = 3.62654 5.09581 4.42262
# Velocity P-wave (km/s) = 6.45470 8.02380 7.28164
#
# Compressibility (1/GPa) = 0.01820919
#
# Stress axis : x y z
#
# Youngs Moduli (GPa) = 35.24178 83.03216 91.48119
#
# Poissons Ratio (x) = 0.70004 0.49922
# Poissons Ratio (y) = 0.29712 0.24539
# Poissons Ratio (z) = 0.19232 0.22273
#
# Static dielectric constant tensor:
#      x y z
#    x 1.917760 0.000000 0.000000 
#    y 0.000000 1.906940 0.000000 
#    z 0.000000 0.000000 1.887350 
# 
# From -- ./inp_files/3886.got.cif
#   From: 2010.05.17/outbox.cif.g08.bks.cpg/sg34_2_cif.got.tgz:3886.got - 2010.06.03 17:23:11.
