data_PCOD9347900
_publ_section_title
;
Structure prediction by ZEFSAII (Michael W. Deem and Ramdas Pophale) SiO2 
 PCOD9347900
Probable space group: P N N 2
;
_chemical_formula_sum "Si O2"
_cell_formula_units_Z 24
_cell_length_a 4.747248
_cell_length_b 12.465423
_cell_length_c 20.234341
_cell_angle_alpha 90.000000
_cell_angle_beta 90.000000
_cell_angle_gamma 90.000000
_cell_volume 1197.396558
_symmetry_space_group_name_H-M "P N N 2"
_symmetry_group_IT_number 34
_symmetry_cell_setting 'orthorhombic'
loop_
_space_group_symop_operation_xyz
x,y,z
-x,-y,z
1/2-x,1/2+y,1/2+z
1/2+x,1/2-y,1/2+z
loop_
_atom_site_type_symbol
_atom_site_label
_atom_site_fract_x
_atom_site_fract_y
_atom_site_fract_z
Si Si1 0.537345 0.874524 0.550000
Si Si2 0.745802 0.575435 0.573793
Si Si3 0.252801 0.578697 0.242555
Si Si4 0.021180 0.787557 0.623958
Si Si5 0.480887 0.704655 0.450563
Si Si6 0.522956 0.128164 0.872539
O O1 0.859910 0.849264 0.565572
O O2 0.480722 0.824199 0.478639
O O3 0.345677 0.809247 0.604267
O O4 0.500000 0.000000 0.555280
O O5 0.500000 0.500000 0.604662
O O6 0.901479 0.666571 0.618086
O O7 0.597554 0.632817 0.511278
O O8 0.000000 0.500000 0.550810
O O9 0.500000 0.500000 0.269529
O O10 0.410498 0.652025 0.189057
O O11 0.104342 0.647448 0.299918
O O12 0.000000 0.500000 0.216444
O O13 0.169126 0.675505 0.429979
O O14 0.672382 0.675461 0.387698
O O15 0.500000 0.000000 0.878312
#
# Coordination Sequence:
#
# PCOD9347900 Si02
#       6
#     4   4   4   4   4   4
#     4  11  22  36  56  82 112 145 183 229 283 339
#     4  11  21  34  54  80 109 141 178 223 277 333
#     4  11  22  36  56  82 111 145 185 231 282 336
#     4  11  22  36  56  82 111 145 183 229 282 338
#     4  11  21  34  54  80 110 141 177 224 276 332
#     4  11  21  34  54  80 109 141 178 224 276 330
#
# _framework density 20.043485
#
# number of rings (size 3 to 8) (size 9 to 14) (size 15 to 20)
#    0.000    1.000    0.000   12.000    0.000    0.000 
#    0.000    0.000    0.000    3.000    0.000    0.000 
#    0.000    0.000    0.000    0.000    0.000    0.000 
#
# Total GULP energy -133986.503543 kJ/mol
# GULP energy per Si atom -5582.770981 kJ/mol
# Density = 1.999786 g / cm^3
# Si number density = 20.043485 Si / 1000 Ang^3
#
#
#
# Elastic Constant Matrix: (Units=GPa)
#
#
# Indices 1 2 3 4 5 6 
#
# 1 66.9952 13.8420 -8.6847 0.0000 0.0000 0.0000
# 2 13.8420 82.8802 21.8279 0.0000 0.0000 0.0000
# 3 -8.6847 21.8279 64.5187 0.0000 0.0000 0.0000
# 4 0.0000 0.0000 0.0000 26.2832 0.0000 0.0000
# 5 0.0000 0.0000 0.0000 0.0000 32.8288 0.0000
# 6 0.0000 0.0000 0.0000 0.0000 0.0000 26.4789
#
#
#
# Elastic Compliance Matrix: (Units=1/GPa)
#
#
# Indices 1 2 3 4 5 6 
#
# 1 0.016104 -0.003579 0.003379 0.000000 0.000000 0.000000
# 2 -0.003579 0.014041 -0.005232 0.000000 0.000000 0.000000
# 3 0.003379 -0.005232 0.017724 0.000000 0.000000 0.000000
# 4 0.000000 0.000000 0.000000 0.038047 0.000000 0.000000
# 5 0.000000 0.000000 0.000000 0.000000 0.030461 0.000000
# 6 0.000000 0.000000 0.000000 0.000000 0.000000 0.037766
#
#
# Mechanical properties :
#
#
# Convention : Reuss Voigt Hill
#
# Bulk Modulus (GPa) = 27.02427 29.81828 28.42127
# Shear Modulus (GPa) = 28.19372 29.61211 28.90292
#
# Velocity S-wave (km/s) = 3.75457 3.84786 3.80150
# Velocity P-wave (km/s) = 5.68400 5.88646 5.78612
#
# Compressibility (1/GPa) = 0.03700378
#
# Stress axis : x y z
#
# Youngs Moduli (GPa) = 62.09648 71.21784 56.41950
#
# Poissons Ratio (x) = 0.25492 -0.19062
# Poissons Ratio (y) = 0.22227 0.29520
# Poissons Ratio (z) = -0.20981 0.37263
#
# Static dielectric constant tensor:
#      x y z
#    x 1.721620 0.000000 0.000000 
#    y 0.000000 1.735390 0.000000 
#    z 0.000000 0.000000 1.737490 
# 
# From -- ./inp_files/7910.got.cif
#   From: 2010.05.17/outbox.cif.g08.bks.cpg/sg34_4_cif.got.tgz:7910.got - 2010.06.03 17:23:11.
