data_PCOD9347728
_publ_section_title
;
Structure prediction by ZEFSAII (Michael W. Deem and Ramdas Pophale) SiO2 
 PCOD9347728
Probable space group: P N N 2
;
_chemical_formula_sum "Si O2"
_cell_formula_units_Z 12
_cell_length_a 9.079747
_cell_length_b 6.974195
_cell_length_c 6.615402
_cell_angle_alpha 90.000000
_cell_angle_beta 90.000000
_cell_angle_gamma 90.000000
_cell_volume 418.913228
_symmetry_space_group_name_H-M "P N N 2"
_symmetry_group_IT_number 34
_symmetry_cell_setting 'orthorhombic'
loop_
_space_group_symop_operation_xyz
x,y,z
-x,-y,z
1/2-x,1/2+y,1/2+z
1/2+x,1/2-y,1/2+z
loop_
_atom_site_type_symbol
_atom_site_label
_atom_site_fract_x
_atom_site_fract_y
_atom_site_fract_z
Si Si1 0.663003 0.930832 0.841970
Si Si2 0.585666 0.680486 0.262770
Si Si3 0.691371 0.053237 0.372994
O O1 0.799827 0.066938 0.907194
O O2 0.679321 0.972177 0.599199
O O3 0.500000 0.000000 0.900972
O O4 0.674185 0.701710 0.865717
O O5 0.500000 0.500000 0.159854
O O6 0.554280 0.196692 0.340413
O O7 0.685920 0.872822 0.220699
#
# Coordination Sequence:
#
# PCOD9347728 Si02
#       3
#     4   4   4
#     4  11  23  44  69 105 141 196 248 306 377 442
#     4   9  20  42  69  97 140 194 232 314 358 446
#     4  10  22  45  69 101 147 191 246 311 365 444
#
# _framework density 28.645548000000002
#
# number of rings (size 3 to 8) (size 9 to 14) (size 15 to 20)
#    0.000    2.000    3.333    0.000    0.000    6.667 
#   24.000    0.000    0.000    0.000    0.000    0.000 
#    0.000    0.000    0.000    0.000    0.000    0.000 
#
# Total GULP energy -66870.375569 kJ/mol
# GULP energy per Si atom -5572.531297 kJ/mol
# Density = 2.858035 g / cm^3
# Si number density = 28.645548 Si / 1000 Ang^3
#
#
#
# Elastic Constant Matrix: (Units=GPa)
#
#
# Indices 1 2 3 4 5 6 
#
# 1 128.5487 108.9332 10.7931 0.0000 0.0000 0.0000
# 2 108.9332 336.1379 65.3878 0.0000 0.0000 0.0000
# 3 10.7931 65.3878 49.3820 0.0000 0.0000 0.0000
# 4 0.0000 0.0000 0.0000 43.3853 0.0000 0.0000
# 5 0.0000 0.0000 0.0000 0.0000 19.5373 0.0000
# 6 0.0000 0.0000 0.0000 0.0000 0.0000 81.8406
#
#
#
# Elastic Compliance Matrix: (Units=1/GPa)
#
#
# Indices 1 2 3 4 5 6 
#
# 1 0.011074 -0.004200 0.003141 0.000000 0.000000 0.000000
# 2 -0.004200 0.005600 -0.006497 0.000000 0.000000 0.000000
# 3 0.003141 -0.006497 0.028167 0.000000 0.000000 0.000000
# 4 0.000000 0.000000 0.000000 0.023049 0.000000 0.000000
# 5 0.000000 0.000000 0.000000 0.000000 0.051184 0.000000
# 6 0.000000 0.000000 0.000000 0.000000 0.000000 0.012219
#
#
# Mechanical properties :
#
#
# Convention : Reuss Voigt Hill
#
# Bulk Modulus (GPa) = 33.63758 98.25518 65.94638
# Shear Modulus (GPa) = 31.98663 50.88293 41.43478
#
# Velocity S-wave (km/s) = 3.34523 4.21918 3.80737
# Velocity P-wave (km/s) = 5.16614 7.62300 6.51149
#
# Compressibility (1/GPa) = 0.02972865
#
# Stress axis : x y z
#
# Youngs Moduli (GPa) = 90.29776 178.57544 35.50298
#
# Poissons Ratio (x) = 0.75000 -0.11150
# Poissons Ratio (y) = 0.37924 0.23066
# Poissons Ratio (z) = -0.28360 1.16020
#
# Static dielectric constant tensor:
#      x y z
#    x 2.584690 0.000000 0.000000 
#    y 0.000000 2.315990 0.000000 
#    z 0.000000 0.000000 2.772760 
# 
# From -- ./inp_files/1884.got.cif
#   From: 2010.05.17/outbox.cif.g08.bks.cpg/sg34_1_cif.got.tgz:1884.got - 2010.06.03 17:23:11.
