data_PCOD9347228
_publ_section_title
;
Structure prediction by ZEFSAII (Michael W. Deem and Ramdas Pophale) SiO2 
 PCOD9347228
Probable space group: P N N 2
;
_chemical_formula_sum "Si O2"
_cell_formula_units_Z 30
_cell_length_a 5.476948
_cell_length_b 12.912191
_cell_length_c 18.206700
_cell_angle_alpha 90.000000
_cell_angle_beta 90.000000
_cell_angle_gamma 90.000000
_cell_volume 1287.566876
_symmetry_space_group_name_H-M "P N N 2"
_symmetry_group_IT_number 34
_symmetry_cell_setting 'orthorhombic'
loop_
_space_group_symop_operation_xyz
x,y,z
-x,-y,z
1/2-x,1/2+y,1/2+z
1/2+x,1/2-y,1/2+z
loop_
_atom_site_type_symbol
_atom_site_label
_atom_site_fract_x
_atom_site_fract_y
_atom_site_fract_z
Si Si1 0.000000 0.000000 0.902321
Si Si2 0.002840 0.770336 0.853767
Si Si3 0.845682 0.587419 0.524412
Si Si4 0.915590 0.398118 0.161392
Si Si5 0.594466 0.830396 0.200631
Si Si6 0.402369 0.344632 0.666045
Si Si7 0.912649 0.141524 0.588210
Si Si8 0.989983 0.225101 0.436706
O O1 0.034080 0.105459 0.857431
O O2 0.784247 0.028754 0.957887
O O3 0.744537 0.723761 0.883002
O O4 0.081363 0.739804 0.772463
O O5 0.238702 0.732616 0.901544
O O6 0.647300 0.639746 0.578842
O O7 0.000000 0.500000 0.565677
O O8 0.017990 0.670164 0.485173
O O9 0.916470 0.278494 0.188900
O O10 0.000000 0.500000 0.208086
O O11 0.645321 0.409523 0.128599
O O12 0.137379 0.395748 0.102671
O O13 0.339431 0.888203 0.202435
O O14 0.845371 0.889708 0.192624
O O15 0.586846 0.755010 0.128807
O O16 0.967088 0.141831 0.501814
#
# Coordination Sequence:
#
# PCOD9347228 Si02
#       8
#     2   4   4   4   4   4   4   4
#     4  10  24  34  58  94 140 162 202 254 338 406
#     4  11  23  38  56  90 131 168 205 245 332 399
#     4  11  21  36  62  94 130 165 214 275 328 384
#     4  10  19  33  54  85 115 148 196 260 310 357
#     4  10  21  39  57  83 123 173 206 259 311 383
#     4  10  22  37  60  86 126 165 220 264 313 388
#     4  10  20  36  59  84 119 155 211 261 302 371
#     4  11  21  37  60  88 124 161 206 257 315 389
#
# _framework density 23.299761
#
# number of rings (size 3 to 8) (size 9 to 14) (size 15 to 20)
#    0.000    1.600    4.000    2.000    7.467    0.000 
#    9.600    0.000    0.000    0.000    0.000   14.000 
#    0.000    0.000    0.000    0.000    0.000    0.000 
#
# Total GULP energy -167207.190867 kJ/mol
# GULP energy per Si atom -5573.573029 kJ/mol
# Density = 2.324673 g / cm^3
# Si number density = 23.299761 Si / 1000 Ang^3
#
#
#
# Elastic Constant Matrix: (Units=GPa)
#
#
# Indices 1 2 3 4 5 6 
#
# 1 192.8055 28.7607 22.9128 0.0000 0.0000 0.0000
# 2 28.7607 58.5353 4.2920 0.0000 0.0000 0.0000
# 3 22.9128 4.2920 83.8114 0.0000 0.0000 0.0000
# 4 0.0000 0.0000 0.0000 3.4617 0.0000 0.0000
# 5 0.0000 0.0000 0.0000 0.0000 37.3180 0.0000
# 6 0.0000 0.0000 0.0000 0.0000 0.0000 32.8439
#
#
#
# Elastic Compliance Matrix: (Units=1/GPa)
#
#
# Indices 1 2 3 4 5 6 
#
# 1 0.005764 -0.002727 -0.001436 0.000000 0.000000 0.000000
# 2 -0.002727 0.018438 -0.000199 0.000000 0.000000 0.000000
# 3 -0.001436 -0.000199 0.012334 0.000000 0.000000 0.000000
# 4 0.000000 0.000000 0.000000 0.288877 0.000000 0.000000
# 5 0.000000 0.000000 0.000000 0.000000 0.026797 0.000000
# 6 0.000000 0.000000 0.000000 0.000000 0.000000 0.030447
#
#
# Mechanical properties :
#
#
# Convention : Reuss Voigt Hill
#
# Bulk Modulus (GPa) = 35.95438 49.67590 42.81514
# Shear Modulus (GPa) = 12.47969 33.33717 22.90843
#
# Velocity S-wave (km/s) = 2.31685 3.78669 3.13901
# Velocity P-wave (km/s) = 4.75623 6.36281 5.61725
#
# Compressibility (1/GPa) = 0.02781303
#
# Stress axis : x y z
#
# Youngs Moduli (GPa) = 173.49076 54.23565 81.07441
#
# Poissons Ratio (x) = 0.14789 0.11643
# Poissons Ratio (y) = 0.47307 0.01611
# Poissons Ratio (z) = 0.24916 0.01078
#
# Static dielectric constant tensor:
#      x y z
#    x 1.893690 0.000000 0.000000 
#    y 0.000000 1.873600 0.000000 
#    z 0.000000 0.000000 1.854360 
# 
# From -- ./inp_files/7245.got.cif
#   From: 2010.05.17/outbox.cif.g08.bks.cpg/sg34_4_cif.got.tgz:7245.got - 2010.06.03 17:23:11.
