data_PCOD9347781
_publ_section_title
;
Structure prediction by ZEFSAII (Michael W. Deem and Ramdas Pophale) SiO2 
 PCOD9347781
Probable space group: P N N 2
;
_chemical_formula_sum "Si O2"
_cell_formula_units_Z 24
_cell_length_a 11.928775
_cell_length_b 16.399242
_cell_length_c 4.981917
_cell_angle_alpha 90.000000
_cell_angle_beta 90.000000
_cell_angle_gamma 90.000000
_cell_volume 974.576892
_symmetry_space_group_name_H-M "P N N 2"
_symmetry_group_IT_number 34
_symmetry_cell_setting 'orthorhombic'
loop_
_space_group_symop_operation_xyz
x,y,z
-x,-y,z
1/2-x,1/2+y,1/2+z
1/2+x,1/2-y,1/2+z
loop_
_atom_site_type_symbol
_atom_site_label
_atom_site_fract_x
_atom_site_fract_y
_atom_site_fract_z
Si Si1 0.358504 0.248558 0.676710
Si Si2 0.145589 0.154189 0.570281
Si Si3 0.263405 0.482979 0.048109
Si Si4 0.014538 0.714889 0.707456
Si Si5 0.962259 0.084459 0.212347
Si Si6 0.111642 0.445340 0.536017
O O1 0.387606 0.230298 0.986527
O O2 0.239328 0.222720 0.567986
O O3 0.441260 0.193623 0.499517
O O4 0.384091 0.342651 0.609416
O O5 0.208333 0.072917 0.659555
O O6 0.049453 0.199152 0.734886
O O7 0.077624 0.127013 0.306517
O O8 0.190469 0.440463 0.275951
O O9 0.383998 0.446159 0.962148
O O10 0.186885 0.482300 0.779174
O O11 0.934558 0.643352 0.611473
O O12 0.000000 0.000000 0.069509
O O13 0.000000 0.500000 0.490117
#
# Coordination Sequence:
#
# PCOD9347781 Si02
#       6
#     4   4   4   4   4   4
#     4  11  23  42  65  94 130 174 221 274 339 407
#     4  10  23  43  66  94 131 172 220 275 337 406
#     4  11  24  42  67  97 133 175 223 278 336 406
#     4  11  25  41  64  95 129 169 217 272 332 401
#     4   9  22  43  68 101 137 180 231 288 350 415
#     4  12  24  43  68  99 135 176 224 277 338 405
#
# _framework density 24.626068
#
# number of rings (size 3 to 8) (size 9 to 14) (size 15 to 20)
#    0.000    1.333    0.000    4.500    0.000   12.000 
#    0.000    7.500    0.000    0.000    0.000    0.000 
#    0.000    0.000    0.000    0.000    0.000    0.000 
#
# Total GULP energy -134087.487676 kJ/mol
# GULP energy per Si atom -5586.978653 kJ/mol
# Density = 2.457002 g / cm^3
# Si number density = 24.626068 Si / 1000 Ang^3
#
#
#
# Elastic Constant Matrix: (Units=GPa)
#
#
# Indices 1 2 3 4 5 6 
#
# 1 109.7474 54.8906 32.1291 0.0000 0.0000 0.0000
# 2 54.8906 119.6692 7.1794 0.0000 0.0000 0.0000
# 3 32.1291 7.1794 90.9017 0.0000 0.0000 0.0000
# 4 0.0000 0.0000 0.0000 20.4274 0.0000 0.0000
# 5 0.0000 0.0000 0.0000 0.0000 11.0890 0.0000
# 6 0.0000 0.0000 0.0000 0.0000 0.0000 50.4400
#
#
#
# Elastic Compliance Matrix: (Units=1/GPa)
#
#
# Indices 1 2 3 4 5 6 
#
# 1 0.013266 -0.005831 -0.004228 0.000000 0.000000 0.000000
# 2 -0.005831 0.010959 0.001196 0.000000 0.000000 0.000000
# 3 -0.004228 0.001196 0.012401 0.000000 0.000000 0.000000
# 4 0.000000 0.000000 0.000000 0.048954 0.000000 0.000000
# 5 0.000000 0.000000 0.000000 0.000000 0.090179 0.000000
# 6 0.000000 0.000000 0.000000 0.000000 0.000000 0.019826
#
#
# Mechanical properties :
#
#
# Convention : Reuss Voigt Hill
#
# Bulk Modulus (GPa) = 52.91512 56.52407 54.71960
# Shear Modulus (GPa) = 22.76726 31.46589 27.11658
#
# Velocity S-wave (km/s) = 3.04389 3.57844 3.32193
# Velocity P-wave (km/s) = 5.82132 6.33059 6.08129
#
# Compressibility (1/GPa) = 0.01889819
#
# Stress axis : x y z
#
# Youngs Moduli (GPa) = 75.37879 91.24558 80.63870
#
# Poissons Ratio (x) = 0.53209 0.34097
# Poissons Ratio (y) = 0.43956 -0.09641
# Poissons Ratio (z) = 0.31873 -0.10909
#
# Static dielectric constant tensor:
#      x y z
#    x 2.007280 0.000000 0.000000 
#    y 0.000000 1.974270 0.000000 
#    z 0.000000 0.000000 1.940620 
# 
# From -- ./inp_files/928.got.cif
#   From: 2010.05.17/outbox.cif.g08.bks.cpg/sg34_1_cif.got.tgz:928.got - 2010.06.03 17:23:11.
