data_PCOD9347927
_publ_section_title
;
Structure prediction by ZEFSAII (Michael W. Deem and Ramdas Pophale) SiO2 
 PCOD9347927
Probable space group: P N N 2
;
_chemical_formula_sum "Si O2"
_cell_formula_units_Z 32
_cell_length_a 16.293014
_cell_length_b 14.401582
_cell_length_c 6.503158
_cell_angle_alpha 90.000000
_cell_angle_beta 90.000000
_cell_angle_gamma 90.000000
_cell_volume 1525.934661
_symmetry_space_group_name_H-M "P N N 2"
_symmetry_group_IT_number 34
_symmetry_cell_setting 'orthorhombic'
loop_
_space_group_symop_operation_xyz
x,y,z
-x,-y,z
1/2-x,1/2+y,1/2+z
1/2+x,1/2-y,1/2+z
loop_
_atom_site_type_symbol
_atom_site_label
_atom_site_fract_x
_atom_site_fract_y
_atom_site_fract_z
Si Si1 0.203203 0.651577 0.668090
Si Si2 0.627857 0.336020 0.764173
Si Si3 0.013821 0.897345 0.567221
Si Si4 0.838334 0.194093 0.348343
Si Si5 0.546239 0.240442 0.374389
Si Si6 0.402730 0.009088 0.910246
Si Si7 0.098824 0.647293 0.062677
Si Si8 0.683341 0.173202 0.064243
O O1 0.294148 0.608182 0.677063
O O2 0.203880 0.745636 0.531400
O O3 0.138691 0.583954 0.559330
O O4 0.168836 0.662920 0.896223
O O5 0.581694 0.290966 0.573192
O O6 0.560459 0.385445 0.904144
O O7 0.672275 0.257344 0.903153
O O8 0.100551 0.880386 0.451636
O O9 0.002550 0.815362 0.734288
O O10 0.000000 0.000000 0.657876
O O11 0.894704 0.269182 0.227749
O O12 0.770394 0.162026 0.181433
O O13 0.486539 0.159287 0.447582
O O14 0.619335 0.198860 0.242704
O O15 0.392828 0.051399 0.682604
O O16 0.500000 0.000000 0.949833
O O17 0.352058 0.916007 0.947559
#
# Coordination Sequence:
#
# PCOD9347927 Si02
#       8
#     4   4   4   4   4   4   4   4
#     4  11  23  43  68  97 137 181 229 282 352 418
#     4  11  23  43  69  99 135 185 229 283 354 418
#     4  11  26  42  68 104 138 180 244 288 337 419
#     4  11  22  43  67  99 134 181 230 279 350 420
#     4  11  22  43  73  93 139 193 231 281 350 419
#     4  11  26  41  66 106 139 170 233 295 343 422
#     4  11  22  43  68  93 137 186 226 280 350 415
#     4  11  24  42  69 105 137 176 235 289 350 428
#
# _framework density 20.970752999999998
#
# number of rings (size 3 to 8) (size 9 to 14) (size 15 to 20)
#    0.000    1.000    5.000    1.500    5.250    3.000 
#    0.000    2.500    0.000    0.000    0.000    0.000 
#    0.000    0.000    0.000    0.000    0.000    0.000 
#
# Total GULP energy -178749.118746 kJ/mol
# GULP energy per Si atom -5585.909961 kJ/mol
# Density = 2.092302 g / cm^3
# Si number density = 20.970753 Si / 1000 Ang^3
#
#
#
# Elastic Constant Matrix: (Units=GPa)
#
#
# Indices 1 2 3 4 5 6 
#
# 1 114.4396 17.4250 34.9544 0.0000 0.0000 0.0000
# 2 17.4250 57.8803 14.2638 0.0000 0.0000 0.0000
# 3 34.9544 14.2638 85.7535 0.0000 0.0000 0.0000
# 4 0.0000 0.0000 0.0000 0.9221 0.0000 0.0000
# 5 0.0000 0.0000 0.0000 0.0000 34.8162 0.0000
# 6 0.0000 0.0000 0.0000 0.0000 0.0000 23.8152
#
#
#
# Elastic Compliance Matrix: (Units=1/GPa)
#
#
# Indices 1 2 3 4 5 6 
#
# 1 0.010229 -0.002140 -0.003814 0.000000 0.000000 0.000000
# 2 -0.002140 0.018463 -0.002199 0.000000 0.000000 0.000000
# 3 -0.003814 -0.002199 0.013582 0.000000 0.000000 0.000000
# 4 0.000000 0.000000 0.000000 1.084532 0.000000 0.000000
# 5 0.000000 0.000000 0.000000 0.000000 0.028722 0.000000
# 6 0.000000 0.000000 0.000000 0.000000 0.000000 0.041990
#
#
# Mechanical properties :
#
#
# Convention : Reuss Voigt Hill
#
# Bulk Modulus (GPa) = 38.50700 43.48442 40.99571
# Shear Modulus (GPa) = 4.09005 24.67272 14.38138
#
# Velocity S-wave (km/s) = 1.39807 3.43378 2.62159
# Velocity P-wave (km/s) = 4.58347 6.04168 5.36237
#
# Compressibility (1/GPa) = 0.02596930
#
# Stress axis : x y z
#
# Youngs Moduli (GPa) = 97.76294 54.16223 73.62936
#
# Poissons Ratio (x) = 0.11589 0.28079
# Poissons Ratio (y) = 0.20918 0.16190
# Poissons Ratio (z) = 0.37282 0.11910
#
# Static dielectric constant tensor:
#      x y z
#    x 1.789990 0.000000 0.000000 
#    y 0.000000 1.761820 0.000000 
#    z 0.000000 0.000000 1.763400 
# 
# From -- ./inp_files/1516.got.cif
#   From: 2010.05.17/outbox.cif.g08.bks.cpg/sg34_1_cif.got.tgz:1516.got - 2010.06.03 17:23:11.
