data_PCOD9347556
_publ_section_title
;
Structure prediction by ZEFSAII (Michael W. Deem and Ramdas Pophale) SiO2 
 PCOD9347556
Probable space group: P N N 2
;
_chemical_formula_sum "Si O2"
_cell_formula_units_Z 32
_cell_length_a 15.132971
_cell_length_b 7.263470
_cell_length_c 12.043826
_cell_angle_alpha 90.000000
_cell_angle_beta 90.000000
_cell_angle_gamma 90.000000
_cell_volume 1323.831831
_symmetry_space_group_name_H-M "P N N 2"
_symmetry_group_IT_number 34
_symmetry_cell_setting 'orthorhombic'
loop_
_space_group_symop_operation_xyz
x,y,z
-x,-y,z
1/2-x,1/2+y,1/2+z
1/2+x,1/2-y,1/2+z
loop_
_atom_site_type_symbol
_atom_site_label
_atom_site_fract_x
_atom_site_fract_y
_atom_site_fract_z
Si Si1 0.933685 0.251163 0.268490
Si Si2 0.572420 0.659675 0.516034
Si Si3 0.472481 0.282469 0.281864
Si Si4 0.126698 0.330878 0.306266
Si Si5 0.703492 0.591302 0.179250
Si Si6 0.771195 0.554293 0.508581
Si Si7 0.335446 0.817980 0.244754
Si Si8 0.790270 0.134787 0.432533
O O1 0.918176 0.244885 0.137011
O O2 0.907107 0.458832 0.299411
O O3 0.870683 0.125630 0.344950
O O4 0.037450 0.218256 0.287996
O O5 0.500000 0.500000 0.528444
O O6 0.543302 0.775856 0.409091
O O7 0.668364 0.584231 0.486011
O O8 0.500000 0.500000 0.284963
O O9 0.381990 0.286366 0.211839
O O10 0.558684 0.179952 0.236802
O O11 0.205153 0.312530 0.216295
O O12 0.172114 0.317085 0.426031
O O13 0.695118 0.397279 0.244652
O O14 0.703996 0.534446 0.050196
O O15 0.793861 0.594144 0.635568
O O16 0.789981 0.344206 0.477740
O O17 0.296234 0.901131 0.358150
#
# Coordination Sequence:
#
# PCOD9347556 Si02
#       8
#     4   4   4   4   4   4   4   4
#     4  10  22  40  60  89 127 161 207 254 313 380
#     4  11  20  37  64  92 122 157 209 265 312 363
#     4   9  20  37  63  89 117 160 204 251 312 362
#     4  10  21  40  63  86 120 176 199 247 324 376
#     4  11  21  41  64  88 124 160 210 255 307 371
#     4  11  21  42  66  86 127 169 206 258 315 377
#     4  11  22  44  62  91 125 162 204 259 310 369
#     4  11  23  41  63  92 125 162 208 255 310 372
#
# _framework density 24.172253999999999
#
# number of rings (size 3 to 8) (size 9 to 14) (size 15 to 20)
#    0.000    1.500    5.000    1.500    5.250    0.000 
#    4.500    0.000    0.000    0.000    0.000    0.000 
#    0.000    0.000    0.000    0.000    0.000    0.000 
#
# Total GULP energy -179107.512306 kJ/mol
# GULP energy per Si atom -5597.109760 kJ/mol
# Density = 2.411724 g / cm^3
# Si number density = 24.172254 Si / 1000 Ang^3
#
#
#
# Elastic Constant Matrix: (Units=GPa)
#
#
# Indices 1 2 3 4 5 6 
#
# 1 182.0462 22.0385 45.0358 0.0000 0.0000 0.0000
# 2 22.0385 35.8402 10.2798 0.0000 0.0000 0.0000
# 3 45.0358 10.2798 153.1164 0.0000 0.0000 0.0000
# 4 0.0000 0.0000 0.0000 24.8224 0.0000 0.0000
# 5 0.0000 0.0000 0.0000 0.0000 42.2543 0.0000
# 6 0.0000 0.0000 0.0000 0.0000 0.0000 22.0294
#
#
#
# Elastic Compliance Matrix: (Units=1/GPa)
#
#
# Indices 1 2 3 4 5 6 
#
# 1 0.006309 -0.003413 -0.001626 0.000000 0.000000 0.000000
# 2 -0.003413 0.030296 -0.001030 0.000000 0.000000 0.000000
# 3 -0.001626 -0.001030 0.007079 0.000000 0.000000 0.000000
# 4 0.000000 0.000000 0.000000 0.040286 0.000000 0.000000
# 5 0.000000 0.000000 0.000000 0.000000 0.023666 0.000000
# 6 0.000000 0.000000 0.000000 0.000000 0.000000 0.045394
#
#
# Mechanical properties :
#
#
# Convention : Reuss Voigt Hill
#
# Bulk Modulus (GPa) = 31.70166 58.41234 45.05700
# Shear Modulus (GPa) = 28.46045 37.39781 32.92913
#
# Velocity S-wave (km/s) = 3.43505 3.93763 3.69490
# Velocity P-wave (km/s) = 5.37365 6.70006 6.07318
#
# Compressibility (1/GPa) = 0.03154409
#
# Stress axis : x y z
#
# Youngs Moduli (GPa) = 158.51350 33.00805 141.27253
#
# Poissons Ratio (x) = 0.11265 0.22977
# Poissons Ratio (y) = 0.54097 0.14554
# Poissons Ratio (z) = 0.25781 0.03400
#
# Static dielectric constant tensor:
#      x y z
#    x 1.898410 0.000000 0.000000 
#    y 0.000000 2.040610 0.000000 
#    z 0.000000 0.000000 1.898000 
# 
# From -- ./inp_files/5103.got.cif
#   From: 2010.05.17/outbox.cif.g08.bks.cpg/sg34_3_cif.got.tgz:5103.got - 2010.06.03 17:23:11.
