data_PCOD9347396
_publ_section_title
;
Structure prediction by ZEFSAII (Michael W. Deem and Ramdas Pophale) SiO2 
 PCOD9347396
Probable space group: P N N 2
;
_chemical_formula_sum "Si O2"
_cell_formula_units_Z 24
_cell_length_a 5.360624
_cell_length_b 20.208376
_cell_length_c 8.695568
_cell_angle_alpha 90.000000
_cell_angle_beta 90.000000
_cell_angle_gamma 90.000000
_cell_volume 941.986580
_symmetry_space_group_name_H-M "P N N 2"
_symmetry_group_IT_number 34
_symmetry_cell_setting 'orthorhombic'
loop_
_space_group_symop_operation_xyz
x,y,z
-x,-y,z
1/2-x,1/2+y,1/2+z
1/2+x,1/2-y,1/2+z
loop_
_atom_site_type_symbol
_atom_site_label
_atom_site_fract_x
_atom_site_fract_y
_atom_site_fract_z
Si Si1 0.072659 0.300161 0.807290
Si Si2 0.407127 0.733943 0.988773
Si Si3 0.633547 0.391245 0.201620
Si Si4 0.613395 0.572828 0.484207
Si Si5 0.500000 0.500000 0.017915
Si Si6 0.500000 0.000000 0.798887
Si Si7 0.845213 0.553926 0.779300
O O1 0.077097 0.290467 0.620656
O O2 0.034465 0.378648 0.838554
O O3 0.331641 0.277950 0.895102
O O4 0.827208 0.262269 0.872474
O O5 0.333984 0.672807 0.101729
O O6 0.550397 0.379922 0.376729
O O7 0.828929 0.451466 0.198884
O O8 0.427936 0.434058 0.112009
O O9 0.500000 0.500000 0.464342
O O10 0.874105 0.558450 0.401282
O O11 0.635684 0.584064 0.663840
O O12 0.727809 0.502448 0.898109
O O13 0.000000 0.500000 0.682021
#
# Coordination Sequence:
#
# PCOD9347396 Si02
#       7
#     4   4   4   4   2   2   4
#     4  12  30  54  82 114 158 210 273 322 406 466
#     4  12  29  55  78 116 153 216 268 327 391 483
#     4  11  24  40  72  99 151 193 251 308 388 461
#     4  10  21  39  61 101 145 191 238 303 384 464
#     4  12  22  40  66 102 148 180 240 312 378 450
#     4  10  20  38  64 104 136 194 234 298 374 456
#     4  12  26  42  73 110 153 192 252 328 400 461
#
# _framework density 25.478072000000001
#
# number of rings (size 3 to 8) (size 9 to 14) (size 15 to 20)
#    0.000    0.667    5.833    2.000    8.167    1.333 
#    0.000    0.000    0.000    0.000    0.000    0.000 
#    0.000    0.000    0.000    0.000    0.000    0.000 
#
# Total GULP energy -133654.408800 kJ/mol
# GULP energy per Si atom -5568.933700 kJ/mol
# Density = 2.542008 g / cm^3
# Si number density = 25.478072 Si / 1000 Ang^3
#
#
#
# Elastic Constant Matrix: (Units=GPa)
#
#
# Indices 1 2 3 4 5 6 
#
# 1 93.8588 12.7782 19.9608 0.0000 0.0000 0.0000
# 2 12.7782 100.1340 -2.7127 0.0000 0.0000 0.0000
# 3 19.9608 -2.7127 104.8148 0.0000 0.0000 0.0000
# 4 0.0000 0.0000 0.0000 33.8424 0.0000 0.0000
# 5 0.0000 0.0000 0.0000 0.0000 18.0359 0.0000
# 6 0.0000 0.0000 0.0000 0.0000 0.0000 16.4405
#
#
#
# Elastic Compliance Matrix: (Units=1/GPa)
#
#
# Indices 1 2 3 4 5 6 
#
# 1 0.011326 -0.001505 -0.002196 0.000000 0.000000 0.000000
# 2 -0.001505 0.010194 0.000550 0.000000 0.000000 0.000000
# 3 -0.002196 0.000550 0.009973 0.000000 0.000000 0.000000
# 4 0.000000 0.000000 0.000000 0.029549 0.000000 0.000000
# 5 0.000000 0.000000 0.000000 0.000000 0.055445 0.000000
# 6 0.000000 0.000000 0.000000 0.000000 0.000000 0.060825
#
#
# Mechanical properties :
#
#
# Convention : Reuss Voigt Hill
#
# Bulk Modulus (GPa) = 39.69491 39.87336 39.78414
# Shear Modulus (GPa) = 26.04034 31.58253 28.81144
#
# Velocity S-wave (km/s) = 3.20045 3.52461 3.36643
# Velocity P-wave (km/s) = 5.41027 5.67872 5.54612
#
# Compressibility (1/GPa) = 0.02519215
#
# Stress axis : x y z
#
# Youngs Moduli (GPa) = 88.29109 98.10117 100.27006
#
# Poissons Ratio (x) = 0.14763 0.22018
# Poissons Ratio (y) = 0.13286 -0.05519
# Poissons Ratio (z) = 0.19388 -0.05399
#
# Static dielectric constant tensor:
#      x y z
#    x 2.389110 0.000000 0.000000 
#    y 0.000000 2.030030 0.000000 
#    z 0.000000 0.000000 2.167510 
# 
# From -- ./inp_files/2116.got.cif
#   From: 2010.05.17/outbox.cif.g08.bks.cpg/sg34_2_cif.got.tgz:2116.got - 2010.06.03 17:23:11.
