data_PCOD9347381
_publ_section_title
;
Structure prediction by ZEFSAII (Michael W. Deem and Ramdas Pophale) SiO2 
 PCOD9347381
Probable space group: P N N 2
;
_chemical_formula_sum "Si O2"
_cell_formula_units_Z 26
_cell_length_a 8.593954
_cell_length_b 12.985687
_cell_length_c 11.720363
_cell_angle_alpha 90.000000
_cell_angle_beta 90.000000
_cell_angle_gamma 90.000000
_cell_volume 1307.973720
_symmetry_space_group_name_H-M "P N N 2"
_symmetry_group_IT_number 34
_symmetry_cell_setting 'orthorhombic'
loop_
_space_group_symop_operation_xyz
x,y,z
-x,-y,z
1/2-x,1/2+y,1/2+z
1/2+x,1/2-y,1/2+z
loop_
_atom_site_type_symbol
_atom_site_label
_atom_site_fract_x
_atom_site_fract_y
_atom_site_fract_z
Si Si1 0.168272 0.034452 0.894790
Si Si2 0.106028 0.594262 0.831089
Si Si3 0.832723 0.736285 0.925621
Si Si4 0.122050 0.196857 0.188083
Si Si5 0.674477 0.541073 0.992238
Si Si6 0.500000 0.500000 0.618090
Si Si7 0.635492 0.075791 0.720183
O O1 0.195724 0.154158 0.867021
O O2 0.297881 0.966932 0.837474
O O3 0.000000 0.000000 0.846999
O O4 0.144354 0.010399 0.029696
O O5 0.221817 0.649305 0.742783
O O6 0.000000 0.500000 0.783907
O O7 0.986995 0.678852 0.880738
O O8 0.211989 0.541157 0.929605
O O9 0.860701 0.771488 0.055833
O O10 0.699509 0.649909 0.927129
O O11 0.083921 0.307112 0.241016
O O12 0.999200 0.103479 0.190701
O O13 0.500000 0.500000 0.990997
O O14 0.735506 0.564731 0.120309
O O15 0.500000 0.000000 0.680922
#
# Coordination Sequence:
#
# PCOD9347381 Si02
#       7
#     4   4   4   4   4   2   4
#     4   9  18  36  63  83 117 160 200 245 316 366
#     4  10  21  38  61  90 126 168 207 262 317 367
#     4   9  19  39  59  87 128 160 205 262 309 376
#     4  10  20  37  66  85 126 162 208 247 323 367
#     4  10  21  36  58  85 125 163 214 256 309 369
#     4   8  20  38  60  88 120 158 198 260 302 372
#     4  11  22  38  60  93 123 164 206 257 312 375
#
# _framework density 19.878074999999999
#
# number of rings (size 3 to 8) (size 9 to 14) (size 15 to 20)
#    0.462    1.846    0.000    3.692    1.077    2.462 
#    2.769    3.077   13.538    0.000    0.000    0.000 
#    0.000    0.000    0.000    0.000    0.000    0.000 
#
# Total GULP energy -144844.302497 kJ/mol
# GULP energy per Si atom -5570.934711 kJ/mol
# Density = 1.983283 g / cm^3
# Si number density = 19.878075 Si / 1000 Ang^3
#
#
#
# Elastic Constant Matrix: (Units=GPa)
#
#
# Indices 1 2 3 4 5 6 
#
# 1 73.0589 64.7691 13.0167 0.0000 0.0000 0.0000
# 2 64.7691 212.4557 39.0397 0.0000 0.0000 0.0000
# 3 13.0167 39.0397 45.2369 0.0000 0.0000 0.0000
# 4 0.0000 0.0000 0.0000 24.3024 0.0000 0.0000
# 5 0.0000 0.0000 0.0000 0.0000 50.7773 0.0000
# 6 0.0000 0.0000 0.0000 0.0000 0.0000 26.6407
#
#
#
# Elastic Compliance Matrix: (Units=1/GPa)
#
#
# Indices 1 2 3 4 5 6 
#
# 1 0.018768 -0.005621 -0.000550 0.000000 0.000000 0.000000
# 2 -0.005621 0.007277 -0.004663 0.000000 0.000000 0.000000
# 3 -0.000550 -0.004663 0.026288 0.000000 0.000000 0.000000
# 4 0.000000 0.000000 0.000000 0.041148 0.000000 0.000000
# 5 0.000000 0.000000 0.000000 0.000000 0.019694 0.000000
# 6 0.000000 0.000000 0.000000 0.000000 0.000000 0.037537
#
#
# Mechanical properties :
#
#
# Convention : Reuss Voigt Hill
#
# Bulk Modulus (GPa) = 32.60842 62.71141 47.65991
# Shear Modulus (GPa) = 27.38197 34.60582 30.99389
#
# Velocity S-wave (km/s) = 3.71549 4.17694 3.95295
# Velocity P-wave (km/s) = 5.90308 7.40803 6.69796
#
# Compressibility (1/GPa) = 0.03066693
#
# Stress axis : x y z
#
# Youngs Moduli (GPa) = 53.28077 137.41493 38.03980
#
# Poissons Ratio (x) = 0.77237 0.02092
# Poissons Ratio (y) = 0.29948 0.17738
# Poissons Ratio (z) = 0.02930 0.64076
#
# Static dielectric constant tensor:
#      x y z
#    x 1.681330 0.000000 0.000000 
#    y 0.000000 1.725030 0.000000 
#    z 0.000000 0.000000 1.727830 
# 
# From -- ./inp_files/6479.got.cif
#   From: 2010.05.17/outbox.cif.g08.bks.cpg/sg34_4_cif.got.tgz:6479.got - 2010.06.03 17:23:11.
