data_PCOD9347170
_publ_section_title
;
Structure prediction by ZEFSAII (Michael W. Deem and Ramdas Pophale) SiO2 
 PCOD9347170
Probable space group: P N N 2
;
_chemical_formula_sum "Si O2"
_cell_formula_units_Z 30
_cell_length_a 11.252107
_cell_length_b 15.422205
_cell_length_c 9.162703
_cell_angle_alpha 90.000000
_cell_angle_beta 90.000000
_cell_angle_gamma 90.000000
_cell_volume 1590.024933
_symmetry_space_group_name_H-M "P N N 2"
_symmetry_group_IT_number 34
_symmetry_cell_setting 'orthorhombic'
loop_
_space_group_symop_operation_xyz
x,y,z
-x,-y,z
1/2-x,1/2+y,1/2+z
1/2+x,1/2-y,1/2+z
loop_
_atom_site_type_symbol
_atom_site_label
_atom_site_fract_x
_atom_site_fract_y
_atom_site_fract_z
Si Si1 0.775011 0.641127 0.027040
Si Si2 0.707753 0.800366 0.187024
Si Si3 0.982691 0.755571 0.256494
Si Si4 0.702003 0.001359 0.108415
Si Si5 0.500000 0.000000 0.335000
Si Si6 0.973155 0.320576 0.945322
Si Si7 0.593245 0.076089 0.817911
Si Si8 0.894336 0.064862 0.316106
O O1 0.693687 0.721441 0.075214
O O2 0.832937 0.600127 0.172746
O O3 0.703451 0.568688 0.942277
O O4 0.882822 0.681311 0.930474
O O5 0.845844 0.788847 0.236897
O O6 0.695221 0.896383 0.119034
O O7 0.613668 0.787128 0.318719
O O8 0.972220 0.667909 0.352253
O O9 0.056478 0.838121 0.304434
O O10 0.040090 0.723643 0.102403
O O11 0.601130 0.031816 0.223298
O O12 0.827714 0.033378 0.170146
O O13 0.671524 0.041879 0.952416
O O14 0.450705 0.076236 0.435853
O O15 0.500000 0.000000 0.788426
O O16 0.000000 0.000000 0.349742
#
# Coordination Sequence:
#
# PCOD9347170 Si02
#       8
#     4   4   4   4   2   4   4   4
#     4  10  24  41  61  93 131 163 214 268 314 390
#     4   9  20  40  62  93 124 160 213 267 316 376
#     4  10  24  38  59  92 131 170 208 264 317 391
#     4  11  21  38  68  91 123 164 212 262 314 389
#     4  10  18  34  64  96 114 154 210 260 316 378
#     4   9  19  36  63  88 119 159 204 264 321 361
#     4  10  23  41  64  99 124 158 218 281 319 360
#     4  12  25  44  60  90 133 180 211 247 328 404
#
# _framework density 18.867629000000001
#
# number of rings (size 3 to 8) (size 9 to 14) (size 15 to 20)
#    0.000    2.133    3.333    0.000    9.333    0.000 
#    0.000    3.333    0.000    0.000    0.000    0.000 
#    0.000    0.000    0.000    0.000    0.000    0.000 
#
# Total GULP energy -167091.969981 kJ/mol
# GULP energy per Si atom -5569.732333 kJ/mol
# Density = 1.882469 g / cm^3
# Si number density = 18.867629 Si / 1000 Ang^3
#
#
#
# Elastic Constant Matrix: (Units=GPa)
#
#
# Indices 1 2 3 4 5 6 
#
# 1 80.3631 31.4818 53.8431 0.0000 0.0000 0.0000
# 2 31.4818 110.9921 52.0738 0.0000 0.0000 0.0000
# 3 53.8431 52.0738 85.7885 0.0000 0.0000 0.0000
# 4 0.0000 0.0000 0.0000 26.9970 0.0000 0.0000
# 5 0.0000 0.0000 0.0000 0.0000 28.3007 0.0000
# 6 0.0000 0.0000 0.0000 0.0000 0.0000 32.5857
#
#
#
# Elastic Compliance Matrix: (Units=1/GPa)
#
#
# Indices 1 2 3 4 5 6 
#
# 1 0.021482 0.000325 -0.013680 0.000000 0.000000 0.000000
# 2 0.000325 0.012602 -0.007853 0.000000 0.000000 0.000000
# 3 -0.013680 -0.007853 0.025009 0.000000 0.000000 0.000000
# 4 0.000000 0.000000 0.000000 0.037041 0.000000 0.000000
# 5 0.000000 0.000000 0.000000 0.000000 0.035335 0.000000
# 6 0.000000 0.000000 0.000000 0.000000 0.000000 0.030688
#
#
# Mechanical properties :
#
#
# Convention : Reuss Voigt Hill
#
# Bulk Modulus (GPa) = 59.96377 61.32678 60.64528
# Shear Modulus (GPa) = 23.79451 26.89299 25.34375
#
# Velocity S-wave (km/s) = 3.55509 3.77948 3.66900
# Velocity P-wave (km/s) = 6.97867 7.18472 7.08244
#
# Compressibility (1/GPa) = 0.01667674
#
# Stress axis : x y z
#
# Youngs Moduli (GPa) = 46.55160 79.35214 39.98499
#
# Poissons Ratio (x) = -0.02579 0.54698
# Poissons Ratio (y) = -0.01513 0.31402
# Poissons Ratio (z) = 0.63681 0.62319
#
# Static dielectric constant tensor:
#      x y z
#    x 1.684860 0.000000 0.000000 
#    y 0.000000 1.673120 0.000000 
#    z 0.000000 0.000000 1.672190 
# 
# From -- ./inp_files/3293.got.cif
#   From: 2010.05.17/outbox.cif.g08.bks.cpg/sg34_2_cif.got.tgz:3293.got - 2010.06.03 17:23:11.
