data_PCOD9347902
_publ_section_title
;
Structure prediction by ZEFSAII (Michael W. Deem and Ramdas Pophale) SiO2 
 PCOD9347902
Probable space group: P N N 2
;
_chemical_formula_sum "Si O2"
_cell_formula_units_Z 20
_cell_length_a 14.943452
_cell_length_b 4.931158
_cell_length_c 11.539735
_cell_angle_alpha 90.000000
_cell_angle_beta 90.000000
_cell_angle_gamma 90.000000
_cell_volume 850.346027
_symmetry_space_group_name_H-M "P N N 2"
_symmetry_group_IT_number 34
_symmetry_cell_setting 'orthorhombic'
loop_
_space_group_symop_operation_xyz
x,y,z
-x,-y,z
1/2-x,1/2+y,1/2+z
1/2+x,1/2-y,1/2+z
loop_
_atom_site_type_symbol
_atom_site_label
_atom_site_fract_x
_atom_site_fract_y
_atom_site_fract_z
Si Si1 0.946393 0.249980 0.500000
Si Si2 0.341380 0.506694 0.580923
Si Si3 0.178443 0.716330 0.303473
Si Si4 0.178399 0.783986 0.696580
Si Si5 0.658614 0.006294 0.419154
O O1 0.890459 0.393270 0.396872
O O2 0.890513 0.106600 0.603154
O O3 0.000000 0.500000 0.553580
O O4 0.000000 0.000000 0.446382
O O5 0.373656 0.387303 0.704563
O O6 0.242069 0.593021 0.619552
O O7 0.339522 0.250236 0.500018
O O8 0.379935 0.750227 0.500057
O O9 0.250037 0.500207 0.250022
O O10 0.242078 0.907342 0.380528
O O11 0.126320 0.612992 0.795503
#
# Coordination Sequence:
#
# PCOD9347902 Si02
#       5
#     4   4   4   4   4
#     4  12  30  44  68 110 156 180 230 320 400 412
#     4  11  21  35  65 101 127 167 249 289 331 398
#     4  11  23  41  71  97 144 186 247 283 356 451
#     4  11  23  41  71  97 144 186 247 283 356 451
#     4  11  21  35  65 101 127 167 249 289 331 398
#
# _framework density 23.519839000000001
#
# number of rings (size 3 to 8) (size 9 to 14) (size 15 to 20)
#    0.000    0.800    6.000    0.000   14.000    0.000 
#    0.000    0.000    0.000    4.800    0.000    0.000 
#    0.000    0.000    0.000    0.000    0.000    0.000 
#
# Total GULP energy -111399.368284 kJ/mol
# GULP energy per Si atom -5569.968414 kJ/mol
# Density = 2.346631 g / cm^3
# Si number density = 23.519839 Si / 1000 Ang^3
#
#
#
# Elastic Constant Matrix: (Units=GPa)
#
#
# Indices 1 2 3 4 5 6 
#
# 1 26.5922 17.6687 25.9357 0.0000 0.0000 0.0000
# 2 17.6687 149.5947 46.8626 0.0000 0.0000 0.0000
# 3 25.9357 46.8626 160.2636 0.0000 0.0000 0.0000
# 4 0.0000 0.0000 0.0000 42.8068 0.0000 0.0000
# 5 0.0000 0.0000 0.0000 0.0000 10.2919 0.0000
# 6 0.0000 0.0000 0.0000 0.0000 0.0000 21.7544
#
#
#
# Elastic Compliance Matrix: (Units=1/GPa)
#
#
# Indices 1 2 3 4 5 6 
#
# 1 0.046197 -0.003428 -0.006474 0.000000 0.000000 0.000000
# 2 -0.003428 0.007613 -0.001671 0.000000 0.000000 0.000000
# 3 -0.006474 -0.001671 0.007776 0.000000 0.000000 0.000000
# 4 0.000000 0.000000 0.000000 0.023361 0.000000 0.000000
# 5 0.000000 0.000000 0.000000 0.000000 0.097164 0.000000
# 6 0.000000 0.000000 0.000000 0.000000 0.000000 0.045968
#
#
# Mechanical properties :
#
#
# Convention : Reuss Voigt Hill
#
# Bulk Modulus (GPa) = 26.01505 57.48719 41.75112
# Shear Modulus (GPa) = 18.93667 31.36951 25.15309
#
# Velocity S-wave (km/s) = 2.84057 3.65601 3.27378
# Velocity P-wave (km/s) = 4.67369 6.50515 5.66394
#
# Compressibility (1/GPa) = 0.03843929
#
# Stress axis : x y z
#
# Youngs Moduli (GPa) = 21.64661 131.35025 128.59959
#
# Poissons Ratio (x) = 0.45032 0.83250
# Poissons Ratio (y) = 0.07421 0.21494
# Poissons Ratio (z) = 0.14013 0.21953
#
# Static dielectric constant tensor:
#      x y z
#    x 1.936970 0.000000 0.000000 
#    y 0.000000 2.110720 0.000000 
#    z 0.000000 0.000000 2.061040 
# 
# From -- ./inp_files/5563.got.cif
#   From: 2010.05.17/outbox.cif.g08.bks.cpg/sg34_3_cif.got.tgz:5563.got - 2010.06.03 17:23:11.
