data_PCOD9347972
_publ_section_title
;
Structure prediction by ZEFSAII (Michael W. Deem and Ramdas Pophale) SiO2 
 PCOD9347972
Probable space group: P N N 2
;
_chemical_formula_sum "Si O2"
_cell_formula_units_Z 20
_cell_length_a 12.874909
_cell_length_b 5.218926
_cell_length_c 12.526763
_cell_angle_alpha 90.000000
_cell_angle_beta 90.000000
_cell_angle_gamma 90.000000
_cell_volume 841.713258
_symmetry_space_group_name_H-M "P N N 2"
_symmetry_group_IT_number 34
_symmetry_cell_setting 'orthorhombic'
loop_
_space_group_symop_operation_xyz
x,y,z
-x,-y,z
1/2-x,1/2+y,1/2+z
1/2+x,1/2-y,1/2+z
loop_
_atom_site_type_symbol
_atom_site_label
_atom_site_fract_x
_atom_site_fract_y
_atom_site_fract_z
Si Si1 0.825427 0.600583 0.750000
Si Si2 0.889458 0.635538 0.297356
Si Si3 0.000000 0.000000 0.436861
Si Si4 0.680461 0.574467 0.383230
Si Si5 0.000000 0.500000 0.578662
Si Si6 0.624903 0.484085 0.627694
O O1 0.829996 0.356676 0.831017
O O2 0.900772 0.541593 0.652422
O O3 0.711237 0.639164 0.696119
O O4 0.867606 0.852303 0.809891
O O5 0.802850 0.509905 0.370638
O O6 0.852833 0.701243 0.177400
O O7 0.000000 0.500000 0.293066
O O8 0.909691 0.905767 0.358060
O O9 0.980991 0.246807 0.508964
O O10 0.644731 0.543040 0.504226
O O11 0.500000 0.500000 0.644722
#
# Coordination Sequence:
#
# PCOD9347972 Si02
#       6
#     4   4   2   4   2   4
#     4  11  27  48  70 109 146 191 244 304 366 446
#     4  11  24  46  77 108 150 189 258 309 363 447
#     4  12  24  42  76 106 138 196 250 308 358 436
#     4  11  27  45  73 105 148 192 241 302 376 440
#     4  12  26  46  76 104 150 194 250 306 374 442
#     4  11  25  45  74 107 144 192 239 296 372 435
#
# _framework density 23.761058999999999
#
# number of rings (size 3 to 8) (size 9 to 14) (size 15 to 20)
#    0.000    0.800    2.000    3.600    5.600    4.800 
#    0.000    0.000    0.000    0.000    0.000    0.000 
#    0.000    0.000    0.000    0.000    0.000    0.000 
#
# Total GULP energy -111695.793220 kJ/mol
# GULP energy per Si atom -5584.789661 kJ/mol
# Density = 2.370698 g / cm^3
# Si number density = 23.761059 Si / 1000 Ang^3
#
#
#
# Elastic Constant Matrix: (Units=GPa)
#
#
# Indices 1 2 3 4 5 6 
#
# 1 75.0208 9.1511 33.3878 0.0000 0.0000 0.0000
# 2 9.1511 136.4860 59.2153 0.0000 0.0000 0.0000
# 3 33.3878 59.2153 171.1896 0.0000 0.0000 0.0000
# 4 0.0000 0.0000 0.0000 33.7461 0.0000 0.0000
# 5 0.0000 0.0000 0.0000 0.0000 27.6516 0.0000
# 6 0.0000 0.0000 0.0000 0.0000 0.0000 22.8716
#
#
#
# Elastic Compliance Matrix: (Units=1/GPa)
#
#
# Indices 1 2 3 4 5 6 
#
# 1 0.014607 0.000302 -0.002953 0.000000 0.000000 0.000000
# 2 0.000302 0.008627 -0.003043 0.000000 0.000000 0.000000
# 3 -0.002953 -0.003043 0.007470 0.000000 0.000000 0.000000
# 4 0.000000 0.000000 0.000000 0.029633 0.000000 0.000000
# 5 0.000000 0.000000 0.000000 0.000000 0.036164 0.000000
# 6 0.000000 0.000000 0.000000 0.000000 0.000000 0.043722
#
#
# Mechanical properties :
#
#
# Convention : Reuss Voigt Hill
#
# Bulk Modulus (GPa) = 51.77242 65.13387 58.45314
# Shear Modulus (GPa) = 31.63541 35.58332 33.60936
#
# Velocity S-wave (km/s) = 3.65279 3.87401 3.76503
# Velocity P-wave (km/s) = 6.29496 6.89073 6.59957
#
# Compressibility (1/GPa) = 0.01931530
#
# Stress axis : x y z
#
# Youngs Moduli (GPa) = 68.45949 115.91922 133.86819
#
# Poissons Ratio (x) = -0.03500 0.39536
# Poissons Ratio (y) = -0.02067 0.40735
# Poissons Ratio (z) = 0.20218 0.35273
#
# Static dielectric constant tensor:
#      x y z
#    x 1.943820 0.000000 0.000000 
#    y 0.000000 1.988210 0.000000 
#    z 0.000000 0.000000 1.862620 
# 
# From -- ./inp_files/5590.got.cif
#   From: 2010.05.17/outbox.cif.g08.bks.cpg/sg34_3_cif.got.tgz:5590.got - 2010.06.03 17:23:11.
