data_PCOD9347646
_publ_section_title
;
Structure prediction by ZEFSAII (Michael W. Deem and Ramdas Pophale) SiO2 
 PCOD9347646
Probable space group: P N N 2
;
_chemical_formula_sum "Si O2"
_cell_formula_units_Z 16
_cell_length_a 12.615391
_cell_length_b 7.020143
_cell_length_c 6.929736
_cell_angle_alpha 90.000000
_cell_angle_beta 90.000000
_cell_angle_gamma 90.000000
_cell_volume 613.710232
_symmetry_space_group_name_H-M "P N N 2"
_symmetry_group_IT_number 34
_symmetry_cell_setting 'orthorhombic'
loop_
_space_group_symop_operation_xyz
x,y,z
-x,-y,z
1/2-x,1/2+y,1/2+z
1/2+x,1/2-y,1/2+z
loop_
_atom_site_type_symbol
_atom_site_label
_atom_site_fract_x
_atom_site_fract_y
_atom_site_fract_z
Si Si1 0.469304 0.289517 0.135170
Si Si2 0.303019 0.753954 0.250683
Si Si3 0.243809 0.311109 0.201245
Si Si4 0.608705 0.527967 0.738720
O O1 0.500000 0.500000 0.208344
O O2 0.580697 0.189984 0.172934
O O3 0.360660 0.219346 0.227887
O O4 0.431559 0.337717 0.915272
O O5 0.266267 0.533404 0.236098
O O6 0.295428 0.800558 0.478297
O O7 0.208832 0.869807 0.145700
O O8 0.158154 0.174972 0.305068
O O9 0.500000 0.500000 0.623952
#
# Coordination Sequence:
#
# PCOD9347646 Si02
#       4
#     4   4   4   4
#     4   8  18  40  63  91 131 175 227 289 348 417
#     4  10  22  43  68 100 138 183 236 292 359 430
#     4  10  22  39  66  98 133 184 238 291 355 427
#     4  10  22  40  63  95 137 180 229 291 349 419
#
# _framework density 26.070934000000001
#
# number of rings (size 3 to 8) (size 9 to 14) (size 15 to 20)
#    0.000    2.500    0.000    1.500    0.000   13.000 
#    0.000   17.500    0.000    0.000    0.000    0.000 
#    0.000    0.000    0.000    0.000    0.000    0.000 
#
# Total GULP energy -89264.206993 kJ/mol
# GULP energy per Si atom -5579.012937 kJ/mol
# Density = 2.601160 g / cm^3
# Si number density = 26.070934 Si / 1000 Ang^3
#
#
#
# Elastic Constant Matrix: (Units=GPa)
#
#
# Indices 1 2 3 4 5 6 
#
# 1 279.9287 19.8814 11.6496 0.0000 0.0000 0.0000
# 2 19.8814 61.8102 -8.4464 0.0000 0.0000 0.0000
# 3 11.6496 -8.4464 91.8716 0.0000 0.0000 0.0000
# 4 0.0000 0.0000 0.0000 12.3461 0.0000 0.0000
# 5 0.0000 0.0000 0.0000 0.0000 32.7151 0.0000
# 6 0.0000 0.0000 0.0000 0.0000 0.0000 59.8206
#
#
#
# Elastic Compliance Matrix: (Units=1/GPa)
#
#
# Indices 1 2 3 4 5 6 
#
# 1 0.003687 -0.001266 -0.000584 0.000000 0.000000 0.000000
# 2 -0.001266 0.016819 0.001707 0.000000 0.000000 0.000000
# 3 -0.000584 0.001707 0.011116 0.000000 0.000000 0.000000
# 4 0.000000 0.000000 0.000000 0.080997 0.000000 0.000000
# 5 0.000000 0.000000 0.000000 0.000000 0.030567 0.000000
# 6 0.000000 0.000000 0.000000 0.000000 0.000000 0.016717
#
#
# Mechanical properties :
#
#
# Convention : Reuss Voigt Hill
#
# Bulk Modulus (GPa) = 31.91232 53.30883 42.61057
# Shear Modulus (GPa) = 29.30273 48.34475 38.82374
#
# Velocity S-wave (km/s) = 3.35619 4.31089 3.86315
# Velocity P-wave (km/s) = 5.22358 6.72833 6.02313
#
# Compressibility (1/GPa) = 0.03133587
#
# Stress axis : x y z
#
# Youngs Moduli (GPa) = 271.25865 59.45703 89.96280
#
# Poissons Ratio (x) = 0.07525 0.05252
# Poissons Ratio (y) = 0.34329 -0.15354
# Poissons Ratio (z) = 0.15836 -0.10148
#
# Static dielectric constant tensor:
#      x y z
#    x 2.168170 0.000000 0.000000 
#    y 0.000000 2.139580 0.000000 
#    z 0.000000 0.000000 2.213340 
# 
# From -- ./inp_files/3002.got.cif
#   From: 2010.05.17/outbox.cif.g08.bks.cpg/sg34_2_cif.got.tgz:3002.got - 2010.06.03 17:23:11.
