data_PCOD9347963
_publ_section_title
;
Structure prediction by ZEFSAII (Michael W. Deem and Ramdas Pophale) SiO2 
 PCOD9347963
Probable space group: P N N 2
;
_chemical_formula_sum "Si O2"
_cell_formula_units_Z 24
_cell_length_a 10.691008
_cell_length_b 10.649917
_cell_length_c 8.004110
_cell_angle_alpha 90.000000
_cell_angle_beta 90.000000
_cell_angle_gamma 90.000000
_cell_volume 911.334741
_symmetry_space_group_name_H-M "P N N 2"
_symmetry_group_IT_number 34
_symmetry_cell_setting 'orthorhombic'
loop_
_space_group_symop_operation_xyz
x,y,z
-x,-y,z
1/2-x,1/2+y,1/2+z
1/2+x,1/2-y,1/2+z
loop_
_atom_site_type_symbol
_atom_site_label
_atom_site_fract_x
_atom_site_fract_y
_atom_site_fract_z
Si Si1 0.644307 0.500000 0.714720
Si Si2 0.643559 0.500000 0.117629
Si Si3 1.000000 0.644529 0.983947
Si Si4 0.249803 0.749071 0.550070
Si Si5 1.000000 0.354039 0.386922
Si Si6 0.250197 0.750929 0.050070
O O1 0.500000 0.500000 0.659621
O O2 0.644767 0.500000 0.915071
O O3 0.708580 0.375915 0.644658
O O4 0.708580 0.624085 0.644658
O O5 0.500000 0.500000 0.176305
O O6 0.718275 0.626147 0.159503
O O7 0.718275 0.373853 0.159503
O O8 1.000000 0.650147 0.186531
O O9 0.129716 0.710362 0.939112
O O10 0.000000 0.500000 0.928593
O O11 0.870284 0.710362 0.939112
O O12 0.121186 0.715901 0.457716
O O13 0.000000 0.500000 0.438404
O O14 0.121186 0.284099 0.457716
#
# Coordination Sequence:
#
# PCOD9347963 Si02
#       6
#     4   4   4   4   4   4
#     4  11  24  43  69  98 134 180 225 275 339 400
#     4  11  24  43  69  98 134 180 225 275 339 400
#     4  11  24  43  67  96 133 177 220 272 339 401
#     4  12  22  42  70 100 130 176 220 284 328 398
#     4  11  24  43  67  96 133 177 220 272 339 401
#     4  12  22  42  70 100 130 176 220 284 328 398
#
# _framework density 26.335000999999998
#
# number of rings (size 3 to 8) (size 9 to 14) (size 15 to 20)
#    0.000    0.667    6.667    2.000    0.000    0.000 
#    0.000    8.333    0.000   12.000    0.000    0.000 
#    0.000    0.000    0.000    0.000    0.000    0.000 
#
# Total GULP energy -134790.405249 kJ/mol
# GULP energy per Si atom -5616.266885 kJ/mol
# Density = 2.627506 g / cm^3
# Si number density = 26.335001 Si / 1000 Ang^3
#
#
#
# Elastic Constant Matrix: (Units=GPa)
#
#
# Indices 1 2 3 4 5 6 
#
# 1 269.5725 104.0084 47.7761 0.0000 0.0000 0.0000
# 2 104.0084 261.2630 44.0575 0.0000 0.0000 0.0000
# 3 47.7761 44.0575 47.4862 0.0000 0.0000 0.0000
# 4 0.0000 0.0000 0.0000 40.8087 0.0000 0.0000
# 5 0.0000 0.0000 0.0000 0.0000 38.2675 0.0000
# 6 0.0000 0.0000 0.0000 0.0000 0.0000 67.7683
#
#
#
# Elastic Compliance Matrix: (Units=1/GPa)
#
#
# Indices 1 2 3 4 5 6 
#
# 1 0.004870 -0.001319 -0.003676 0.000000 0.000000 0.000000
# 2 -0.001319 0.004895 -0.003214 0.000000 0.000000 0.000000
# 3 -0.003676 -0.003214 0.027740 0.000000 0.000000 0.000000
# 4 0.000000 0.000000 0.000000 0.024505 0.000000 0.000000
# 5 0.000000 0.000000 0.000000 0.000000 0.026132 0.000000
# 6 0.000000 0.000000 0.000000 0.000000 0.000000 0.014756
#
#
# Mechanical properties :
#
#
# Convention : Reuss Voigt Hill
#
# Bulk Modulus (GPa) = 47.42566 107.77841 77.60204
# Shear Modulus (GPa) = 39.57460 54.86755 47.22107
#
# Velocity S-wave (km/s) = 3.88072 4.56943 4.23909
# Velocity P-wave (km/s) = 6.17476 8.29785 7.31376
#
# Compressibility (1/GPa) = 0.02108563
#
# Stress axis : x y z
#
# Youngs Moduli (GPa) = 205.34247 204.30606 36.04961
#
# Poissons Ratio (x) = 0.26944 0.13252
# Poissons Ratio (y) = 0.27081 0.11588
# Poissons Ratio (z) = 0.75485 0.65671
#
# Static dielectric constant tensor:
#      x y z
#    x 2.020790 0.000000 0.000000 
#    y 0.000000 2.024840 0.000000 
#    z 0.000000 0.000000 2.051140 
# 
# From -- ./inp_files/4947.got.cif
#   From: 2010.05.17/outbox.cif.g08.bks.cpg/sg34_3_cif.got.tgz:4947.got - 2010.06.03 17:23:11.
