data_PCOD9347760
_publ_section_title
;
Structure prediction by ZEFSAII (Michael W. Deem and Ramdas Pophale) SiO2 
 PCOD9347760
Probable space group: P N N 2
;
_chemical_formula_sum "Si O2"
_cell_formula_units_Z 24
_cell_length_a 16.457217
_cell_length_b 4.755111
_cell_length_c 12.570706
_cell_angle_alpha 90.000000
_cell_angle_beta 90.000000
_cell_angle_gamma 90.000000
_cell_volume 983.731831
_symmetry_space_group_name_H-M "P N N 2"
_symmetry_group_IT_number 34
_symmetry_cell_setting 'orthorhombic'
loop_
_space_group_symop_operation_xyz
x,y,z
-x,-y,z
1/2-x,1/2+y,1/2+z
1/2+x,1/2-y,1/2+z
loop_
_atom_site_type_symbol
_atom_site_label
_atom_site_fract_x
_atom_site_fract_y
_atom_site_fract_z
Si Si1 0.812325 0.269736 0.862730
Si Si2 0.171373 0.046999 0.228028
Si Si3 0.938742 0.252043 0.046126
Si Si4 0.286796 0.508330 0.158238
Si Si5 0.049123 0.247414 0.401894
Si Si6 0.809415 0.482313 0.520783
O O1 0.749353 0.500085 0.811930
O O2 0.839913 0.090330 0.758806
O O3 0.883333 0.351432 0.944625
O O4 0.754851 0.064506 0.931861
O O5 0.200949 0.353191 0.183406
O O6 0.100833 0.093531 0.313082
O O7 0.123027 0.875828 0.135335
O O8 0.000000 0.500000 0.081316
O O9 0.000000 0.000000 0.013979
O O10 0.284653 0.831319 0.124398
O O11 0.312559 0.339383 0.053235
O O12 0.104633 0.409427 0.484731
O O13 0.000000 0.500000 0.348854
O O14 0.000000 0.000000 0.456884
#
# Coordination Sequence:
#
# PCOD9347760 Si02
#       6
#     4   4   4   4   4   4
#     4   9  22  47  68 100 139 195 241 291 350 454
#     4   9  23  46  72 104 135 198 238 288 354 458
#     4  12  27  45  70 110 156 186 239 323 386 418
#     4  10  23  40  73  97 128 175 256 278 332 423
#     4  11  24  43  66 102 143 175 227 298 364 414
#     4  11  22  43  69  98 133 184 243 285 342 427
#
# _framework density 24.396892999999999
#
# number of rings (size 3 to 8) (size 9 to 14) (size 15 to 20)
#    1.000    0.667    1.667    1.500    2.333    6.667 
#    0.000    5.000    0.000    0.000    0.000    0.000 
#    0.000    0.000    0.000    0.000    0.000    0.000 
#
# Total GULP energy -133813.666360 kJ/mol
# GULP energy per Si atom -5575.569432 kJ/mol
# Density = 2.434136 g / cm^3
# Si number density = 24.396893 Si / 1000 Ang^3
#
#
#
# Elastic Constant Matrix: (Units=GPa)
#
#
# Indices 1 2 3 4 5 6 
#
# 1 110.9230 18.5982 38.4024 0.0000 0.0000 0.0000
# 2 18.5982 70.1061 17.4529 0.0000 0.0000 0.0000
# 3 38.4024 17.4529 142.3658 0.0000 0.0000 0.0000
# 4 0.0000 0.0000 0.0000 59.4548 0.0000 0.0000
# 5 0.0000 0.0000 0.0000 0.0000 12.9256 0.0000
# 6 0.0000 0.0000 0.0000 0.0000 0.0000 18.5018
#
#
#
# Elastic Compliance Matrix: (Units=1/GPa)
#
#
# Indices 1 2 3 4 5 6 
#
# 1 0.010233 -0.002091 -0.002504 0.000000 0.000000 0.000000
# 2 -0.002091 0.015141 -0.001292 0.000000 0.000000 0.000000
# 3 -0.002504 -0.001292 0.007858 0.000000 0.000000 0.000000
# 4 0.000000 0.000000 0.000000 0.016820 0.000000 0.000000
# 5 0.000000 0.000000 0.000000 0.000000 0.077366 0.000000
# 6 0.000000 0.000000 0.000000 0.000000 0.000000 0.054049
#
#
# Mechanical properties :
#
#
# Convention : Reuss Voigt Hill
#
# Bulk Modulus (GPa) = 46.60492 52.47801 49.54147
# Shear Modulus (GPa) = 24.95109 34.77253 29.86181
#
# Velocity S-wave (km/s) = 3.20146 3.77939 3.50237
# Velocity P-wave (km/s) = 5.72801 6.37196 6.05855
#
# Compressibility (1/GPa) = 0.02145696
#
# Stress axis : x y z
#
# Youngs Moduli (GPa) = 97.72538 66.04794 127.25966
#
# Poissons Ratio (x) = 0.13812 0.31864
# Poissons Ratio (y) = 0.20437 0.16442
# Poissons Ratio (z) = 0.24469 0.08533
#
# Static dielectric constant tensor:
#      x y z
#    x 2.373710 0.000000 0.000000 
#    y 0.000000 1.909050 0.000000 
#    z 0.000000 0.000000 2.018990 
# 
# From -- ./inp_files/6886.got.cif
#   From: 2010.05.17/outbox.cif.g08.bks.cpg/sg34_4_cif.got.tgz:6886.got - 2010.06.03 17:23:11.
