data_PCOD9347536
_publ_section_title
;
Structure prediction by ZEFSAII (Michael W. Deem and Ramdas Pophale) SiO2 
 PCOD9347536
Probable space group: P N N 2
;
_chemical_formula_sum "Si O2"
_cell_formula_units_Z 26
_cell_length_a 15.729008
_cell_length_b 10.112654
_cell_length_c 7.705481
_cell_angle_alpha 90.000000
_cell_angle_beta 90.000000
_cell_angle_gamma 90.000000
_cell_volume 1225.649340
_symmetry_space_group_name_H-M "P N N 2"
_symmetry_group_IT_number 34
_symmetry_cell_setting 'orthorhombic'
loop_
_space_group_symop_operation_xyz
x,y,z
-x,-y,z
1/2-x,1/2+y,1/2+z
1/2+x,1/2-y,1/2+z
loop_
_atom_site_type_symbol
_atom_site_label
_atom_site_fract_x
_atom_site_fract_y
_atom_site_fract_z
Si Si1 0.348558 0.556683 0.067220
Si Si2 0.733006 0.491736 0.424648
Si Si3 0.381108 0.101801 0.125845
Si Si4 0.595448 0.299901 0.600830
Si Si5 0.000000 0.000000 0.342532
Si Si6 0.064640 0.317265 0.731675
Si Si7 0.742932 0.256933 0.837021
O O1 0.298224 0.497872 0.227464
O O2 0.392164 0.691467 0.139940
O O3 0.420650 0.472922 0.970517
O O4 0.283426 0.605694 0.923785
O O5 0.824321 0.424051 0.454395
O O6 0.660762 0.410239 0.524066
O O7 0.739254 0.644449 0.477826
O O8 0.476570 0.154822 0.131083
O O9 0.325307 0.207822 0.228481
O O10 0.386134 0.956509 0.215601
O O11 0.527815 0.377738 0.719900
O O12 0.557171 0.223028 0.435466
O O13 0.659685 0.216946 0.723399
#
# Coordination Sequence:
#
# PCOD9347536 Si02
#       7
#     4   4   4   4   2   4   4
#     4  10  22  40  64  92 127 162 211 263 315 376
#     4  10  21  40  63  92 123 169 208 265 313 386
#     4  10  22  39  62  91 121 171 211 252 327 380
#     4   9  22  39  62  91 126 163 211 267 311 374
#     4  10  22  40  60  96 124 162 210 264 314 368
#     4  10  21  41  63  88 130 162 209 266 316 375
#     4  10  21  39  61  90 126 164 207 260 317 384
#
# _framework density 21.213245000000001
#
# number of rings (size 3 to 8) (size 9 to 14) (size 15 to 20)
#    0.000    2.154    1.538    0.000    6.462    1.231 
#    2.769    0.000    0.000    0.000    0.000    0.000 
#    0.000    0.000    0.000    0.000    0.000    0.000 
#
# Total GULP energy -144915.417396 kJ/mol
# GULP energy per Si atom -5573.669900 kJ/mol
# Density = 2.116496 g / cm^3
# Si number density = 21.213245 Si / 1000 Ang^3
#
#
#
# Elastic Constant Matrix: (Units=GPa)
#
#
# Indices 1 2 3 4 5 6 
#
# 1 92.5269 40.5804 30.5618 0.0000 0.0000 0.0000
# 2 40.5804 76.0076 11.4982 0.0000 0.0000 0.0000
# 3 30.5618 11.4982 81.2060 0.0000 0.0000 0.0000
# 4 0.0000 0.0000 0.0000 24.9860 0.0000 0.0000
# 5 0.0000 0.0000 0.0000 0.0000 15.1325 0.0000
# 6 0.0000 0.0000 0.0000 0.0000 0.0000 27.4839
#
#
#
# Elastic Compliance Matrix: (Units=1/GPa)
#
#
# Indices 1 2 3 4 5 6 
#
# 1 0.015784 -0.007693 -0.004851 0.000000 0.000000 0.000000
# 2 -0.007693 0.017194 0.000461 0.000000 0.000000 0.000000
# 3 -0.004851 0.000461 0.014075 0.000000 0.000000 0.000000
# 4 0.000000 0.000000 0.000000 0.040022 0.000000 0.000000
# 5 0.000000 0.000000 0.000000 0.000000 0.066083 0.000000
# 6 0.000000 0.000000 0.000000 0.000000 0.000000 0.036385
#
#
# Mechanical properties :
#
#
# Convention : Reuss Voigt Hill
#
# Bulk Modulus (GPa) = 43.69454 46.11347 44.90400
# Shear Modulus (GPa) = 22.58978 24.66051 23.62514
#
# Velocity S-wave (km/s) = 3.26681 3.41325 3.34083
# Velocity P-wave (km/s) = 5.90524 6.10892 6.00794
#
# Compressibility (1/GPa) = 0.02288616
#
# Stress axis : x y z
#
# Youngs Moduli (GPa) = 63.35509 58.15885 71.04902
#
# Poissons Ratio (x) = 0.44743 0.34466
# Poissons Ratio (y) = 0.48741 -0.03274
# Poissons Ratio (z) = 0.30734 -0.02680
#
# Static dielectric constant tensor:
#      x y z
#    x 1.763550 0.000000 0.000000 
#    y 0.000000 1.788600 0.000000 
#    z 0.000000 0.000000 1.797330 
# 
# From -- ./inp_files/3610.got.cif
#   From: 2010.05.17/outbox.cif.g08.bks.cpg/sg34_2_cif.got.tgz:3610.got - 2010.06.03 17:23:11.
