data_PCOD9347278
_publ_section_title
;
Structure prediction by ZEFSAII (Michael W. Deem and Ramdas Pophale) SiO2 
 PCOD9347278
Probable space group: P N N 2
;
_chemical_formula_sum "Si O2"
_cell_formula_units_Z 30
_cell_length_a 5.879763
_cell_length_b 12.226700
_cell_length_c 19.036089
_cell_angle_alpha 90.000000
_cell_angle_beta 90.000000
_cell_angle_gamma 90.000000
_cell_volume 1368.506309
_symmetry_space_group_name_H-M "P N N 2"
_symmetry_group_IT_number 34
_symmetry_cell_setting 'orthorhombic'
loop_
_space_group_symop_operation_xyz
x,y,z
-x,-y,z
1/2-x,1/2+y,1/2+z
1/2+x,1/2-y,1/2+z
loop_
_atom_site_type_symbol
_atom_site_label
_atom_site_fract_x
_atom_site_fract_y
_atom_site_fract_z
Si Si1 0.400841 0.146207 0.419340
Si Si2 0.340666 0.597472 0.050109
Si Si3 0.736830 0.700131 0.754739
Si Si4 0.049629 0.285443 0.129652
Si Si5 0.000000 0.500000 0.792740
Si Si6 0.203333 0.734912 0.494858
Si Si7 0.558613 0.181628 0.869284
Si Si8 0.630305 0.614768 0.245323
O O1 0.274656 0.071046 0.475659
O O2 0.644941 0.179632 0.449680
O O3 0.265347 0.258182 0.408202
O O4 0.388959 0.085986 0.345859
O O5 0.500000 0.500000 0.073331
O O6 0.136071 0.629164 0.100581
O O7 0.494465 0.702453 0.031935
O O8 0.582353 0.716126 0.687086
O O9 0.827785 0.576971 0.752522
O O10 0.585262 0.732255 0.822227
O O11 0.944501 0.788249 0.756454
O O12 0.139765 0.214291 0.063494
O O13 0.239609 0.350229 0.174206
O O14 0.107315 0.650842 0.435407
O O15 0.684542 0.108970 0.809521
O O16 0.500000 0.500000 0.241138
#
# Coordination Sequence:
#
# PCOD9347278 Si02
#       8
#     4   4   4   4   2   4   4   4
#     4  10  20  34  59 100 134 165 205 270 340 405
#     4  10  21  34  60  93 134 171 209 267 340 409
#     4  11  24  40  61  97 133 179 215 278 342 408
#     4  10  24  40  58  92 134 185 224 271 347 414
#     4  12  20  38  64  92 144 162 216 276 344 408
#     4  10  19  37  59  91 134 173 218 276 336 406
#     4  10  20  39  62  96 131 170 223 278 345 392
#     4  11  24  44  65  92 137 177 230 279 341 408
#
# _framework density 21.921710999999998
#
# number of rings (size 3 to 8) (size 9 to 14) (size 15 to 20)
#    0.000    1.600    2.667    1.600    1.867    6.933 
#    0.000    1.333    0.000    0.000    0.000   84.000 
#    0.000    0.000    0.000    0.000    0.000    0.000 
#
# Total GULP energy -167327.814598 kJ/mol
# GULP energy per Si atom -5577.593820 kJ/mol
# Density = 2.187182 g / cm^3
# Si number density = 21.921711 Si / 1000 Ang^3
#
#
#
# Elastic Constant Matrix: (Units=GPa)
#
#
# Indices 1 2 3 4 5 6 
#
# 1 98.6636 24.7594 52.9901 0.0000 0.0000 0.0000
# 2 24.7594 43.9725 29.4715 0.0000 0.0000 0.0000
# 3 52.9901 29.4715 160.1473 0.0000 0.0000 0.0000
# 4 0.0000 0.0000 0.0000 3.6862 0.0000 0.0000
# 5 0.0000 0.0000 0.0000 0.0000 55.3419 0.0000
# 6 0.0000 0.0000 0.0000 0.0000 0.0000 30.0014
#
#
#
# Elastic Compliance Matrix: (Units=1/GPa)
#
#
# Indices 1 2 3 4 5 6 
#
# 1 0.013282 -0.005171 -0.003443 0.000000 0.000000 0.000000
# 2 -0.005171 0.027954 -0.003433 0.000000 0.000000 0.000000
# 3 -0.003443 -0.003433 0.008015 0.000000 0.000000 0.000000
# 4 0.000000 0.000000 0.000000 0.271280 0.000000 0.000000
# 5 0.000000 0.000000 0.000000 0.000000 0.018069 0.000000
# 6 0.000000 0.000000 0.000000 0.000000 0.000000 0.033332
#
#
# Mechanical properties :
#
#
# Convention : Reuss Voigt Hill
#
# Bulk Modulus (GPa) = 39.75092 57.46951 48.61021
# Shear Modulus (GPa) = 12.36354 30.84339 21.60347
#
# Velocity S-wave (km/s) = 2.37742 3.75504 3.14265
# Velocity P-wave (km/s) = 5.07037 6.71365 5.94902
#
# Compressibility (1/GPa) = 0.02515665
#
# Stress axis : x y z
#
# Youngs Moduli (GPa) = 75.28726 35.77270 124.75959
#
# Poissons Ratio (x) = 0.18498 0.42959
# Poissons Ratio (y) = 0.38932 0.42834
# Poissons Ratio (z) = 0.25924 0.12282
#
# Static dielectric constant tensor:
#      x y z
#    x 1.867480 0.000000 0.000000 
#    y 0.000000 1.796380 0.000000 
#    z 0.000000 0.000000 1.854540 
# 
# From -- ./inp_files/7974.got.cif
#   From: 2010.05.17/outbox.cif.g08.bks.cpg/sg34_4_cif.got.tgz:7974.got - 2010.06.03 17:23:11.
