data_PCOD9347659
_publ_section_title
;
Structure prediction by ZEFSAII (Michael W. Deem and Ramdas Pophale) SiO2 
 PCOD9347659
Probable space group: P N N 2
;
_chemical_formula_sum "Si O2"
_cell_formula_units_Z 20
_cell_length_a 8.528003
_cell_length_b 5.277017
_cell_length_c 18.681396
_cell_angle_alpha 90.000000
_cell_angle_beta 90.000000
_cell_angle_gamma 90.000000
_cell_volume 840.707969
_symmetry_space_group_name_H-M "P N N 2"
_symmetry_group_IT_number 34
_symmetry_cell_setting 'orthorhombic'
loop_
_space_group_symop_operation_xyz
x,y,z
-x,-y,z
1/2-x,1/2+y,1/2+z
1/2+x,1/2-y,1/2+z
loop_
_atom_site_type_symbol
_atom_site_label
_atom_site_fract_x
_atom_site_fract_y
_atom_site_fract_z
Si Si1 0.667375 0.627833 0.463180
Si Si2 0.500000 0.000000 0.013362
Si Si3 0.670857 0.595158 0.740770
Si Si4 0.500000 0.500000 0.107372
Si Si5 0.170183 0.896093 0.794298
Si Si6 0.667529 0.883871 0.608311
O O1 0.500000 0.500000 0.481467
O O2 0.832996 0.480827 0.473126
O O3 0.662478 0.673546 0.378849
O O4 0.675265 0.850289 0.522682
O O5 0.486514 0.753374 0.061523
O O6 0.500000 0.500000 0.764297
O O7 0.788625 0.372671 0.760259
O O8 0.671843 0.627907 0.654704
O O9 0.713540 0.866532 0.777093
O O10 0.676543 0.521615 0.137604
O O11 0.000000 0.000000 0.772828
O O12 0.500000 0.000000 0.627116
#
# Coordination Sequence:
#
# PCOD9347659 Si02
#       6
#     4   2   4   2   4   4
#     4  10  23  44  75 106 146 189 252 303 373 434
#     4  10  22  40  68 108 140 184 232 302 370 434
#     4  12  27  48  76 107 152 199 250 304 386 449
#     4  10  24  42  68 108 144 180 238 298 382 426
#     4  11  27  50  74 109 150 202 246 311 377 450
#     4  11  24  47  79 109 151 192 257 312 380 439
#
# _framework density 23.789473000000001
#
# number of rings (size 3 to 8) (size 9 to 14) (size 15 to 20)
#    0.000    1.200    0.000    4.200    4.200   11.200 
#   12.600    0.000    0.000    0.000    0.000    0.000 
#    0.000    0.000    0.000    0.000    0.000    0.000 
#
# Total GULP energy -111648.042114 kJ/mol
# GULP energy per Si atom -5582.402106 kJ/mol
# Density = 2.373533 g / cm^3
# Si number density = 23.789473 Si / 1000 Ang^3
#
#
#
# Elastic Constant Matrix: (Units=GPa)
#
#
# Indices 1 2 3 4 5 6 
#
# 1 205.9965 25.9021 32.8683 0.0000 0.0000 0.0000
# 2 25.9021 107.4345 44.5426 0.0000 0.0000 0.0000
# 3 32.8683 44.5426 85.8480 0.0000 0.0000 0.0000
# 4 0.0000 0.0000 0.0000 27.8880 0.0000 0.0000
# 5 0.0000 0.0000 0.0000 0.0000 26.4470 0.0000
# 6 0.0000 0.0000 0.0000 0.0000 0.0000 32.1359
#
#
#
# Elastic Compliance Matrix: (Units=1/GPa)
#
#
# Indices 1 2 3 4 5 6 
#
# 1 0.005195 -0.000545 -0.001706 0.000000 0.000000 0.000000
# 2 -0.000545 0.011916 -0.005974 0.000000 0.000000 0.000000
# 3 -0.001706 -0.005974 0.015401 0.000000 0.000000 0.000000
# 4 0.000000 0.000000 0.000000 0.035858 0.000000 0.000000
# 5 0.000000 0.000000 0.000000 0.000000 0.037812 0.000000
# 6 0.000000 0.000000 0.000000 0.000000 0.000000 0.031118
#
#
# Mechanical properties :
#
#
# Convention : Reuss Voigt Hill
#
# Bulk Modulus (GPa) = 62.25866 67.32278 64.79072
# Shear Modulus (GPa) = 31.42579 37.02525 34.22552
#
# Velocity S-wave (km/s) = 3.63849 3.94937 3.79711
# Velocity P-wave (km/s) = 6.62412 7.01124 6.82043
#
# Compressibility (1/GPa) = 0.01606202
#
# Stress axis : x y z
#
# Youngs Moduli (GPa) = 192.48391 83.91861 64.92896
#
# Poissons Ratio (x) = 0.04575 0.11078
# Poissons Ratio (y) = 0.10493 0.38789
# Poissons Ratio (z) = 0.32842 0.50134
#
# Static dielectric constant tensor:
#      x y z
#    x 1.995180 0.000000 0.000000 
#    y 0.000000 1.859420 0.000000 
#    z 0.000000 0.000000 1.917260 
# 
# From -- ./inp_files/7371.got.cif
#   From: 2010.05.17/outbox.cif.g08.bks.cpg/sg34_4_cif.got.tgz:7371.got - 2010.06.03 17:23:11.
