data_PCOD9347689
_publ_section_title
;
Structure prediction by ZEFSAII (Michael W. Deem and Ramdas Pophale) SiO2 
 PCOD9347689
Probable space group: P N N 2
;
_chemical_formula_sum "Si O2"
_cell_formula_units_Z 20
_cell_length_a 9.825083
_cell_length_b 8.901139
_cell_length_c 10.808141
_cell_angle_alpha 90.000000
_cell_angle_beta 90.000000
_cell_angle_gamma 90.000000
_cell_volume 945.219805
_symmetry_space_group_name_H-M "P N N 2"
_symmetry_group_IT_number 34
_symmetry_cell_setting 'orthorhombic'
loop_
_space_group_symop_operation_xyz
x,y,z
-x,-y,z
1/2-x,1/2+y,1/2+z
1/2+x,1/2-y,1/2+z
loop_
_atom_site_type_symbol
_atom_site_label
_atom_site_fract_x
_atom_site_fract_y
_atom_site_fract_z
Si Si1 0.519935 0.167772 0.899710
Si Si2 0.253488 0.140186 0.499799
Si Si3 0.265892 0.821614 0.401058
Si Si4 0.534779 0.670377 0.356208
Si Si5 0.276889 0.877821 0.674496
O O1 0.613049 0.270580 0.988045
O O2 0.376291 0.244359 0.872520
O O3 0.607239 0.149332 0.774331
O O4 0.500000 0.000000 0.950979
O O5 0.377513 0.246745 0.462182
O O6 0.365451 0.339114 0.238701
O O7 0.252105 0.002146 0.400327
O O8 0.396705 0.760523 0.331075
O O9 0.294975 0.788062 0.547113
O O10 0.500000 0.500000 0.391852
O O11 0.773918 0.449799 0.126854
#
# Coordination Sequence:
#
# PCOD9347689 Si02
#       5
#     4   4   4   4   4
#     4  11  22  42  70 105 136 181 245 282 344 428
#     4   9  22  43  69  96 146 189 222 291 357 411
#     4  10  22  42  69  98 143 186 232 291 342 422
#     4  11  22  42  70 105 136 181 245 282 344 428
#     4   9  24  41  72  96 141 193 216 286 377 385
#
# _framework density 21.159099000000001
#
# number of rings (size 3 to 8) (size 9 to 14) (size 15 to 20)
#    1.200    0.800    0.000    3.600    5.600    0.000 
#    0.000    8.000    8.800    0.000    0.000    0.000 
#    0.000    0.000    0.000    0.000    0.000    0.000 
#
# Total GULP energy -111668.672508 kJ/mol
# GULP energy per Si atom -5583.433625 kJ/mol
# Density = 2.111094 g / cm^3
# Si number density = 21.159099 Si / 1000 Ang^3
#
#
#
# Elastic Constant Matrix: (Units=GPa)
#
#
# Indices 1 2 3 4 5 6 
#
# 1 84.5487 21.7219 -25.2344 0.0000 0.0000 0.0000
# 2 21.7219 94.3640 -12.4319 0.0000 0.0000 0.0000
# 3 -25.2344 -12.4319 39.5969 0.0000 0.0000 0.0000
# 4 0.0000 0.0000 0.0000 35.5169 0.0000 0.0000
# 5 0.0000 0.0000 0.0000 0.0000 18.0950 0.0000
# 6 0.0000 0.0000 0.0000 0.0000 0.0000 47.8409
#
#
#
# Elastic Compliance Matrix: (Units=1/GPa)
#
#
# Indices 1 2 3 4 5 6 
#
# 1 0.015069 -0.002299 0.008881 0.000000 0.000000 0.000000
# 2 -0.002299 0.011405 0.002116 0.000000 0.000000 0.000000
# 3 0.008881 0.002116 0.031579 0.000000 0.000000 0.000000
# 4 0.000000 0.000000 0.000000 0.028156 0.000000 0.000000
# 5 0.000000 0.000000 0.000000 0.000000 0.055264 0.000000
# 6 0.000000 0.000000 0.000000 0.000000 0.000000 0.020903
#
#
# Mechanical properties :
#
#
# Convention : Reuss Voigt Hill
#
# Bulk Modulus (GPa) = 13.25383 20.73565 16.99474
# Shear Modulus (GPa) = 29.38972 35.92083 32.65528
#
# Velocity S-wave (km/s) = 3.73096 4.12473 3.93277
# Velocity P-wave (km/s) = 4.98373 5.70138 5.35459
#
# Compressibility (1/GPa) = 0.07544987
#
# Stress axis : x y z
#
# Youngs Moduli (GPa) = 66.36232 87.67975 31.66690
#
# Poissons Ratio (x) = 0.20155 -0.28125
# Poissons Ratio (y) = 0.15254 -0.06700
# Poissons Ratio (z) = -0.58939 -0.18552
#
# Static dielectric constant tensor:
#      x y z
#    x 1.734550 0.000000 0.000000 
#    y 0.000000 1.776140 0.000000 
#    z 0.000000 0.000000 1.778610 
# 
# From -- ./inp_files/4796.got.cif
#   From: 2010.05.17/outbox.cif.g08.bks.cpg/sg34_3_cif.got.tgz:4796.got - 2010.06.03 17:23:11.
