data_PCOD9347527
_publ_section_title
;
Structure prediction by ZEFSAII (Michael W. Deem and Ramdas Pophale) SiO2 
 PCOD9347527
Probable space group: P N N 2
;
_chemical_formula_sum "Si O2"
_cell_formula_units_Z 24
_cell_length_a 10.691476
_cell_length_b 12.034248
_cell_length_c 7.742137
_cell_angle_alpha 90.000000
_cell_angle_beta 90.000000
_cell_angle_gamma 90.000000
_cell_volume 996.133337
_symmetry_space_group_name_H-M "P N N 2"
_symmetry_group_IT_number 34
_symmetry_cell_setting 'orthorhombic'
loop_
_space_group_symop_operation_xyz
x,y,z
-x,-y,z
1/2-x,1/2+y,1/2+z
1/2+x,1/2-y,1/2+z
loop_
_atom_site_type_symbol
_atom_site_label
_atom_site_fract_x
_atom_site_fract_y
_atom_site_fract_z
Si Si1 0.446536 0.615628 0.096500
Si Si2 0.701266 0.636948 0.885661
Si Si3 0.128080 0.929960 0.006929
Si Si4 0.338677 0.051745 0.568576
Si Si5 0.178912 0.614891 0.433358
Si Si6 0.430354 0.205421 0.290871
O O1 0.500000 0.500000 0.181680
O O2 0.302850 0.603822 0.043970
O O3 0.456962 0.728719 0.203280
O O4 0.556385 0.627871 0.953490
O O5 0.691558 0.597316 0.690668
O O6 0.733101 0.764665 0.897191
O O7 0.797610 0.570870 0.007826
O O8 0.218214 0.020413 0.925571
O O9 0.126183 0.816699 0.890765
O O10 0.000000 0.000000 0.041437
O O11 0.393163 0.080974 0.757652
O O12 0.429428 0.113421 0.436642
O O13 0.124884 0.636552 0.625053
#
# Coordination Sequence:
#
# PCOD9347527 Si02
#       6
#     4   4   4   4   4   4
#     4   9  19  37  59  89 124 156 208 272 308 377
#     4  10  21  38  63  96 123 163 212 263 330 387
#     4  12  22  39  68  97 121 168 221 267 323 388
#     4  11  20  39  60  88 128 162 206 268 317 389
#     4  11  22  37  61  91 127 163 205 269 318 379
#     4  11  22  36  59  95 123 164 214 258 328 385
#
# _framework density 24.093160000000001
#
# number of rings (size 3 to 8) (size 9 to 14) (size 15 to 20)
#    0.000    1.333    3.333    6.000    0.000    0.000 
#    0.000    0.000    0.000   14.000    0.000    0.000 
#    0.000    0.000    0.000    0.000    0.000    0.000 
#
# Total GULP energy -133619.327902 kJ/mol
# GULP energy per Si atom -5567.471996 kJ/mol
# Density = 2.403832 g / cm^3
# Si number density = 24.093160 Si / 1000 Ang^3
#
#
#
# Elastic Constant Matrix: (Units=GPa)
#
#
# Indices 1 2 3 4 5 6 
#
# 1 74.3499 18.5493 7.2779 0.0000 0.0000 0.0000
# 2 18.5493 103.9843 60.6350 0.0000 0.0000 0.0000
# 3 7.2779 60.6350 143.7061 0.0000 0.0000 0.0000
# 4 0.0000 0.0000 0.0000 29.8435 0.0000 0.0000
# 5 0.0000 0.0000 0.0000 0.0000 -7.7841 0.0000
# 6 0.0000 0.0000 0.0000 0.0000 0.0000 21.2467
#
#
#
# Elastic Compliance Matrix: (Units=1/GPa)
#
#
# Indices 1 2 3 4 5 6 
#
# 1 0.014099 -0.002784 0.000460 0.000000 0.000000 0.000000
# 2 -0.002784 0.013305 -0.005473 0.000000 0.000000 0.000000
# 3 0.000460 -0.005473 0.009244 0.000000 0.000000 0.000000
# 4 0.000000 0.000000 0.000000 0.033508 0.000000 0.000000
# 5 0.000000 0.000000 0.000000 0.000000 -0.128467 0.000000
# 6 0.000000 0.000000 0.000000 0.000000 0.000000 0.047066
#
#
# Mechanical properties :
#
#
# Convention : Reuss Voigt Hill
#
# Bulk Modulus (GPa) = 47.49097 54.99608 51.24352
# Shear Modulus (GPa) = 439.90240 24.36644 232.13442
#
# Velocity S-wave (km/s) = 13.52702 3.18361 9.82639
# Velocity P-wave (km/s) = 16.23970 6.03240 12.24985
#
# Compressibility (1/GPa) = 0.02105664
#
# Stress axis : x y z
#
# Youngs Moduli (GPa) = 70.92539 75.16173 108.17260
#
# Poissons Ratio (x) = 0.20922 -0.04981
# Poissons Ratio (y) = 0.19743 0.59200
# Poissons Ratio (z) = -0.03266 0.41134
#
# Static dielectric constant tensor:
#      x y z
#    x 2.153040 0.000000 0.000000 
#    y 0.000000 1.906880 0.000000 
#    z 0.000000 0.000000 2.139370 
# 
# From -- ./inp_files/3147.got.cif
#   From: 2010.05.17/outbox.cif.g08.bks.cpg/sg34_2_cif.got.tgz:3147.got - 2010.06.03 17:23:11.
