data_PCOD9347215
_publ_section_title
;
Structure prediction by ZEFSAII (Michael W. Deem and Ramdas Pophale) SiO2 
 PCOD9347215
Probable space group: P N N 2
;
_chemical_formula_sum "Si O2"
_cell_formula_units_Z 20
_cell_length_a 6.646542
_cell_length_b 5.189808
_cell_length_c 24.870088
_cell_angle_alpha 90.000000
_cell_angle_beta 90.000000
_cell_angle_gamma 90.000000
_cell_volume 857.875701
_symmetry_space_group_name_H-M "P N N 2"
_symmetry_group_IT_number 34
_symmetry_cell_setting 'orthorhombic'
loop_
_space_group_symop_operation_xyz
x,y,z
-x,-y,z
1/2-x,1/2+y,1/2+z
1/2+x,1/2-y,1/2+z
loop_
_atom_site_type_symbol
_atom_site_label
_atom_site_fract_x
_atom_site_fract_y
_atom_site_fract_z
Si Si1 0.643428 0.749834 0.363060
Si Si2 0.777689 0.921484 0.020616
Si Si3 0.261890 0.079474 0.475362
Si Si4 0.855936 0.249211 0.747304
Si Si5 0.357116 0.250297 0.131121
O O1 0.500000 0.500000 0.368249
O O2 0.767880 0.792695 0.417239
O O3 0.753779 0.741737 0.305106
O O4 0.500000 0.000000 0.361143
O O5 0.780870 0.791846 0.079134
O O6 0.679209 0.708691 0.982036
O O7 0.000000 0.000000 0.001398
O O8 0.693114 0.211779 0.019760
O O9 0.500000 0.000000 0.481683
O O10 0.747875 0.242721 0.689414
O O11 0.000000 0.500000 0.747108
O O12 0.000000 0.000000 0.747608
O O13 0.500000 0.500000 0.126675
O O14 0.500000 0.000000 0.131478
#
# Coordination Sequence:
#
# PCOD9347215 Si02
#       5
#     4   4   4   4   4
#     4   9  14  23  39  61  88 115 140 179 230 270
#     4  10  19  30  45  67  93 120 150 186 227 273
#     4   9  16  26  41  63  91 117 144 182 228 273
#     4   8  15  25  40  61  86 113 144 181 223 266
#     4  10  19  32  47  66  92 123 156 190 227 276
#
# _framework density 23.313403000000001
#
# number of rings (size 3 to 8) (size 9 to 14) (size 15 to 20)
#    0.000    2.800    0.000    4.200    0.000    0.000 
#    0.000    0.000    0.000    0.000    0.000    4.200 
#    0.000    0.000    0.000    0.000    0.000    0.000 
#
# Total GULP energy -111349.935764 kJ/mol
# GULP energy per Si atom -5567.496788 kJ/mol
# Density = 2.326034 g / cm^3
# Si number density = 23.313403 Si / 1000 Ang^3
#
#
#
# Elastic Constant Matrix: (Units=GPa)
#
#
# Indices 1 2 3 4 5 6 
#
# 1 23.1494 12.4984 -5.8851 0.0000 0.0000 0.0000
# 2 12.4984 201.6585 44.3991 0.0000 0.0000 0.0000
# 3 -5.8851 44.3991 220.9682 0.0000 0.0000 0.0000
# 4 0.0000 0.0000 0.0000 35.5114 0.0000 0.0000
# 5 0.0000 0.0000 0.0000 0.0000 16.3464 0.0000
# 6 0.0000 0.0000 0.0000 0.0000 0.0000 4.9874
#
#
#
# Elastic Compliance Matrix: (Units=1/GPa)
#
#
# Indices 1 2 3 4 5 6 
#
# 1 0.045410 -0.003223 0.001857 0.000000 0.000000 0.000000
# 2 -0.003223 0.005417 -0.001174 0.000000 0.000000 0.000000
# 3 0.001857 -0.001174 0.004811 0.000000 0.000000 0.000000
# 4 0.000000 0.000000 0.000000 0.028160 0.000000 0.000000
# 5 0.000000 0.000000 0.000000 0.000000 0.061176 0.000000
# 6 0.000000 0.000000 0.000000 0.000000 0.000000 0.200504
#
#
# Mechanical properties :
#
#
# Convention : Reuss Voigt Hill
#
# Bulk Modulus (GPa) = 19.77964 60.86680 40.32322
# Shear Modulus (GPa) = 13.60872 37.68661 25.64767
#
# Velocity S-wave (km/s) = 2.41867 4.02496 3.32041
# Velocity P-wave (km/s) = 4.03765 6.91123 5.65985
#
# Compressibility (1/GPa) = 0.05055703
#
# Stress axis : x y z
#
# Youngs Moduli (GPa) = 22.02159 184.59705 207.85900
#
# Poissons Ratio (x) = 0.59501 -0.38601
# Poissons Ratio (y) = 0.07098 0.24409
# Poissons Ratio (z) = -0.04090 0.21678
#
# Static dielectric constant tensor:
#      x y z
#    x 1.962700 0.000000 0.000000 
#    y 0.000000 1.930270 0.000000 
#    z 0.000000 0.000000 1.996360 
# 
# From -- ./inp_files/8254.got.cif
#   From: 2010.05.17/outbox.cif.g08.bks.cpg/sg34_5_cif.got.tgz:8254.got - 2010.06.03 17:23:11.
