data_PCOD9347422
_publ_section_title
;
Structure prediction by ZEFSAII (Michael W. Deem and Ramdas Pophale) SiO2 
 PCOD9347422
Probable space group: P N N 2
;
_chemical_formula_sum "Si O2"
_cell_formula_units_Z 18
_cell_length_a 7.982310
_cell_length_b 16.796426
_cell_length_c 5.271596
_cell_angle_alpha 90.000000
_cell_angle_beta 90.000000
_cell_angle_gamma 90.000000
_cell_volume 706.785434
_symmetry_space_group_name_H-M "P N N 2"
_symmetry_group_IT_number 34
_symmetry_cell_setting 'orthorhombic'
loop_
_space_group_symop_operation_xyz
x,y,z
-x,-y,z
1/2-x,1/2+y,1/2+z
1/2+x,1/2-y,1/2+z
loop_
_atom_site_type_symbol
_atom_site_label
_atom_site_fract_x
_atom_site_fract_y
_atom_site_fract_z
Si Si1 0.000000 0.500000 0.035061
Si Si2 0.650467 0.435045 0.848762
Si Si3 0.749349 0.709823 0.596150
Si Si4 0.477051 0.594607 0.363947
Si Si5 0.944865 0.677114 0.122983
O O1 0.827393 0.477665 0.892685
O O2 0.958696 0.582618 0.172018
O O3 0.500000 0.500000 0.818661
O O4 0.660191 0.390656 0.580764
O O5 0.586086 0.382943 0.086069
O O6 0.638711 0.636416 0.480741
O O7 0.825055 0.692830 0.876467
O O8 0.622705 0.783131 0.570144
O O9 0.889816 0.716622 0.384008
O O10 0.500000 0.500000 0.332424
#
# Coordination Sequence:
#
# PCOD9347422 Si02
#       5
#     2   4   4   4   4
#     4  12  28  48  80 116 154 208 272 328 388 486
#     4  10  22  40  69 106 139 191 241 311 373 453
#     4  12  27  51  76 114 157 206 260 330 402 485
#     4  10  20  39  70  96 139 183 242 295 377 442
#     4  12  29  49  79 114 159 202 268 322 406 468
#
# _framework density 25.467420000000001
#
# number of rings (size 3 to 8) (size 9 to 14) (size 15 to 20)
#    0.000    0.889    0.000    8.000    6.222    3.556 
#    0.000    0.000    0.000    0.000    0.000    0.000 
#    0.000    0.000    0.000    0.000    0.000    0.000 
#
# Total GULP energy -100660.695727 kJ/mol
# GULP energy per Si atom -5592.260874 kJ/mol
# Density = 2.540945 g / cm^3
# Si number density = 25.467420 Si / 1000 Ang^3
#
#
#
# Elastic Constant Matrix: (Units=GPa)
#
#
# Indices 1 2 3 4 5 6 
#
# 1 118.5873 27.6587 9.6622 0.0000 0.0000 0.0000
# 2 27.6587 139.2966 40.6076 0.0000 0.0000 0.0000
# 3 9.6622 40.6076 153.7286 0.0000 0.0000 0.0000
# 4 0.0000 0.0000 0.0000 11.9020 0.0000 0.0000
# 5 0.0000 0.0000 0.0000 0.0000 -10.1052 0.0000
# 6 0.0000 0.0000 0.0000 0.0000 0.0000 51.9844
#
#
#
# Elastic Compliance Matrix: (Units=1/GPa)
#
#
# Indices 1 2 3 4 5 6 
#
# 1 0.008844 -0.001727 -0.000100 0.000000 0.000000 0.000000
# 2 -0.001727 0.008115 -0.002035 0.000000 0.000000 0.000000
# 3 -0.000100 -0.002035 0.007049 0.000000 0.000000 0.000000
# 4 0.000000 0.000000 0.000000 0.084019 0.000000 0.000000
# 5 0.000000 0.000000 0.000000 0.000000 -0.098959 0.000000
# 6 0.000000 0.000000 0.000000 0.000000 0.000000 0.019237
#
#
# Mechanical properties :
#
#
# Convention : Reuss Voigt Hill
#
# Bulk Modulus (GPa) = 61.40962 63.05217 62.23090
# Shear Modulus (GPa) = 120.61083 33.00184 76.80633
#
# Velocity S-wave (km/s) = 6.88924 3.60369 5.49765
# Velocity P-wave (km/s) = 9.35134 6.49054 8.04906
#
# Compressibility (1/GPa) = 0.01628409
#
# Stress axis : x y z
#
# Youngs Moduli (GPa) = 113.07734 123.22737 141.86813
#
# Poissons Ratio (x) = 0.21280 0.01414
# Poissons Ratio (y) = 0.19527 0.28871
# Poissons Ratio (z) = 0.01127 0.25078
#
# Static dielectric constant tensor:
#      x y z
#    x 2.015250 0.000000 0.000000 
#    y 0.000000 2.877510 0.000000 
#    z 0.000000 0.000000 2.046500 
# 
# From -- ./inp_files/421.got.cif
#   From: 2010.05.17/outbox.cif.g08.bks.cpg/sg34_1_cif.got.tgz:421.got - 2010.06.03 17:23:11.
