data_PCOD9347679
_publ_section_title
;
Structure prediction by ZEFSAII (Michael W. Deem and Ramdas Pophale) SiO2 
 PCOD9347679
Probable space group: P N N 2
;
_chemical_formula_sum "Si O2"
_cell_formula_units_Z 26
_cell_length_a 16.289587
_cell_length_b 5.564283
_cell_length_c 11.903787
_cell_angle_alpha 90.000000
_cell_angle_beta 90.000000
_cell_angle_gamma 90.000000
_cell_volume 1078.957730
_symmetry_space_group_name_H-M "P N N 2"
_symmetry_group_IT_number 34
_symmetry_cell_setting 'orthorhombic'
loop_
_space_group_symop_operation_xyz
x,y,z
-x,-y,z
1/2-x,1/2+y,1/2+z
1/2+x,1/2-y,1/2+z
loop_
_atom_site_type_symbol
_atom_site_label
_atom_site_fract_x
_atom_site_fract_y
_atom_site_fract_z
Si Si1 0.566938 0.322347 0.494620
Si Si2 0.285731 0.316129 0.506867
Si Si3 0.000000 0.000000 0.211130
Si Si4 0.273271 0.054060 0.723346
Si Si5 0.582585 0.842378 0.875565
Si Si6 0.156627 0.662005 0.605021
Si Si7 0.845514 0.532559 0.827437
O O1 0.500000 0.500000 0.440657
O O2 0.651998 0.466107 0.492703
O O3 0.537808 0.305699 0.623495
O O4 0.586754 0.097427 0.419431
O O5 0.201538 0.431620 0.549643
O O6 0.316785 0.170460 0.614885
O O7 0.287548 0.152693 0.396245
O O8 0.065362 0.877555 0.291731
O O9 0.222769 0.842148 0.661411
O O10 0.343195 0.011336 0.816060
O O11 0.210269 0.245234 0.781922
O O12 0.500000 0.000000 0.883938
O O13 0.606803 0.743024 0.998835
O O14 0.111771 0.575137 0.717092
#
# Coordination Sequence:
#
# PCOD9347679 Si02
#       7
#     4   4   2   4   4   4   4
#     4  10  22  42  64 104 134 183 240 311 371 438
#     4  11  22  42  74 105 138 181 253 311 369 441
#     4  10  26  44  72 102 146 192 244 312 388 442
#     4  11  23  45  75 103 142 199 257 310 372 463
#     4  12  27  46  72 108 153 194 245 316 387 456
#     4  11  26  46  71 106 149 201 244 303 386 471
#     4  11  24  42  72 102 141 189 254 311 367 451
#
# _framework density 24.097327
#
# number of rings (size 3 to 8) (size 9 to 14) (size 15 to 20)
#    0.462    0.615    1.538    4.615    4.308    4.308 
#    5.538    0.000    0.000    0.000    0.000    0.000 
#    0.000    0.000    0.000    0.000    0.000    0.000 
#
# Total GULP energy -145208.381587 kJ/mol
# GULP energy per Si atom -5584.937753 kJ/mol
# Density = 2.404248 g / cm^3
# Si number density = 24.097327 Si / 1000 Ang^3
#
#
#
# Elastic Constant Matrix: (Units=GPa)
#
#
# Indices 1 2 3 4 5 6 
#
# 1 55.2602 21.8617 61.5738 0.0000 0.0000 0.0000
# 2 21.8617 56.4962 63.7817 0.0000 0.0000 0.0000
# 3 61.5738 63.7817 256.5994 0.0000 0.0000 0.0000
# 4 0.0000 0.0000 0.0000 93.9883 0.0000 0.0000
# 5 0.0000 0.0000 0.0000 0.0000 2109.2840 0.0000
# 6 0.0000 0.0000 0.0000 0.0000 0.0000 35.6530
#
#
#
# Elastic Compliance Matrix: (Units=1/GPa)
#
#
# Indices 1 2 3 4 5 6 
#
# 1 0.025363 -0.004092 -0.005069 0.000000 0.000000 0.000000
# 2 -0.004092 0.025265 -0.005298 0.000000 0.000000 0.000000
# 3 -0.005069 -0.005298 0.006430 0.000000 0.000000 0.000000
# 4 0.000000 0.000000 0.000000 0.010640 0.000000 0.000000
# 5 0.000000 0.000000 0.000000 0.000000 0.000474 0.000000
# 6 0.000000 0.000000 0.000000 0.000000 0.000000 0.028048
#
#
# Mechanical properties :
#
#
# Convention : Reuss Voigt Hill
#
# Bulk Modulus (GPa) = 35.53569 73.64335 54.58952
# Shear Modulus (GPa) = 37.16956 462.52765 249.84861
#
# Velocity S-wave (km/s) = 3.93170 13.86932 10.19354
# Velocity P-wave (km/s) = 5.94893 16.94416 12.69832
#
# Compressibility (1/GPa) = 0.02814072
#
# Stress axis : x y z
#
# Youngs Moduli (GPa) = 39.42721 39.58041 155.51011
#
# Poissons Ratio (x) = 0.16195 0.78830
# Poissons Ratio (y) = 0.16132 0.82392
# Poissons Ratio (z) = 0.19986 0.20970
#
# Static dielectric constant tensor:
#      x y z
#    x 1.128000 0.000000 0.000000 
#    y 0.000000 2.051800 0.000000 
#    z 0.000000 0.000000 1.937600 
# 
# From -- ./inp_files/5750.got.cif
#   From: 2010.05.17/outbox.cif.g08.bks.cpg/sg34_3_cif.got.tgz:5750.got - 2010.06.03 17:23:11.
