data_PCOD9347138
_publ_section_title
;
Structure prediction by ZEFSAII (Michael W. Deem and Ramdas Pophale) SiO2 
 PCOD9347138
Probable space group: P N N 2
;
_chemical_formula_sum "Si O2"
_cell_formula_units_Z 32
_cell_length_a 28.575299
_cell_length_b 5.379759
_cell_length_c 10.447822
_cell_angle_alpha 90.000000
_cell_angle_beta 90.000000
_cell_angle_gamma 90.000000
_cell_volume 1606.125100
_symmetry_space_group_name_H-M "P N N 2"
_symmetry_group_IT_number 34
_symmetry_cell_setting 'orthorhombic'
loop_
_space_group_symop_operation_xyz
x,y,z
-x,-y,z
1/2-x,1/2+y,1/2+z
1/2+x,1/2-y,1/2+z
loop_
_atom_site_type_symbol
_atom_site_label
_atom_site_fract_x
_atom_site_fract_y
_atom_site_fract_z
Si Si1 0.473867 0.250000 0.717210
Si Si2 0.159479 0.249993 0.972214
Si Si3 0.487682 0.750000 0.001550
Si Si4 0.626943 0.750007 0.587644
Si Si5 0.762056 0.250001 0.573352
Si Si6 0.878300 0.749997 0.452184
Si Si7 0.832776 0.249996 0.344943
Si Si8 0.192013 0.249998 0.680647
O O1 0.500000 0.500000 0.673597
O O2 0.421152 0.249999 0.667842
O O3 0.500000 0.000000 0.673597
O O4 0.480112 0.250000 0.872456
O O5 0.131567 0.499936 0.006036
O O6 0.206792 0.249995 0.056509
O O7 0.131568 0.000046 0.006032
O O8 0.176201 0.249999 0.826355
O O9 0.500000 0.500000 0.074227
O O10 0.433950 0.749999 0.960167
O O11 0.500000 0.000000 0.074226
O O12 0.668845 0.750005 0.692393
O O13 0.786178 0.249997 0.431563
O O14 0.779969 0.498833 0.644118
O O15 0.779968 0.001170 0.644120
O O16 0.860174 0.501359 0.383276
O O17 0.853978 0.750004 0.590615
O O18 0.860173 0.998625 0.383269
#
# Coordination Sequence:
#
# PCOD9347138 Si02
#       8
#     4   4   4   4   4   4   4   4
#     4  10  19  34  58  86 123 155 191 250 314 369
#     4  12  26  40  62  87 128 171 207 255 304 381
#     4  10  18  29  54  86 116 147 182 246 305 364
#     4  12  24  39  60  97 127 165 203 261 319 367
#     4  10  23  39  64  85 117 163 212 260 306 352
#     4  10  19  37  62  88 120 155 198 249 315 356
#     4  10  20  36  58  90 118 152 202 257 304 363
#     4  10  23  44  62  87 121 166 209 256 299 376
#
# _framework density 19.923729000000002
#
# number of rings (size 3 to 8) (size 9 to 14) (size 15 to 20)
#    0.000    1.500    0.000    6.750    3.500    0.000 
#    0.000    0.000    0.000    4.500    0.000    0.000 
#    0.000    0.000    0.000    0.000    0.000    0.000 
#
# Total GULP energy -178836.547908 kJ/mol
# GULP energy per Si atom -5588.642122 kJ/mol
# Density = 1.987838 g / cm^3
# Si number density = 19.923729 Si / 1000 Ang^3
#
#
#
# Elastic Constant Matrix: (Units=GPa)
#
#
# Indices 1 2 3 4 5 6 
#
# 1 81.3435 39.6062 9.5868 0.0000 0.0000 0.0000
# 2 39.6062 201.3073 36.2939 0.0000 0.0000 0.0000
# 3 9.5868 36.2939 85.6619 0.0000 0.0000 0.0000
# 4 0.0000 0.0000 0.0000 -2.5826 0.0000 0.0000
# 5 0.0000 0.0000 0.0000 0.0000 15.6495 0.0000
# 6 0.0000 0.0000 0.0000 0.0000 0.0000 10.6252
#
#
#
# Elastic Compliance Matrix: (Units=1/GPa)
#
#
# Indices 1 2 3 4 5 6 
#
# 1 0.013610 -0.002602 -0.000421 0.000000 0.000000 0.000000
# 2 -0.002602 0.005876 -0.002198 0.000000 0.000000 0.000000
# 3 -0.000421 -0.002198 0.012652 0.000000 0.000000 0.000000
# 4 0.000000 0.000000 0.000000 -0.387212 0.000000 0.000000
# 5 0.000000 0.000000 0.000000 0.000000 0.063900 0.000000
# 6 0.000000 0.000000 0.000000 0.000000 0.000000 0.094116
#
#
# Mechanical properties :
#
#
# Convention : Reuss Voigt Hill
#
# Bulk Modulus (GPa) = 46.09106 59.92072 53.00589
# Shear Modulus (GPa) = -27.87306 23.59347 -2.13979
#
# Velocity S-wave (km/s) = -3.74436 3.44494 -1.03746
# Velocity P-wave (km/s) = 2.11903 6.77966 5.02265
#
# Compressibility (1/GPa) = 0.02169618
#
# Stress axis : x y z
#
# Youngs Moduli (GPa) = 73.47551 170.19071 79.03705
#
# Poissons Ratio (x) = 0.44281 0.03326
# Poissons Ratio (y) = 0.19117 0.17375
# Poissons Ratio (z) = 0.03092 0.37413
#
# Static dielectric constant tensor:
#      x y z
#    x 1.688410 0.000000 0.000000 
#    y 0.000000 1.780150 0.000000 
#    z 0.000000 0.000000 1.676260 
# 
# From -- ./inp_files/4154.got.cif
#   From: 2010.05.17/outbox.cif.g08.bks.cpg/sg34_3_cif.got.tgz:4154.got - 2010.06.03 17:23:11.
