data_PCOD9347235
_publ_section_title
;
Structure prediction by ZEFSAII (Michael W. Deem and Ramdas Pophale) SiO2 
 PCOD9347235
Probable space group: P N N 2
;
_chemical_formula_sum "Si O2"
_cell_formula_units_Z 32
_cell_length_a 14.039420
_cell_length_b 7.952961
_cell_length_c 11.304811
_cell_angle_alpha 90.000000
_cell_angle_beta 90.000000
_cell_angle_gamma 90.000000
_cell_volume 1262.238217
_symmetry_space_group_name_H-M "P N N 2"
_symmetry_group_IT_number 34
_symmetry_cell_setting 'orthorhombic'
loop_
_space_group_symop_operation_xyz
x,y,z
-x,-y,z
1/2-x,1/2+y,1/2+z
1/2+x,1/2-y,1/2+z
loop_
_atom_site_type_symbol
_atom_site_label
_atom_site_fract_x
_atom_site_fract_y
_atom_site_fract_z
Si Si1 0.798645 0.508323 0.544030
Si Si2 0.903718 0.657171 0.742954
Si Si3 0.717992 0.992876 0.547732
Si Si4 0.706444 0.808128 0.798123
Si Si5 0.999580 0.293956 0.320542
Si Si6 0.385045 0.666608 0.608631
Si Si7 0.897048 0.849847 0.525162
Si Si8 0.534653 0.830874 0.470668
O O1 0.879402 0.502659 0.650355
O O2 0.805956 0.402824 0.423587
O O3 0.692636 0.479558 0.594650
O O4 0.820419 0.698397 0.506093
O O5 0.799456 0.691409 0.798974
O O6 0.927001 0.816886 0.659510
O O7 0.983136 0.658697 0.843746
O O8 0.722852 0.927264 0.683692
O O9 0.827191 0.003867 0.504437
O O10 0.646351 0.869976 0.474410
O O11 0.673753 0.176058 0.556317
O O12 0.602099 0.736244 0.772536
O O13 0.083032 0.219633 0.239084
O O14 0.016797 0.201228 0.443837
O O15 0.000000 0.500000 0.327568
O O16 0.484396 0.676318 0.535589
O O17 0.500000 0.000000 0.540917
#
# Coordination Sequence:
#
# PCOD9347235 Si02
#       8
#     4   4   4   4   4   4   4   4
#     4  10  21  36  62  92 124 166 207 260 335 371
#     4   9  21  38  58  91 129 162 207 272 320 375
#     4  10  20  38  61  92 124 167 210 262 319 381
#     4  11  19  38  64  87 127 163 216 266 309 376
#     4  12  19  36  64  90 116 167 228 251 303 405
#     4  11  20  33  61  93 117 162 208 260 319 375
#     4   9  22  38  58  92 125 164 212 265 316 389
#     4  10  19  34  59  88 121 161 208 258 309 376
#
# _framework density 25.351794000000002
#
# number of rings (size 3 to 8) (size 9 to 14) (size 15 to 20)
#    0.750    1.000    5.000    0.375    0.000    3.500 
#    0.000    2.500    0.000    0.000    3.250    0.000 
#    0.000    0.000    0.000    0.000    0.000    0.000 
#
# Total GULP energy -178354.053742 kJ/mol
# GULP energy per Si atom -5573.564179 kJ/mol
# Density = 2.529409 g / cm^3
# Si number density = 25.351794 Si / 1000 Ang^3
#
#
#
# Elastic Constant Matrix: (Units=GPa)
#
#
# Indices 1 2 3 4 5 6 
#
# 1 107.7382 33.5593 50.7199 0.0000 0.0000 0.0000
# 2 33.5593 54.6354 10.5838 0.0000 0.0000 0.0000
# 3 50.7199 10.5838 126.4308 0.0000 0.0000 0.0000
# 4 0.0000 0.0000 0.0000 4.7151 0.0000 0.0000
# 5 0.0000 0.0000 0.0000 0.0000 48.8189 0.0000
# 6 0.0000 0.0000 0.0000 0.0000 0.0000 40.5823
#
#
#
# Elastic Compliance Matrix: (Units=1/GPa)
#
#
# Indices 1 2 3 4 5 6 
#
# 1 0.014005 -0.007638 -0.004979 0.000000 0.000000 0.000000
# 2 -0.007638 0.022770 0.001158 0.000000 0.000000 0.000000
# 3 -0.004979 0.001158 0.009810 0.000000 0.000000 0.000000
# 4 0.000000 0.000000 0.000000 0.212087 0.000000 0.000000
# 5 0.000000 0.000000 0.000000 0.000000 0.020484 0.000000
# 6 0.000000 0.000000 0.000000 0.000000 0.000000 0.024641
#
#
# Mechanical properties :
#
#
# Convention : Reuss Voigt Hill
#
# Bulk Modulus (GPa) = 42.25227 53.17003 47.71115
# Shear Modulus (GPa) = 14.94306 31.75267 23.34787
#
# Velocity S-wave (km/s) = 2.43045 3.54288 3.03802
# Velocity P-wave (km/s) = 4.95769 6.14446 5.58270
#
# Compressibility (1/GPa) = 0.02366737
#
# Stress axis : x y z
#
# Youngs Moduli (GPa) = 71.40430 43.91685 101.93786
#
# Poissons Ratio (x) = 0.33543 0.50754
# Poissons Ratio (y) = 0.54537 -0.11803
# Poissons Ratio (z) = 0.35551 -0.05085
#
# Static dielectric constant tensor:
#      x y z
#    x 2.094430 0.000000 0.000000 
#    y 0.000000 2.127810 0.000000 
#    z 0.000000 0.000000 2.060920 
# 
# From -- ./inp_files/5461.got.cif
#   From: 2010.05.17/outbox.cif.g08.bks.cpg/sg34_3_cif.got.tgz:5461.got - 2010.06.03 17:23:11.
