data_PCOD9347835
_publ_section_title
;
Structure prediction by ZEFSAII (Michael W. Deem and Ramdas Pophale) SiO2 
 PCOD9347835
Probable space group: P N N 2
;
_chemical_formula_sum "Si O2"
_cell_formula_units_Z 26
_cell_length_a 13.875706
_cell_length_b 13.534206
_cell_length_c 6.033667
_cell_angle_alpha 90.000000
_cell_angle_beta 90.000000
_cell_angle_gamma 90.000000
_cell_volume 1133.102531
_symmetry_space_group_name_H-M "P N N 2"
_symmetry_group_IT_number 34
_symmetry_cell_setting 'orthorhombic'
loop_
_space_group_symop_operation_xyz
x,y,z
-x,-y,z
1/2-x,1/2+y,1/2+z
1/2+x,1/2-y,1/2+z
loop_
_atom_site_type_symbol
_atom_site_label
_atom_site_fract_x
_atom_site_fract_y
_atom_site_fract_z
Si Si1 0.368153 0.304443 0.422980
Si Si2 0.586179 0.316174 0.264632
Si Si3 0.000000 0.500000 0.806601
Si Si4 0.223573 0.312387 0.076278
Si Si5 0.929423 0.641701 0.451922
Si Si6 0.198252 0.991540 0.720290
Si Si7 0.883729 0.379542 0.176864
O O1 0.481326 0.309759 0.375929
O O2 0.304865 0.256566 0.222263
O O3 0.144210 0.358633 0.247499
O O4 0.352827 0.232611 0.627145
O O5 0.664890 0.258856 0.416426
O O6 0.580158 0.251341 0.044809
O O7 0.614820 0.427643 0.207551
O O8 0.073328 0.434111 0.658107
O O9 0.063218 0.572589 0.961969
O O10 0.282362 0.413619 0.017841
O O11 0.965130 0.378879 0.359915
O O12 0.672777 0.584473 0.419159
O O13 0.292818 0.057083 0.744779
#
# Coordination Sequence:
#
# PCOD9347835 Si02
#       7
#     4   4   2   4   4   4   4
#     4  10  24  46  72 101 150 196 244 313 382 447
#     4  12  23  47  76 101 154 199 244 319 381 461
#     4  12  24  40  76 106 146 194 252 322 380 434
#     4  10  24  45  69 110 143 189 261 298 377 468
#     4  12  23  41  75 108 138 196 254 307 386 448
#     4  10  25  42  75 102 147 195 243 306 387 448
#     4  12  23  46  72 109 151 190 259 324 368 473
#
# _framework density 22.94585
#
# number of rings (size 3 to 8) (size 9 to 14) (size 15 to 20)
#    0.923    0.000    3.077    4.615    2.154    1.231 
#    0.000    1.538    6.769    0.000    0.000    0.000 
#    0.000    0.000    0.000    0.000    0.000    0.000 
#
# Total GULP energy -145094.401029 kJ/mol
# GULP energy per Si atom -5580.553886 kJ/mol
# Density = 2.289362 g / cm^3
# Si number density = 22.945850 Si / 1000 Ang^3
#
#
#
# Elastic Constant Matrix: (Units=GPa)
#
#
# Indices 1 2 3 4 5 6 
#
# 1 112.4871 23.4945 15.5194 0.0000 0.0000 0.0000
# 2 23.4945 127.8736 15.0254 0.0000 0.0000 0.0000
# 3 15.5194 15.0254 38.2499 0.0000 0.0000 0.0000
# 4 0.0000 0.0000 0.0000 32.2657 0.0000 0.0000
# 5 0.0000 0.0000 0.0000 0.0000 7.3636 0.0000
# 6 0.0000 0.0000 0.0000 0.0000 0.0000 41.4694
#
#
#
# Elastic Compliance Matrix: (Units=1/GPa)
#
#
# Indices 1 2 3 4 5 6 
#
# 1 0.009642 -0.001375 -0.003372 0.000000 0.000000 0.000000
# 2 -0.001375 0.008395 -0.002740 0.000000 0.000000 0.000000
# 3 -0.003372 -0.002740 0.028588 0.000000 0.000000 0.000000
# 4 0.000000 0.000000 0.000000 0.030993 0.000000 0.000000
# 5 0.000000 0.000000 0.000000 0.000000 0.135803 0.000000
# 6 0.000000 0.000000 0.000000 0.000000 0.000000 0.024114
#
#
# Mechanical properties :
#
#
# Convention : Reuss Voigt Hill
#
# Bulk Modulus (GPa) = 31.59418 42.96545 37.27981
# Shear Modulus (GPa) = 19.00707 31.19116 25.09912
#
# Velocity S-wave (km/s) = 2.88122 3.69092 3.31092
# Velocity P-wave (km/s) = 4.98673 6.07694 5.55863
#
# Compressibility (1/GPa) = 0.03165140
#
# Stress axis : x y z
#
# Youngs Moduli (GPa) = 103.70858 119.12080 34.97946
#
# Poissons Ratio (x) = 0.16384 0.11795
# Poissons Ratio (y) = 0.14264 0.09583
# Poissons Ratio (z) = 0.34970 0.32635
#
# Static dielectric constant tensor:
#      x y z
#    x 1.886280 0.000000 0.000000 
#    y 0.000000 1.897690 0.000000 
#    z 0.000000 0.000000 1.882170 
# 
# From -- ./inp_files/3268.got.cif
#   From: 2010.05.17/outbox.cif.g08.bks.cpg/sg34_2_cif.got.tgz:3268.got - 2010.06.03 17:23:11.
