data_PCOD9347154
_publ_section_title
;
Structure prediction by ZEFSAII (Michael W. Deem and Ramdas Pophale) SiO2 
 PCOD9347154
Probable space group: P N N 2
;
_chemical_formula_sum "Si O2"
_cell_formula_units_Z 30
_cell_length_a 8.967504
_cell_length_b 5.199955
_cell_length_c 31.261383
_cell_angle_alpha 90.000000
_cell_angle_beta 90.000000
_cell_angle_gamma 90.000000
_cell_volume 1457.737586
_symmetry_space_group_name_H-M "P N N 2"
_symmetry_group_IT_number 34
_symmetry_cell_setting 'orthorhombic'
loop_
_space_group_symop_operation_xyz
x,y,z
-x,-y,z
1/2-x,1/2+y,1/2+z
1/2+x,1/2-y,1/2+z
loop_
_atom_site_type_symbol
_atom_site_label
_atom_site_fract_x
_atom_site_fract_y
_atom_site_fract_z
Si Si1 0.819676 0.494843 0.087780
Si Si2 0.844246 0.904831 0.315793
Si Si3 0.177820 0.530995 0.730054
Si Si4 0.000000 0.500000 0.377107
Si Si5 0.240290 0.987041 0.937073
Si Si6 0.819700 0.474106 0.187390
Si Si7 0.159687 0.450012 0.891253
Si Si8 0.817896 0.999283 0.035461
O O1 0.781382 0.447975 0.137159
O O2 0.770201 0.256916 0.059298
O O3 0.000000 0.500000 0.087071
O O4 0.772634 0.758372 0.064903
O O5 0.727715 0.887338 0.277886
O O6 0.898573 0.666810 0.344879
O O7 0.773063 0.087278 0.351840
O O8 0.000000 0.000000 0.296274
O O9 0.241362 0.763686 0.701919
O O10 0.000000 0.500000 0.726993
O O11 0.257394 0.266744 0.714608
O O12 0.116160 0.604630 0.412573
O O13 0.211543 0.698924 0.919192
O O14 0.126683 0.205788 0.921220
O O15 0.246207 0.999053 0.987783
O O16 0.000000 0.500000 0.192236
O O17 0.000000 0.500000 0.869975
O O18 0.000000 0.000000 0.031606
#
# Coordination Sequence:
#
# PCOD9347154 Si02
#       8
#     4   4   4   2   4   4   4   4
#     4   9  19  35  62  92 125 157 210 267 323 382
#     4  11  23  42  64  90 125 172 223 266 328 383
#     4  12  27  43  68 100 137 173 220 283 338 409
#     4  10  24  42  62  88 128 178 216 284 306 398
#     4  11  22  37  60  86 129 166 217 258 329 368
#     4  11  23  45  71 102 131 176 223 274 339 406
#     4  11  22  37  58  88 124 165 208 267 323 377
#     4  10  18  32  57  93 125 162 206 267 318 383
#
# _framework density 20.579837000000001
#
# number of rings (size 3 to 8) (size 9 to 14) (size 15 to 20)
#    0.000    1.333    1.333    4.800    2.800    3.200 
#    0.000    2.667    8.800    0.000    0.000    0.000 
#    0.000    0.000    0.000    0.000    0.000    0.000 
#
# Total GULP energy -167210.929707 kJ/mol
# GULP energy per Si atom -5573.697657 kJ/mol
# Density = 2.053300 g / cm^3
# Si number density = 20.579837 Si / 1000 Ang^3
#
#
#
# Elastic Constant Matrix: (Units=GPa)
#
#
# Indices 1 2 3 4 5 6 
#
# 1 85.2065 24.0119 45.7684 0.0000 0.0000 0.0000
# 2 24.0119 105.5780 34.6412 0.0000 0.0000 0.0000
# 3 45.7684 34.6412 128.5142 0.0000 0.0000 0.0000
# 4 0.0000 0.0000 0.0000 36.2042 0.0000 0.0000
# 5 0.0000 0.0000 0.0000 0.0000 0.4763 0.0000
# 6 0.0000 0.0000 0.0000 0.0000 0.0000 18.1624
#
#
#
# Elastic Compliance Matrix: (Units=1/GPa)
#
#
# Indices 1 2 3 4 5 6 
#
# 1 0.014817 -0.001797 -0.004792 0.000000 0.000000 0.000000
# 2 -0.001797 0.010609 -0.002219 0.000000 0.000000 0.000000
# 3 -0.004792 -0.002219 0.010086 0.000000 0.000000 0.000000
# 4 0.000000 0.000000 0.000000 0.027621 0.000000 0.000000
# 5 0.000000 0.000000 0.000000 0.000000 2.099454 0.000000
# 6 0.000000 0.000000 0.000000 0.000000 0.000000 0.055059
#
#
# Mechanical properties :
#
#
# Convention : Reuss Voigt Hill
#
# Bulk Modulus (GPa) = 55.88660 58.68242 57.28451
# Shear Modulus (GPa) = 2.23092 25.29371 13.76232
#
# Velocity S-wave (km/s) = 1.04230 3.50959 2.58878
# Velocity P-wave (km/s) = 5.35383 6.70816 6.06889
#
# Compressibility (1/GPa) = 0.01789338
#
# Stress axis : x y z
#
# Youngs Moduli (GPa) = 67.49041 94.26228 99.14521
#
# Poissons Ratio (x) = 0.16943 0.47514
# Poissons Ratio (y) = 0.12131 0.22005
# Poissons Ratio (z) = 0.32344 0.20921
#
# Static dielectric constant tensor:
#      x y z
#    x 1.850800 0.000000 0.000000 
#    y 0.000000 1.857960 0.000000 
#    z 0.000000 0.000000 1.696560 
# 
# From -- ./inp_files/8685.got.cif
#   From: 2010.05.17/outbox.cif.g08.bks.cpg/sg34_5_cif.got.tgz:8685.got - 2010.06.03 17:23:11.
