data_PCOD9347254
_publ_section_title
;
Structure prediction by ZEFSAII (Michael W. Deem and Ramdas Pophale) SiO2 
 PCOD9347254
Probable space group: P N N 2
;
_chemical_formula_sum "Si O2"
_cell_formula_units_Z 30
_cell_length_a 11.825770
_cell_length_b 8.097692
_cell_length_c 12.796671
_cell_angle_alpha 90.000000
_cell_angle_beta 90.000000
_cell_angle_gamma 90.000000
_cell_volume 1225.427682
_symmetry_space_group_name_H-M "P N N 2"
_symmetry_group_IT_number 34
_symmetry_cell_setting 'orthorhombic'
loop_
_space_group_symop_operation_xyz
x,y,z
-x,-y,z
1/2-x,1/2+y,1/2+z
1/2+x,1/2-y,1/2+z
loop_
_atom_site_type_symbol
_atom_site_label
_atom_site_fract_x
_atom_site_fract_y
_atom_site_fract_z
Si Si1 0.343901 0.643262 0.914940
Si Si2 0.525378 0.696461 0.178392
Si Si3 0.000000 0.000000 0.002032
Si Si4 0.382019 0.088209 0.348845
Si Si5 0.230099 0.994928 0.868465
Si Si6 0.437809 0.178841 0.949526
Si Si7 0.292353 0.650867 0.153646
Si Si8 0.945201 0.329724 0.088044
O O1 0.251442 0.537425 0.848753
O O2 0.476966 0.685703 0.896440
O O3 0.289185 0.825881 0.903688
O O4 0.329123 0.593048 0.036915
O O5 0.500000 0.500000 0.180325
O O6 0.602144 0.758460 0.271583
O O7 0.396041 0.765761 0.187233
O O8 0.571303 0.761822 0.068957
O O9 0.110345 0.003402 0.927761
O O10 0.015602 0.164157 0.072056
O O11 0.405099 0.123955 0.470997
O O12 0.500000 0.000000 0.321376
O O13 0.314342 0.143270 0.904153
O O14 0.223230 0.017474 0.744071
O O15 0.500000 0.000000 0.946447
O O16 0.168701 0.725645 0.144686
O O17 0.000000 0.500000 0.131552
#
# Coordination Sequence:
#
# PCOD9347254 Si02
#       8
#     4   4   2   4   4   4   4   4
#     4   9  19  40  61  95 138 175 228 293 347 430
#     4  11  22  36  63  94 129 167 234 285 343 424
#     4  12  22  42  74  98 140 186 240 300 368 428
#     4  10  19  35  62  96 130 175 224 291 351 409
#     4  11  21  38  72  96 134 186 232 288 374 421
#     4   9  21  40  61  88 129 179 220 282 354 431
#     4  10  21  37  63  94 136 175 226 295 341 434
#     4  10  23  41  65  97 141 180 229 295 361 426
#
# _framework density 24.481249999999999
#
# number of rings (size 3 to 8) (size 9 to 14) (size 15 to 20)
#    0.000    1.867    2.667    2.000    1.867    2.667 
#    0.000    4.000    1.467    0.000    0.000    0.000 
#    0.000    0.000    0.000    0.000    0.000    0.000 
#
# Total GULP energy -167144.328217 kJ/mol
# GULP energy per Si atom -5571.477607 kJ/mol
# Density = 2.442553 g / cm^3
# Si number density = 24.481250 Si / 1000 Ang^3
#
#
#
# Elastic Constant Matrix: (Units=GPa)
#
#
# Indices 1 2 3 4 5 6 
#
# 1 131.9128 19.5872 35.3243 0.0000 0.0000 0.0000
# 2 19.5872 73.3339 24.2731 0.0000 0.0000 0.0000
# 3 35.3243 24.2731 56.1829 0.0000 0.0000 0.0000
# 4 0.0000 0.0000 0.0000 10.0024 0.0000 0.0000
# 5 0.0000 0.0000 0.0000 0.0000 40.3070 0.0000
# 6 0.0000 0.0000 0.0000 0.0000 0.0000 40.3261
#
#
#
# Elastic Compliance Matrix: (Units=1/GPa)
#
#
# Indices 1 2 3 4 5 6 
#
# 1 0.009140 -0.000629 -0.005475 0.000000 0.000000 0.000000
# 2 -0.000629 0.015955 -0.006498 0.000000 0.000000 0.000000
# 3 -0.005475 -0.006498 0.024049 0.000000 0.000000 0.000000
# 4 0.000000 0.000000 0.000000 0.099976 0.000000 0.000000
# 5 0.000000 0.000000 0.000000 0.000000 0.024810 0.000000
# 6 0.000000 0.000000 0.000000 0.000000 0.000000 0.024798
#
#
# Mechanical properties :
#
#
# Convention : Reuss Voigt Hill
#
# Bulk Modulus (GPa) = 41.77052 46.64432 44.20742
# Shear Modulus (GPa) = 21.55996 30.27675 25.91836
#
# Velocity S-wave (km/s) = 2.97083 3.52054 3.25730
# Velocity P-wave (km/s) = 5.37281 5.96825 5.67834
#
# Compressibility (1/GPa) = 0.02394033
#
# Stress axis : x y z
#
# Youngs Moduli (GPa) = 109.40526 62.67649 41.58253
#
# Poissons Ratio (x) = 0.03943 0.22767
# Poissons Ratio (y) = 0.06883 0.27018
# Poissons Ratio (z) = 0.59900 0.40724
#
# Static dielectric constant tensor:
#      x y z
#    x 2.090540 0.000000 0.000000 
#    y 0.000000 2.125080 0.000000 
#    z 0.000000 0.000000 1.903010 
# 
# From -- ./inp_files/6788.got.cif
#   From: 2010.05.17/outbox.cif.g08.bks.cpg/sg34_4_cif.got.tgz:6788.got - 2010.06.03 17:23:11.
