data_PCOD9347820
_publ_section_title
;
Structure prediction by ZEFSAII (Michael W. Deem and Ramdas Pophale) SiO2 
 PCOD9347820
Probable space group: P N N 2
;
_chemical_formula_sum "Si O2"
_cell_formula_units_Z 30
_cell_length_a 11.533770
_cell_length_b 15.168718
_cell_length_c 7.677735
_cell_angle_alpha 90.000000
_cell_angle_beta 90.000000
_cell_angle_gamma 90.000000
_cell_volume 1343.238968
_symmetry_space_group_name_H-M "P N N 2"
_symmetry_group_IT_number 34
_symmetry_cell_setting 'orthorhombic'
loop_
_space_group_symop_operation_xyz
x,y,z
-x,-y,z
1/2-x,1/2+y,1/2+z
1/2+x,1/2-y,1/2+z
loop_
_atom_site_type_symbol
_atom_site_label
_atom_site_fract_x
_atom_site_fract_y
_atom_site_fract_z
Si Si1 0.108596 0.443921 0.561110
Si Si2 0.097252 0.715344 0.939548
Si Si3 0.067939 0.410738 0.156284
Si Si4 0.000000 0.000000 0.725140
Si Si5 0.683765 0.568929 0.973982
Si Si6 0.744776 0.206675 0.222754
Si Si7 0.604940 0.346627 0.424469
Si Si8 0.257991 0.588177 0.724109
O O1 0.085164 0.412552 0.364745
O O2 0.139712 0.360243 0.678829
O O3 0.209559 0.516592 0.584256
O O4 0.000000 0.500000 0.626650
O O5 0.201659 0.759942 0.044594
O O6 0.016068 0.662760 0.076756
O O7 0.156919 0.652289 0.796440
O O8 0.011804 0.792908 0.882920
O O9 0.194591 0.409200 0.069160
O O10 0.000000 0.500000 0.110670
O O11 0.084949 0.058449 0.841108
O O12 0.921626 0.061743 0.604539
O O13 0.667739 0.645090 0.830853
O O14 0.698325 0.473834 0.880914
O O15 0.705551 0.290131 0.333685
O O16 0.641630 0.358231 0.625501
#
# Coordination Sequence:
#
# PCOD9347820 Si02
#       8
#     4   4   4   2   4   4   4   4
#     4  10  24  43  78 101 138 186 249 298 362 435
#     4  12  27  44  72 104 149 189 242 307 362 433
#     4  11  23  45  73 106 138 190 248 305 364 424
#     4  12  30  46  76 102 154 192 240 298 384 436
#     4  11  25  48  73 102 145 191 247 298 365 442
#     4  11  27  45  70 107 144 187 245 298 369 424
#     4  12  29  46  70 107 145 191 241 295 368 443
#     4  11  26  46  72 102 147 187 241 300 366 429
#
# _framework density 22.334074999999999
#
# number of rings (size 3 to 8) (size 9 to 14) (size 15 to 20)
#    0.000    0.800    2.667    2.400   16.800    1.067 
#    0.000    0.000    0.000    0.000    0.000    0.000 
#    0.000    0.000    0.000    0.000    0.000    0.000 
#
# Total GULP energy -167783.041069 kJ/mol
# GULP energy per Si atom -5592.768036 kJ/mol
# Density = 2.228324 g / cm^3
# Si number density = 22.334075 Si / 1000 Ang^3
#
#
#
# Elastic Constant Matrix: (Units=GPa)
#
#
# Indices 1 2 3 4 5 6 
#
# 1 68.7401 16.7105 30.2473 0.0000 0.0000 0.0000
# 2 16.7105 80.9877 31.8070 0.0000 0.0000 0.0000
# 3 30.2473 31.8070 73.3745 0.0000 0.0000 0.0000
# 4 0.0000 0.0000 0.0000 25.6143 0.0000 0.0000
# 5 0.0000 0.0000 0.0000 0.0000 38.2025 0.0000
# 6 0.0000 0.0000 0.0000 0.0000 0.0000 23.6023
#
#
#
# Elastic Compliance Matrix: (Units=1/GPa)
#
#
# Indices 1 2 3 4 5 6 
#
# 1 0.017832 -0.000955 -0.006937 0.000000 0.000000 0.000000
# 2 -0.000955 0.014932 -0.006079 0.000000 0.000000 0.000000
# 3 -0.006937 -0.006079 0.019124 0.000000 0.000000 0.000000
# 4 0.000000 0.000000 0.000000 0.039041 0.000000 0.000000
# 5 0.000000 0.000000 0.000000 0.000000 0.026176 0.000000
# 6 0.000000 0.000000 0.000000 0.000000 0.000000 0.042369
#
#
# Mechanical properties :
#
#
# Convention : Reuss Voigt Hill
#
# Bulk Modulus (GPa) = 41.76149 42.29246 42.02697
# Shear Modulus (GPa) = 25.58880 27.10633 26.34756
#
# Velocity S-wave (km/s) = 3.38853 3.48756 3.43841
# Velocity P-wave (km/s) = 5.83513 5.93253 5.88403
#
# Compressibility (1/GPa) = 0.02394551
#
# Stress axis : x y z
#
# Youngs Moduli (GPa) = 56.07846 66.96962 52.29124
#
# Poissons Ratio (x) = 0.06395 0.36275
# Poissons Ratio (y) = 0.05355 0.31789
# Poissons Ratio (z) = 0.38902 0.40713
#
# Static dielectric constant tensor:
#      x y z
#    x 1.814460 0.000000 0.000000 
#    y 0.000000 1.854600 0.000000 
#    z 0.000000 0.000000 1.826070 
# 
# From -- ./inp_files/3321.got.cif
#   From: 2010.05.17/outbox.cif.g08.bks.cpg/sg34_2_cif.got.tgz:3321.got - 2010.06.03 17:23:11.
