data_PCOD9347135
_publ_section_title
;
Structure prediction by ZEFSAII (Michael W. Deem and Ramdas Pophale) SiO2 
 PCOD9347135
Probable space group: P N N 2
;
_chemical_formula_sum "Si O2"
_cell_formula_units_Z 28
_cell_length_a 5.524775
_cell_length_b 12.727649
_cell_length_c 14.253647
_cell_angle_alpha 90.000000
_cell_angle_beta 90.000000
_cell_angle_gamma 90.000000
_cell_volume 1002.279355
_symmetry_space_group_name_H-M "P N N 2"
_symmetry_group_IT_number 34
_symmetry_cell_setting 'orthorhombic'
loop_
_space_group_symop_operation_xyz
x,y,z
-x,-y,z
1/2-x,1/2+y,1/2+z
1/2+x,1/2-y,1/2+z
loop_
_atom_site_type_symbol
_atom_site_label
_atom_site_fract_x
_atom_site_fract_y
_atom_site_fract_z
Si Si1 0.829498 0.876318 0.650020
Si Si2 0.303021 0.764114 0.813534
Si Si3 0.330041 0.609434 0.552668
Si Si4 0.746792 0.980059 0.350053
Si Si5 0.334040 0.839654 0.597637
Si Si6 0.703216 0.371694 0.355979
Si Si7 0.830787 0.620766 0.662907
O O1 0.593096 0.892283 0.588528
O O2 0.080660 0.898122 0.598679
O O3 0.789944 0.926355 0.753157
O O4 0.832754 0.748114 0.670496
O O5 0.262030 0.640185 0.818277
O O6 0.332816 0.797861 0.705778
O O7 0.061855 0.817545 0.854512
O O8 0.555434 0.799710 0.859041
O O9 0.325723 0.736048 0.534718
O O10 0.283805 0.560998 0.450493
O O11 0.094913 0.594718 0.618883
O O12 0.597557 0.594024 0.597710
O O13 0.276203 0.938620 0.261057
O O14 0.500000 0.000000 0.403728
O O15 0.000000 0.000000 0.398327
#
# Coordination Sequence:
#
# PCOD9347135 Si02
#       7
#     4   4   4   4   4   4   4
#     4   8  14  25  38  54  78 106 144 181 212 271
#     4  10  19  30  43  64  89 119 163 194 230 290
#     4  10  18  29  43  60  85 119 159 200 238 277
#     4  12  20  30  48  68  92 126 166 206 232 270
#     4   8  14  25  38  54  78 106 144 181 212 271
#     4  10  18  29  43  60  85 119 159 200 238 277
#     4  10  19  30  43  64  89 119 163 194 230 290
#
# _framework density 27.936325
#
# number of rings (size 3 to 8) (size 9 to 14) (size 15 to 20)
#    0.000    2.286    0.000    7.714    0.000    0.000 
#    0.000    0.000    0.000    0.000    0.000    0.000 
#    0.000    0.000    0.000    0.000    0.000 2237.143 
#
# Total GULP energy -156819.082180 kJ/mol
# GULP energy per Si atom -5600.681506 kJ/mol
# Density = 2.787274 g / cm^3
# Si number density = 27.936325 Si / 1000 Ang^3
#
#
#
# Elastic Constant Matrix: (Units=GPa)
#
#
# Indices 1 2 3 4 5 6 
#
# 1 324.1837 41.6822 49.1859 0.0000 0.0000 0.0000
# 2 41.6822 86.0474 5.5806 0.0000 0.0000 0.0000
# 3 49.1859 5.5806 132.2669 0.0000 0.0000 0.0000
# 4 0.0000 0.0000 0.0000 18.8778 0.0000 0.0000
# 5 0.0000 0.0000 0.0000 0.0000 1.6766 0.0000
# 6 0.0000 0.0000 0.0000 0.0000 0.0000 46.8607
#
#
#
# Elastic Compliance Matrix: (Units=1/GPa)
#
#
# Indices 1 2 3 4 5 6 
#
# 1 0.003477 -0.001605 -0.001225 0.000000 0.000000 0.000000
# 2 -0.001605 0.012394 0.000074 0.000000 0.000000 0.000000
# 3 -0.001225 0.000074 0.008013 0.000000 0.000000 0.000000
# 4 0.000000 0.000000 0.000000 0.052972 0.000000 0.000000
# 5 0.000000 0.000000 0.000000 0.000000 0.596432 0.000000
# 6 0.000000 0.000000 0.000000 0.000000 0.000000 0.021340
#
#
# Mechanical properties :
#
#
# Convention : Reuss Voigt Hill
#
# Bulk Modulus (GPa) = 54.43182 81.71059 68.07121
# Shear Modulus (GPa) = 7.07950 43.21964 25.14957
#
# Velocity S-wave (km/s) = 1.59363 3.93756 3.00367
# Velocity P-wave (km/s) = 4.78673 7.07000 6.03728
#
# Compressibility (1/GPa) = 0.01837161
#
# Stress axis : x y z
#
# Youngs Moduli (GPa) = 287.61215 80.68365 124.79739
#
# Poissons Ratio (x) = 0.12948 0.15291
# Poissons Ratio (y) = 0.46156 -0.00922
# Poissons Ratio (z) = 0.35240 -0.00596
#
# Static dielectric constant tensor:
#      x y z
#    x 2.205110 0.000000 0.000000 
#    y 0.000000 2.392670 0.000000 
#    z 0.000000 0.000000 2.113840 
# 
# From -- ./inp_files/7287.got.cif
#   From: 2010.05.17/outbox.cif.g08.bks.cpg/sg34_4_cif.got.tgz:7287.got - 2010.06.03 17:23:11.
