data_PCOD9347292
_publ_section_title
;
Structure prediction by ZEFSAII (Michael W. Deem and Ramdas Pophale) SiO2 
 PCOD9347292
Probable space group: P N N 2
;
_chemical_formula_sum "Si O2"
_cell_formula_units_Z 30
_cell_length_a 15.558667
_cell_length_b 4.989010
_cell_length_c 15.702224
_cell_angle_alpha 90.000000
_cell_angle_beta 90.000000
_cell_angle_gamma 90.000000
_cell_volume 1218.843453
_symmetry_space_group_name_H-M "P N N 2"
_symmetry_group_IT_number 34
_symmetry_cell_setting 'orthorhombic'
loop_
_space_group_symop_operation_xyz
x,y,z
-x,-y,z
1/2-x,1/2+y,1/2+z
1/2+x,1/2-y,1/2+z
loop_
_atom_site_type_symbol
_atom_site_label
_atom_site_fract_x
_atom_site_fract_y
_atom_site_fract_z
Si Si1 0.246527 0.901861 0.449780
Si Si2 0.500000 0.500000 0.574819
Si Si3 0.363469 0.655381 0.704657
Si Si4 0.202334 0.382791 0.746706
Si Si5 0.559709 0.764918 0.986386
Si Si6 0.857843 0.093762 0.958351
Si Si7 0.093854 0.895134 0.761232
Si Si8 0.587465 0.866191 0.794673
O O1 0.254988 0.874526 0.343879
O O2 0.157703 0.843162 0.500683
O O3 0.318375 0.693757 0.480096
O O4 0.279810 0.200052 0.463975
O O5 0.432761 0.665075 0.630808
O O6 0.562847 0.675472 0.517101
O O7 0.274816 0.504348 0.685410
O O8 0.405769 0.442024 0.770580
O O9 0.345161 0.937536 0.749506
O O10 0.122911 0.591899 0.745181
O O11 0.163084 0.099448 0.722799
O O12 0.500000 0.500000 0.980258
O O13 0.583479 0.895759 0.894893
O O14 0.500000 0.000000 0.029618
O O15 0.894671 0.076532 0.863064
O O16 0.000000 0.000000 0.735816
O O17 0.500000 0.000000 0.762646
#
# Coordination Sequence:
#
# PCOD9347292 Si02
#       8
#     4   2   4   4   4   4   4   4
#     4  10  21  37  58  82 120 158 204 268 297 357
#     4  12  26  44  60  90 130 182 208 234 304 394
#     4  12  23  36  55  84 126 164 206 240 292 386
#     4  10  21  33  56  87 117 153 198 251 325 348
#     4  11  21  32  58  88 122 153 203 254 329 380
#     4  10  23  38  58  82 117 164 215 244 299 358
#     4  10  19  38  60  85 112 150 202 268 305 359
#     4  11  20  33  48  80 118 166 196 226 297 366
#
# _framework density 24.613499000000001
#
# number of rings (size 3 to 8) (size 9 to 14) (size 15 to 20)
#    0.000    1.333    3.333    3.600    3.733    2.667 
#    0.000    0.000    0.000    0.000    0.000    9.333 
#    0.000    0.000    0.000    0.000    0.000    0.000 
#
# Total GULP energy -167386.230656 kJ/mol
# GULP energy per Si atom -5579.541022 kJ/mol
# Density = 2.455748 g / cm^3
# Si number density = 24.613499 Si / 1000 Ang^3
#
#
#
# Elastic Constant Matrix: (Units=GPa)
#
#
# Indices 1 2 3 4 5 6 
#
# 1 138.5374 7.7039 9.5033 0.0000 0.0000 0.0000
# 2 7.7039 83.3700 0.3613 0.0000 0.0000 0.0000
# 3 9.5033 0.3613 28.3053 0.0000 0.0000 0.0000
# 4 0.0000 0.0000 0.0000 -4.6569 0.0000 0.0000
# 5 0.0000 0.0000 0.0000 0.0000 35.3578 0.0000
# 6 0.0000 0.0000 0.0000 0.0000 0.0000 32.0815
#
#
#
# Elastic Compliance Matrix: (Units=1/GPa)
#
#
# Indices 1 2 3 4 5 6 
#
# 1 0.007426 -0.000675 -0.002485 0.000000 0.000000 0.000000
# 2 -0.000675 0.012057 0.000073 0.000000 0.000000 0.000000
# 3 -0.002485 0.000073 0.036162 0.000000 0.000000 0.000000
# 4 0.000000 0.000000 0.000000 -0.214735 0.000000 0.000000
# 5 0.000000 0.000000 0.000000 0.000000 0.028282 0.000000
# 6 0.000000 0.000000 0.000000 0.000000 0.000000 0.031171
#
#
# Mechanical properties :
#
#
# Convention : Reuss Voigt Hill
#
# Bulk Modulus (GPa) = 20.21390 31.70554 25.95972
# Shear Modulus (GPa) = -64.95873 28.06607 -18.44633
#
# Velocity S-wave (km/s) = -5.14284 3.38045 -2.74056
# Velocity P-wave (km/s) = 5.19949 5.30528 0.74540
#
# Compressibility (1/GPa) = 0.04947091
#
# Stress axis : x y z
#
# Youngs Moduli (GPa) = 134.65701 82.94061 27.65301
#
# Poissons Ratio (x) = 0.05602 0.06871
# Poissons Ratio (y) = 0.09096 -0.00201
# Poissons Ratio (z) = 0.33458 -0.00604
#
# Static dielectric constant tensor:
#      x y z
#    x 2.074790 0.000000 0.000000 
#    y 0.000000 1.936880 0.000000 
#    z 0.000000 0.000000 2.034530 
# 
# From -- ./inp_files/7788.got.cif
#   From: 2010.05.17/outbox.cif.g08.bks.cpg/sg34_4_cif.got.tgz:7788.got - 2010.06.03 17:23:11.
