data_PCOD9347575
_publ_section_title
;
Structure prediction by ZEFSAII (Michael W. Deem and Ramdas Pophale) SiO2 
 PCOD9347575
Probable space group: P N N 2
;
_chemical_formula_sum "Si O2"
_cell_formula_units_Z 32
_cell_length_a 12.876862
_cell_length_b 9.818348
_cell_length_c 10.905840
_cell_angle_alpha 90.000000
_cell_angle_beta 90.000000
_cell_angle_gamma 90.000000
_cell_volume 1378.820032
_symmetry_space_group_name_H-M "P N N 2"
_symmetry_group_IT_number 34
_symmetry_cell_setting 'orthorhombic'
loop_
_space_group_symop_operation_xyz
x,y,z
-x,-y,z
1/2-x,1/2+y,1/2+z
1/2+x,1/2-y,1/2+z
loop_
_atom_site_type_symbol
_atom_site_label
_atom_site_fract_x
_atom_site_fract_y
_atom_site_fract_z
Si Si1 0.688505 0.986004 0.977160
Si Si2 0.486754 0.162048 0.274587
Si Si3 0.964734 0.846134 0.256636
Si Si4 0.582564 0.264869 0.014577
Si Si5 0.221632 0.697462 0.690333
Si Si6 0.408464 0.103989 0.718497
Si Si7 0.407231 0.589338 0.381845
Si Si8 0.806515 0.000410 0.627956
O O1 0.625099 0.929253 0.860478
O O2 0.805233 0.935913 0.958564
O O3 0.669159 0.921324 0.109275
O O4 0.664935 0.145555 0.985215
O O5 0.524117 0.215990 0.138232
O O6 0.366082 0.204586 0.296190
O O7 0.558805 0.254949 0.362566
O O8 0.500000 0.000000 0.289791
O O9 0.983460 0.786202 0.393161
O O10 0.841604 0.825869 0.227119
O O11 0.043925 0.749550 0.184074
O O12 0.000000 0.000000 0.247237
O O13 0.633532 0.413430 0.028494
O O14 0.212497 0.839681 0.616938
O O15 0.303833 0.070595 0.647327
O O16 0.500000 0.000000 0.689514
O O17 0.500000 0.500000 0.433366
O O18 0.375299 0.526068 0.249747
#
# Coordination Sequence:
#
# PCOD9347575 Si02
#       8
#     4   4   4   4   4   4   4   4
#     4  11  24  40  68  95 129 173 220 263 329 399
#     4  11  23  41  70  95 131 167 219 270 324 388
#     4  12  28  41  67  99 135 172 222 281 327 392
#     4  11  24  42  66 102 126 175 218 271 326 393
#     4  12  24  43  64  99 130 172 219 273 328 390
#     4  11  21  45  67  89 127 177 216 264 335 391
#     4  10  21  41  65  94 126 172 208 266 329 386
#     4  10  23  41  68  93 130 167 220 269 328 391
#
# _framework density 23.20825
#
# number of rings (size 3 to 8) (size 9 to 14) (size 15 to 20)
#    0.000    1.000    5.000    1.500    5.250    1.500 
#    0.000    0.000    0.000    0.000    0.000    0.000 
#    0.000    0.000    0.000    0.000    0.000    0.000 
#
# Total GULP energy -178747.383168 kJ/mol
# GULP energy per Si atom -5585.855724 kJ/mol
# Density = 2.315543 g / cm^3
# Si number density = 23.208250 Si / 1000 Ang^3
#
#
#
# Elastic Constant Matrix: (Units=GPa)
#
#
# Indices 1 2 3 4 5 6 
#
# 1 126.9036 51.9777 -7.5982 0.0000 0.0000 0.0000
# 2 51.9777 174.7987 -6.7165 0.0000 0.0000 0.0000
# 3 -7.5982 -6.7165 17.9897 0.0000 0.0000 0.0000
# 4 0.0000 0.0000 0.0000 -26.5098 0.0000 0.0000
# 5 0.0000 0.0000 0.0000 0.0000 24.7619 0.0000
# 6 0.0000 0.0000 0.0000 0.0000 0.0000 38.9515
#
#
#
# Elastic Compliance Matrix: (Units=1/GPa)
#
#
# Indices 1 2 3 4 5 6 
#
# 1 0.009118 -0.002601 0.002880 0.000000 0.000000 0.000000
# 2 -0.002601 0.006546 0.001346 0.000000 0.000000 0.000000
# 3 0.002880 0.001346 0.057306 0.000000 0.000000 0.000000
# 4 0.000000 0.000000 0.000000 -0.037722 0.000000 0.000000
# 5 0.000000 0.000000 0.000000 0.000000 0.040385 0.000000
# 6 0.000000 0.000000 0.000000 0.000000 0.000000 0.025673
#
#
# Mechanical properties :
#
#
# Convention : Reuss Voigt Hill
#
# Bulk Modulus (GPa) = 13.11995 43.89088 28.50541
# Shear Modulus (GPa) = 40.49837 26.24267 33.37052
#
# Velocity S-wave (km/s) = 4.18185 3.36631 3.79604
# Velocity P-wave (km/s) = 5.38355 5.83628 5.61448
#
# Compressibility (1/GPa) = 0.07621983
#
# Stress axis : x y z
#
# Youngs Moduli (GPa) = 109.67847 152.76859 17.45010
#
# Poissons Ratio (x) = 0.39728 -0.05026
# Poissons Ratio (y) = 0.28522 -0.02348
# Poissons Ratio (z) = -0.31588 -0.20556
#
# Static dielectric constant tensor:
#      x y z
#    x 1.276030 0.000000 0.000000 
#    y 0.000000 1.964570 0.000000 
#    z 0.000000 0.000000 1.960750 
# 
# From -- ./inp_files/6826.got.cif
#   From: 2010.05.17/outbox.cif.g08.bks.cpg/sg34_4_cif.got.tgz:6826.got - 2010.06.03 17:23:11.
