data_PCOD9347450
_publ_section_title
;
Structure prediction by ZEFSAII (Michael W. Deem and Ramdas Pophale) SiO2 
 PCOD9347450
Probable space group: P N N 2
;
_chemical_formula_sum "Si O2"
_cell_formula_units_Z 30
_cell_length_a 5.996758
_cell_length_b 27.221385
_cell_length_c 8.726021
_cell_angle_alpha 90.000000
_cell_angle_beta 90.000000
_cell_angle_gamma 90.000000
_cell_volume 1424.436177
_symmetry_space_group_name_H-M "P N N 2"
_symmetry_group_IT_number 34
_symmetry_cell_setting 'orthorhombic'
loop_
_space_group_symop_operation_xyz
x,y,z
-x,-y,z
1/2-x,1/2+y,1/2+z
1/2+x,1/2-y,1/2+z
loop_
_atom_site_type_symbol
_atom_site_label
_atom_site_fract_x
_atom_site_fract_y
_atom_site_fract_z
Si Si1 0.290449 0.916550 0.220010
Si Si2 0.000000 0.000000 0.071274
Si Si3 0.434888 0.846823 0.799617
Si Si4 0.389592 0.842779 0.440542
Si Si5 0.165211 0.574004 0.486783
Si Si6 0.540417 0.657108 0.516637
Si Si7 0.562816 0.750459 0.954812
Si Si8 0.280531 0.208734 0.241388
O O1 0.288224 0.895460 0.391389
O O2 0.222347 0.867280 0.127861
O O3 0.113617 0.958487 0.177179
O O4 0.523354 0.932262 0.142838
O O5 0.195261 0.024139 0.968419
O O6 0.452554 0.843786 0.618110
O O7 0.503525 0.900966 0.861334
O O8 0.591070 0.803771 0.873057
O O9 0.183841 0.835622 0.862717
O O10 0.233425 0.794193 0.423177
O O11 0.593016 0.836192 0.320367
O O12 0.354248 0.615540 0.498458
O O13 0.417294 0.698493 0.617663
O O14 0.328615 0.734306 0.885729
O O15 0.553914 0.760304 0.135809
#
# Coordination Sequence:
#
# PCOD9347450 Si02
#       8
#     4   2   4   4   4   4   4   4
#     4  10  20  41  69 101 130 169 229 288 353 423
#     4  10  22  38  80 104 122 172 240 292 362 440
#     4  11  25  40  64  97 143 185 234 289 351 414
#     4  12  26  42  66 100 143 195 233 296 350 417
#     4  10  20  42  69  99 128 171 228 291 351 429
#     4  10  20  41  64  91 124 179 223 279 334 412
#     4  12  26  39  61  99 138 193 241 286 335 414
#     4  12  25  41  65  92 142 181 250 280 335 409
#
# _framework density 21.060964999999999
#
# number of rings (size 3 to 8) (size 9 to 14) (size 15 to 20)
#    0.000    1.067    5.333    1.200    3.733    1.067 
#    0.000    0.000    0.000   19.200    0.000    0.000 
#    0.000    0.000    0.000    0.000    0.000    0.000 
#
# Total GULP energy -167135.172747 kJ/mol
# GULP energy per Si atom -5571.172425 kJ/mol
# Density = 2.101303 g / cm^3
# Si number density = 21.060965 Si / 1000 Ang^3
#
#
#
# Elastic Constant Matrix: (Units=GPa)
#
#
# Indices 1 2 3 4 5 6 
#
# 1 69.4677 26.1200 47.4096 0.0000 0.0000 0.0000
# 2 26.1200 97.6105 33.2703 0.0000 0.0000 0.0000
# 3 47.4096 33.2703 116.9881 0.0000 0.0000 0.0000
# 4 0.0000 0.0000 0.0000 25.3452 0.0000 0.0000
# 5 0.0000 0.0000 0.0000 0.0000 27.8271 0.0000
# 6 0.0000 0.0000 0.0000 0.0000 0.0000 42.7498
#
#
#
# Elastic Compliance Matrix: (Units=1/GPa)
#
#
# Indices 1 2 3 4 5 6 
#
# 1 0.020643 -0.002959 -0.007524 0.000000 0.000000 0.000000
# 2 -0.002959 0.011769 -0.002148 0.000000 0.000000 0.000000
# 3 -0.007524 -0.002148 0.012208 0.000000 0.000000 0.000000
# 4 0.000000 0.000000 0.000000 0.039455 0.000000 0.000000
# 5 0.000000 0.000000 0.000000 0.000000 0.035936 0.000000
# 6 0.000000 0.000000 0.000000 0.000000 0.000000 0.023392
#
#
# Mechanical properties :
#
#
# Convention : Reuss Voigt Hill
#
# Bulk Modulus (GPa) = 51.65982 55.29625 53.47803
# Shear Modulus (GPa) = 28.55237 31.00217 29.77727
#
# Velocity S-wave (km/s) = 3.68598 3.84085 3.76421
# Velocity P-wave (km/s) = 6.53431 6.78099 6.65879
#
# Compressibility (1/GPa) = 0.01935740
#
# Stress axis : x y z
#
# Youngs Moduli (GPa) = 48.44315 84.97097 81.91546
#
# Poissons Ratio (x) = 0.25146 0.61632
# Poissons Ratio (y) = 0.14336 0.17592
# Poissons Ratio (z) = 0.36448 0.18249
#
# Static dielectric constant tensor:
#      x y z
#    x 1.856970 0.000000 0.000000 
#    y 0.000000 1.836900 0.000000 
#    z 0.000000 0.000000 1.762950 
# 
# From -- ./inp_files/2202.got.cif
#   From: 2010.05.17/outbox.cif.g08.bks.cpg/sg34_2_cif.got.tgz:2202.got - 2010.06.03 17:23:11.
