data_PCOD9347932
_publ_section_title
;
Structure prediction by ZEFSAII (Michael W. Deem and Ramdas Pophale) SiO2 
 PCOD9347932
Probable space group: P N N 2
;
_chemical_formula_sum "Si O2"
_cell_formula_units_Z 32
_cell_length_a 14.145350
_cell_length_b 9.771435
_cell_length_c 12.028883
_cell_angle_alpha 90.000000
_cell_angle_beta 90.000000
_cell_angle_gamma 90.000000
_cell_volume 1662.636636
_symmetry_space_group_name_H-M "P N N 2"
_symmetry_group_IT_number 34
_symmetry_cell_setting 'orthorhombic'
loop_
_space_group_symop_operation_xyz
x,y,z
-x,-y,z
1/2-x,1/2+y,1/2+z
1/2+x,1/2-y,1/2+z
loop_
_atom_site_type_symbol
_atom_site_label
_atom_site_fract_x
_atom_site_fract_y
_atom_site_fract_z
Si Si1 0.562814 0.136421 0.886050
Si Si2 0.268003 0.802766 0.307259
Si Si3 0.154613 0.449527 0.024777
Si Si4 0.443588 0.856992 0.143880
Si Si5 0.449188 0.357509 0.285469
Si Si6 0.254376 0.977534 0.763101
Si Si7 0.464387 0.212209 0.515475
Si Si8 0.444523 0.358009 0.745189
O O1 0.660108 0.093728 0.828229
O O2 0.504672 0.250883 0.819085
O O3 0.500000 0.000000 0.883798
O O4 0.578520 0.172526 0.015170
O O5 0.298087 0.864031 0.426170
O O6 0.348603 0.849433 0.218840
O O7 0.260373 0.636417 0.299968
O O8 0.163758 0.861580 0.284561
O O9 0.218527 0.471706 0.132861
O O10 0.115069 0.598233 0.989571
O O11 0.059519 0.365389 0.052864
O O12 0.515727 0.745740 0.192086
O O13 0.500000 0.000000 0.153301
O O14 0.500000 0.500000 0.266058
O O15 0.338968 0.390002 0.284558
O O16 0.480658 0.296338 0.403740
O O17 0.437530 0.305721 0.618634
O O18 0.500000 0.500000 0.749791
#
# Coordination Sequence:
#
# PCOD9347932 Si02
#       8
#     4   4   4   4   4   4   4   4
#     4  11  24  47  70  97 143 195 228 282 362 428
#     4  12  25  46  70 106 142 184 242 294 356 427
#     4  11  23  43  76  98 138 191 237 286 359 427
#     4  11  26  46  70  98 144 188 231 289 354 433
#     4  12  25  43  69 105 139 179 232 295 351 417
#     4  12  25  43  75 104 138 190 241 288 359 426
#     4  11  22  46  72  99 138 186 237 293 354 412
#     4  12  27  44  71 108 144 179 237 301 350 426
#
# _framework density 19.246538000000001
#
# number of rings (size 3 to 8) (size 9 to 14) (size 15 to 20)
#    0.000    0.500    6.250    1.125    3.500    3.500 
#    0.000    0.000    0.000    0.000    0.000    0.000 
#    0.000    0.000    0.000    0.000    0.000    0.000 
#
# Total GULP energy -178886.929210 kJ/mol
# GULP energy per Si atom -5590.216538 kJ/mol
# Density = 1.920273 g / cm^3
# Si number density = 19.246538 Si / 1000 Ang^3
#
#
#
# Elastic Constant Matrix: (Units=GPa)
#
#
# Indices 1 2 3 4 5 6 
#
# 1 124.3239 38.3117 32.9518 0.0000 0.0000 0.0000
# 2 38.3117 104.4371 56.5142 0.0000 0.0000 0.0000
# 3 32.9518 56.5142 123.5264 0.0000 0.0000 0.0000
# 4 0.0000 0.0000 0.0000 2.6230 0.0000 0.0000
# 5 0.0000 0.0000 0.0000 0.0000 44.2039 0.0000
# 6 0.0000 0.0000 0.0000 0.0000 0.0000 31.8651
#
#
#
# Elastic Compliance Matrix: (Units=1/GPa)
#
#
# Indices 1 2 3 4 5 6 
#
# 1 0.009203 -0.002721 -0.001210 0.000000 0.000000 0.000000
# 2 -0.002721 0.013530 -0.005464 0.000000 0.000000 0.000000
# 3 -0.001210 -0.005464 0.010918 0.000000 0.000000 0.000000
# 4 0.000000 0.000000 0.000000 0.381239 0.000000 0.000000
# 5 0.000000 0.000000 0.000000 0.000000 0.022622 0.000000
# 6 0.000000 0.000000 0.000000 0.000000 0.000000 0.031382
#
#
# Mechanical properties :
#
#
# Convention : Reuss Voigt Hill
#
# Bulk Modulus (GPa) = 67.29335 67.53810 67.41572
# Shear Modulus (GPa) = 10.14942 30.70572 20.42757
#
# Velocity S-wave (km/s) = 2.29887 3.99857 3.26139
# Velocity P-wave (km/s) = 6.48739 7.51567 7.02038
#
# Compressibility (1/GPa) = 0.01486031
#
# Stress axis : x y z
#
# Youngs Moduli (GPa) = 108.66295 73.90821 91.59057
#
# Poissons Ratio (x) = 0.20112 0.11082
# Poissons Ratio (y) = 0.29569 0.50048
# Poissons Ratio (z) = 0.13148 0.40386
#
# Static dielectric constant tensor:
#      x y z
#    x 1.557330 0.000000 0.000000 
#    y 0.000000 1.653780 0.000000 
#    z 0.000000 0.000000 1.664510 
# 
# From -- ./inp_files/5658.got.cif
#   From: 2010.05.17/outbox.cif.g08.bks.cpg/sg34_3_cif.got.tgz:5658.got - 2010.06.03 17:23:11.
