data_PCOD9347400
_publ_section_title
;
Structure prediction by ZEFSAII (Michael W. Deem and Ramdas Pophale) SiO2 
 PCOD9347400
Probable space group: P N N 2
;
_chemical_formula_sum "Si O2"
_cell_formula_units_Z 24
_cell_length_a 12.702945
_cell_length_b 8.496120
_cell_length_c 11.330975
_cell_angle_alpha 90.000000
_cell_angle_beta 90.000000
_cell_angle_gamma 90.000000
_cell_volume 1222.903919
_symmetry_space_group_name_H-M "P N N 2"
_symmetry_group_IT_number 34
_symmetry_cell_setting 'orthorhombic'
loop_
_space_group_symop_operation_xyz
x,y,z
-x,-y,z
1/2-x,1/2+y,1/2+z
1/2+x,1/2-y,1/2+z
loop_
_atom_site_type_symbol
_atom_site_label
_atom_site_fract_x
_atom_site_fract_y
_atom_site_fract_z
Si Si1 0.436707 0.844927 0.906140
Si Si2 0.375019 0.987843 0.430641
Si Si3 0.000000 0.000000 0.395541
Si Si4 0.115250 0.261218 0.146487
Si Si5 0.210339 0.967555 0.239248
Si Si6 0.699496 0.663643 0.482835
Si Si7 0.500000 0.500000 0.497100
O O1 0.474271 0.671728 0.953594
O O2 0.438682 0.829186 0.763394
O O3 0.500000 0.000000 0.943976
O O4 0.315340 0.872256 0.937999
O O5 0.329450 0.160157 0.451451
O O6 0.500000 0.000000 0.410745
O O7 0.354836 0.887833 0.548844
O O8 0.309620 0.924183 0.319190
O O9 0.895583 0.034621 0.317903
O O10 0.210070 0.147830 0.189916
O O11 0.035195 0.144802 0.079046
O O12 0.200234 0.862239 0.123646
O O13 0.605948 0.553279 0.432201
#
# Coordination Sequence:
#
# PCOD9347400 Si02
#       7
#     4   4   2   4   4   4   2
#     4  11  23  39  68  98 125 170 220 265 330 394
#     4  12  23  40  68  95 126 170 218 264 329 395
#     4  10  21  42  66  91 132 159 216 282 311 376
#     4  10  20  38  65  91 123 163 216 271 316 382
#     4  10  23  42  62  92 133 164 208 283 326 373
#     4  11  22  43  63  93 131 164 213 266 328 390
#     4  10  21  40  62  91 122 163 214 276 313 376
#
# _framework density 19.625418
#
# number of rings (size 3 to 8) (size 9 to 14) (size 15 to 20)
#    0.000    1.333    5.000    5.000    2.333    3.333 
#    0.000    0.000    0.000    1.000    0.000    0.000 
#    0.000    0.000    0.000    0.000    0.000    0.000 
#
# Total GULP energy -133831.807408 kJ/mol
# GULP energy per Si atom -5576.325309 kJ/mol
# Density = 1.958075 g / cm^3
# Si number density = 19.625418 Si / 1000 Ang^3
#
#
#
# Elastic Constant Matrix: (Units=GPa)
#
#
# Indices 1 2 3 4 5 6 
#
# 1 130.1150 53.0122 16.3985 0.0000 0.0000 0.0000
# 2 53.0122 84.4070 8.9811 0.0000 0.0000 0.0000
# 3 16.3985 8.9811 16.1231 0.0000 0.0000 0.0000
# 4 0.0000 0.0000 0.0000 9.8921 0.0000 0.0000
# 5 0.0000 0.0000 0.0000 0.0000 20.1374 0.0000
# 6 0.0000 0.0000 0.0000 0.0000 0.0000 30.1451
#
#
#
# Elastic Compliance Matrix: (Units=1/GPa)
#
#
# Indices 1 2 3 4 5 6 
#
# 1 0.011212 -0.006196 -0.007952 0.000000 0.000000 0.000000
# 2 -0.006196 0.016017 -0.002621 0.000000 0.000000 0.000000
# 3 -0.007952 -0.002621 0.071571 0.000000 0.000000 0.000000
# 4 0.000000 0.000000 0.000000 0.101091 0.000000 0.000000
# 5 0.000000 0.000000 0.000000 0.000000 0.049659 0.000000
# 6 0.000000 0.000000 0.000000 0.000000 0.000000 0.033173
#
#
# Mechanical properties :
#
#
# Convention : Reuss Voigt Hill
#
# Bulk Modulus (GPa) = 15.32264 43.04764 29.18514
# Shear Modulus (GPa) = 14.79226 22.18515 18.48871
#
# Velocity S-wave (km/s) = 2.74839 3.36583 3.07266
# Velocity P-wave (km/s) = 4.23037 6.08994 5.24325
#
# Compressibility (1/GPa) = 0.06526289
#
# Stress axis : x y z
#
# Youngs Moduli (GPa) = 89.19018 62.43223 13.97213
#
# Poissons Ratio (x) = 0.38680 0.11111
# Poissons Ratio (y) = 0.55259 0.03662
# Poissons Ratio (z) = 0.70928 0.16362
#
# Static dielectric constant tensor:
#      x y z
#    x 1.739040 0.000000 0.000000 
#    y 0.000000 1.750530 0.000000 
#    z 0.000000 0.000000 1.681830 
# 
# From -- ./inp_files/5346.got.cif
#   From: 2010.05.17/outbox.cif.g08.bks.cpg/sg34_3_cif.got.tgz:5346.got - 2010.06.03 17:23:11.
