data_PCOD9347440
_publ_section_title
;
Structure prediction by ZEFSAII (Michael W. Deem and Ramdas Pophale) SiO2 
 PCOD9347440
Probable space group: P N N 2
;
_chemical_formula_sum "Si O2"
_cell_formula_units_Z 24
_cell_length_a 7.532550
_cell_length_b 11.371690
_cell_length_c 11.363671
_cell_angle_alpha 90.000000
_cell_angle_beta 90.000000
_cell_angle_gamma 90.000000
_cell_volume 973.387325
_symmetry_space_group_name_H-M "P N N 2"
_symmetry_group_IT_number 34
_symmetry_cell_setting 'orthorhombic'
loop_
_space_group_symop_operation_xyz
x,y,z
-x,-y,z
1/2-x,1/2+y,1/2+z
1/2+x,1/2-y,1/2+z
loop_
_atom_site_type_symbol
_atom_site_label
_atom_site_fract_x
_atom_site_fract_y
_atom_site_fract_z
Si Si1 0.791978 0.158079 0.331320
Si Si2 0.782883 0.170963 0.809236
Si Si3 0.840431 0.770716 0.066830
Si Si4 0.781240 0.337142 0.136397
Si Si5 0.500000 0.500000 0.476444
Si Si6 0.311019 0.598228 0.891883
Si Si7 0.500000 0.000000 0.792663
O O1 0.747965 0.234568 0.444938
O O2 0.720644 0.229444 0.218908
O O3 0.005496 0.132782 0.326341
O O4 0.731013 0.025623 0.355782
O O5 0.769678 0.205330 0.671429
O O6 0.819771 0.298964 0.859294
O O7 0.909360 0.087549 0.883262
O O8 0.591460 0.113707 0.848870
O O9 0.877001 0.912840 0.056763
O O10 0.032840 0.711538 0.085633
O O11 0.838325 0.446890 0.217128
O O12 0.661170 0.386279 0.031751
#
# Coordination Sequence:
#
# PCOD9347440 Si02
#       7
#     4   4   4   4   2   4   2
#     4  11  25  43  71 102 141 186 237 287 362 418
#     4  11  24  42  71 102 140 184 235 291 358 416
#     4  11  25  43  71 104 135 189 236 289 359 420
#     4  11  22  44  68  99 143 182 234 294 347 424
#     4  12  26  44  74 106 148 186 240 294 356 424
#     4  11  23  43  70 104 138 184 232 293 354 425
#     4  10  20  40  68  90 138 184 224 280 352 410
#
# _framework density 24.656168000000001
#
# number of rings (size 3 to 8) (size 9 to 14) (size 15 to 20)
#    0.000    1.000    5.000    3.000    2.333    4.000 
#    0.000    0.000    0.000    0.000    0.000    0.000 
#    0.000    0.000    0.000    0.000    0.000    0.000 
#
# Total GULP energy -133849.193758 kJ/mol
# GULP energy per Si atom -5577.049740 kJ/mol
# Density = 2.460005 g / cm^3
# Si number density = 24.656168 Si / 1000 Ang^3
#
#
#
# Elastic Constant Matrix: (Units=GPa)
#
#
# Indices 1 2 3 4 5 6 
#
# 1 30.4703 20.0862 23.6886 0.0000 0.0000 0.0000
# 2 20.0862 199.7929 31.5937 0.0000 0.0000 0.0000
# 3 23.6886 31.5937 102.4771 0.0000 0.0000 0.0000
# 4 0.0000 0.0000 0.0000 10.4060 0.0000 0.0000
# 5 0.0000 0.0000 0.0000 0.0000 30.2817 0.0000
# 6 0.0000 0.0000 0.0000 0.0000 0.0000 35.7874
#
#
#
# Elastic Compliance Matrix: (Units=1/GPa)
#
#
# Indices 1 2 3 4 5 6 
#
# 1 0.041434 -0.002787 -0.008719 0.000000 0.000000 0.000000
# 2 -0.002787 0.005449 -0.001036 0.000000 0.000000 0.000000
# 3 -0.008719 -0.001036 0.012093 0.000000 0.000000 0.000000
# 4 0.000000 0.000000 0.000000 0.096099 0.000000 0.000000
# 5 0.000000 0.000000 0.000000 0.000000 0.033023 0.000000
# 6 0.000000 0.000000 0.000000 0.000000 0.000000 0.027943
#
#
# Mechanical properties :
#
#
# Convention : Reuss Voigt Hill
#
# Bulk Modulus (GPa) = 29.50408 53.71970 41.61189
# Shear Modulus (GPa) = 19.80814 32.45313 26.13064
#
# Velocity S-wave (km/s) = 2.83746 3.63192 3.25899
# Velocity P-wave (km/s) = 4.76729 6.27874 5.57448
#
# Compressibility (1/GPa) = 0.03389362
#
# Stress axis : x y z
#
# Youngs Moduli (GPa) = 24.13469 183.51482 82.69239
#
# Poissons Ratio (x) = 0.51144 0.72097
# Poissons Ratio (y) = 0.06726 0.08565
# Poissons Ratio (z) = 0.21042 0.19008
#
# Static dielectric constant tensor:
#      x y z
#    x 2.060630 0.000000 0.000000 
#    y 0.000000 2.035290 0.000000 
#    z 0.000000 0.000000 2.071140 
# 
# From -- ./inp_files/4956.got.cif
#   From: 2010.05.17/outbox.cif.g08.bks.cpg/sg34_3_cif.got.tgz:4956.got - 2010.06.03 17:23:11.
