data_PCOD9347199
_publ_section_title
;
Structure prediction by ZEFSAII (Michael W. Deem and Ramdas Pophale) SiO2 
 PCOD9347199
Probable space group: P N N 2
;
_chemical_formula_sum "Si O2"
_cell_formula_units_Z 32
_cell_length_a 11.417747
_cell_length_b 14.518774
_cell_length_c 9.676360
_cell_angle_alpha 90.000000
_cell_angle_beta 90.000000
_cell_angle_gamma 90.000000
_cell_volume 1604.066534
_symmetry_space_group_name_H-M "P N N 2"
_symmetry_group_IT_number 34
_symmetry_cell_setting 'orthorhombic'
loop_
_space_group_symop_operation_xyz
x,y,z
-x,-y,z
1/2-x,1/2+y,1/2+z
1/2+x,1/2-y,1/2+z
loop_
_atom_site_type_symbol
_atom_site_label
_atom_site_fract_x
_atom_site_fract_y
_atom_site_fract_z
Si Si1 0.070758 0.595477 0.393810
Si Si2 0.398517 0.068704 0.485073
Si Si3 0.025568 0.108275 0.533073
Si Si4 0.969429 0.710855 0.148935
Si Si5 0.076183 0.092726 0.225189
Si Si6 0.287081 0.540907 0.210353
Si Si7 0.162914 0.627306 0.693205
Si Si8 0.701154 0.666363 0.164818
O O1 0.197401 0.580280 0.322016
O O2 0.089651 0.621293 0.552849
O O3 0.000000 0.500000 0.384277
O O4 0.002664 0.669167 0.299236
O O5 0.439422 0.166204 0.544108
O O6 0.282055 0.037873 0.563581
O O7 0.389029 0.073044 0.322043
O O8 0.500000 0.000000 0.531178
O O9 0.084081 0.127084 0.385541
O O10 0.106412 0.109585 0.670821
O O11 0.901697 0.158675 0.550501
O O12 0.000000 0.000000 0.525237
O O13 0.978474 0.820323 0.147424
O O14 0.836023 0.678400 0.116839
O O15 0.208057 0.084450 0.170390
O O16 0.000000 0.000000 0.215714
O O17 0.312609 0.432796 0.241601
O O18 0.177682 0.734914 0.735561
#
# Coordination Sequence:
#
# PCOD9347199 Si02
#       8
#     4   4   4   4   4   4   4   4
#     4  11  21  40  62  88 123 162 202 257 310 363
#     4  11  20  38  63  90 117 154 213 251 291 369
#     4   9  18  33  62  87 117 155 206 246 302 363
#     4  10  20  38  67  88 119 165 211 245 304 369
#     4  10  21  40  59  88 132 162 197 260 318 366
#     4  10  18  38  63  88 113 162 205 248 302 363
#     4  11  24  38  59  92 128 155 206 249 317 365
#     4  10  19  38  60  89 118 162 197 252 295 369
#
# _framework density 19.949297000000001
#
# number of rings (size 3 to 8) (size 9 to 14) (size 15 to 20)
#    0.000    1.750    3.750    1.875    0.000    0.000 
#    6.750    0.625    5.500    0.000    0.000    0.000 
#    0.000    0.000    0.000    0.000    0.000    0.000 
#
# Total GULP energy -178275.624523 kJ/mol
# GULP energy per Si atom -5571.113266 kJ/mol
# Density = 1.990389 g / cm^3
# Si number density = 19.949297 Si / 1000 Ang^3
#
#
#
# Elastic Constant Matrix: (Units=GPa)
#
#
# Indices 1 2 3 4 5 6 
#
# 1 71.3555 26.5632 21.6339 0.0000 0.0000 0.0000
# 2 26.5632 92.9477 8.2124 0.0000 0.0000 0.0000
# 3 21.6339 8.2124 74.5906 0.0000 0.0000 0.0000
# 4 0.0000 0.0000 0.0000 13.3108 0.0000 0.0000
# 5 0.0000 0.0000 0.0000 0.0000 23.4159 0.0000
# 6 0.0000 0.0000 0.0000 0.0000 0.0000 17.3501
#
#
#
# Elastic Compliance Matrix: (Units=1/GPa)
#
#
# Indices 1 2 3 4 5 6 
#
# 1 0.017028 -0.004473 -0.004446 0.000000 0.000000 0.000000
# 2 -0.004473 0.012040 -0.000028 0.000000 0.000000 0.000000
# 3 -0.004446 -0.000028 0.014699 0.000000 0.000000 0.000000
# 4 0.000000 0.000000 0.000000 0.075127 0.000000 0.000000
# 5 0.000000 0.000000 0.000000 0.000000 0.042706 0.000000
# 6 0.000000 0.000000 0.000000 0.000000 0.000000 0.057637
#
#
# Mechanical properties :
#
#
# Convention : Reuss Voigt Hill
#
# Bulk Modulus (GPa) = 38.65306 39.07919 38.86613
# Shear Modulus (GPa) = 20.34549 22.98100 21.66325
#
# Velocity S-wave (km/s) = 3.19699 3.39775 3.29890
# Velocity P-wave (km/s) = 5.74851 5.91817 5.83396
#
# Compressibility (1/GPa) = 0.02587117
#
# Stress axis : x y z
#
# Youngs Moduli (GPa) = 58.72814 83.05880 68.03127
#
# Poissons Ratio (x) = 0.37156 0.30247
# Poissons Ratio (y) = 0.26272 0.00191
# Poissons Ratio (z) = 0.26111 0.00234
#
# Static dielectric constant tensor:
#      x y z
#    x 1.738450 0.000000 0.000000 
#    y 0.000000 1.719420 0.000000 
#    z 0.000000 0.000000 1.713220 
# 
# From -- ./inp_files/3363.got.cif
#   From: 2010.05.17/outbox.cif.g08.bks.cpg/sg34_2_cif.got.tgz:3363.got - 2010.06.03 17:23:11.
