data_PCOD9347214
_publ_section_title
;
Structure prediction by ZEFSAII (Michael W. Deem and Ramdas Pophale) SiO2 
 PCOD9347214
Probable space group: P N N 2
;
_chemical_formula_sum "Si O2"
_cell_formula_units_Z 18
_cell_length_a 4.686419
_cell_length_b 11.523383
_cell_length_c 12.119195
_cell_angle_alpha 90.000000
_cell_angle_beta 90.000000
_cell_angle_gamma 90.000000
_cell_volume 654.477748
_symmetry_space_group_name_H-M "P N N 2"
_symmetry_group_IT_number 34
_symmetry_cell_setting 'orthorhombic'
loop_
_space_group_symop_operation_xyz
x,y,z
-x,-y,z
1/2-x,1/2+y,1/2+z
1/2+x,1/2-y,1/2+z
loop_
_atom_site_type_symbol
_atom_site_label
_atom_site_fract_x
_atom_site_fract_y
_atom_site_fract_z
Si Si1 0.862784 0.887943 0.416130
Si Si2 0.334041 0.801875 0.753645
Si Si3 0.500000 0.500000 0.123398
Si Si4 0.859729 0.119136 0.098460
Si Si5 0.337845 0.165939 0.957129
O O1 0.698861 0.804808 0.329446
O O2 0.776749 0.939287 0.535633
O O3 0.119577 0.803281 0.452148
O O4 0.000000 0.000000 0.360227
O O5 0.534580 0.726429 0.671809
O O6 0.136108 0.895523 0.694217
O O7 0.534115 0.869704 0.840673
O O8 0.531611 0.125526 0.061618
O O9 0.018927 0.133239 0.980639
O O10 0.000000 0.000000 0.138184
#
# Coordination Sequence:
#
# PCOD9347214 Si02
#       5
#     4   4   2   4   4
#     4   8  18  41  67 105 153 189 258 312 363 479
#     4  10  21  42  78 104 154 200 255 306 411 439
#     4  10  18  42  76 106 160 196 256 330 392 456
#     4  12  24  47  72 108 151 201 250 326 376 468
#     4  10  25  43  69 110 152 185 269 306 379 473
#
# _framework density 27.502848
#
# number of rings (size 3 to 8) (size 9 to 14) (size 15 to 20)
#    2.000    0.000    2.222    1.333    1.556    1.778 
#    0.000    4.444    0.000    0.000    0.000    0.000 
#    0.000    0.000    0.000    0.000    0.000    0.000 
#
# Total GULP energy -100344.953609 kJ/mol
# GULP energy per Si atom -5574.719645 kJ/mol
# Density = 2.744025 g / cm^3
# Si number density = 27.502848 Si / 1000 Ang^3
#
#
#
# Elastic Constant Matrix: (Units=GPa)
#
#
# Indices 1 2 3 4 5 6 
#
# 1 74.2177 14.4270 34.5579 0.0000 0.0000 0.0000
# 2 14.4270 211.6585 69.8499 0.0000 0.0000 0.0000
# 3 34.5579 69.8499 175.5486 0.0000 0.0000 0.0000
# 4 0.0000 0.0000 0.0000 14.3565 0.0000 0.0000
# 5 0.0000 0.0000 0.0000 0.0000 86.9844 0.0000
# 6 0.0000 0.0000 0.0000 0.0000 0.0000 39.2165
#
#
#
# Elastic Compliance Matrix: (Units=1/GPa)
#
#
# Indices 1 2 3 4 5 6 
#
# 1 0.014834 -0.000055 -0.002898 0.000000 0.000000 0.000000
# 2 -0.000055 0.005439 -0.002153 0.000000 0.000000 0.000000
# 3 -0.002898 -0.002153 0.007124 0.000000 0.000000 0.000000
# 4 0.000000 0.000000 0.000000 0.069655 0.000000 0.000000
# 5 0.000000 0.000000 0.000000 0.000000 0.011496 0.000000
# 6 0.000000 0.000000 0.000000 0.000000 0.000000 0.025499
#
#
# Mechanical properties :
#
#
# Convention : Reuss Voigt Hill
#
# Bulk Modulus (GPa) = 58.19364 77.67714 67.93539
# Shear Modulus (GPa) = 33.33588 50.95082 42.14335
#
# Velocity S-wave (km/s) = 3.48528 4.30881 3.91874
# Velocity P-wave (km/s) = 6.11566 7.28417 6.72534
#
# Compressibility (1/GPa) = 0.01718401
#
# Stress axis : x y z
#
# Youngs Moduli (GPa) = 67.41223 183.85887 140.37392
#
# Poissons Ratio (x) = 0.01004 0.40687
# Poissons Ratio (y) = 0.00368 0.30228
# Poissons Ratio (z) = 0.19539 0.39592
#
# Static dielectric constant tensor:
#      x y z
#    x 2.100760 0.000000 0.000000 
#    y 0.000000 2.349770 0.000000 
#    z 0.000000 0.000000 2.252060 
# 
# From -- ./inp_files/4742.got.cif
#   From: 2010.05.17/outbox.cif.g08.bks.cpg/sg34_3_cif.got.tgz:4742.got - 2010.06.03 17:23:11.
