data_PCOD9347843
_publ_section_title
;
Structure prediction by ZEFSAII (Michael W. Deem and Ramdas Pophale) SiO2 
 PCOD9347843
Probable space group: P N N 2
;
_chemical_formula_sum "Si O2"
_cell_formula_units_Z 28
_cell_length_a 11.134332
_cell_length_b 21.283443
_cell_length_c 4.910159
_cell_angle_alpha 90.000000
_cell_angle_beta 90.000000
_cell_angle_gamma 90.000000
_cell_volume 1163.594359
_symmetry_space_group_name_H-M "P N N 2"
_symmetry_group_IT_number 34
_symmetry_cell_setting 'orthorhombic'
loop_
_space_group_symop_operation_xyz
x,y,z
-x,-y,z
1/2-x,1/2+y,1/2+z
1/2+x,1/2-y,1/2+z
loop_
_atom_site_type_symbol
_atom_site_label
_atom_site_fract_x
_atom_site_fract_y
_atom_site_fract_z
Si Si1 0.000000 0.500000 0.675470
Si Si2 0.046097 0.200862 0.006341
Si Si3 0.346548 0.834420 0.363097
Si Si4 0.500000 0.500000 0.976222
Si Si5 0.972623 0.627443 0.344919
Si Si6 0.727814 0.876782 0.920387
Si Si7 0.757897 0.456965 0.916197
Si Si8 0.073603 0.857002 0.534724
O O1 0.006909 0.439414 0.483776
O O2 0.124538 0.504853 0.838431
O O3 0.099799 0.270326 0.991659
O O4 0.153789 0.161702 0.872059
O O5 0.936943 0.186097 0.802508
O O6 0.010402 0.172979 0.298977
O O7 0.426128 0.881746 0.542939
O O8 0.209183 0.850993 0.422731
O O9 0.380748 0.837853 0.046855
O O10 0.628360 0.485346 0.835216
O O11 0.465949 0.430020 0.099526
O O12 0.104752 0.658104 0.346313
O O13 0.739732 0.938800 0.732824
O O14 0.727085 0.894113 0.237636
#
# Coordination Sequence:
#
# PCOD9347843 Si02
#       8
#     2   4   4   2   4   4   4   4
#     4  10  24  46  72 108 156 188 252 298 374 456
#     4  12  26  48  71 100 144 192 246 295 362 445
#     4  12  28  47  74 107 149 186 255 309 366 442
#     4  12  24  46  74 106 156 184 246 310 384 452
#     4  11  25  46  73 109 140 193 237 306 365 431
#     4  11  23  45  68 102 135 193 244 284 367 438
#     4  11  24  41  71 104 148 194 238 302 367 450
#     4  12  28  48  74 111 142 200 239 311 381 439
#
# _framework density 24.063369000000002
#
# number of rings (size 3 to 8) (size 9 to 14) (size 15 to 20)
#    0.000    0.571    2.857    4.286    4.000    9.714 
#    0.000    0.000    0.000    0.000    0.000    0.000 
#    0.000    0.000    0.000    0.000    0.000    0.000 
#
# Total GULP energy -156441.207296 kJ/mol
# GULP energy per Si atom -5587.185975 kJ/mol
# Density = 2.400860 g / cm^3
# Si number density = 24.063369 Si / 1000 Ang^3
#
#
#
# Elastic Constant Matrix: (Units=GPa)
#
#
# Indices 1 2 3 4 5 6 
#
# 1 153.2394 6.0379 4.1532 0.0000 0.0000 0.0000
# 2 6.0379 84.5871 11.6738 0.0000 0.0000 0.0000
# 3 4.1532 11.6738 91.2153 0.0000 0.0000 0.0000
# 4 0.0000 0.0000 0.0000 15.7206 0.0000 0.0000
# 5 0.0000 0.0000 0.0000 0.0000 33.9744 0.0000
# 6 0.0000 0.0000 0.0000 0.0000 0.0000 27.4995
#
#
#
# Elastic Compliance Matrix: (Units=1/GPa)
#
#
# Indices 1 2 3 4 5 6 
#
# 1 0.006549 -0.000434 -0.000243 0.000000 0.000000 0.000000
# 2 -0.000434 0.012063 -0.001524 0.000000 0.000000 0.000000
# 3 -0.000243 -0.001524 0.011169 0.000000 0.000000 0.000000
# 4 0.000000 0.000000 0.000000 0.063611 0.000000 0.000000
# 5 0.000000 0.000000 0.000000 0.000000 0.029434 0.000000
# 6 0.000000 0.000000 0.000000 0.000000 0.000000 0.036364
#
#
# Mechanical properties :
#
#
# Convention : Reuss Voigt Hill
#
# Bulk Modulus (GPa) = 39.40044 41.41910 40.40977
# Shear Modulus (GPa) = 29.06086 35.91737 32.48911
#
# Velocity S-wave (km/s) = 3.47894 3.86763 3.67842
# Velocity P-wave (km/s) = 5.70496 6.09874 5.90513
#
# Compressibility (1/GPa) = 0.02538043
#
# Stress axis : x y z
#
# Youngs Moduli (GPa) = 152.68543 82.89500 89.53206
#
# Poissons Ratio (x) = 0.03598 0.02173
# Poissons Ratio (y) = 0.06627 0.13646
# Poissons Ratio (z) = 0.03705 0.12634
#
# Static dielectric constant tensor:
#      x y z
#    x 1.951210 0.000000 0.000000 
#    y 0.000000 2.094500 0.000000 
#    z 0.000000 0.000000 1.865510 
# 
# From -- ./inp_files/1031.got.cif
#   From: 2010.05.17/outbox.cif.g08.bks.cpg/sg34_1_cif.got.tgz:1031.got - 2010.06.03 17:23:11.
