data_PCOD9347105
_publ_section_title
;
Structure prediction by ZEFSAII (Michael W. Deem and Ramdas Pophale) SiO2 
 PCOD9347105
Probable space group: P N N 2
;
_chemical_formula_sum "Si O2"
_cell_formula_units_Z 28
_cell_length_a 6.633944
_cell_length_b 29.203880
_cell_length_c 5.448933
_cell_angle_alpha 90.000000
_cell_angle_beta 90.000000
_cell_angle_gamma 90.000000
_cell_volume 1055.659412
_symmetry_space_group_name_H-M "P N N 2"
_symmetry_group_IT_number 34
_symmetry_cell_setting 'orthorhombic'
loop_
_space_group_symop_operation_xyz
x,y,z
-x,-y,z
1/2-x,1/2+y,1/2+z
1/2+x,1/2-y,1/2+z
loop_
_atom_site_type_symbol
_atom_site_label
_atom_site_fract_x
_atom_site_fract_y
_atom_site_fract_z
Si Si1 0.713729 0.072098 0.354070
Si Si2 0.626875 0.350291 0.219567
Si Si3 0.863818 0.444382 0.199626
Si Si4 0.947121 0.671469 0.723394
Si Si5 0.501883 0.782834 0.722552
Si Si6 0.431630 0.675494 0.717920
Si Si7 0.785171 0.037929 0.860858
O O1 0.495419 0.050927 0.448714
O O2 0.647257 0.122006 0.262722
O O3 0.833205 0.067405 0.616488
O O4 0.847203 0.048457 0.139280
O O5 0.767218 0.394798 0.214101
O O6 0.501832 0.348185 0.467786
O O7 0.773660 0.305118 0.222810
O O8 0.504044 0.346371 0.971835
O O9 0.711879 0.485090 0.270979
O O10 0.046104 0.449455 0.391484
O O11 0.900241 0.696968 0.468311
O O12 0.190270 0.667511 0.717465
O O13 0.905292 0.700771 0.967497
O O14 0.486789 0.728522 0.723675
#
# Coordination Sequence:
#
# PCOD9347105 Si02
#       7
#     4   4   4   4   4   4   4
#     4  10  16  28  36  55  80 106 138 162 190 229
#     4  10  19  30  42  59  83 111 139 174 202 241
#     4   9  18  24  39  52  83 103 141 159 192 229
#     4  10  18  30  44  58  84 110 140 173 203 241
#     4  10  18  29  43  59  75 106 145 176 206 241
#     4  10  18  29  43  58  77 104 146 176 206 240
#     4   9  18  21  38  55  74 106 141 158 179 237
#
# _framework density 26.523705
#
# number of rings (size 3 to 8) (size 9 to 14) (size 15 to 20)
#    0.857    1.429    2.857    3.429    4.000    0.000 
#    0.000    0.000    0.000    0.000    0.000    0.000 
#    0.000    0.000    0.000    0.000    0.000 1394.286 
#
# Total GULP energy -156482.338281 kJ/mol
# GULP energy per Si atom -5588.654939 kJ/mol
# Density = 2.646334 g / cm^3
# Si number density = 26.523705 Si / 1000 Ang^3
#
#
#
# Elastic Constant Matrix: (Units=GPa)
#
#
# Indices 1 2 3 4 5 6 
#
# 1 96.2196 22.7378 3.3004 0.0000 0.0000 0.0000
# 2 22.7378 151.8809 70.1478 0.0000 0.0000 0.0000
# 3 3.3004 70.1478 281.7110 0.0000 0.0000 0.0000
# 4 0.0000 0.0000 0.0000 37.9279 0.0000 0.0000
# 5 0.0000 0.0000 0.0000 0.0000 2.8251 0.0000
# 6 0.0000 0.0000 0.0000 0.0000 0.0000 33.4796
#
#
#
# Elastic Compliance Matrix: (Units=1/GPa)
#
#
# Indices 1 2 3 4 5 6 
#
# 1 0.010798 -0.001761 0.000312 0.000000 0.000000 0.000000
# 2 -0.001761 0.007727 -0.001903 0.000000 0.000000 0.000000
# 3 0.000312 -0.001903 0.004020 0.000000 0.000000 0.000000
# 4 0.000000 0.000000 0.000000 0.026366 0.000000 0.000000
# 5 0.000000 0.000000 0.000000 0.000000 0.353976 0.000000
# 6 0.000000 0.000000 0.000000 0.000000 0.000000 0.029869
#
#
# Mechanical properties :
#
#
# Convention : Reuss Voigt Hill
#
# Bulk Modulus (GPa) = 63.12804 80.24262 71.68533
# Shear Modulus (GPa) = 11.24252 43.75488 27.49870
#
# Velocity S-wave (km/s) = 2.06104 4.06600 3.22337
# Velocity P-wave (km/s) = 5.43287 7.23616 6.39836
#
# Compressibility (1/GPa) = 0.01584082
#
# Stress axis : x y z
#
# Youngs Moduli (GPa) = 92.60759 129.41987 248.75373
#
# Poissons Ratio (x) = 0.22786 -0.07759
# Poissons Ratio (y) = 0.16305 0.47348
# Poissons Ratio (z) = -0.02888 0.24634
#
# Static dielectric constant tensor:
#      x y z
#    x 2.115990 0.000000 0.000000 
#    y 0.000000 2.025320 0.000000 
#    z 0.000000 0.000000 2.134530 
# 
# From -- ./inp_files/1079.got.cif
#   From: 2010.05.17/outbox.cif.g08.bks.cpg/sg34_1_cif.got.tgz:1079.got - 2010.06.03 17:23:11.
