data_PCOD9347806
_publ_section_title
;
Structure prediction by ZEFSAII (Michael W. Deem and Ramdas Pophale) SiO2 
 PCOD9347806
Probable space group: P N N 2
;
_chemical_formula_sum "Si O2"
_cell_formula_units_Z 18
_cell_length_a 5.570454
_cell_length_b 9.765587
_cell_length_c 13.123843
_cell_angle_alpha 90.000000
_cell_angle_beta 90.000000
_cell_angle_gamma 90.000000
_cell_volume 713.920696
_symmetry_space_group_name_H-M "P N N 2"
_symmetry_group_IT_number 34
_symmetry_cell_setting 'orthorhombic'
loop_
_space_group_symop_operation_xyz
x,y,z
-x,-y,z
1/2-x,1/2+y,1/2+z
1/2+x,1/2-y,1/2+z
loop_
_atom_site_type_symbol
_atom_site_label
_atom_site_fract_x
_atom_site_fract_y
_atom_site_fract_z
Si Si1 0.586082 0.239098 0.623060
Si Si2 0.000000 0.500000 0.262596
Si Si3 0.861354 0.857678 0.907137
Si Si4 0.264956 0.575924 0.021926
Si Si5 0.823533 0.372512 0.802275
O O1 0.697150 0.280486 0.513488
O O2 0.310086 0.206073 0.590903
O O3 0.657514 0.351396 0.704688
O O4 0.646843 0.100037 0.687229
O O5 0.142193 0.598428 0.337212
O O6 0.016728 0.758161 0.835562
O O7 0.000000 0.000000 0.931755
O O8 0.500000 0.500000 0.060034
O O9 0.326293 0.611485 0.905869
O O10 0.000000 0.500000 0.010286
O O11 0.000000 0.500000 0.785559
#
# Coordination Sequence:
#
# PCOD9347806 Si02
#       5
#     4   2   4   4   4
#     4  11  25  47  79 119 163 228 279 359 448 513
#     4  12  26  50  78 118 170 226 280 364 448 516
#     4  11  26  50  77 121 167 217 295 358 427 541
#     4  10  23  46  76 116 163 217 284 339 425 527
#     4  10  24  48  81 123 170 223 287 365 442 525
#
# _framework density 25.212883999999999
#
# number of rings (size 3 to 8) (size 9 to 14) (size 15 to 20)
#    0.000    1.333    3.333    0.000    3.111   10.667 
#    0.000    0.000    0.000    0.000    0.000    0.000 
#    0.000    0.000    0.000    0.000    0.000    0.000 
#
# Total GULP energy -100488.078895 kJ/mol
# GULP energy per Si atom -5582.671050 kJ/mol
# Density = 2.515550 g / cm^3
# Si number density = 25.212884 Si / 1000 Ang^3
#
#
#
# Elastic Constant Matrix: (Units=GPa)
#
#
# Indices 1 2 3 4 5 6 
#
# 1 118.8179 62.2296 101.3795 0.0000 0.0000 0.0000
# 2 62.2296 145.4765 68.2506 0.0000 0.0000 0.0000
# 3 101.3795 68.2506 243.6292 0.0000 0.0000 0.0000
# 4 0.0000 0.0000 0.0000 -35.7099 0.0000 0.0000
# 5 0.0000 0.0000 0.0000 0.0000 -11.6306 0.0000
# 6 0.0000 0.0000 0.0000 0.0000 0.0000 62.7620
#
#
#
# Elastic Compliance Matrix: (Units=1/GPa)
#
#
# Indices 1 2 3 4 5 6 
#
# 1 0.014798 -0.003962 -0.005048 0.000000 0.000000 0.000000
# 2 -0.003962 0.008975 -0.000866 0.000000 0.000000 0.000000
# 3 -0.005048 -0.000866 0.006448 0.000000 0.000000 0.000000
# 4 0.000000 0.000000 0.000000 -0.028003 0.000000 0.000000
# 5 0.000000 0.000000 0.000000 0.000000 -0.085980 0.000000
# 6 0.000000 0.000000 0.000000 0.000000 0.000000 0.015933
#
#
# Mechanical properties :
#
#
# Convention : Reuss Voigt Hill
#
# Bulk Modulus (GPa) = 95.51258 107.96034 101.73646
# Shear Modulus (GPa) = -112.13626 21.48855 -45.32385
#
# Velocity S-wave (km/s) = -6.67625 2.92256 -4.24447
# Velocity P-wave (km/s) = 4.63304 7.36892 4.05190
#
# Compressibility (1/GPa) = 0.01046983
#
# Stress axis : x y z
#
# Youngs Moduli (GPa) = 67.57471 111.42284 155.09435
#
# Poissons Ratio (x) = 0.44145 0.78292
# Poissons Ratio (y) = 0.26773 0.13424
# Poissons Ratio (z) = 0.34112 0.09644
#
# Static dielectric constant tensor:
#      x y z
#    x 2.199240 0.000000 0.000000 
#    y 0.000000 2.284100 0.000000 
#    z 0.000000 0.000000 2.005840 
# 
# From -- ./inp_files/4279.got.cif
#   From: 2010.05.17/outbox.cif.g08.bks.cpg/sg34_3_cif.got.tgz:4279.got - 2010.06.03 17:23:11.
