data_PCOD9347022
_publ_section_title
;
Structure prediction by ZEFSAII (Michael W. Deem and Ramdas Pophale) SiO2 
 PCOD9347022
Probable space group: P N A 21
;
_chemical_formula_sum "Si O2"
_cell_formula_units_Z 20
_cell_length_a 9.402296
_cell_length_b 13.973278
_cell_length_c 5.213161
_cell_angle_alpha 90.000000
_cell_angle_beta 90.000000
_cell_angle_gamma 90.000000
_cell_volume 684.909762
_symmetry_space_group_name_H-M "P N A 21"
_symmetry_group_IT_number 33
_symmetry_cell_setting 'orthorhombic'
loop_
_space_group_symop_operation_xyz
x,y,z
-x,-y,1/2+z
1/2-x,1/2+y,1/2+z
1/2+x,1/2-y,z
loop_
_atom_site_type_symbol
_atom_site_label
_atom_site_fract_x
_atom_site_fract_y
_atom_site_fract_z
Si Si1 0.331142 0.517056 0.658320
Si Si2 0.392944 0.364532 0.248208
Si Si3 0.931836 0.533601 0.409047
Si Si4 0.022892 0.726124 0.132053
Si Si5 0.214931 0.213080 0.931387
O O1 0.322018 0.422596 0.484914
O O2 0.493023 0.553143 0.669717
O O3 0.235488 0.493484 0.907707
O O4 0.251720 0.610696 0.550296
O O5 0.493709 0.278654 0.364635
O O6 0.274315 0.303085 0.093610
O O7 0.986428 0.536042 0.702234
O O8 0.956572 0.629126 0.240245
O O9 0.190494 0.718193 0.174144
O O10 0.947396 0.794698 0.338585
#
# Coordination Sequence:
#
# PCOD9347022 Si02
#       5
#     4   4   4   4   4
#     4  12  28  50  82 117 169 217 287 350 440 514
#     4  12  30  52  79 122 166 223 282 365 432 529
#     4  12  29  49  82 121 164 219 284 354 423 513
#     4  12  28  48  80 115 164 222 280 353 429 512
#     4  12  27  51  77 117 163 219 281 352 432 512
#
# _framework density 29.200923
#
# number of rings (size 3 to 8) (size 9 to 14) (size 15 to 20)
#    0.000    0.000    4.000    3.600   14.000    0.000 
#    0.000    0.000    0.000    0.000    0.000    0.000 
#    0.000    0.000    0.000    0.000    0.000    0.000 
#
# Total GULP energy -111780.004277 kJ/mol
# GULP energy per Si atom -5589.000214 kJ/mol
# Density = 2.913446 g / cm^3
# Si number density = 29.200923 Si / 1000 Ang^3
#
#
#
# Elastic Constant Matrix: (Units=GPa)
#
#
# Indices 1 2 3 4 5 6 
#
# 1 109.6240 -6.7460 31.0427 0.0000 0.0000 0.0000
# 2 -6.7460 111.0366 -11.8296 0.0000 0.0000 0.0000
# 3 31.0427 -11.8296 93.0976 0.0000 0.0000 0.0000
# 4 0.0000 0.0000 0.0000 49.1864 0.0000 0.0000
# 5 0.0000 0.0000 0.0000 0.0000 40.4745 0.0000
# 6 0.0000 0.0000 0.0000 0.0000 0.0000 37.5608
#
#
#
# Elastic Compliance Matrix: (Units=1/GPa)
#
#
# Indices 1 2 3 4 5 6 
#
# 1 0.010081 0.000258 -0.003329 0.000000 0.000000 0.000000
# 2 0.000258 0.009136 0.001075 0.000000 0.000000 0.000000
# 3 -0.003329 0.001075 0.011988 0.000000 0.000000 0.000000
# 4 0.000000 0.000000 0.000000 0.020331 0.000000 0.000000
# 5 0.000000 0.000000 0.000000 0.000000 0.024707 0.000000
# 6 0.000000 0.000000 0.000000 0.000000 0.000000 0.026624
#
#
# Mechanical properties :
#
#
# Convention : Reuss Voigt Hill
#
# Bulk Modulus (GPa) = 36.74700 37.63250 37.18975
# Shear Modulus (GPa) = 43.13009 45.53041 44.33025
#
# Velocity S-wave (km/s) = 3.84736 3.95297 3.90052
# Velocity P-wave (km/s) = 5.68751 5.80948 5.74882
#
# Compressibility (1/GPa) = 0.02721310
#
# Stress axis : x y z
#
# Youngs Moduli (GPa) = 99.20142 109.45439 83.41767
#
# Poissons Ratio (x) = -0.02822 0.27766
# Poissons Ratio (y) = -0.02558 -0.08967
# Poissons Ratio (z) = 0.33019 -0.11766
#
# Static dielectric constant tensor:
#      x y z
#    x 2.379380 0.000000 0.000000 
#    y 0.000000 2.469330 0.000000 
#    z 0.000000 0.000000 2.515510 
# 
# From -- ./inp_files/376.got.cif
#   From: 2010.05.17/outbox.cif.g08.bks.cpg/sg33_1_cif.got.tgz:376.got - 2010.06.03 17:15:25.
