data_PCOD9347867
_publ_section_title
;
Structure prediction by ZEFSAII (Michael W. Deem and Ramdas Pophale) SiO2 
 PCOD9347867
Probable space group: P N N 2
;
_chemical_formula_sum "Si O2"
_cell_formula_units_Z 20
_cell_length_a 9.072702
_cell_length_b 17.564183
_cell_length_c 5.202519
_cell_angle_alpha 90.000000
_cell_angle_beta 90.000000
_cell_angle_gamma 90.000000
_cell_volume 829.045325
_symmetry_space_group_name_H-M "P N N 2"
_symmetry_group_IT_number 34
_symmetry_cell_setting 'orthorhombic'
loop_
_space_group_symop_operation_xyz
x,y,z
-x,-y,z
1/2-x,1/2+y,1/2+z
1/2+x,1/2-y,1/2+z
loop_
_atom_site_type_symbol
_atom_site_label
_atom_site_fract_x
_atom_site_fract_y
_atom_site_fract_z
Si Si1 0.159971 0.341493 0.529980
Si Si2 0.335721 0.660562 0.000001
Si Si3 0.165182 0.603218 0.495439
Si Si4 0.153322 0.469449 0.864921
Si Si5 0.096045 0.932454 0.716002
O O1 0.156730 0.251447 0.522214
O O2 0.154156 0.379510 0.812827
O O3 0.304041 0.377522 0.393133
O O4 0.001660 0.371788 0.434796
O O5 0.253207 0.628858 0.249302
O O6 0.494916 0.620252 0.030968
O O7 0.243248 0.642341 0.743189
O O8 0.166288 0.516017 0.596928
O O9 0.000000 0.500000 0.977497
O O10 0.293404 0.480649 0.038484
O O11 0.000000 0.000000 0.851006
#
# Coordination Sequence:
#
# PCOD9347867 Si02
#       5
#     4   4   4   4   4
#     4  11  28  45  78 110 158 207 255 328 401 472
#     4  12  28  48  79 117 158 197 264 327 397 465
#     4  11  27  52  75 108 156 208 256 317 396 478
#     4  10  25  47  75 110 151 212 259 317 391 476
#     4  12  26  47  81 116 158 208 271 330 390 478
#
# _framework density 24.124134999999999
#
# number of rings (size 3 to 8) (size 9 to 14) (size 15 to 20)
#    0.000    0.800    2.000    2.400   14.000    1.600 
#    0.000    0.000    0.000    0.000    0.000    0.000 
#    0.000    0.000    0.000    0.000    0.000    0.000 
#
# Total GULP energy -111845.511014 kJ/mol
# GULP energy per Si atom -5592.275551 kJ/mol
# Density = 2.406923 g / cm^3
# Si number density = 24.124135 Si / 1000 Ang^3
#
#
#
# Elastic Constant Matrix: (Units=GPa)
#
#
# Indices 1 2 3 4 5 6 
#
# 1 167.1679 64.3213 68.3461 0.0000 0.0000 0.0000
# 2 64.3213 199.2337 48.5566 0.0000 0.0000 0.0000
# 3 68.3461 48.5566 82.2701 0.0000 0.0000 0.0000
# 4 0.0000 0.0000 0.0000 66.6077 0.0000 0.0000
# 5 0.0000 0.0000 0.0000 0.0000 42.6388 0.0000
# 6 0.0000 0.0000 0.0000 0.0000 0.0000 8.7922
#
#
#
# Elastic Compliance Matrix: (Units=1/GPa)
#
#
# Indices 1 2 3 4 5 6 
#
# 1 0.009344 -0.001314 -0.006987 0.000000 0.000000 0.000000
# 2 -0.001314 0.006047 -0.002478 0.000000 0.000000 0.000000
# 3 -0.006987 -0.002478 0.019422 0.000000 0.000000 0.000000
# 4 0.000000 0.000000 0.000000 0.015013 0.000000 0.000000
# 5 0.000000 0.000000 0.000000 0.000000 0.023453 0.000000
# 6 0.000000 0.000000 0.000000 0.000000 0.000000 0.113738
#
#
# Mechanical properties :
#
#
# Convention : Reuss Voigt Hill
#
# Bulk Modulus (GPa) = 75.43746 90.12441 82.78093
# Shear Modulus (GPa) = 23.47484 41.43757 32.45620
#
# Velocity S-wave (km/s) = 3.12282 4.14899 3.67193
# Velocity P-wave (km/s) = 6.65891 7.77122 7.23647
#
# Compressibility (1/GPa) = 0.01325601
#
# Stress axis : x y z
#
# Youngs Moduli (GPa) = 107.01720 165.36468 51.48738
#
# Poissons Ratio (x) = 0.21726 0.35976
# Poissons Ratio (y) = 0.14060 0.12757
# Poissons Ratio (z) = 0.74777 0.40972
#
# Static dielectric constant tensor:
#      x y z
#    x 1.287890 0.000000 0.000000 
#    y 0.000000 0.604390 0.000000 
#    z 0.000000 0.000000 1.938620 
# 
# From -- ./inp_files/409.got.cif
#   From: 2010.05.17/outbox.cif.g08.bks.cpg/sg34_1_cif.got.tgz:409.got - 2010.06.03 17:23:11.
