data_PCOD9347574
_publ_section_title
;
Structure prediction by ZEFSAII (Michael W. Deem and Ramdas Pophale) SiO2 
 PCOD9347574
Probable space group: P N N 2
;
_chemical_formula_sum "Si O2"
_cell_formula_units_Z 32
_cell_length_a 7.816367
_cell_length_b 26.866198
_cell_length_c 6.866021
_cell_angle_alpha 90.000000
_cell_angle_beta 90.000000
_cell_angle_gamma 90.000000
_cell_volume 1441.837382
_symmetry_space_group_name_H-M "P N N 2"
_symmetry_group_IT_number 34
_symmetry_cell_setting 'orthorhombic'
loop_
_space_group_symop_operation_xyz
x,y,z
-x,-y,z
1/2-x,1/2+y,1/2+z
1/2+x,1/2-y,1/2+z
loop_
_atom_site_type_symbol
_atom_site_label
_atom_site_fract_x
_atom_site_fract_y
_atom_site_fract_z
Si Si1 0.317266 0.525511 0.888050
Si Si2 0.663770 0.075059 0.421528
Si Si3 0.593157 0.294621 0.648548
Si Si4 0.327650 0.698460 0.229765
Si Si5 0.029776 0.123578 0.465529
Si Si6 0.790584 0.715295 0.467306
Si Si7 0.425720 0.052648 0.055392
Si Si8 0.016559 0.635902 0.260225
O O1 0.500000 0.500000 0.865795
O O2 0.346706 0.576709 0.001086
O O3 0.242153 0.539661 0.678759
O O4 0.198077 0.482740 0.977177
O O5 0.559317 0.072439 0.220296
O O6 0.569709 0.105344 0.587646
O O7 0.846626 0.102070 0.405771
O O8 0.705022 0.299882 0.457568
O O9 0.592154 0.342231 0.788111
O O10 0.403504 0.289119 0.549531
O O11 0.669617 0.250686 0.781190
O O12 0.372456 0.752213 0.143462
O O13 0.147239 0.675094 0.160681
O O14 0.468806 0.659582 0.152766
O O15 0.880397 0.664681 0.398993
O O16 0.500000 0.000000 0.978270
O O17 0.395576 0.094700 0.897074
#
# Coordination Sequence:
#
# PCOD9347574 Si02
#       8
#     4   4   4   4   4   4   4   4
#     4   9  19  40  67  95 134 176 216 276 344 398
#     4  10  22  40  67  95 134 175 216 282 336 409
#     4  11  24  42  67  91 133 177 228 283 342 409
#     4  11  25  41  64  94 130 175 228 287 339 404
#     4  10  21  41  64  97 131 174 225 275 340 409
#     4  11  25  44  61  98 129 178 231 282 346 405
#     4  10  22  39  64  98 130 170 222 274 338 412
#     4  12  24  41  67  98 129 179 226 284 343 409
#
# _framework density 22.193902999999999
#
# number of rings (size 3 to 8) (size 9 to 14) (size 15 to 20)
#    0.000    1.500    1.250    3.000    1.750    5.500 
#    0.000    1.250    0.000    5.250    0.000    0.000 
#    0.000    0.000    0.000    0.000    0.000    0.000 
#
# Total GULP energy -178663.486291 kJ/mol
# GULP energy per Si atom -5583.233947 kJ/mol
# Density = 2.214339 g / cm^3
# Si number density = 22.193903 Si / 1000 Ang^3
#
#
#
# Elastic Constant Matrix: (Units=GPa)
#
#
# Indices 1 2 3 4 5 6 
#
# 1 59.7124 20.7718 5.8566 0.0000 0.0000 0.0000
# 2 20.7718 104.2799 43.4362 0.0000 0.0000 0.0000
# 3 5.8566 43.4362 96.5319 0.0000 0.0000 0.0000
# 4 0.0000 0.0000 0.0000 14.5068 0.0000 0.0000
# 5 0.0000 0.0000 0.0000 0.0000 29.0807 0.0000
# 6 0.0000 0.0000 0.0000 0.0000 0.0000 19.3518
#
#
#
# Elastic Compliance Matrix: (Units=1/GPa)
#
#
# Indices 1 2 3 4 5 6 
#
# 1 0.018026 -0.003858 0.000642 0.000000 0.000000 0.000000
# 2 -0.003858 0.012627 -0.005448 0.000000 0.000000 0.000000
# 3 0.000642 -0.005448 0.012772 0.000000 0.000000 0.000000
# 4 0.000000 0.000000 0.000000 0.068933 0.000000 0.000000
# 5 0.000000 0.000000 0.000000 0.000000 0.034387 0.000000
# 6 0.000000 0.000000 0.000000 0.000000 0.000000 0.051675
#
#
# Mechanical properties :
#
#
# Convention : Reuss Voigt Hill
#
# Bulk Modulus (GPa) = 38.31742 44.51704 41.41723
# Shear Modulus (GPa) = 22.27703 25.28517 23.78110
#
# Velocity S-wave (km/s) = 3.17163 3.37899 3.27695
# Velocity P-wave (km/s) = 5.54208 5.94350 5.74630
#
# Compressibility (1/GPa) = 0.02609779
#
# Stress axis : x y z
#
# Youngs Moduli (GPa) = 55.47517 79.19342 78.29866
#
# Poissons Ratio (x) = 0.30555 -0.05030
# Poissons Ratio (y) = 0.21404 0.42655
# Poissons Ratio (z) = -0.03564 0.43143
#
# Static dielectric constant tensor:
#      x y z
#    x 1.892910 0.000000 0.000000 
#    y 0.000000 1.848900 0.000000 
#    z 0.000000 0.000000 1.782200 
# 
# From -- ./inp_files/671.got.cif
#   From: 2010.05.17/outbox.cif.g08.bks.cpg/sg34_1_cif.got.tgz:671.got - 2010.06.03 17:23:11.
