data_PCOD9347406
_publ_section_title
;
Structure prediction by ZEFSAII (Michael W. Deem and Ramdas Pophale) SiO2 
 PCOD9347406
Probable space group: P N N 2
;
_chemical_formula_sum "Si O2"
_cell_formula_units_Z 24
_cell_length_a 9.739540
_cell_length_b 10.570032
_cell_length_c 9.447609
_cell_angle_alpha 90.000000
_cell_angle_beta 90.000000
_cell_angle_gamma 90.000000
_cell_volume 972.605361
_symmetry_space_group_name_H-M "P N N 2"
_symmetry_group_IT_number 34
_symmetry_cell_setting 'orthorhombic'
loop_
_space_group_symop_operation_xyz
x,y,z
-x,-y,z
1/2-x,1/2+y,1/2+z
1/2+x,1/2-y,1/2+z
loop_
_atom_site_type_symbol
_atom_site_label
_atom_site_fract_x
_atom_site_fract_y
_atom_site_fract_z
Si Si1 0.703248 0.021918 0.123520
Si Si2 0.138116 0.910738 0.655530
Si Si3 0.288553 0.102485 0.840348
Si Si4 0.155594 0.038798 0.398133
Si Si5 0.032384 0.286958 0.811642
Si Si6 0.659076 0.777042 0.562048
O O1 0.775695 0.943908 0.247596
O O2 0.596585 0.105877 0.213270
O O3 0.811310 0.127585 0.064298
O O4 0.655664 0.937431 0.992198
O O5 0.199634 0.918927 0.497450
O O6 0.082047 0.782591 0.716985
O O7 0.245559 0.973865 0.760479
O O8 0.000000 0.000000 0.651223
O O9 0.149696 0.185320 0.851940
O O10 0.372978 0.179384 0.722148
O O11 0.201882 0.154596 0.500647
O O12 0.000000 0.000000 0.367485
O O13 0.957431 0.323618 0.955927
#
# Coordination Sequence:
#
# PCOD9347406 Si02
#       6
#     4   4   4   4   4   4
#     4  11  22  38  69  99 135 176 226 282 346 409
#     4   8  15  35  63  86 121 166 216 273 319 395
#     4   9  19  37  67 102 126 177 229 276 338 420
#     4  10  22  39  64  93 129 171 231 280 341 411
#     4  10  20  38  69  96 140 176 226 280 350 404
#     4  10  22  42  67  97 132 178 231 280 344 415
#
# _framework density 24.675989000000001
#
# number of rings (size 3 to 8) (size 9 to 14) (size 15 to 20)
#    0.000    2.333    1.667    3.000    2.333    0.667 
#    6.000    0.000   18.333    0.000    0.000    0.000 
#    0.000    0.000    0.000    0.000    0.000    0.000 
#
# Total GULP energy -134069.837163 kJ/mol
# GULP energy per Si atom -5586.243215 kJ/mol
# Density = 2.461982 g / cm^3
# Si number density = 24.675989 Si / 1000 Ang^3
#
#
#
# Elastic Constant Matrix: (Units=GPa)
#
#
# Indices 1 2 3 4 5 6 
#
# 1 45.1481 17.9723 30.1357 0.0000 0.0000 0.0000
# 2 17.9723 53.2850 36.9256 0.0000 0.0000 0.0000
# 3 30.1357 36.9256 200.5260 0.0000 0.0000 0.0000
# 4 0.0000 0.0000 0.0000 40.5958 0.0000 0.0000
# 5 0.0000 0.0000 0.0000 0.0000 33.8287 0.0000
# 6 0.0000 0.0000 0.0000 0.0000 0.0000 26.1398
#
#
#
# Elastic Compliance Matrix: (Units=1/GPa)
#
#
# Indices 1 2 3 4 5 6 
#
# 1 0.026810 -0.007165 -0.002710 0.000000 0.000000 0.000000
# 2 -0.007165 0.023427 -0.003237 0.000000 0.000000 0.000000
# 3 -0.002710 -0.003237 0.005990 0.000000 0.000000 0.000000
# 4 0.000000 0.000000 0.000000 0.024633 0.000000 0.000000
# 5 0.000000 0.000000 0.000000 0.000000 0.029561 0.000000
# 6 0.000000 0.000000 0.000000 0.000000 0.000000 0.038256
#
#
# Mechanical properties :
#
#
# Convention : Reuss Voigt Hill
#
# Bulk Modulus (GPa) = 33.32923 52.11405 42.72164
# Shear Modulus (GPa) = 27.04138 34.37456 30.70797
#
# Velocity S-wave (km/s) = 3.31397 3.73639 3.53150
# Velocity P-wave (km/s) = 5.30841 6.30709 5.82917
#
# Compressibility (1/GPa) = 0.03000370
#
# Stress axis : x y z
#
# Youngs Moduli (GPa) = 37.29926 42.68592 166.93886
#
# Poissons Ratio (x) = 0.30584 0.45236
# Poissons Ratio (y) = 0.26725 0.54041
# Poissons Ratio (z) = 0.10107 0.13818
#
# Static dielectric constant tensor:
#      x y z
#    x 2.029330 0.000000 0.000000 
#    y 0.000000 2.004630 0.000000 
#    z 0.000000 0.000000 1.970620 
# 
# From -- ./inp_files/3161.got.cif
#   From: 2010.05.17/outbox.cif.g08.bks.cpg/sg34_2_cif.got.tgz:3161.got - 2010.06.03 17:23:11.
