data_PCOD9347418
_publ_section_title
;
Structure prediction by ZEFSAII (Michael W. Deem and Ramdas Pophale) SiO2 
 PCOD9347418
Probable space group: P N N 2
;
_chemical_formula_sum "Si O2"
_cell_formula_units_Z 32
_cell_length_a 12.281366
_cell_length_b 15.067860
_cell_length_c 7.233682
_cell_angle_alpha 90.000000
_cell_angle_beta 90.000000
_cell_angle_gamma 90.000000
_cell_volume 1338.621091
_symmetry_space_group_name_H-M "P N N 2"
_symmetry_group_IT_number 34
_symmetry_cell_setting 'orthorhombic'
loop_
_space_group_symop_operation_xyz
x,y,z
-x,-y,z
1/2-x,1/2+y,1/2+z
1/2+x,1/2-y,1/2+z
loop_
_atom_site_type_symbol
_atom_site_label
_atom_site_fract_x
_atom_site_fract_y
_atom_site_fract_z
Si Si1 0.787593 0.879247 0.423900
Si Si2 0.656251 0.754565 0.686503
Si Si3 0.120056 0.487425 0.866619
Si Si4 0.034504 0.865505 0.944102
Si Si5 0.152558 0.022130 0.802626
Si Si6 0.883937 0.525855 0.295419
Si Si7 0.384072 0.783169 0.300603
Si Si8 0.428963 0.779328 0.866573
O O1 0.697668 0.812043 0.511851
O O2 0.872047 0.814637 0.319030
O O3 0.720119 0.951111 0.307224
O O4 0.845201 0.929219 0.600931
O O5 0.617902 0.658023 0.609014
O O6 0.763627 0.757979 0.812804
O O7 0.551252 0.787604 0.794511
O O8 0.136339 0.383505 0.854156
O O9 0.000000 0.500000 0.785271
O O10 0.113347 0.508119 0.085217
O O11 0.105289 0.921373 0.794103
O O12 0.978995 0.770256 0.901928
O O13 0.926651 0.926863 0.943618
O O14 0.275375 0.016805 0.874025
O O15 0.870543 0.631965 0.296653
O O16 0.000000 0.500000 0.379252
O O17 0.419372 0.781375 0.086980
#
# Coordination Sequence:
#
# PCOD9347418 Si02
#       8
#     4   4   4   4   4   4   4   4
#     4  10  21  43  67  95 138 172 230 282 334 415
#     4  11  23  44  67  94 133 180 222 274 345 409
#     4  10  21  41  66  93 129 180 222 273 339 403
#     4  11  22  41  68  91 130 177 221 276 341 406
#     4  10  20  39  67  95 126 179 225 275 342 403
#     4  10  21  38  69  97 132 180 229 278 341 415
#     4  11  24  42  65  98 134 169 225 284 331 412
#     4  11  22  40  64  98 133 170 222 279 338 401
#
# _framework density 23.905194000000002
#
# number of rings (size 3 to 8) (size 9 to 14) (size 15 to 20)
#    0.000    1.500    2.500    5.250    0.000    2.500 
#    6.750    5.000    0.000    0.000    0.000    0.000 
#    0.000    0.000    0.000    0.000    0.000    0.000 
#
# Total GULP energy -178525.571667 kJ/mol
# GULP energy per Si atom -5578.924115 kJ/mol
# Density = 2.385078 g / cm^3
# Si number density = 23.905194 Si / 1000 Ang^3
#
#
#
# Elastic Constant Matrix: (Units=GPa)
#
#
# Indices 1 2 3 4 5 6 
#
# 1 142.8684 46.8807 26.3554 0.0000 0.0000 0.0000
# 2 46.8807 102.7070 -10.3536 0.0000 0.0000 0.0000
# 3 26.3554 -10.3536 51.6307 0.0000 0.0000 0.0000
# 4 0.0000 0.0000 0.0000 52.7948 0.0000 0.0000
# 5 0.0000 0.0000 0.0000 0.0000 7.5124 0.0000
# 6 0.0000 0.0000 0.0000 0.0000 0.0000 51.0549
#
#
#
# Elastic Compliance Matrix: (Units=1/GPa)
#
#
# Indices 1 2 3 4 5 6 
#
# 1 0.009768 -0.005064 -0.006002 0.000000 0.000000 0.000000
# 2 -0.005064 0.012562 0.005104 0.000000 0.000000 0.000000
# 3 -0.006002 0.005104 0.023455 0.000000 0.000000 0.000000
# 4 0.000000 0.000000 0.000000 0.018941 0.000000 0.000000
# 5 0.000000 0.000000 0.000000 0.000000 0.133112 0.000000
# 6 0.000000 0.000000 0.000000 0.000000 0.000000 0.019587
#
#
# Mechanical properties :
#
#
# Convention : Reuss Voigt Hill
#
# Bulk Modulus (GPa) = 29.53072 46.99679 38.26376
# Shear Modulus (GPa) = 20.77817 37.89399 29.33608
#
# Velocity S-wave (km/s) = 2.95140 3.98575 3.50692
# Velocity P-wave (km/s) = 4.89841 6.39405 5.69554
#
# Compressibility (1/GPa) = 0.03386304
#
# Stress axis : x y z
#
# Youngs Moduli (GPa) = 102.37284 79.60322 42.63397
#
# Poissons Ratio (x) = 0.40309 0.25588
# Poissons Ratio (y) = 0.51839 -0.21760
# Poissons Ratio (z) = 0.61441 -0.40629
#
# Static dielectric constant tensor:
#      x y z
#    x 1.930810 0.000000 0.000000 
#    y 0.000000 1.968290 0.000000 
#    z 0.000000 0.000000 1.922010 
# 
# From -- ./inp_files/3350.got.cif
#   From: 2010.05.17/outbox.cif.g08.bks.cpg/sg34_2_cif.got.tgz:3350.got - 2010.06.03 17:23:11.
