data_PCOD9347458
_publ_section_title
;
Structure prediction by ZEFSAII (Michael W. Deem and Ramdas Pophale) SiO2 
 PCOD9347458
Probable space group: P N N 2
;
_chemical_formula_sum "Si O2"
_cell_formula_units_Z 32
_cell_length_a 15.037190
_cell_length_b 11.671647
_cell_length_c 8.114977
_cell_angle_alpha 90.000000
_cell_angle_beta 90.000000
_cell_angle_gamma 90.000000
_cell_volume 1424.249661
_symmetry_space_group_name_H-M "P N N 2"
_symmetry_group_IT_number 34
_symmetry_cell_setting 'orthorhombic'
loop_
_space_group_symop_operation_xyz
x,y,z
-x,-y,z
1/2-x,1/2+y,1/2+z
1/2+x,1/2-y,1/2+z
loop_
_atom_site_type_symbol
_atom_site_label
_atom_site_fract_x
_atom_site_fract_y
_atom_site_fract_z
Si Si1 0.163077 0.722961 0.849500
Si Si2 0.005351 0.876897 0.251677
Si Si3 0.321751 0.608699 0.658728
Si Si4 0.475589 0.144100 0.570847
Si Si5 0.133795 0.812971 0.529570
Si Si6 0.771740 0.614536 0.578403
Si Si7 0.665805 0.186295 0.429436
Si Si8 0.409217 0.052680 0.913844
O O1 0.232323 0.653913 0.739799
O O2 0.120255 0.815798 0.725338
O O3 0.088550 0.638145 0.915679
O O4 0.221280 0.782796 0.989489
O O5 0.900883 0.855167 0.281603
O O6 0.034263 0.774980 0.134367
O O7 0.064966 0.879880 0.414235
O O8 0.000000 0.000000 0.166608
O O9 0.304444 0.475019 0.635069
O O10 0.338078 0.680349 0.490031
O O11 0.433219 0.074502 0.722308
O O12 0.421753 0.868595 0.514545
O O13 0.235815 0.849856 0.494562
O O14 0.116156 0.679386 0.477512
O O15 0.827466 0.659974 0.735455
O O16 0.833582 0.539908 0.455281
O O17 0.500000 0.000000 0.988386
#
# Coordination Sequence:
#
# PCOD9347458 Si02
#       8
#     4   4   4   4   4   4   4   4
#     4  11  24  41  66 100 132 179 228 285 345 414
#     4  10  20  41  70  93 129 183 222 276 346 407
#     4  10  23  44  64 100 136 173 226 284 344 412
#     4  10  24  43  68  99 141 175 228 294 344 413
#     4  10  22  45  64  97 141 172 228 287 340 412
#     4  12  24  42  73  97 137 186 233 284 356 418
#     4  10  22  42  69  96 136 183 225 281 348 417
#     4  11  25  42  68  98 138 179 226 285 353 418
#
# _framework density 22.467972
#
# number of rings (size 3 to 8) (size 9 to 14) (size 15 to 20)
#    0.000    1.500    2.500    3.000    8.750    1.000 
#    2.250    3.125    0.000    0.000    0.000    0.000 
#    0.000    0.000    0.000    0.000    0.000    0.000 
#
# Total GULP energy -178507.453974 kJ/mol
# GULP energy per Si atom -5578.357937 kJ/mol
# Density = 2.241683 g / cm^3
# Si number density = 22.467972 Si / 1000 Ang^3
#
#
#
# Elastic Constant Matrix: (Units=GPa)
#
#
# Indices 1 2 3 4 5 6 
#
# 1 138.8965 9.6966 49.0274 0.0000 0.0000 0.0000
# 2 9.6966 76.7603 30.6479 0.0000 0.0000 0.0000
# 3 49.0274 30.6479 115.7248 0.0000 0.0000 0.0000
# 4 0.0000 0.0000 0.0000 27.3427 0.0000 0.0000
# 5 0.0000 0.0000 0.0000 0.0000 39.5332 0.0000
# 6 0.0000 0.0000 0.0000 0.0000 0.0000 16.2573
#
#
#
# Elastic Compliance Matrix: (Units=1/GPa)
#
#
# Indices 1 2 3 4 5 6 
#
# 1 0.008477 0.000406 -0.003699 0.000000 0.000000 0.000000
# 2 0.000406 0.014587 -0.004035 0.000000 0.000000 0.000000
# 3 -0.003699 -0.004035 0.011277 0.000000 0.000000 0.000000
# 4 0.000000 0.000000 0.000000 0.036573 0.000000 0.000000
# 5 0.000000 0.000000 0.000000 0.000000 0.025295 0.000000
# 6 0.000000 0.000000 0.000000 0.000000 0.000000 0.061511
#
#
# Mechanical properties :
#
#
# Convention : Reuss Voigt Hill
#
# Bulk Modulus (GPa) = 50.79995 56.68060 53.74027
# Shear Modulus (GPa) = 27.94267 32.76062 30.35164
#
# Velocity S-wave (km/s) = 3.53039 3.82265 3.67943
# Velocity P-wave (km/s) = 6.26716 6.69071 6.48239
#
# Compressibility (1/GPa) = 0.01968506
#
# Stress axis : x y z
#
# Youngs Moduli (GPa) = 117.96835 68.55212 88.67709
#
# Poissons Ratio (x) = -0.02783 0.32800
# Poissons Ratio (y) = -0.04789 0.35783
# Poissons Ratio (z) = 0.43634 0.27663
#
# Static dielectric constant tensor:
#      x y z
#    x 1.918370 0.000000 0.000000 
#    y 0.000000 1.909090 0.000000 
#    z 0.000000 0.000000 1.847140 
# 
# From -- ./inp_files/3696.got.cif
#   From: 2010.05.17/outbox.cif.g08.bks.cpg/sg34_2_cif.got.tgz:3696.got - 2010.06.03 17:23:11.
