data_PCOD9347941
_publ_section_title
;
Structure prediction by ZEFSAII (Michael W. Deem and Ramdas Pophale) SiO2 
 PCOD9347941
Probable space group: P N N 2
;
_chemical_formula_sum "Si O2"
_cell_formula_units_Z 20
_cell_length_a 14.607254
_cell_length_b 4.989439
_cell_length_c 12.058585
_cell_angle_alpha 90.000000
_cell_angle_beta 90.000000
_cell_angle_gamma 90.000000
_cell_volume 878.853826
_symmetry_space_group_name_H-M "P N N 2"
_symmetry_group_IT_number 34
_symmetry_cell_setting 'orthorhombic'
loop_
_space_group_symop_operation_xyz
x,y,z
-x,-y,z
1/2-x,1/2+y,1/2+z
1/2+x,1/2-y,1/2+z
loop_
_atom_site_type_symbol
_atom_site_label
_atom_site_fract_x
_atom_site_fract_y
_atom_site_fract_z
Si Si1 0.169981 0.294339 0.605050
Si Si2 0.669981 0.294339 0.526475
Si Si3 0.316870 0.009613 0.741028
Si Si4 0.500000 0.500000 0.395984
Si Si5 0.000000 0.500000 0.735541
Si Si6 0.816870 0.009613 0.390497
O O1 0.250000 0.500000 0.565762
O O2 0.219225 0.116270 0.698342
O O3 0.086798 0.450315 0.657676
O O4 0.138705 0.100873 0.504277
O O5 0.586798 0.450315 0.473849
O O6 0.641232 0.750000 0.815762
O O7 0.638705 0.100873 0.627248
O O8 0.219225 0.383730 0.933183
O O9 0.306973 0.750000 0.815762
O O10 0.485140 0.250000 0.315762
#
# Coordination Sequence:
#
# PCOD9347941 Si02
#       6
#     4   4   4   2   2   4
#     4  11  26  45  76 108 155 196 253 308 389 457
#     4  11  26  45  76 108 155 196 253 308 389 457
#     4  11  23  41  76 105 145 204 249 297 380 452
#     4  12  32  46  76 118 152 192 264 326 382 450
#     4  12  32  46  76 118 152 192 264 326 382 450
#     4  11  23  41  76 105 145 204 249 297 380 452
#
# _framework density 22.756913000000001
#
# number of rings (size 3 to 8) (size 9 to 14) (size 15 to 20)
#    0.000    0.800    4.000    1.200   16.800    0.000 
#    0.000    0.000    8.800    0.000    0.000    0.000 
#    0.000    0.000    0.000    0.000    0.000    0.000 
#
# Total GULP energy -111947.793178 kJ/mol
# GULP energy per Si atom -5597.389659 kJ/mol
# Density = 2.270512 g / cm^3
# Si number density = 22.756913 Si / 1000 Ang^3
#
#
#
# Elastic Constant Matrix: (Units=GPa)
#
#
# Indices 1 2 3 4 5 6 
#
# 1 116.9883 51.2395 50.2696 0.0000 0.0000 0.0000
# 2 51.2395 189.9053 85.9808 0.0000 0.0000 0.0000
# 3 50.2696 85.9808 157.9282 0.0000 0.0000 0.0000
# 4 0.0000 0.0000 0.0000 63.7832 0.0000 0.0000
# 5 0.0000 0.0000 0.0000 0.0000 9.1977 0.0000
# 6 0.0000 0.0000 0.0000 0.0000 0.0000 21.8635
#
#
#
# Elastic Compliance Matrix: (Units=1/GPa)
#
#
# Indices 1 2 3 4 5 6 
#
# 1 0.010309 -0.001720 -0.002345 0.000000 0.000000 0.000000
# 2 -0.001720 0.007275 -0.003413 0.000000 0.000000 0.000000
# 3 -0.002345 -0.003413 0.008937 0.000000 0.000000 0.000000
# 4 0.000000 0.000000 0.000000 0.015678 0.000000 0.000000
# 5 0.000000 0.000000 0.000000 0.000000 0.108723 0.000000
# 6 0.000000 0.000000 0.000000 0.000000 0.000000 0.045738
#
#
# Mechanical properties :
#
#
# Convention : Reuss Voigt Hill
#
# Bulk Modulus (GPa) = 86.47289 93.31129 89.89209
# Shear Modulus (GPa) = 23.20489 37.45767 30.33128
#
# Velocity S-wave (km/s) = 3.19672 4.06148 3.65477
# Velocity P-wave (km/s) = 7.19071 7.94271 7.57605
#
# Compressibility (1/GPa) = 0.01156432
#
# Stress axis : x y z
#
# Youngs Moduli (GPa) = 97.00494 137.45213 111.89632
#
# Poissons Ratio (x) = 0.23638 0.26241
# Poissons Ratio (y) = 0.16682 0.38195
# Poissons Ratio (z) = 0.22748 0.46919
#
# Static dielectric constant tensor:
#      x y z
#    x 1.814310 0.000000 0.000000 
#    y 0.000000 1.799330 0.000000 
#    z 0.000000 0.000000 1.918820 
# 
# From -- ./inp_files/5586.got.cif
#   From: 2010.05.17/outbox.cif.g08.bks.cpg/sg34_3_cif.got.tgz:5586.got - 2010.06.03 17:23:11.
