data_PCOD9347824
_publ_section_title
;
Structure prediction by ZEFSAII (Michael W. Deem and Ramdas Pophale) SiO2 
 PCOD9347824
Probable space group: P N N 2
;
_chemical_formula_sum "Si O2"
_cell_formula_units_Z 20
_cell_length_a 18.032813
_cell_length_b 8.388746
_cell_length_c 4.940356
_cell_angle_alpha 90.000000
_cell_angle_beta 90.000000
_cell_angle_gamma 90.000000
_cell_volume 747.340931
_symmetry_space_group_name_H-M "P N N 2"
_symmetry_group_IT_number 34
_symmetry_cell_setting 'orthorhombic'
loop_
_space_group_symop_operation_xyz
x,y,z
-x,-y,z
1/2-x,1/2+y,1/2+z
1/2+x,1/2-y,1/2+z
loop_
_atom_site_type_symbol
_atom_site_label
_atom_site_fract_x
_atom_site_fract_y
_atom_site_fract_z
Si Si1 0.461490 0.255557 0.185570
Si Si2 0.202410 0.850796 0.157988
Si Si3 0.797561 0.669494 0.107307
Si Si4 0.109088 0.065830 0.850692
Si Si5 0.403951 0.084992 0.705040
O O1 0.410202 0.414201 0.158568
O O2 0.538652 0.322674 0.299862
O O3 0.427642 0.134358 0.404843
O O4 0.463416 0.156524 0.910380
O O5 0.253335 0.933657 0.383274
O O6 0.170328 0.685878 0.271393
O O7 0.128556 0.956084 0.108651
O O8 0.245259 0.821710 0.872668
O O9 0.822594 0.813751 0.905471
O O10 0.874258 0.593578 0.210964
#
# Coordination Sequence:
#
# PCOD9347824 Si02
#       5
#     4   4   4   4   4
#     4  10  24  44  68  93 133 180 229 276 332 415
#     4  11  23  41  66  99 134 175 224 278 342 417
#     4  12  24  40  67  99 136 173 219 284 346 404
#     4  10  24  44  69  97 130 182 231 274 339 418
#     4  11  23  42  64  97 133 173 223 284 341 398
#
# _framework density 26.761547
#
# number of rings (size 3 to 8) (size 9 to 14) (size 15 to 20)
#    0.000    1.200    0.000    6.000    0.000   13.600 
#    0.000    2.000    0.000    0.000    0.000    0.000 
#    0.000    0.000    0.000    0.000    0.000    0.000 
#
# Total GULP energy -111471.457554 kJ/mol
# GULP energy per Si atom -5573.572878 kJ/mol
# Density = 2.670064 g / cm^3
# Si number density = 26.761547 Si / 1000 Ang^3
#
#
#
# Elastic Constant Matrix: (Units=GPa)
#
#
# Indices 1 2 3 4 5 6 
#
# 1 122.9950 30.1093 55.5565 0.0000 0.0000 0.0000
# 2 30.1093 59.2493 12.6118 0.0000 0.0000 0.0000
# 3 55.5565 12.6118 144.8191 0.0000 0.0000 0.0000
# 4 0.0000 0.0000 0.0000 10.0284 0.0000 0.0000
# 5 0.0000 0.0000 0.0000 0.0000 20.3449 0.0000
# 6 0.0000 0.0000 0.0000 0.0000 0.0000 36.0303
#
#
#
# Elastic Compliance Matrix: (Units=1/GPa)
#
#
# Indices 1 2 3 4 5 6 
#
# 1 0.011025 -0.004791 -0.003812 0.000000 0.000000 0.000000
# 2 -0.004791 0.019279 0.000159 0.000000 0.000000 0.000000
# 3 -0.003812 0.000159 0.008354 0.000000 0.000000 0.000000
# 4 0.000000 0.000000 0.000000 0.099717 0.000000 0.000000
# 5 0.000000 0.000000 0.000000 0.000000 0.049152 0.000000
# 6 0.000000 0.000000 0.000000 0.000000 0.000000 0.027754
#
#
# Mechanical properties :
#
#
# Convention : Reuss Voigt Hill
#
# Bulk Modulus (GPa) = 45.93705 58.17983 52.05844
# Shear Modulus (GPa) = 20.88320 28.53311 24.70815
#
# Velocity S-wave (km/s) = 2.79649 3.26881 3.04183
# Velocity P-wave (km/s) = 5.25640 6.00284 5.64198
#
# Compressibility (1/GPa) = 0.02176892
#
# Stress axis : x y z
#
# Youngs Moduli (GPa) = 90.69979 51.87030 119.70561
#
# Poissons Ratio (x) = 0.24853 0.45636
# Poissons Ratio (y) = 0.43458 -0.01905
# Poissons Ratio (z) = 0.34578 -0.00826
#
# Static dielectric constant tensor:
#      x y z
#    x 2.382820 0.000000 0.000000 
#    y 0.000000 2.310640 0.000000 
#    z 0.000000 0.000000 2.081230 
# 
# From -- ./inp_files/1397.got.cif
#   From: 2010.05.17/outbox.cif.g08.bks.cpg/sg34_1_cif.got.tgz:1397.got - 2010.06.03 17:23:11.
