data_PCOD9347661
_publ_section_title
;
Structure prediction by ZEFSAII (Michael W. Deem and Ramdas Pophale) SiO2 
 PCOD9347661
Probable space group: P N N 2
;
_chemical_formula_sum "Si O2"
_cell_formula_units_Z 32
_cell_length_a 15.003338
_cell_length_b 12.079702
_cell_length_c 8.542471
_cell_angle_alpha 90.000000
_cell_angle_beta 90.000000
_cell_angle_gamma 90.000000
_cell_volume 1548.202010
_symmetry_space_group_name_H-M "P N N 2"
_symmetry_group_IT_number 34
_symmetry_cell_setting 'orthorhombic'
loop_
_space_group_symop_operation_xyz
x,y,z
-x,-y,z
1/2-x,1/2+y,1/2+z
1/2+x,1/2-y,1/2+z
loop_
_atom_site_type_symbol
_atom_site_label
_atom_site_fract_x
_atom_site_fract_y
_atom_site_fract_z
Si Si1 0.143987 0.735015 0.005150
Si Si2 0.327736 0.773708 0.133959
Si Si3 0.608283 0.996161 0.622638
Si Si4 0.866218 0.284564 0.647681
Si Si5 0.020185 0.131250 0.540931
Si Si6 0.563666 0.603462 0.732989
Si Si7 0.753087 0.132926 0.430389
Si Si8 0.395410 0.986943 0.975380
O O1 0.242602 0.779591 0.023872
O O2 0.130342 0.633437 0.121897
O O3 0.081443 0.830601 0.074415
O O4 0.136854 0.691161 0.830710
O O5 0.381657 0.663809 0.092468
O O6 0.294385 0.783278 0.310547
O O7 0.379547 0.885370 0.091656
O O8 0.500000 0.000000 0.591424
O O9 0.675851 0.052491 0.497469
O O10 0.632838 0.038094 0.796841
O O11 0.793879 0.200840 0.574966
O O12 0.861343 0.397554 0.548312
O O13 0.956080 0.211971 0.635548
O O14 0.996299 0.165860 0.362793
O O15 0.000000 0.000000 0.555663
O O16 0.500000 0.500000 0.698548
O O17 0.659764 0.586168 0.827859
O O18 0.500000 0.000000 0.961377
#
# Coordination Sequence:
#
# PCOD9347661 Si02
#       8
#     4   4   4   4   4   4   4   4
#     4  11  25  41  65  98 133 171 225 275 334 399
#     4  11  23  41  68  96 133 176 219 274 340 395
#     4  11  25  41  68  98 135 174 222 279 333 401
#     4  11  23  44  64  96 135 172 225 276 327 403
#     4  10  22  40  69  93 128 180 218 269 338 390
#     4   9  21  43  67  95 132 174 219 275 331 395
#     4  10  23  43  67  98 132 179 222 271 340 399
#     4  11  22  42  69  97 133 176 223 275 339 398
#
# _framework density 20.669139000000001
#
# number of rings (size 3 to 8) (size 9 to 14) (size 15 to 20)
#    0.000    1.500    1.250    3.750    8.750    1.500 
#    2.250    0.000    0.000    0.000    0.000    0.000 
#    0.000    0.000    0.000    0.000    0.000    0.000 
#
# Total GULP energy -178281.314172 kJ/mol
# GULP energy per Si atom -5571.291068 kJ/mol
# Density = 2.062210 g / cm^3
# Si number density = 20.669139 Si / 1000 Ang^3
#
#
#
# Elastic Constant Matrix: (Units=GPa)
#
#
# Indices 1 2 3 4 5 6 
#
# 1 63.3899 27.8099 30.6753 0.0000 0.0000 0.0000
# 2 27.8099 74.8494 13.9988 0.0000 0.0000 0.0000
# 3 30.6753 13.9988 79.1148 0.0000 0.0000 0.0000
# 4 0.0000 0.0000 0.0000 5.0698 0.0000 0.0000
# 5 0.0000 0.0000 0.0000 0.0000 -65.1210 0.0000
# 6 0.0000 0.0000 0.0000 0.0000 0.0000 29.0398
#
#
#
# Elastic Compliance Matrix: (Units=1/GPa)
#
#
# Indices 1 2 3 4 5 6 
#
# 1 0.022435 -0.006938 -0.007471 0.000000 0.000000 0.000000
# 2 -0.006938 0.015963 -0.000134 0.000000 0.000000 0.000000
# 3 -0.007471 -0.000134 0.015560 0.000000 0.000000 0.000000
# 4 0.000000 0.000000 0.000000 0.197247 0.000000 0.000000
# 5 0.000000 0.000000 0.000000 0.000000 -0.015356 0.000000
# 6 0.000000 0.000000 0.000000 0.000000 0.000000 0.034436
#
#
# Mechanical properties :
#
#
# Convention : Reuss Voigt Hill
#
# Bulk Modulus (GPa) = 40.20745 40.25801 40.23273
# Shear Modulus (GPa) = 16.25161 3.45571 9.85366
#
# Velocity S-wave (km/s) = 2.80710 1.29443 2.18579
# Velocity P-wave (km/s) = 5.47737 4.66409 5.08700
#
# Compressibility (1/GPa) = 0.02487102
#
# Stress axis : x y z
#
# Youngs Moduli (GPa) = 44.57415 62.64428 64.26595
#
# Poissons Ratio (x) = 0.43464 0.48012
# Poissons Ratio (y) = 0.30926 0.00864
# Poissons Ratio (z) = 0.33301 0.00842
#
# Static dielectric constant tensor:
#      x y z
#    x 1.776160 0.000000 0.000000 
#    y 0.000000 1.732620 0.000000 
#    z 0.000000 0.000000 1.750540 
# 
# From -- ./inp_files/3674.got.cif
#   From: 2010.05.17/outbox.cif.g08.bks.cpg/sg34_2_cif.got.tgz:3674.got - 2010.06.03 17:23:11.
