data_PCOD9347389
_publ_section_title
;
Structure prediction by ZEFSAII (Michael W. Deem and Ramdas Pophale) SiO2 
 PCOD9347389
Probable space group: P N N 2
;
_chemical_formula_sum "Si O2"
_cell_formula_units_Z 32
_cell_length_a 15.142076
_cell_length_b 8.770314
_cell_length_c 10.778825
_cell_angle_alpha 90.000000
_cell_angle_beta 90.000000
_cell_angle_gamma 90.000000
_cell_volume 1431.436164
_symmetry_space_group_name_H-M "P N N 2"
_symmetry_group_IT_number 34
_symmetry_cell_setting 'orthorhombic'
loop_
_space_group_symop_operation_xyz
x,y,z
-x,-y,z
1/2-x,1/2+y,1/2+z
1/2+x,1/2-y,1/2+z
loop_
_atom_site_type_symbol
_atom_site_label
_atom_site_fract_x
_atom_site_fract_y
_atom_site_fract_z
Si Si1 0.861543 0.723846 0.947880
Si Si2 0.791445 0.458437 0.847221
Si Si3 0.905863 0.000405 0.042936
Si Si4 0.238689 0.787709 0.159882
Si Si5 0.531126 0.823698 0.044441
Si Si6 0.353190 0.745532 0.927497
Si Si7 0.450869 0.278513 0.318499
Si Si8 0.691179 0.908780 0.869659
O O1 0.817119 0.561949 0.965380
O O2 0.789611 0.844717 0.893970
O O3 0.955284 0.718876 0.875030
O O4 0.882135 0.823615 0.066384
O O5 0.792659 0.591516 0.744664
O O6 0.695366 0.384958 0.850160
O O7 0.868536 0.336753 0.833718
O O8 0.924853 0.074608 0.903266
O O9 0.830993 0.108115 0.090697
O O10 0.000000 0.000000 0.107432
O O11 0.180898 0.665318 0.234954
O O12 0.307822 0.722439 0.062640
O O13 0.536929 0.722241 0.169258
O O14 0.500000 0.000000 0.075308
O O15 0.456961 0.755917 0.952223
O O16 0.623695 0.839812 0.971430
O O17 0.320998 0.910835 0.878089
#
# Coordination Sequence:
#
# PCOD9347389 Si02
#       8
#     4   4   4   4   4   4   4   4
#     4  10  20  38  59  94 129 167 217 274 332 389
#     4  11  22  37  67  96 133 173 221 273 334 415
#     4  10  22  40  65  91 135 179 218 278 346 400
#     4  11  22  42  64  92 139 171 214 280 340 404
#     4  10  21  38  68  97 131 173 227 290 340 392
#     4  11  22  44  64  98 133 175 226 279 335 399
#     4  11  20  39  69 100 123 172 230 281 334 399
#     4  10  21  40  67  93 133 176 220 277 345 405
#
# _framework density 22.355172
#
# number of rings (size 3 to 8) (size 9 to 14) (size 15 to 20)
#    0.000    1.500    2.500    4.125    0.000    1.000 
#    2.250   14.375    5.500    0.000    0.000    0.000 
#    0.000    0.000    0.000    0.000    0.000    0.000 
#
# Total GULP energy -178153.017470 kJ/mol
# GULP energy per Si atom -5567.281796 kJ/mol
# Density = 2.230429 g / cm^3
# Si number density = 22.355172 Si / 1000 Ang^3
#
#
#
# Elastic Constant Matrix: (Units=GPa)
#
#
# Indices 1 2 3 4 5 6 
#
# 1 92.5699 27.2175 2.1145 0.0000 0.0000 0.0000
# 2 27.2175 63.6416 19.7101 0.0000 0.0000 0.0000
# 3 2.1145 19.7101 43.6719 0.0000 0.0000 0.0000
# 4 0.0000 0.0000 0.0000 -15.8002 0.0000 0.0000
# 5 0.0000 0.0000 0.0000 0.0000 37.3271 0.0000
# 6 0.0000 0.0000 0.0000 0.0000 0.0000 28.1949
#
#
#
# Elastic Compliance Matrix: (Units=1/GPa)
#
#
# Indices 1 2 3 4 5 6 
#
# 1 0.012521 -0.006006 0.002105 0.000000 0.000000 0.000000
# 2 -0.006006 0.021148 -0.009254 0.000000 0.000000 0.000000
# 3 0.002105 -0.009254 0.026973 0.000000 0.000000 0.000000
# 4 0.000000 0.000000 0.000000 -0.063290 0.000000 0.000000
# 5 0.000000 0.000000 0.000000 0.000000 0.026790 0.000000
# 6 0.000000 0.000000 0.000000 0.000000 0.000000 0.035467
#
#
# Mechanical properties :
#
#
# Convention : Reuss Voigt Hill
#
# Bulk Modulus (GPa) = 29.12913 33.10750 31.11832
# Shear Modulus (GPa) = 51.35466 20.00045 35.67755
#
# Velocity S-wave (km/s) = 4.79813 2.99434 3.99926
# Velocity P-wave (km/s) = 6.61472 5.17655 5.93933
#
# Compressibility (1/GPa) = 0.03432989
#
# Stress axis : x y z
#
# Youngs Moduli (GPa) = 79.86836 47.28651 37.07478
#
# Poissons Ratio (x) = 0.28403 -0.07803
# Poissons Ratio (y) = 0.47973 0.34308
# Poissons Ratio (z) = -0.16810 0.43757
#
# Static dielectric constant tensor:
#      x y z
#    x 1.841210 0.000000 0.000000 
#    y 0.000000 1.896450 0.000000 
#    z 0.000000 0.000000 2.118760 
# 
# From -- ./inp_files/5684.got.cif
#   From: 2010.05.17/outbox.cif.g08.bks.cpg/sg34_3_cif.got.tgz:5684.got - 2010.06.03 17:23:11.
