data_PCOD9347514
_publ_section_title
;
Structure prediction by ZEFSAII (Michael W. Deem and Ramdas Pophale) SiO2 
 PCOD9347514
Probable space group: P N N 2
;
_chemical_formula_sum "Si O2"
_cell_formula_units_Z 32
_cell_length_a 12.947403
_cell_length_b 15.537665
_cell_length_c 7.859085
_cell_angle_alpha 90.000000
_cell_angle_beta 90.000000
_cell_angle_gamma 90.000000
_cell_volume 1581.031073
_symmetry_space_group_name_H-M "P N N 2"
_symmetry_group_IT_number 34
_symmetry_cell_setting 'orthorhombic'
loop_
_space_group_symop_operation_xyz
x,y,z
-x,-y,z
1/2-x,1/2+y,1/2+z
1/2+x,1/2-y,1/2+z
loop_
_atom_site_type_symbol
_atom_site_label
_atom_site_fract_x
_atom_site_fract_y
_atom_site_fract_z
Si Si1 0.220532 0.853639 0.633220
Si Si2 0.000932 0.262189 0.307858
Si Si3 0.617088 0.012499 0.532923
Si Si4 0.645566 0.828862 0.107411
Si Si5 0.362773 0.174796 0.517972
Si Si6 0.711586 0.185063 0.962810
Si Si7 0.085833 0.927237 0.343951
Si Si8 0.200221 0.479797 0.666653
O O1 0.220698 0.753582 0.577444
O O2 0.202184 0.851265 0.833351
O O3 0.135971 0.904311 0.526144
O O4 0.324987 0.906966 0.610368
O O5 0.942662 0.308151 0.468415
O O6 0.962065 0.304509 0.132371
O O7 0.965200 0.163148 0.291021
O O8 0.120860 0.269663 0.356226
O O9 0.672842 0.921445 0.565277
O O10 0.626214 0.023075 0.330477
O O11 0.500000 0.000000 0.587979
O O12 0.618388 0.823914 0.312008
O O13 0.689623 0.925332 0.085926
O O14 0.273183 0.242650 0.565844
O O15 0.668949 0.101904 0.055527
O O16 0.183200 0.958806 0.230651
O O17 0.000000 0.000000 0.350784
#
# Coordination Sequence:
#
# PCOD9347514 Si02
#       8
#     4   4   4   4   4   4   4   4
#     4   9  21  40  60  92 127 161 212 268 321 382
#     4  11  23  40  67  97 128 175 220 266 333 397
#     4  10  21  37  62  89 121 169 209 259 328 393
#     4   9  22  41  64  91 132 167 217 268 319 397
#     4  10  22  42  61  90 133 163 212 271 322 386
#     4  11  23  39  65  93 133 167 212 278 325 386
#     4  10  22  42  69  90 124 175 222 262 327 399
#     4  10  22  40  63  91 130 165 211 270 323 380
#
# _framework density 20.239954999999998
#
# number of rings (size 3 to 8) (size 9 to 14) (size 15 to 20)
#    0.000    2.000    1.250    0.750   12.250    0.000 
#    0.000    0.625    0.000    0.000    0.000    0.000 
#    0.000    0.000    0.000    0.000    0.000    0.000 
#
# Total GULP energy -178285.964841 kJ/mol
# GULP energy per Si atom -5571.436401 kJ/mol
# Density = 2.019389 g / cm^3
# Si number density = 20.239955 Si / 1000 Ang^3
#
#
#
# Elastic Constant Matrix: (Units=GPa)
#
#
# Indices 1 2 3 4 5 6 
#
# 1 77.5594 34.0972 14.2073 0.0000 0.0000 0.0000
# 2 34.0972 139.5706 31.2341 0.0000 0.0000 0.0000
# 3 14.2073 31.2341 31.8924 0.0000 0.0000 0.0000
# 4 0.0000 0.0000 0.0000 28.8332 0.0000 0.0000
# 5 0.0000 0.0000 0.0000 0.0000 20.0435 0.0000
# 6 0.0000 0.0000 0.0000 0.0000 0.0000 37.5710
#
#
#
# Elastic Compliance Matrix: (Units=1/GPa)
#
#
# Indices 1 2 3 4 5 6 
#
# 1 0.014816 -0.002744 -0.003913 0.000000 0.000000 0.000000
# 2 -0.002744 0.009684 -0.008262 0.000000 0.000000 0.000000
# 3 -0.003913 -0.008262 0.041190 0.000000 0.000000 0.000000
# 4 0.000000 0.000000 0.000000 0.034682 0.000000 0.000000
# 5 0.000000 0.000000 0.000000 0.000000 0.049891 0.000000
# 6 0.000000 0.000000 0.000000 0.000000 0.000000 0.026616
#
#
# Mechanical properties :
#
#
# Convention : Reuss Voigt Hill
#
# Bulk Modulus (GPa) = 27.89188 45.34440 36.61814
# Shear Modulus (GPa) = 22.86563 28.58847 25.72705
#
# Velocity S-wave (km/s) = 3.36479 3.76237 3.56912
# Velocity P-wave (km/s) = 5.37645 6.42853 5.92588
#
# Compressibility (1/GPa) = 0.03585273
#
# Stress axis : x y z
#
# Youngs Moduli (GPa) = 67.49251 103.26231 24.27787
#
# Poissons Ratio (x) = 0.28335 0.09500
# Poissons Ratio (y) = 0.18520 0.20058
# Poissons Ratio (z) = 0.26410 0.85313
#
# Static dielectric constant tensor:
#      x y z
#    x 1.722950 0.000000 0.000000 
#    y 0.000000 1.755070 0.000000 
#    z 0.000000 0.000000 1.759950 
# 
# From -- ./inp_files/3354.got.cif
#   From: 2010.05.17/outbox.cif.g08.bks.cpg/sg34_2_cif.got.tgz:3354.got - 2010.06.03 17:23:11.
