data_PCOD9347342
_publ_section_title
;
Structure prediction by ZEFSAII (Michael W. Deem and Ramdas Pophale) SiO2 
 PCOD9347342
Probable space group: P N N 2
;
_chemical_formula_sum "Si O2"
_cell_formula_units_Z 28
_cell_length_a 19.580203
_cell_length_b 7.090181
_cell_length_c 9.375045
_cell_angle_alpha 90.000000
_cell_angle_beta 90.000000
_cell_angle_gamma 90.000000
_cell_volume 1301.511091
_symmetry_space_group_name_H-M "P N N 2"
_symmetry_group_IT_number 34
_symmetry_cell_setting 'orthorhombic'
loop_
_space_group_symop_operation_xyz
x,y,z
-x,-y,z
1/2-x,1/2+y,1/2+z
1/2+x,1/2-y,1/2+z
loop_
_atom_site_type_symbol
_atom_site_label
_atom_site_fract_x
_atom_site_fract_y
_atom_site_fract_z
Si Si1 0.578361 0.564405 0.136640
Si Si2 0.022298 0.783472 0.358532
Si Si3 0.377905 0.789506 0.965036
Si Si4 0.828569 0.272312 0.858705
Si Si5 0.796266 0.875043 0.200756
Si Si6 0.770348 0.424222 0.431252
Si Si7 0.641520 0.777608 0.671073
O O1 0.500000 0.500000 0.170397
O O2 0.611849 0.692753 0.257454
O O3 0.572849 0.684180 0.991390
O O4 0.619849 0.377865 0.083070
O O5 0.066002 0.694267 0.233321
O O6 0.956171 0.680116 0.420541
O O7 0.000000 0.000000 0.320236
O O8 0.342869 0.733778 0.814042
O O9 0.332050 0.964282 0.010909
O O10 0.773819 0.411467 0.787113
O O11 0.783628 0.083855 0.886747
O O12 0.851617 0.351128 0.011174
O O13 0.841420 0.055852 0.164090
O O14 0.767468 0.795343 0.049820
O O15 0.803454 0.345533 0.287560
#
# Coordination Sequence:
#
# PCOD9347342 Si02
#       7
#     4   4   4   4   4   4   4
#     4   9  18  36  60  83 111 149 190 234 285 348
#     4   9  17  34  62  76 109 147 190 231 272 345
#     4   9  19  37  59  85 109 148 191 233 284 344
#     4  10  23  35  56  83 113 147 186 241 285 338
#     4  10  20  35  54  82 112 145 185 233 283 340
#     4  10  23  34  56  83 112 146 189 232 290 340
#     4  11  21  36  55  85 108 150 190 233 288 337
#
# _framework density 21.513455
#
# number of rings (size 3 to 8) (size 9 to 14) (size 15 to 20)
#    0.000    2.571    2.857    0.857    6.000    2.286 
#    0.000    0.000    0.000    3.429    0.000    0.000 
#    0.000    0.000    0.000    0.000    0.000    0.000 
#
# Total GULP energy -155980.322947 kJ/mol
# GULP energy per Si atom -5570.725820 kJ/mol
# Density = 2.146449 g / cm^3
# Si number density = 21.513455 Si / 1000 Ang^3
#
#
#
# Elastic Constant Matrix: (Units=GPa)
#
#
# Indices 1 2 3 4 5 6 
#
# 1 64.5173 10.3694 23.8107 0.0000 0.0000 0.0000
# 2 10.3694 24.8533 2.7757 0.0000 0.0000 0.0000
# 3 23.8107 2.7757 90.0295 0.0000 0.0000 0.0000
# 4 0.0000 0.0000 0.0000 25.3783 0.0000 0.0000
# 5 0.0000 0.0000 0.0000 0.0000 24.9506 0.0000
# 6 0.0000 0.0000 0.0000 0.0000 0.0000 32.3276
#
#
#
# Elastic Compliance Matrix: (Units=1/GPa)
#
#
# Indices 1 2 3 4 5 6 
#
# 1 0.018358 -0.007142 -0.004635 0.000000 0.000000 0.000000
# 2 -0.007142 0.043154 0.000558 0.000000 0.000000 0.000000
# 3 -0.004635 0.000558 0.012316 0.000000 0.000000 0.000000
# 4 0.000000 0.000000 0.000000 0.039404 0.000000 0.000000
# 5 0.000000 0.000000 0.000000 0.000000 0.040079 0.000000
# 6 0.000000 0.000000 0.000000 0.000000 0.000000 0.030933
#
#
# Mechanical properties :
#
#
# Convention : Reuss Voigt Hill
#
# Bulk Modulus (GPa) = 19.45876 28.14574 23.80225
# Shear Modulus (GPa) = 22.34023 26.02758 24.18391
#
# Velocity S-wave (km/s) = 3.22596 3.48203 3.35644
# Velocity P-wave (km/s) = 4.78961 5.41085 5.10968
#
# Compressibility (1/GPa) = 0.05139073
#
# Stress axis : x y z
#
# Youngs Moduli (GPa) = 54.47155 23.17307 81.19431
#
# Poissons Ratio (x) = 0.16550 0.37635
# Poissons Ratio (y) = 0.38903 -0.04534
# Poissons Ratio (z) = 0.25248 -0.01294
#
# Static dielectric constant tensor:
#      x y z
#    x 1.803100 0.000000 0.000000 
#    y 0.000000 1.869800 0.000000 
#    z 0.000000 0.000000 1.825360 
# 
# From -- ./inp_files/2847.got.cif
#   From: 2010.05.17/outbox.cif.g08.bks.cpg/sg34_2_cif.got.tgz:2847.got - 2010.06.03 17:23:11.
