data_PCOD9347599
_publ_section_title
;
Structure prediction by ZEFSAII (Michael W. Deem and Ramdas Pophale) SiO2 
 PCOD9347599
Probable space group: P N N 2
;
_chemical_formula_sum "Si O2"
_cell_formula_units_Z 24
_cell_length_a 10.466805
_cell_length_b 9.139728
_cell_length_c 11.141099
_cell_angle_alpha 90.000000
_cell_angle_beta 90.000000
_cell_angle_gamma 90.000000
_cell_volume 1065.799318
_symmetry_space_group_name_H-M "P N N 2"
_symmetry_group_IT_number 34
_symmetry_cell_setting 'orthorhombic'
loop_
_space_group_symop_operation_xyz
x,y,z
-x,-y,z
1/2-x,1/2+y,1/2+z
1/2+x,1/2-y,1/2+z
loop_
_atom_site_type_symbol
_atom_site_label
_atom_site_fract_x
_atom_site_fract_y
_atom_site_fract_z
Si Si1 0.251796 0.964899 0.553000
Si Si2 0.916342 0.808321 0.032110
Si Si3 0.180937 0.910785 0.142527
Si Si4 0.089860 0.776832 0.387847
Si Si5 0.298521 0.757459 0.943760
Si Si6 0.718532 0.460052 0.323473
O O1 0.372914 0.857032 0.552807
O O2 0.138922 0.859454 0.505990
O O3 0.265513 0.100905 0.463578
O O4 0.218828 0.035174 0.680907
O O5 0.886764 0.866945 0.897322
O O6 0.059142 0.839150 0.073491
O O7 0.830767 0.917510 0.115083
O O8 0.153564 0.867811 0.278420
O O9 0.300610 0.840131 0.073945
O O10 0.151274 0.617349 0.370066
O O11 0.938458 0.768971 0.389856
O O12 0.222623 0.871853 0.862684
#
# Coordination Sequence:
#
# PCOD9347599 Si02
#       6
#     4   4   4   4   4   4
#     4  11  23  40  65 103 131 172 229 282 338 407
#     4   9  22  39  64  92 129 178 224 271 349 399
#     4  10  21  43  67  93 134 181 225 282 339 419
#     4  11  23  41  66  99 133 172 227 286 341 412
#     4  11  23  40  66 100 127 179 226 275 345 403
#     4  10  22  44  64  93 135 174 222 282 342 414
#
# _framework density 22.518311000000001
#
# number of rings (size 3 to 8) (size 9 to 14) (size 15 to 20)
#    0.000    1.667    1.667    2.000    7.000    0.667 
#   12.000    0.000    0.000    0.000    0.000    0.000 
#    0.000    0.000    0.000    0.000    0.000    0.000 
#
# Total GULP energy -134076.496715 kJ/mol
# GULP energy per Si atom -5586.520696 kJ/mol
# Density = 2.246706 g / cm^3
# Si number density = 22.518311 Si / 1000 Ang^3
#
#
#
# Elastic Constant Matrix: (Units=GPa)
#
#
# Indices 1 2 3 4 5 6 
#
# 1 17.4121 3.6181 12.1907 0.0000 0.0000 0.0000
# 2 3.6181 106.8907 20.4450 0.0000 0.0000 0.0000
# 3 12.1907 20.4450 92.3783 0.0000 0.0000 0.0000
# 4 0.0000 0.0000 0.0000 23.7920 0.0000 0.0000
# 5 0.0000 0.0000 0.0000 0.0000 21.1650 0.0000
# 6 0.0000 0.0000 0.0000 0.0000 0.0000 28.7090
#
#
#
# Elastic Compliance Matrix: (Units=1/GPa)
#
#
# Indices 1 2 3 4 5 6 
#
# 1 0.063311 -0.000569 -0.008229 0.000000 0.000000 0.000000
# 2 -0.000569 0.009774 -0.002088 0.000000 0.000000 0.000000
# 3 -0.008229 -0.002088 0.012373 0.000000 0.000000 0.000000
# 4 0.000000 0.000000 0.000000 0.042031 0.000000 0.000000
# 5 0.000000 0.000000 0.000000 0.000000 0.047248 0.000000
# 6 0.000000 0.000000 0.000000 0.000000 0.000000 0.034832
#
#
# Mechanical properties :
#
#
# Convention : Reuss Voigt Hill
#
# Bulk Modulus (GPa) = 15.70206 32.13207 23.91706
# Shear Modulus (GPa) = 19.79654 26.76169 23.27912
#
# Velocity S-wave (km/s) = 2.96823 3.45112 3.21874
# Velocity P-wave (km/s) = 4.32843 5.49368 4.94550
#
# Compressibility (1/GPa) = 0.06368591
#
# Stress axis : x y z
#
# Youngs Moduli (GPa) = 15.79511 102.31232 80.82048
#
# Poissons Ratio (x) = 0.05822 0.66506
# Poissons Ratio (y) = 0.00899 0.16876
# Poissons Ratio (z) = 0.12998 0.21364
#
# Static dielectric constant tensor:
#      x y z
#    x 1.846230 0.000000 0.000000 
#    y 0.000000 1.857070 0.000000 
#    z 0.000000 0.000000 1.915730 
# 
# From -- ./inp_files/5323.got.cif
#   From: 2010.05.17/outbox.cif.g08.bks.cpg/sg34_3_cif.got.tgz:5323.got - 2010.06.03 17:23:11.
