data_PCOD9347010
_publ_section_title
;
Structure prediction by ZEFSAII (Michael W. Deem and Ramdas Pophale) SiO2 
 PCOD9347010
Probable space group: P N A 21
;
_chemical_formula_sum "Si O2"
_cell_formula_units_Z 24
_cell_length_a 8.775392
_cell_length_b 12.225381
_cell_length_c 8.820597
_cell_angle_alpha 90.000000
_cell_angle_beta 90.000000
_cell_angle_gamma 90.000000
_cell_volume 946.295791
_symmetry_space_group_name_H-M "P N A 21"
_symmetry_group_IT_number 33
_symmetry_cell_setting 'orthorhombic'
loop_
_space_group_symop_operation_xyz
x,y,z
-x,-y,1/2+z
1/2-x,1/2+y,1/2+z
1/2+x,1/2-y,z
loop_
_atom_site_type_symbol
_atom_site_label
_atom_site_fract_x
_atom_site_fract_y
_atom_site_fract_z
Si Si1 0.170332 0.407939 0.689390
Si Si2 0.074586 0.847421 0.607413
Si Si3 0.490468 0.051790 0.441144
Si Si4 0.990061 0.196589 0.781436
Si Si5 0.202172 0.077332 0.590229
Si Si6 0.340538 0.743258 0.813353
O O1 0.110014 0.482995 0.824782
O O2 0.339254 0.357908 0.709363
O O3 0.149285 0.469875 0.528931
O O4 0.057043 0.303267 0.700911
O O5 0.049313 0.777921 0.454951
O O6 0.208197 0.803826 0.718171
O O7 0.920891 0.842257 0.702339
O O8 0.110202 0.968664 0.548575
O O9 0.377234 0.045379 0.586721
O O10 0.534785 0.165056 0.358949
O O11 0.130590 0.114726 0.748770
O O12 0.197541 0.173755 0.464062
#
# Coordination Sequence:
#
# PCOD9347010 Si02
#       6
#     4   4   4   4   4   4
#     4  12  28  50  78 115 155 208 261 328 404 480
#     4  12  27  49  78 116 154 203 266 325 397 474
#     4  12  27  51  76 113 158 206 266 325 405 475
#     4  12  27  51  77 114 157 203 263 328 395 484
#     4  12  26  52  76 118 155 208 264 324 410 476
#     4  12  27  49  81 110 159 204 262 334 389 481
#
# _framework density 25.362048000000001
#
# number of rings (size 3 to 8) (size 9 to 14) (size 15 to 20)
#    0.000    0.000    5.000    4.000    4.667    0.000 
#    6.000    0.000    0.000    0.000    0.000    0.000 
#    0.000    0.000    0.000    0.000    0.000    0.000 
#
# Total GULP energy -134037.507126 kJ/mol
# GULP energy per Si atom -5584.896130 kJ/mol
# Density = 2.530432 g / cm^3
# Si number density = 25.362048 Si / 1000 Ang^3
#
#
#
# Elastic Constant Matrix: (Units=GPa)
#
#
# Indices 1 2 3 4 5 6 
#
# 1 54.4634 13.1715 39.5938 0.0000 0.0000 0.0000
# 2 13.1715 48.3157 20.1660 0.0000 0.0000 0.0000
# 3 39.5938 20.1660 90.1681 0.0000 0.0000 0.0000
# 4 0.0000 0.0000 0.0000 39.0192 0.0000 0.0000
# 5 0.0000 0.0000 0.0000 0.0000 44.6179 0.0000
# 6 0.0000 0.0000 0.0000 0.0000 0.0000 30.7271
#
#
#
# Elastic Compliance Matrix: (Units=1/GPa)
#
#
# Indices 1 2 3 4 5 6 
#
# 1 0.027284 -0.002688 -0.011379 0.000000 0.000000 0.000000
# 2 -0.002688 0.023093 -0.003984 0.000000 0.000000 0.000000
# 3 -0.011379 -0.003984 0.016978 0.000000 0.000000 0.000000
# 4 0.000000 0.000000 0.000000 0.025628 0.000000 0.000000
# 5 0.000000 0.000000 0.000000 0.000000 0.022413 0.000000
# 6 0.000000 0.000000 0.000000 0.000000 0.000000 0.032545
#
#
# Mechanical properties :
#
#
# Convention : Reuss Voigt Hill
#
# Bulk Modulus (GPa) = 31.99888 37.64553 34.82220
# Shear Modulus (GPa) = 25.71207 30.87389 28.29298
#
# Velocity S-wave (km/s) = 3.18748 3.49281 3.34363
# Velocity P-wave (km/s) = 5.11771 5.58048 5.35409
#
# Compressibility (1/GPa) = 0.03125110
#
# Stress axis : x y z
#
# Youngs Moduli (GPa) = 36.65206 43.30305 58.89904
#
# Poissons Ratio (x) = 0.11642 0.67023
# Poissons Ratio (y) = 0.09854 0.23467
# Poissons Ratio (z) = 0.41707 0.17253
#
# Static dielectric constant tensor:
#      x y z
#    x 2.029150 0.000000 0.000000 
#    y 0.000000 2.145650 0.000000 
#    z 0.000000 0.000000 2.059240 
# 
# From -- ./inp_files/3055.got.cif
#   From: 2010.05.17/outbox.cif.g08.bks.cpg/sg33_2_cif.got.tgz:3055.got - 2010.06.03 17:15:25.
