data_PCOD9347813
_publ_section_title
;
Structure prediction by ZEFSAII (Michael W. Deem and Ramdas Pophale) SiO2 
 PCOD9347813
Probable space group: P N N 2
;
_chemical_formula_sum "Si O2"
_cell_formula_units_Z 24
_cell_length_a 7.400790
_cell_length_b 10.886694
_cell_length_c 11.513338
_cell_angle_alpha 90.000000
_cell_angle_beta 90.000000
_cell_angle_gamma 90.000000
_cell_volume 927.631209
_symmetry_space_group_name_H-M "P N N 2"
_symmetry_group_IT_number 34
_symmetry_cell_setting 'orthorhombic'
loop_
_space_group_symop_operation_xyz
x,y,z
-x,-y,z
1/2-x,1/2+y,1/2+z
1/2+x,1/2-y,1/2+z
loop_
_atom_site_type_symbol
_atom_site_label
_atom_site_fract_x
_atom_site_fract_y
_atom_site_fract_z
Si Si1 0.255294 0.589108 0.724530
Si Si2 0.321699 0.683647 0.486343
Si Si3 0.165745 0.176051 0.565943
Si Si4 0.834255 0.176051 0.276428
Si Si5 0.178301 0.816352 0.856027
Si Si6 0.744707 0.589108 0.117841
O O1 0.243591 0.591630 0.583838
O O2 0.459124 0.636462 0.752864
O O3 0.235357 0.456252 0.780131
O O4 0.131936 0.693726 0.780775
O O5 0.193478 0.737440 0.386960
O O6 0.500001 0.637979 0.421185
O O7 0.368063 0.806274 0.561594
O O8 0.250000 0.250001 0.671184
O O9 0.193478 0.262558 0.455409
O O10 0.959124 0.136462 0.589507
O O11 0.264643 0.043748 0.562240
O O12 0.256411 0.908369 0.758532
#
# Coordination Sequence:
#
# PCOD9347813 Si02
#       6
#     4   4   4   4   4   4
#     4  10  24  42  65  99 134 177 232 281 345 417
#     4  11  22  42  67  97 134 177 230 286 343 409
#     4  11  22  42  66  97 134 182 223 282 353 407
#     4  11  22  42  66  97 134 182 223 282 353 407
#     4  11  22  42  67  97 134 177 230 286 343 409
#     4  10  24  42  65  99 134 177 232 281 345 417
#
# _framework density 25.872349
#
# number of rings (size 3 to 8) (size 9 to 14) (size 15 to 20)
#    0.000    1.333    3.333    2.000    0.000    6.667 
#    0.000    0.000    0.000    4.000    0.000    0.000 
#    0.000    0.000    0.000    0.000    0.000    0.000 
#
# Total GULP energy -134378.055255 kJ/mol
# GULP energy per Si atom -5599.085636 kJ/mol
# Density = 2.581346 g / cm^3
# Si number density = 25.872349 Si / 1000 Ang^3
#
#
#
# Elastic Constant Matrix: (Units=GPa)
#
#
# Indices 1 2 3 4 5 6 
#
# 1 68.6750 34.7054 30.9601 0.0000 0.0000 0.0000
# 2 34.7054 80.3714 3.7218 0.0000 0.0000 0.0000
# 3 30.9601 3.7218 175.1527 0.0000 0.0000 0.0000
# 4 0.0000 0.0000 0.0000 8.2050 0.0000 0.0000
# 5 0.0000 0.0000 0.0000 0.0000 45.4615 0.0000
# 6 0.0000 0.0000 0.0000 0.0000 0.0000 29.6225
#
#
#
# Elastic Compliance Matrix: (Units=1/GPa)
#
#
# Indices 1 2 3 4 5 6 
#
# 1 0.020507 -0.008696 -0.003440 0.000000 0.000000 0.000000
# 2 -0.008696 0.016142 0.001194 0.000000 0.000000 0.000000
# 3 -0.003440 0.001194 0.006292 0.000000 0.000000 0.000000
# 4 0.000000 0.000000 0.000000 0.121876 0.000000 0.000000
# 5 0.000000 0.000000 0.000000 0.000000 0.021997 0.000000
# 6 0.000000 0.000000 0.000000 0.000000 0.000000 0.033758
#
#
# Mechanical properties :
#
#
# Convention : Reuss Voigt Hill
#
# Bulk Modulus (GPa) = 47.48977 51.44154 49.46565
# Shear Modulus (GPa) = 20.04219 33.64528 26.84373
#
# Velocity S-wave (km/s) = 2.78629 3.61007 3.22459
# Velocity P-wave (km/s) = 5.36157 6.10760 5.74670
#
# Compressibility (1/GPa) = 0.02105717
#
# Stress axis : x y z
#
# Youngs Moduli (GPa) = 48.76484 61.95078 158.93243
#
# Poissons Ratio (x) = 0.53871 0.54672
# Poissons Ratio (y) = 0.42404 -0.18977
# Poissons Ratio (z) = 0.16775 -0.07397
#
# Static dielectric constant tensor:
#      x y z
#    x 2.134350 0.000000 0.000000 
#    y 0.000000 2.030710 0.000000 
#    z 0.000000 0.000000 2.088680 
# 
# From -- ./inp_files/4945.got.cif
#   From: 2010.05.17/outbox.cif.g08.bks.cpg/sg34_3_cif.got.tgz:4945.got - 2010.06.03 17:23:11.
