data_PCOD9347377
_publ_section_title
;
Structure prediction by ZEFSAII (Michael W. Deem and Ramdas Pophale) SiO2 
 PCOD9347377
Probable space group: P N N 2
;
_chemical_formula_sum "Si O2"
_cell_formula_units_Z 26
_cell_length_a 7.589442
_cell_length_b 14.883170
_cell_length_c 10.463495
_cell_angle_alpha 90.000000
_cell_angle_beta 90.000000
_cell_angle_gamma 90.000000
_cell_volume 1181.903612
_symmetry_space_group_name_H-M "P N N 2"
_symmetry_group_IT_number 34
_symmetry_cell_setting 'orthorhombic'
loop_
_space_group_symop_operation_xyz
x,y,z
-x,-y,z
1/2-x,1/2+y,1/2+z
1/2+x,1/2-y,1/2+z
loop_
_atom_site_type_symbol
_atom_site_label
_atom_site_fract_x
_atom_site_fract_y
_atom_site_fract_z
Si Si1 0.311160 0.298844 0.703970
Si Si2 0.161115 0.711829 0.962294
Si Si3 0.328444 0.679064 0.423200
Si Si4 0.709880 0.523257 0.832254
Si Si5 0.500000 0.500000 0.309569
Si Si6 0.770940 0.840902 0.199280
Si Si7 0.695217 0.981492 0.602575
O O1 0.246988 0.278810 0.561686
O O2 0.274851 0.215053 0.798687
O O3 0.231025 0.389097 0.758059
O O4 0.518083 0.324545 0.698769
O O5 0.210364 0.722801 0.814465
O O6 0.958027 0.739461 0.960881
O O7 0.199599 0.616759 0.032459
O O8 0.445687 0.589168 0.391954
O O9 0.215422 0.665213 0.552004
O O10 0.500000 0.500000 0.836920
O O11 0.781804 0.437032 0.757927
O O12 0.766529 0.540034 0.977209
O O13 0.665448 0.504256 0.212009
O O14 0.500000 0.000000 0.651397
#
# Coordination Sequence:
#
# PCOD9347377 Si02
#       7
#     4   4   4   4   2   4   4
#     4  10  20  37  63  92 125 165 224 273 322 400
#     4  10  22  41  61  98 126 173 227 271 339 409
#     4  11  24  40  64  94 135 172 221 286 338 399
#     4   9  18  36  65  95 128 176 221 270 341 407
#     4  12  26  42  66 100 138 184 226 282 356 406
#     4   9  22  39  64  91 130 174 218 271 343 401
#     4  11  22  42  68  96 136 177 231 275 339 418
#
# _framework density 21.998411000000001
#
# number of rings (size 3 to 8) (size 9 to 14) (size 15 to 20)
#    0.000    1.846    2.308    0.923    5.385    4.923 
#    0.000    0.000    0.000    0.923    0.000    0.000 
#    0.000    0.000    0.000    0.000    0.000    0.000 
#
# Total GULP energy -144778.938262 kJ/mol
# GULP energy per Si atom -5568.420702 kJ/mol
# Density = 2.194834 g / cm^3
# Si number density = 21.998411 Si / 1000 Ang^3
#
#
#
# Elastic Constant Matrix: (Units=GPa)
#
#
# Indices 1 2 3 4 5 6 
#
# 1 54.6604 10.4137 20.6140 0.0000 0.0000 0.0000
# 2 10.4137 80.0593 41.1731 0.0000 0.0000 0.0000
# 3 20.6140 41.1731 170.1120 0.0000 0.0000 0.0000
# 4 0.0000 0.0000 0.0000 25.5903 0.0000 0.0000
# 5 0.0000 0.0000 0.0000 0.0000 144.0003 0.0000
# 6 0.0000 0.0000 0.0000 0.0000 0.0000 23.5278
#
#
#
# Elastic Compliance Matrix: (Units=1/GPa)
#
#
# Indices 1 2 3 4 5 6 
#
# 1 0.019326 -0.001496 -0.001980 0.000000 0.000000 0.000000
# 2 -0.001496 0.014382 -0.003300 0.000000 0.000000 0.000000
# 3 -0.001980 -0.003300 0.006917 0.000000 0.000000 0.000000
# 4 0.000000 0.000000 0.000000 0.039077 0.000000 0.000000
# 5 0.000000 0.000000 0.000000 0.000000 0.006944 0.000000
# 6 0.000000 0.000000 0.000000 0.000000 0.000000 0.042503
#
#
# Mechanical properties :
#
#
# Convention : Reuss Voigt Hill
#
# Bulk Modulus (GPa) = 36.93438 49.91481 43.42459
# Shear Modulus (GPa) = 32.95411 54.13242 43.54326
#
# Velocity S-wave (km/s) = 3.87463 4.96597 4.45385
# Velocity P-wave (km/s) = 6.06984 7.45792 6.79940
#
# Compressibility (1/GPa) = 0.02707505
#
# Stress axis : x y z
#
# Youngs Moduli (GPa) = 51.74266 69.52984 144.56976
#
# Poissons Ratio (x) = 0.10399 0.28624
# Poissons Ratio (y) = 0.07739 0.47705
# Poissons Ratio (z) = 0.10245 0.22943
#
# Static dielectric constant tensor:
#      x y z
#    x 1.828070 0.000000 0.000000 
#    y 0.000000 1.889610 0.000000 
#    z 0.000000 0.000000 1.875400 
# 
# From -- ./inp_files/2767.got.cif
#   From: 2010.05.17/outbox.cif.g08.bks.cpg/sg34_2_cif.got.tgz:2767.got - 2010.06.03 17:23:11.
