data_PCOD9347463
_publ_section_title
;
Structure prediction by ZEFSAII (Michael W. Deem and Ramdas Pophale) SiO2 
 PCOD9347463
Probable space group: P N N 2
;
_chemical_formula_sum "Si O2"
_cell_formula_units_Z 24
_cell_length_a 13.410306
_cell_length_b 13.596498
_cell_length_c 6.036517
_cell_angle_alpha 90.000000
_cell_angle_beta 90.000000
_cell_angle_gamma 90.000000
_cell_volume 1100.657454
_symmetry_space_group_name_H-M "P N N 2"
_symmetry_group_IT_number 34
_symmetry_cell_setting 'orthorhombic'
loop_
_space_group_symop_operation_xyz
x,y,z
-x,-y,z
1/2-x,1/2+y,1/2+z
1/2+x,1/2-y,1/2+z
loop_
_atom_site_type_symbol
_atom_site_label
_atom_site_fract_x
_atom_site_fract_y
_atom_site_fract_z
Si Si1 0.515543 0.831505 0.564640
Si Si2 0.158474 0.559344 0.737341
Si Si3 0.185256 0.999253 0.937883
Si Si4 0.211503 0.387240 0.054970
Si Si5 0.500000 0.500000 0.134986
Si Si6 0.100074 0.856426 0.304289
Si Si7 0.000000 0.500000 0.421999
O O1 0.584936 0.861896 0.353908
O O2 0.396356 0.837684 0.530095
O O3 0.550033 0.729804 0.667561
O O4 0.529693 0.912545 0.758736
O O5 0.246900 0.580935 0.562362
O O6 0.089892 0.486376 0.591805
O O7 0.202610 0.493370 0.933471
O O8 0.096181 0.031380 0.777693
O O9 0.251530 0.920214 0.797988
O O10 0.131635 0.939685 0.131746
O O11 0.298807 0.327430 0.933949
O O12 0.469765 0.407680 0.984685
#
# Coordination Sequence:
#
# PCOD9347463 Si02
#       7
#     4   4   4   4   2   4   2
#     4  12  22  41  68 106 137 175 226 290 356 412
#     4  11  20  38  71 100 134 180 223 284 353 403
#     4  10  21  43  69  92 134 186 231 287 335 415
#     4  10  20  42  63  95 137 177 226 283 345 414
#     4  10  22  48  68  94 136 200 236 282 344 416
#     4  10  25  42  67  97 139 181 236 286 343 421
#     4  12  20  38  70  98 132 176 210 288 344 412
#
# _framework density 21.805150000000001
#
# number of rings (size 3 to 8) (size 9 to 14) (size 15 to 20)
#    0.000    1.333    5.000    0.500    0.000    2.667 
#    0.000   21.667    0.000    0.000    0.000    0.000 
#    0.000    0.000    0.000    0.000    0.000    0.000 
#
# Total GULP energy -133890.449122 kJ/mol
# GULP energy per Si atom -5578.768713 kJ/mol
# Density = 2.175552 g / cm^3
# Si number density = 21.805150 Si / 1000 Ang^3
#
#
#
# Elastic Constant Matrix: (Units=GPa)
#
#
# Indices 1 2 3 4 5 6 
#
# 1 180.0971 62.0433 87.3977 0.0000 0.0000 0.0000
# 2 62.0433 51.1547 29.5720 0.0000 0.0000 0.0000
# 3 87.3977 29.5720 122.1074 0.0000 0.0000 0.0000
# 4 0.0000 0.0000 0.0000 6.9491 0.0000 0.0000
# 5 0.0000 0.0000 0.0000 0.0000 54.2275 0.0000
# 6 0.0000 0.0000 0.0000 0.0000 0.0000 16.9726
#
#
#
# Elastic Compliance Matrix: (Units=1/GPa)
#
#
# Indices 1 2 3 4 5 6 
#
# 1 0.012569 -0.011679 -0.006168 0.000000 0.000000 0.000000
# 2 -0.011679 0.033583 0.000226 0.000000 0.000000 0.000000
# 3 -0.006168 0.000226 0.012549 0.000000 0.000000 0.000000
# 4 0.000000 0.000000 0.000000 0.143904 0.000000 0.000000
# 5 0.000000 0.000000 0.000000 0.000000 0.018441 0.000000
# 6 0.000000 0.000000 0.000000 0.000000 0.000000 0.058918
#
#
# Mechanical properties :
#
#
# Convention : Reuss Voigt Hill
#
# Bulk Modulus (GPa) = 42.62622 79.04279 60.83450
# Shear Modulus (GPa) = 15.47864 27.25292 21.36578
#
# Velocity S-wave (km/s) = 2.66721 3.53914 3.13365
# Velocity P-wave (km/s) = 5.39226 7.28210 6.40724
#
# Compressibility (1/GPa) = 0.02345974
#
# Stress axis : x y z
#
# Youngs Moduli (GPa) = 79.56037 29.77721 79.68529
#
# Poissons Ratio (x) = 0.34777 0.49149
# Poissons Ratio (y) = 0.92918 -0.01801
# Poissons Ratio (z) = 0.49072 -0.00673
#
# Static dielectric constant tensor:
#      x y z
#    x 1.878800 0.000000 0.000000 
#    y 0.000000 1.774040 0.000000 
#    z 0.000000 0.000000 1.802700 
# 
# From -- ./inp_files/1264.got.cif
#   From: 2010.05.17/outbox.cif.g08.bks.cpg/sg34_1_cif.got.tgz:1264.got - 2010.06.03 17:23:11.
