data_PCOD9347140
_publ_section_title
;
Structure prediction by ZEFSAII (Michael W. Deem and Ramdas Pophale) SiO2 
 PCOD9347140
Probable space group: P N N 2
;
_chemical_formula_sum "Si O2"
_cell_formula_units_Z 32
_cell_length_a 11.414769
_cell_length_b 5.306876
_cell_length_c 29.343475
_cell_angle_alpha 90.000000
_cell_angle_beta 90.000000
_cell_angle_gamma 90.000000
_cell_volume 1777.532750
_symmetry_space_group_name_H-M "P N N 2"
_symmetry_group_IT_number 34
_symmetry_cell_setting 'orthorhombic'
loop_
_space_group_symop_operation_xyz
x,y,z
-x,-y,z
1/2-x,1/2+y,1/2+z
1/2+x,1/2-y,1/2+z
loop_
_atom_site_type_symbol
_atom_site_label
_atom_site_fract_x
_atom_site_fract_y
_atom_site_fract_z
Si Si1 0.282446 0.029466 0.750000
Si Si2 0.129302 0.694492 0.344659
Si Si3 0.863993 0.470542 0.731200
Si Si4 0.631740 0.940945 0.648842
Si Si5 0.272384 0.063876 0.130278
Si Si6 0.639739 0.487946 0.983023
Si Si7 0.362735 0.695680 0.879642
Si Si8 0.639520 0.992066 0.029489
O O1 0.361465 0.078632 0.794375
O O2 0.199619 0.273047 0.745841
O O3 0.357163 0.028652 0.703634
O O4 0.204505 0.774612 0.750707
O O5 0.188323 0.476489 0.375297
O O6 0.998165 0.748940 0.364125
O O7 0.184503 0.973048 0.347388
O O8 0.850203 0.449242 0.676092
O O9 0.000000 0.500000 0.743200
O O10 0.678756 0.664353 0.635732
O O11 0.500000 0.000000 0.634667
O O12 0.713480 0.161742 0.629497
O O13 0.339399 0.032616 0.083032
O O14 0.500000 0.500000 0.991794
O O15 0.689678 0.255405 0.011599
O O16 0.686681 0.754870 0.000576
O O17 0.648778 0.416643 0.929983
O O18 0.500000 0.000000 0.021150
#
# Coordination Sequence:
#
# PCOD9347140 Si02
#       8
#     4   4   4   4   4   4   4   4
#     4  10  21  34  50  81 102 136 191 211 251 315
#     4  10  19  30  47  70 105 142 174 202 241 314
#     4  10  20  36  55  71 105 140 175 231 260 299
#     4  10  21  35  53  72 107 139 171 223 255 303
#     4  10  20  36  51  77 102 135 183 208 264 315
#     4  10  18  30  45  72 104 137 167 193 262 310
#     4  10  19  30  47  70 105 154 156 205 249 326
#     4  10  20  30  51  73 104 138 166 213 245 324
#
# _framework density 18.002482000000001
#
# number of rings (size 3 to 8) (size 9 to 14) (size 15 to 20)
#    0.000    2.000    1.250    3.375    5.250    0.000 
#    4.500    3.750    0.000    0.000    0.000    0.000 
#    0.000   70.000    0.000    0.000    0.000    0.000 
#
# Total GULP energy -178222.326293 kJ/mol
# GULP energy per Si atom -5569.447697 kJ/mol
# Density = 1.796151 g / cm^3
# Si number density = 18.002482 Si / 1000 Ang^3
#
#
#
# Elastic Constant Matrix: (Units=GPa)
#
#
# Indices 1 2 3 4 5 6 
#
# 1 27.4396 7.8974 2.3641 0.0000 0.0000 0.0000
# 2 7.8974 134.8762 52.1369 0.0000 0.0000 0.0000
# 3 2.3641 52.1369 86.3583 0.0000 0.0000 0.0000
# 4 0.0000 0.0000 0.0000 29.2847 0.0000 0.0000
# 5 0.0000 0.0000 0.0000 0.0000 14.9157 0.0000
# 6 0.0000 0.0000 0.0000 0.0000 0.0000 6.7655
#
#
#
# Elastic Compliance Matrix: (Units=1/GPa)
#
#
# Indices 1 2 3 4 5 6 
#
# 1 0.037078 -0.002320 0.000386 0.000000 0.000000 0.000000
# 2 -0.002320 0.009816 -0.005863 0.000000 0.000000 0.000000
# 3 0.000386 -0.005863 0.015109 0.000000 0.000000 0.000000
# 4 0.000000 0.000000 0.000000 0.034147 0.000000 0.000000
# 5 0.000000 0.000000 0.000000 0.000000 0.067044 0.000000
# 6 0.000000 0.000000 0.000000 0.000000 0.000000 0.147809
#
#
# Mechanical properties :
#
#
# Convention : Reuss Voigt Hill
#
# Bulk Modulus (GPa) = 21.54775 41.49676 31.52226
# Shear Modulus (GPa) = 14.61701 22.61157 18.61429
#
# Velocity S-wave (km/s) = 2.85255 3.54789 3.21905
# Velocity P-wave (km/s) = 4.77962 6.31538 5.60039
#
# Compressibility (1/GPa) = 0.04640856
#
# Stress axis : x y z
#
# Youngs Moduli (GPa) = 26.97005 101.87055 66.18703
#
# Poissons Ratio (x) = 0.23635 -0.02553
# Poissons Ratio (y) = 0.06257 0.38805
# Poissons Ratio (z) = -0.01040 0.59726
#
# Static dielectric constant tensor:
#      x y z
#    x 1.613910 0.000000 0.000000 
#    y 0.000000 1.709520 0.000000 
#    z 0.000000 0.000000 1.642080 
# 
# From -- ./inp_files/8478.got.cif
#   From: 2010.05.17/outbox.cif.g08.bks.cpg/sg34_5_cif.got.tgz:8478.got - 2010.06.03 17:23:11.
