data_PCOD9347652
_publ_section_title
;
Structure prediction by ZEFSAII (Michael W. Deem and Ramdas Pophale) SiO2 
 PCOD9347652
Probable space group: P N N 2
;
_chemical_formula_sum "Si O2"
_cell_formula_units_Z 28
_cell_length_a 28.929342
_cell_length_b 8.010178
_cell_length_c 5.542626
_cell_angle_alpha 90.000000
_cell_angle_beta 90.000000
_cell_angle_gamma 90.000000
_cell_volume 1284.388172
_symmetry_space_group_name_H-M "P N N 2"
_symmetry_group_IT_number 34
_symmetry_cell_setting 'orthorhombic'
loop_
_space_group_symop_operation_xyz
x,y,z
-x,-y,z
1/2-x,1/2+y,1/2+z
1/2+x,1/2-y,1/2+z
loop_
_atom_site_type_symbol
_atom_site_label
_atom_site_fract_x
_atom_site_fract_y
_atom_site_fract_z
Si Si1 0.000000 0.500000 0.361020
Si Si2 0.961416 0.251821 0.997009
Si Si3 0.230950 0.143122 0.778853
Si Si4 0.090101 0.935490 0.364706
Si Si5 0.808736 0.555504 0.506786
Si Si6 0.000000 0.000000 0.639523
Si Si7 0.591916 0.924467 0.127072
Si Si8 0.186812 0.105980 0.281252
O O1 0.992551 0.337316 0.197142
O O2 0.952225 0.513229 0.506143
O O3 0.929355 0.107386 0.101951
O O4 0.926295 0.389145 0.894962
O O5 0.991933 0.166483 0.794182
O O6 0.219358 0.335773 0.708896
O O7 0.219193 0.061174 0.516138
O O8 0.200547 0.071527 0.003426
O O9 0.281349 0.099088 0.886873
O O10 0.096818 0.757292 0.498837
O O11 0.046998 0.022704 0.492593
O O12 0.137258 0.033127 0.347618
O O13 0.858876 0.510153 0.606430
O O14 0.814323 0.693216 0.298018
#
# Coordination Sequence:
#
# PCOD9347652 Si02
#       8
#     2   4   4   4   4   2   4   4
#     4  10  22  42  62 106 140 182 232 286 352 432
#     4  10  22  40  66  98 140 187 230 289 351 421
#     4  10  26  46  72 105 142 180 240 293 364 422
#     4  10  23  41  63 101 136 185 237 290 361 427
#     4  10  26  46  74 104 139 189 235 301 358 435
#     4  10  22  40  62  98 138 188 230 288 356 432
#     4  10  23  43  68 101 138 184 234 291 358 429
#     4  10  26  45  71 104 136 188 228 303 350 437
#
# _framework density 21.800260999999999
#
# number of rings (size 3 to 8) (size 9 to 14) (size 15 to 20)
#    0.857    1.143    0.000    0.857    8.000    8.000 
#    0.000    0.000    0.000    0.000    0.000    0.000 
#    0.000    0.000    0.000    0.000    0.000    0.000 
#
# Total GULP energy -156039.906570 kJ/mol
# GULP energy per Si atom -5572.853806 kJ/mol
# Density = 2.175064 g / cm^3
# Si number density = 21.800261 Si / 1000 Ang^3
#
#
#
# Elastic Constant Matrix: (Units=GPa)
#
#
# Indices 1 2 3 4 5 6 
#
# 1 144.0420 55.9215 46.6652 0.0000 0.0000 0.0000
# 2 55.9215 39.8387 23.3848 0.0000 0.0000 0.0000
# 3 46.6652 23.3848 102.5096 0.0000 0.0000 0.0000
# 4 0.0000 0.0000 0.0000 30.0939 0.0000 0.0000
# 5 0.0000 0.0000 0.0000 0.0000 -4.1231 0.0000
# 6 0.0000 0.0000 0.0000 0.0000 0.0000 45.7708
#
#
#
# Elastic Compliance Matrix: (Units=1/GPa)
#
#
# Indices 1 2 3 4 5 6 
#
# 1 0.015776 -0.020701 -0.002459 0.000000 0.000000 0.000000
# 2 -0.020701 0.056146 -0.003384 0.000000 0.000000 0.000000
# 3 -0.002459 -0.003384 0.011647 0.000000 0.000000 0.000000
# 4 0.000000 0.000000 0.000000 0.033229 0.000000 0.000000
# 5 0.000000 0.000000 0.000000 0.000000 -0.242536 0.000000
# 6 0.000000 0.000000 0.000000 0.000000 0.000000 0.021848
#
#
# Mechanical properties :
#
#
# Convention : Reuss Voigt Hill
#
# Bulk Modulus (GPa) = 32.80943 59.81479 46.31211
# Shear Modulus (GPa) = -123.03000 25.04292 -48.99354
#
# Velocity S-wave (km/s) = -7.52048 3.39299 -4.74580
# Velocity P-wave (km/s) = 7.76708 6.54577 2.95638
#
# Compressibility (1/GPa) = 0.03047904
#
# Stress axis : x y z
#
# Youngs Moduli (GPa) = 63.38774 17.81072 85.86065
#
# Poissons Ratio (x) = 0.36870 0.21115
# Poissons Ratio (y) = 1.31220 0.29059
# Poissons Ratio (z) = 0.15589 0.06028
#
# Static dielectric constant tensor:
#      x y z
#    x 1.782180 0.000000 0.000000 
#    y 0.000000 1.821990 0.000000 
#    z 0.000000 0.000000 1.861780 
# 
# From -- ./inp_files/1767.got.cif
#   From: 2010.05.17/outbox.cif.g08.bks.cpg/sg34_1_cif.got.tgz:1767.got - 2010.06.03 17:23:11.
