data_PCOD9347070
_publ_section_title
;
Structure prediction by ZEFSAII (Michael W. Deem and Ramdas Pophale) SiO2 
 PCOD9347070
Probable space group: P N A 21
;
_chemical_formula_sum "Si O2"
_cell_formula_units_Z 28
_cell_length_a 12.000000
_cell_length_b 9.000000
_cell_length_c 12.000000
_cell_angle_alpha 90.000000
_cell_angle_beta 90.000000
_cell_angle_gamma 90.000000
_cell_volume 1296.000000
_symmetry_space_group_name_H-M "P N A 21"
_symmetry_group_IT_number 33
_symmetry_cell_setting 'orthorhombic'
loop_
_space_group_symop_operation_xyz
x,y,z
-x,-y,1/2+z
1/2-x,1/2+y,1/2+z
1/2+x,1/2-y,z
loop_
_atom_site_type_symbol
_atom_site_label
_atom_site_fract_x
_atom_site_fract_y
_atom_site_fract_z
Si Si1 0.568842 0.518619 0.632980
Si Si2 0.729073 0.734676 0.485358
Si Si3 0.830828 0.560627 0.905074
Si Si4 0.850345 0.166618 0.567454
Si Si5 0.004692 0.574506 0.093974
Si Si6 0.093368 0.276008 0.177223
Si Si7 0.164516 0.276618 0.747615
O O1 0.645530 0.609215 0.540942
O O2 0.467153 0.421515 0.579830
O O3 0.496267 0.644387 0.699548
O O4 0.639155 0.397389 0.708556
O O5 0.808600 0.776576 0.591561
O O6 0.805963 0.692853 0.377262
O O7 0.671535 0.881557 0.428596
O O8 0.856921 0.636447 0.785530
O O9 0.714584 0.618328 0.956869
O O10 0.924869 0.613227 0.991567
O O11 0.765597 0.155254 0.672710
O O12 0.881660 0.339953 0.569975
O O13 0.945880 0.637356 0.205701
O O14 0.026260 0.402164 0.110110
#
# Coordination Sequence:
#
# PCOD9347070 Si02
#       7
#     4   4   4   4   4   4   4
#     4  11  24  47  78 109 147 207 255 302 395 456
#     4  12  24  45  71 109 146 190 253 312 371 450
#     4  11  24  43  69 104 145 187 249 316 359 449
#     4  10  22  50  68 103 148 194 249 309 378 448
#     4  10  23  45  70 101 144 189 242 309 382 442
#     4  12  26  45  74 109 148 196 255 308 374 466
#     4  10  25  47  74 105 150 189 249 316 375 453
#
# _framework density 21.604938000000001
#
# number of rings (size 3 to 8) (size 9 to 14) (size 15 to 20)
#    0.000    1.143    2.857    2.571    2.000    4.571 
#   15.429    0.000    0.000    0.000    0.000    0.000 
#    0.000    0.000    0.000    0.000    0.000    0.000 
#
# Total GULP energy -156303.882142 kJ/mol
# GULP energy per Si atom -5582.281505 kJ/mol
# Density = 2.155576 g / cm^3
# Si number density = 21.604938 Si / 1000 Ang^3
#
#
#
# Elastic Constant Matrix: (Units=GPa)
#
#
# Indices 1 2 3 4 5 6 
#
# 1 89.1811 21.6530 37.1670 0.0000 0.0000 0.0000
# 2 21.6530 100.7098 14.0575 0.0000 0.0000 0.0000
# 3 37.1670 14.0575 141.9568 0.0000 0.0000 0.0000
# 4 0.0000 0.0000 0.0000 33.5685 0.0000 0.0000
# 5 0.0000 0.0000 0.0000 0.0000 31.9902 0.0000
# 6 0.0000 0.0000 0.0000 0.0000 0.0000 57.4957
#
#
#
# Elastic Compliance Matrix: (Units=1/GPa)
#
#
# Indices 1 2 3 4 5 6 
#
# 1 0.013124 -0.002375 -0.003201 0.000000 0.000000 0.000000
# 2 -0.002375 0.010498 -0.000418 0.000000 0.000000 0.000000
# 3 -0.003201 -0.000418 0.007924 0.000000 0.000000 0.000000
# 4 0.000000 0.000000 0.000000 0.029790 0.000000 0.000000
# 5 0.000000 0.000000 0.000000 0.000000 0.031260 0.000000
# 6 0.000000 0.000000 0.000000 0.000000 0.000000 0.017393
#
#
# Mechanical properties :
#
#
# Convention : Reuss Voigt Hill
#
# Bulk Modulus (GPa) = 51.12772 53.06696 52.09734
# Shear Modulus (GPa) = 38.91206 41.87555 40.39381
#
# Velocity S-wave (km/s) = 4.24851 4.40732 4.32864
# Velocity P-wave (km/s) = 6.91250 7.10739 7.01062
#
# Compressibility (1/GPa) = 0.01955886
#
# Stress axis : x y z
#
# Youngs Moduli (GPa) = 76.19776 95.25219 126.20167
#
# Poissons Ratio (x) = 0.22621 0.40396
# Poissons Ratio (y) = 0.18096 0.05273
# Poissons Ratio (z) = 0.24390 0.03980
#
# Static dielectric constant tensor:
#      x y z
#    x 1.830150 0.000000 0.000000 
#    y 0.000000 1.847340 0.000000 
#    z 0.000000 0.000000 1.770870 
# 
# From -- ./inp_files/6355.got.cif
#   From: 2010.05.17/outbox.ucp.g08.bks.cvg/sg33_4_cif.got.tgz:6355.got - 2010.06.11 10:35:07.
