data_PCOD9347147
_publ_section_title
;
Structure prediction by ZEFSAII (Michael W. Deem and Ramdas Pophale) SiO2 
 PCOD9347147
Probable space group: P N N 2
;
_chemical_formula_sum "Si O2"
_cell_formula_units_Z 26
_cell_length_a 5.609070
_cell_length_b 15.712653
_cell_length_c 12.794057
_cell_angle_alpha 90.000000
_cell_angle_beta 90.000000
_cell_angle_gamma 90.000000
_cell_volume 1127.583367
_symmetry_space_group_name_H-M "P N N 2"
_symmetry_group_IT_number 34
_symmetry_cell_setting 'orthorhombic'
loop_
_space_group_symop_operation_xyz
x,y,z
-x,-y,z
1/2-x,1/2+y,1/2+z
1/2+x,1/2-y,1/2+z
loop_
_atom_site_type_symbol
_atom_site_label
_atom_site_fract_x
_atom_site_fract_y
_atom_site_fract_z
Si Si1 0.263018 0.387593 0.698930
Si Si2 0.243046 0.343019 0.073647
Si Si3 0.236981 0.112408 0.546559
Si Si4 0.249626 0.744043 0.359781
Si Si5 0.756952 0.343019 0.671841
Si Si6 0.750376 0.744043 0.385707
Si Si7 0.500000 0.500000 0.872744
O O1 0.252978 0.292395 0.749597
O O2 0.512845 0.388610 0.637402
O O3 0.322244 0.450951 0.793871
O O4 0.000420 0.394034 0.650853
O O5 0.250000 0.250000 0.122744
O O6 0.487153 0.388610 0.108087
O O7 0.251343 0.319191 0.948992
O O8 0.999579 0.394033 0.094636
O O9 0.247019 0.207605 0.495891
O O10 0.177756 0.049049 0.451618
O O11 0.500001 0.697727 0.372744
O O12 0.000001 0.696739 0.372744
O O13 0.748655 0.319191 0.796496
#
# Coordination Sequence:
#
# PCOD9347147 Si02
#       7
#     4   4   4   4   4   4   2
#     4  10  20  30  46  69  92 134 164 207 250 297
#     4  10  18  31  44  63  92 128 171 205 249 294
#     4  10  20  30  46  69  92 134 164 207 250 297
#     4   8  14  27  39  59  84 111 159 184 241 280
#     4  10  18  31  44  63  92 128 171 205 249 294
#     4   8  14  27  39  59  84 111 159 184 241 280
#     4  12  20  34  52  70 112 126 190 204 244 354
#
# _framework density 23.058160000000001
#
# number of rings (size 3 to 8) (size 9 to 14) (size 15 to 20)
#    0.000    2.462    4.615    0.923    0.000    2.462 
#    0.000    0.000    0.000    0.000    0.000    0.000 
#    0.000    0.000    0.000  186.923    0.000    1.846 
#
# Total GULP energy -144781.381123 kJ/mol
# GULP energy per Si atom -5568.514659 kJ/mol
# Density = 2.300568 g / cm^3
# Si number density = 23.058160 Si / 1000 Ang^3
#
#
#
# Elastic Constant Matrix: (Units=GPa)
#
#
# Indices 1 2 3 4 5 6 
#
# 1 326.2102 34.1401 2.0530 0.0000 0.0000 0.0000
# 2 34.1401 49.2831 8.3077 0.0000 0.0000 0.0000
# 3 2.0530 8.3077 24.4852 0.0000 0.0000 0.0000
# 4 0.0000 0.0000 0.0000 31.1752 0.0000 0.0000
# 5 0.0000 0.0000 0.0000 0.0000 12.3845 0.0000
# 6 0.0000 0.0000 0.0000 0.0000 0.0000 16.7537
#
#
#
# Elastic Compliance Matrix: (Units=1/GPa)
#
#
# Indices 1 2 3 4 5 6 
#
# 1 0.003312 -0.002384 0.000531 0.000000 0.000000 0.000000
# 2 -0.002384 0.023238 -0.007684 0.000000 0.000000 0.000000
# 3 0.000531 -0.007684 0.043404 0.000000 0.000000 0.000000
# 4 0.000000 0.000000 0.000000 0.032077 0.000000 0.000000
# 5 0.000000 0.000000 0.000000 0.000000 0.080746 0.000000
# 6 0.000000 0.000000 0.000000 0.000000 0.000000 0.059688
#
#
# Mechanical properties :
#
#
# Convention : Reuss Voigt Hill
#
# Bulk Modulus (GPa) = 19.65451 54.33111 36.99281
# Shear Modulus (GPa) = 17.95348 35.76120 26.85734
#
# Velocity S-wave (km/s) = 2.79340 3.94244 3.41657
# Velocity P-wave (km/s) = 4.35276 6.65864 5.62512
#
# Compressibility (1/GPa) = 0.05087892
#
# Stress axis : x y z
#
# Youngs Moduli (GPa) = 301.96641 43.03383 23.03945
#
# Poissons Ratio (x) = 0.10258 -0.01224
# Poissons Ratio (y) = 0.71977 0.17705
# Poissons Ratio (z) = -0.16037 0.33069
#
# Static dielectric constant tensor:
#      x y z
#    x 2.084960 0.000000 0.000000 
#    y 0.000000 1.863350 0.000000 
#    z 0.000000 0.000000 1.922500 
# 
# From -- ./inp_files/935.got.cif
#   From: 2010.05.17/outbox.cif.g08.bks.cpg/sg34_1_cif.got.tgz:935.got - 2010.06.03 17:23:11.
