data_PCOD9347935
_publ_section_title
;
Structure prediction by ZEFSAII (Michael W. Deem and Ramdas Pophale) SiO2 
 PCOD9347935
Probable space group: P N N 2
;
_chemical_formula_sum "Si O2"
_cell_formula_units_Z 26
_cell_length_a 10.844365
_cell_length_b 20.307496
_cell_length_c 5.314942
_cell_angle_alpha 90.000000
_cell_angle_beta 90.000000
_cell_angle_gamma 90.000000
_cell_volume 1170.466620
_symmetry_space_group_name_H-M "P N N 2"
_symmetry_group_IT_number 34
_symmetry_cell_setting 'orthorhombic'
loop_
_space_group_symop_operation_xyz
x,y,z
-x,-y,z
1/2-x,1/2+y,1/2+z
1/2+x,1/2-y,1/2+z
loop_
_atom_site_type_symbol
_atom_site_label
_atom_site_fract_x
_atom_site_fract_y
_atom_site_fract_z
Si Si1 0.500000 0.000000 0.284171
Si Si2 0.693364 0.038990 0.949456
Si Si3 0.727551 0.421199 0.162111
Si Si4 0.663081 0.659449 0.610731
Si Si5 0.213867 0.281028 0.108721
Si Si6 0.122855 0.137096 0.155085
Si Si7 0.498165 0.879563 0.657572
O O1 0.478435 0.934416 0.443174
O O2 0.375294 0.012195 0.128710
O O3 0.579729 0.087587 0.883267
O O4 0.738293 0.997947 0.708505
O O5 0.794168 0.083347 0.082399
O O6 0.644013 0.403334 0.400538
O O7 0.855198 0.379390 0.186488
O O8 0.661388 0.402872 0.903544
O O9 0.708340 0.691383 0.346702
O O10 0.518462 0.659533 0.658940
O O11 0.727996 0.694652 0.846792
O O12 0.204222 0.203162 0.136292
O O13 0.075689 0.312655 0.110781
#
# Coordination Sequence:
#
# PCOD9347935 Si02
#       7
#     2   4   4   4   4   4   4
#     4  12  16  40  66 112 140 166 244 292 366 408
#     4  11  23  41  72 105 143 183 234 306 358 426
#     4  12  25  45  71 109 143 184 242 300 358 431
#     4  11  26  50  69 103 144 189 242 288 373 430
#     4  11  26  45  74  97 138 195 232 303 350 423
#     4  12  29  46  69 104 146 194 239 289 361 449
#     4  11  23  39  71 106 137 178 237 302 352 410
#
# _framework density 22.213363000000001
#
# number of rings (size 3 to 8) (size 9 to 14) (size 15 to 20)
#    0.000    0.615    4.615    2.769    4.308    0.615 
#    0.000    3.077    0.000    0.000    0.000    0.000 
#    0.000    0.000    0.000    0.000    0.000    0.000 
#
# Total GULP energy -145354.280593 kJ/mol
# GULP energy per Si atom -5590.549254 kJ/mol
# Density = 2.216280 g / cm^3
# Si number density = 22.213363 Si / 1000 Ang^3
#
#
#
# Elastic Constant Matrix: (Units=GPa)
#
#
# Indices 1 2 3 4 5 6 
#
# 1 95.2691 8.8633 36.3223 0.0000 0.0000 0.0000
# 2 8.8633 71.8410 36.7714 0.0000 0.0000 0.0000
# 3 36.3223 36.7714 147.5528 0.0000 0.0000 0.0000
# 4 0.0000 0.0000 0.0000 26.5396 0.0000 0.0000
# 5 0.0000 0.0000 0.0000 0.0000 27.8985 0.0000
# 6 0.0000 0.0000 0.0000 0.0000 0.0000 25.1514
#
#
#
# Elastic Compliance Matrix: (Units=1/GPa)
#
#
# Indices 1 2 3 4 5 6 
#
# 1 0.011584 0.000035 -0.002860 0.000000 0.000000 0.000000
# 2 0.000035 0.015955 -0.003985 0.000000 0.000000 0.000000
# 3 -0.002860 -0.003985 0.008474 0.000000 0.000000 0.000000
# 4 0.000000 0.000000 0.000000 0.037680 0.000000 0.000000
# 5 0.000000 0.000000 0.000000 0.000000 0.035844 0.000000
# 6 0.000000 0.000000 0.000000 0.000000 0.000000 0.039759
#
#
# Mechanical properties :
#
#
# Convention : Reuss Voigt Hill
#
# Bulk Modulus (GPa) = 44.65690 53.17519 48.91605
# Shear Modulus (GPa) = 29.34610 31.43163 30.38886
#
# Velocity S-wave (km/s) = 3.63864 3.76571 3.70272
# Velocity P-wave (km/s) = 6.14819 6.54964 6.35209
#
# Compressibility (1/GPa) = 0.02239296
#
# Stress axis : x y z
#
# Youngs Moduli (GPa) = 86.32724 62.67687 118.00351
#
# Poissons Ratio (x) = -0.00218 0.33751
# Poissons Ratio (y) = -0.00301 0.47020
# Poissons Ratio (z) = 0.24691 0.24975
#
# Static dielectric constant tensor:
#      x y z
#    x 1.834820 0.000000 0.000000 
#    y 0.000000 1.837680 0.000000 
#    z 0.000000 0.000000 1.845170 
# 
# From -- ./inp_files/1283.got.cif
#   From: 2010.05.17/outbox.cif.g08.bks.cpg/sg34_1_cif.got.tgz:1283.got - 2010.06.03 17:23:11.
