data_PCOD9347189
_publ_section_title
;
Structure prediction by ZEFSAII (Michael W. Deem and Ramdas Pophale) SiO2 
 PCOD9347189
Probable space group: P N N 2
;
_chemical_formula_sum "Si O2"
_cell_formula_units_Z 32
_cell_length_a 10.414939
_cell_length_b 14.463073
_cell_length_c 10.055271
_cell_angle_alpha 90.000000
_cell_angle_beta 90.000000
_cell_angle_gamma 90.000000
_cell_volume 1514.645813
_symmetry_space_group_name_H-M "P N N 2"
_symmetry_group_IT_number 34
_symmetry_cell_setting 'orthorhombic'
loop_
_space_group_symop_operation_xyz
x,y,z
-x,-y,z
1/2-x,1/2+y,1/2+z
1/2+x,1/2-y,1/2+z
loop_
_atom_site_type_symbol
_atom_site_label
_atom_site_fract_x
_atom_site_fract_y
_atom_site_fract_z
Si Si1 0.354934 0.965863 0.781730
Si Si2 0.762886 0.838792 0.817466
Si Si3 0.442781 0.648672 0.082944
Si Si4 0.150785 0.978145 0.236717
Si Si5 0.802897 0.824572 0.119200
Si Si6 0.300305 0.453727 0.031140
Si Si7 0.779429 0.730795 0.386711
Si Si8 0.100408 0.782034 0.123629
O O1 0.320456 0.943924 0.627708
O O2 0.321302 0.874560 0.863929
O O3 0.500000 0.000000 0.797591
O O4 0.263727 0.051522 0.821282
O O5 0.891608 0.820169 0.728871
O O6 0.651995 0.789192 0.732823
O O7 0.760110 0.806226 0.969242
O O8 0.365296 0.553205 0.059671
O O9 0.591264 0.621951 0.068406
O O10 0.394111 0.716061 0.965513
O O11 0.223178 0.957096 0.374187
O O12 0.153049 0.884213 0.154988
O O13 0.199728 0.066369 0.155531
O O14 0.000000 0.000000 0.270864
O O15 0.742773 0.774046 0.245199
O O16 0.949450 0.790435 0.124817
O O17 0.658978 0.743890 0.482908
#
# Coordination Sequence:
#
# PCOD9347189 Si02
#       8
#     4   4   4   4   4   4   4   4
#     4  11  25  41  60  90 137 178 205 258 340 407
#     4  10  23  41  63  93 133 170 215 272 326 389
#     4   9  18  38  65  96 123 156 219 282 314 377
#     4  10  18  36  64  94 121 155 211 279 324 362
#     4  11  22  40  65  94 126 167 217 272 325 381
#     4  10  18  36  67  93 121 167 218 268 326 376
#     4  11  22  41  62  95 131 173 211 265 338 387
#     4  10  23  40  64  94 131 160 214 278 324 387
#
# _framework density 21.127050000000001
#
# number of rings (size 3 to 8) (size 9 to 14) (size 15 to 20)
#    0.000    1.750    2.500    2.250    3.500    0.000 
#    4.500    0.000    0.000    4.500    0.000    0.000 
#    0.000    0.000    0.000    0.000    0.000    0.000 
#
# Total GULP energy -178818.212168 kJ/mol
# GULP energy per Si atom -5588.069130 kJ/mol
# Density = 2.107896 g / cm^3
# Si number density = 21.127050 Si / 1000 Ang^3
#
#
#
# Elastic Constant Matrix: (Units=GPa)
#
#
# Indices 1 2 3 4 5 6 
#
# 1 10.6096 7.1113 27.4779 0.0000 0.0000 0.0000
# 2 7.1113 106.8911 38.4976 0.0000 0.0000 0.0000
# 3 27.4779 38.4976 181.9318 0.0000 0.0000 0.0000
# 4 0.0000 0.0000 0.0000 30.9492 0.0000 0.0000
# 5 0.0000 0.0000 0.0000 0.0000 17.1734 0.0000
# 6 0.0000 0.0000 0.0000 0.0000 0.0000 22.8104
#
#
#
# Elastic Compliance Matrix: (Units=1/GPa)
#
#
# Indices 1 2 3 4 5 6 
#
# 1 0.155220 -0.002039 -0.023012 0.000000 0.000000 0.000000
# 2 -0.002039 0.010154 -0.001841 0.000000 0.000000 0.000000
# 3 -0.023012 -0.001841 0.009362 0.000000 0.000000 0.000000
# 4 0.000000 0.000000 0.000000 0.032311 0.000000 0.000000
# 5 0.000000 0.000000 0.000000 0.000000 0.058229 0.000000
# 6 0.000000 0.000000 0.000000 0.000000 0.000000 0.043840
#
#
# Mechanical properties :
#
#
# Convention : Reuss Voigt Hill
#
# Bulk Modulus (GPa) = 8.26771 49.51179 28.88975
# Shear Modulus (GPa) = 12.40031 29.27632 20.83831
#
# Velocity S-wave (km/s) = 2.42531 3.72657 3.14400
# Velocity P-wave (km/s) = 3.42997 6.48094 5.18494
#
# Compressibility (1/GPa) = 0.12095253
#
# Stress axis : x y z
#
# Youngs Moduli (GPa) = 6.44248 98.48442 106.81855
#
# Poissons Ratio (x) = 0.20077 2.45811
# Poissons Ratio (y) = 0.01313 0.19662
# Poissons Ratio (z) = 0.14825 0.18128
#
# Static dielectric constant tensor:
#      x y z
#    x 1.729240 0.000000 0.000000 
#    y 0.000000 1.776550 0.000000 
#    z 0.000000 0.000000 1.783900 
# 
# From -- ./inp_files/3329.got.cif
#   From: 2010.05.17/outbox.cif.g08.bks.cpg/sg34_2_cif.got.tgz:3329.got - 2010.06.03 17:23:11.
