data_PCOD9347388
_publ_section_title
;
Structure prediction by ZEFSAII (Michael W. Deem and Ramdas Pophale) SiO2 
 PCOD9347388
Probable space group: P N N 2
;
_chemical_formula_sum "Si O2"
_cell_formula_units_Z 24
_cell_length_a 9.236784
_cell_length_b 13.716079
_cell_length_c 8.279669
_cell_angle_alpha 90.000000
_cell_angle_beta 90.000000
_cell_angle_gamma 90.000000
_cell_volume 1048.971626
_symmetry_space_group_name_H-M "P N N 2"
_symmetry_group_IT_number 34
_symmetry_cell_setting 'orthorhombic'
loop_
_space_group_symop_operation_xyz
x,y,z
-x,-y,z
1/2-x,1/2+y,1/2+z
1/2+x,1/2-y,1/2+z
loop_
_atom_site_type_symbol
_atom_site_label
_atom_site_fract_x
_atom_site_fract_y
_atom_site_fract_z
Si Si1 0.049236 0.199715 0.493390
Si Si2 0.500000 0.500000 0.164793
Si Si3 0.129736 0.643569 0.024174
Si Si4 0.218446 0.899728 0.879368
Si Si5 0.323901 0.189239 0.189476
Si Si6 0.500000 0.000000 0.786291
Si Si7 0.980546 0.825080 0.111738
O O1 0.004193 0.094396 0.556563
O O2 0.217156 0.199578 0.550936
O O3 0.957742 0.283121 0.578982
O O4 0.013853 0.194308 0.303522
O O5 0.363360 0.482335 0.277366
O O6 0.000989 0.721376 0.026080
O O7 0.090412 0.567798 0.161363
O O8 0.145583 0.614803 0.836458
O O9 0.213072 0.796425 0.775939
O O10 0.383644 0.936439 0.887466
O O11 0.111845 0.886593 0.034624
O O12 0.187469 0.147737 0.090385
#
# Coordination Sequence:
#
# PCOD9347388 Si02
#       7
#     4   2   4   4   4   2   4
#     4  10  21  38  64  90 129 168 217 272 334 396
#     4  10  20  38  58  92 122 166 216 262 338 388
#     4  10  21  38  64  96 125 171 222 268 335 397
#     4  10  21  37  63  92 128 174 216 270 338 393
#     4   9  20  40  63  91 123 169 224 273 325 395
#     4  12  20  40  68  94 142 176 218 292 338 398
#     4  10  21  39  63  91 126 169 224 270 319 406
#
# _framework density 22.879549999999998
#
# number of rings (size 3 to 8) (size 9 to 14) (size 15 to 20)
#    0.000    2.000    3.333    0.000    0.000    4.667 
#    0.000    0.000    0.000   11.000    0.000    0.000 
#    0.000    0.000    0.000    0.000    0.000    0.000 
#
# Total GULP energy -133662.728183 kJ/mol
# GULP energy per Si atom -5569.280341 kJ/mol
# Density = 2.282747 g / cm^3
# Si number density = 22.879550 Si / 1000 Ang^3
#
#
#
# Elastic Constant Matrix: (Units=GPa)
#
#
# Indices 1 2 3 4 5 6 
#
# 1 158.1737 35.2866 72.3589 0.0000 0.0000 0.0000
# 2 35.2866 33.2829 19.9692 0.0000 0.0000 0.0000
# 3 72.3589 19.9692 67.5659 0.0000 0.0000 0.0000
# 4 0.0000 0.0000 0.0000 25.4935 0.0000 0.0000
# 5 0.0000 0.0000 0.0000 0.0000 36.8893 0.0000
# 6 0.0000 0.0000 0.0000 0.0000 0.0000 26.6892
#
#
#
# Elastic Compliance Matrix: (Units=1/GPa)
#
#
# Indices 1 2 3 4 5 6 
#
# 1 0.013582 -0.006896 -0.012508 0.000000 0.000000 0.000000
# 2 -0.006896 0.040023 -0.004444 0.000000 0.000000 0.000000
# 3 -0.012508 -0.004444 0.029509 0.000000 0.000000 0.000000
# 4 0.000000 0.000000 0.000000 0.039226 0.000000 0.000000
# 5 0.000000 0.000000 0.000000 0.000000 0.027108 0.000000
# 6 0.000000 0.000000 0.000000 0.000000 0.000000 0.037468
#
#
# Mechanical properties :
#
#
# Convention : Reuss Voigt Hill
#
# Bulk Modulus (GPa) = 28.23345 57.13909 42.68627
# Shear Modulus (GPa) = 20.29077 26.57491 23.43284
#
# Velocity S-wave (km/s) = 2.98124 3.41180 3.20376
# Velocity P-wave (km/s) = 4.92110 6.36777 5.69059
#
# Compressibility (1/GPa) = 0.03541898
#
# Stress axis : x y z
#
# Youngs Moduli (GPa) = 73.62467 24.98592 33.88802
#
# Poissons Ratio (x) = 0.17229 0.42387
# Poissons Ratio (y) = 0.50768 0.15060
# Poissons Ratio (z) = 0.92089 0.11104
#
# Static dielectric constant tensor:
#      x y z
#    x 1.940540 0.000000 0.000000 
#    y 0.000000 1.904640 0.000000 
#    z 0.000000 0.000000 1.899450 
# 
# From -- ./inp_files/2631.got.cif
#   From: 2010.05.17/outbox.cif.g08.bks.cpg/sg34_2_cif.got.tgz:2631.got - 2010.06.03 17:23:11.
