data_PCOD9347073
_publ_section_title
;
Structure prediction by ZEFSAII (Michael W. Deem and Ramdas Pophale) SiO2 
 PCOD9347073
Probable space group: P N A 21
;
_chemical_formula_sum "Si O2"
_cell_formula_units_Z 28
_cell_length_a 12.000000
_cell_length_b 12.000000
_cell_length_c 9.000000
_cell_angle_alpha 90.000000
_cell_angle_beta 90.000000
_cell_angle_gamma 90.000000
_cell_volume 1296.000000
_symmetry_space_group_name_H-M "P N A 21"
_symmetry_group_IT_number 33
_symmetry_cell_setting 'orthorhombic'
loop_
_space_group_symop_operation_xyz
x,y,z
-x,-y,1/2+z
1/2-x,1/2+y,1/2+z
1/2+x,1/2-y,z
loop_
_atom_site_type_symbol
_atom_site_label
_atom_site_fract_x
_atom_site_fract_y
_atom_site_fract_z
Si Si1 0.540560 0.535346 0.478110
Si Si2 0.278432 0.997911 0.448982
Si Si3 0.151634 0.409979 0.650152
Si Si4 0.500203 0.121778 0.068233
Si Si5 0.495353 0.337129 0.265872
Si Si6 0.470703 0.256696 0.778547
Si Si7 0.813437 0.238180 0.485281
O O1 0.668849 0.548574 0.525758
O O2 0.536359 0.410882 0.408974
O O3 0.481653 0.578760 0.627658
O O4 0.506918 0.621594 0.347610
O O5 0.285118 0.131450 0.461781
O O6 0.268466 0.956122 0.279221
O O7 0.387482 0.938507 0.513322
O O8 0.076727 0.518120 0.616011
O O9 0.076823 0.309598 0.715480
O O10 0.216182 0.351037 0.516317
O O11 0.528189 0.215793 0.193693
O O12 0.441742 0.184944 0.927869
O O13 0.376868 0.302537 0.337880
O O14 0.385477 0.262197 0.640142
#
# Coordination Sequence:
#
# PCOD9347073 Si02
#       7
#     4   4   4   4   4   4   4
#     4  11  25  46  66 101 141 178 236 286 357 410
#     4  11  24  42  71 102 138 181 231 286 346 427
#     4  11  23  45  71 103 138 179 234 290 341 427
#     4  10  23  47  70  99 141 186 236 288 345 419
#     4  11  26  46  70 101 142 188 227 298 350 418
#     4  10  23  45  68  97 139 181 228 290 347 411
#     4  12  24  41  72 103 135 185 228 284 362 412
#
# _framework density 21.604938000000001
#
# number of rings (size 3 to 8) (size 9 to 14) (size 15 to 20)
#    0.000    1.143    4.286    0.857    4.000    2.286 
#    0.000    0.000    0.000    0.000    0.000    0.000 
#    0.000    0.000    0.000    0.000    0.000    0.000 
#
# Total GULP energy -156021.800708 kJ/mol
# GULP energy per Si atom -5572.207168 kJ/mol
# Density = 2.155576 g / cm^3
# Si number density = 21.604938 Si / 1000 Ang^3
#
#
#
# Elastic Constant Matrix: (Units=GPa)
#
#
# Indices 1 2 3 4 5 6 
#
# 1 24.8865 31.4354 5.6873 0.0000 0.0000 0.0000
# 2 31.4354 145.9571 46.0113 0.0000 0.0000 0.0000
# 3 5.6873 46.0113 61.3419 0.0000 0.0000 0.0000
# 4 0.0000 0.0000 0.0000 33.5194 0.0000 0.0000
# 5 0.0000 0.0000 0.0000 0.0000 27.3376 0.0000
# 6 0.0000 0.0000 0.0000 0.0000 0.0000 11.6068
#
#
#
# Elastic Compliance Matrix: (Units=1/GPa)
#
#
# Indices 1 2 3 4 5 6 
#
# 1 0.056384 -0.013746 0.005083 0.000000 0.000000 0.000000
# 2 -0.013746 0.012324 -0.007970 0.000000 0.000000 0.000000
# 3 0.005083 -0.007970 0.021809 0.000000 0.000000 0.000000
# 4 0.000000 0.000000 0.000000 0.029833 0.000000 0.000000
# 5 0.000000 0.000000 0.000000 0.000000 0.036580 0.000000
# 6 0.000000 0.000000 0.000000 0.000000 0.000000 0.086156
#
#
# Mechanical properties :
#
#
# Convention : Reuss Voigt Hill
#
# Bulk Modulus (GPa) = 17.46681 44.27262 30.86972
# Shear Modulus (GPa) = 16.92417 24.42953 20.67685
#
# Velocity S-wave (km/s) = 2.80187 3.36629 3.09697
# Velocity P-wave (km/s) = 4.30923 5.97040 5.20649
#
# Compressibility (1/GPa) = 0.05725143
#
# Stress axis : x y z
#
# Youngs Moduli (GPa) = 17.73553 81.14108 45.85323
#
# Poissons Ratio (x) = 1.11537 -0.23307
# Poissons Ratio (y) = 0.24379 0.36544
# Poissons Ratio (z) = -0.09015 0.64667
#
# Static dielectric constant tensor:
#      x y z
#    x 1.857710 0.000000 0.000000 
#    y 0.000000 1.777900 0.000000 
#    z 0.000000 0.000000 1.821540 
# 
# From -- ./inp_files/3862.got.cif
#   From: 2010.05.17/outbox.ucp.g08.bks.cvg/sg33_2_cif.got.tgz:3862.got - 2010.06.11 10:35:07.
