data_PCOD9347269
_publ_section_title
;
Structure prediction by ZEFSAII (Michael W. Deem and Ramdas Pophale) SiO2 
 PCOD9347269
Probable space group: P N N 2
;
_chemical_formula_sum "Si O2"
_cell_formula_units_Z 30
_cell_length_a 11.388022
_cell_length_b 8.088394
_cell_length_c 15.983135
_cell_angle_alpha 90.000000
_cell_angle_beta 90.000000
_cell_angle_gamma 90.000000
_cell_volume 1472.219492
_symmetry_space_group_name_H-M "P N N 2"
_symmetry_group_IT_number 34
_symmetry_cell_setting 'orthorhombic'
loop_
_space_group_symop_operation_xyz
x,y,z
-x,-y,z
1/2-x,1/2+y,1/2+z
1/2+x,1/2-y,1/2+z
loop_
_atom_site_type_symbol
_atom_site_label
_atom_site_fract_x
_atom_site_fract_y
_atom_site_fract_z
Si Si1 0.332763 0.633557 0.911200
Si Si2 0.372969 0.573463 0.250251
Si Si3 0.000000 0.000000 0.008561
Si Si4 0.624341 0.081179 0.343460
Si Si5 0.236805 0.987893 0.905554
Si Si6 0.449778 0.185211 0.961993
Si Si7 0.331563 0.411789 0.076048
Si Si8 0.074608 0.340811 0.040427
O O1 0.240020 0.539439 0.849117
O O2 0.278452 0.809887 0.935222
O O3 0.469584 0.696778 0.902700
O O4 0.333000 0.519974 0.992399
O O5 0.500000 0.500000 0.273472
O O6 0.360031 0.760833 0.283029
O O7 0.279373 0.475552 0.306467
O O8 0.356435 0.527461 0.154319
O O9 0.996440 0.827152 0.056990
O O10 0.114260 0.011129 0.951179
O O11 0.597108 0.135427 0.440060
O O12 0.500000 0.000000 0.316564
O O13 0.322405 0.141041 0.924304
O O14 0.500000 0.000000 0.970777
O O15 0.426632 0.271475 0.051661
O O16 0.201660 0.336063 0.083316
O O17 0.000000 0.500000 0.067176
#
# Coordination Sequence:
#
# PCOD9347269 Si02
#       8
#     4   4   2   4   4   4   4   4
#     4  10  21  38  62  87 126 166 213 258 310 383
#     4  12  22  36  60  91 127 160 200 269 335 377
#     4  12  16  34  66  88 124 156 218 272 306 364
#     4  10  19  36  61  92 121 161 220 268 312 376
#     4  11  20  36  62  96 119 163 217 263 311 381
#     4  10  21  39  64  94 124 169 216 255 310 393
#     4  11  22  40  58  92 129 165 202 260 333 385
#     4  10  20  36  64  94 120 161 217 273 310 378
#
# _framework density 20.377396000000001
#
# number of rings (size 3 to 8) (size 9 to 14) (size 15 to 20)
#    0.000    1.333    3.333    5.200    0.000    0.000 
#    0.000   11.333    0.000    0.000    0.000    0.000 
#    0.000    0.000    0.000    0.000    0.000    0.000 
#
# Total GULP energy -167073.192210 kJ/mol
# GULP energy per Si atom -5569.106407 kJ/mol
# Density = 2.033102 g / cm^3
# Si number density = 20.377396 Si / 1000 Ang^3
#
#
#
# Elastic Constant Matrix: (Units=GPa)
#
#
# Indices 1 2 3 4 5 6 
#
# 1 132.4195 56.3287 19.7692 0.0000 0.0000 0.0000
# 2 56.3287 138.2459 18.2360 0.0000 0.0000 0.0000
# 3 19.7692 18.2360 39.8606 0.0000 0.0000 0.0000
# 4 0.0000 0.0000 0.0000 22.3785 0.0000 0.0000
# 5 0.0000 0.0000 0.0000 0.0000 5.4568 0.0000
# 6 0.0000 0.0000 0.0000 0.0000 0.0000 46.3069
#
#
#
# Elastic Compliance Matrix: (Units=1/GPa)
#
#
# Indices 1 2 3 4 5 6 
#
# 1 0.009487 -0.003453 -0.003125 0.000000 0.000000 0.000000
# 2 -0.003453 0.008955 -0.002384 0.000000 0.000000 0.000000
# 3 -0.003125 -0.002384 0.027728 0.000000 0.000000 0.000000
# 4 0.000000 0.000000 0.000000 0.044686 0.000000 0.000000
# 5 0.000000 0.000000 0.000000 0.000000 0.183256 0.000000
# 6 0.000000 0.000000 0.000000 0.000000 0.000000 0.021595
#
#
# Mechanical properties :
#
#
# Convention : Reuss Voigt Hill
#
# Bulk Modulus (GPa) = 35.40484 55.46598 45.43541
# Shear Modulus (GPa) = 15.47754 29.24125 22.35940
#
# Velocity S-wave (km/s) = 2.75897 3.79223 3.31609
# Velocity P-wave (km/s) = 5.24991 6.81565 6.08336
#
# Compressibility (1/GPa) = 0.02824473
#
# Stress axis : x y z
#
# Youngs Moduli (GPa) = 105.40334 111.66855 36.06432
#
# Poissons Ratio (x) = 0.38563 0.11272
# Poissons Ratio (y) = 0.36400 0.08598
# Poissons Ratio (z) = 0.32943 0.26624
#
# Static dielectric constant tensor:
#      x y z
#    x 1.840740 0.000000 0.000000 
#    y 0.000000 1.776760 0.000000 
#    z 0.000000 0.000000 1.693240 
# 
# From -- ./inp_files/6789.got.cif
#   From: 2010.05.17/outbox.cif.g08.bks.cpg/sg34_4_cif.got.tgz:6789.got - 2010.06.03 17:23:11.
