data_PCOD9347217
_publ_section_title
;
Structure prediction by ZEFSAII (Michael W. Deem and Ramdas Pophale) SiO2 
 PCOD9347217
Probable space group: P N N 2
;
_chemical_formula_sum "Si O2"
_cell_formula_units_Z 24
_cell_length_a 26.303037
_cell_length_b 5.095855
_cell_length_c 7.162071
_cell_angle_alpha 90.000000
_cell_angle_beta 90.000000
_cell_angle_gamma 90.000000
_cell_volume 959.978662
_symmetry_space_group_name_H-M "P N N 2"
_symmetry_group_IT_number 34
_symmetry_cell_setting 'orthorhombic'
loop_
_space_group_symop_operation_xyz
x,y,z
-x,-y,z
1/2-x,1/2+y,1/2+z
1/2+x,1/2-y,1/2+z
loop_
_atom_site_type_symbol
_atom_site_label
_atom_site_fract_x
_atom_site_fract_y
_atom_site_fract_z
Si Si1 0.648476 0.270827 0.166450
Si Si2 0.967611 0.755857 0.667586
Si Si3 0.204161 0.789277 0.115466
Si Si4 0.467611 0.755857 0.621612
Si Si5 0.204161 0.710723 0.673735
Si Si6 0.648476 0.229173 0.622750
O O1 0.590517 0.315391 0.112214
O O2 0.690430 0.492384 0.105498
O O3 0.659385 0.975242 0.102322
O O4 0.651814 0.250000 0.394600
O O5 0.965539 0.750001 0.894599
O O6 0.000000 0.500000 0.613589
O O7 0.000000 0.000000 0.605732
O O8 0.159385 0.975241 0.186878
O O9 0.203056 0.750000 0.894600
O O10 0.190430 0.492383 0.183703
O O11 0.250000 0.999999 0.144601
O O12 0.500000 0.500000 0.675610
O O13 0.500000 0.000000 0.683466
O O14 0.409483 0.815391 0.676985
#
# Coordination Sequence:
#
# PCOD9347217 Si02
#       6
#     4   4   4   4   4   4
#     4   9  17  28  42  62  89 120 153 191 236 286
#     4   9  15  23  37  58  85 116 147 180 224 283
#     4  10  19  31  46  64  89 122 159 199 242 289
#     4   9  15  23  37  58  85 116 147 180 224 283
#     4  10  19  31  46  64  89 122 159 199 242 289
#     4   9  17  28  42  62  89 120 153 191 236 286
#
# _framework density 25.000556
#
# number of rings (size 3 to 8) (size 9 to 14) (size 15 to 20)
#    0.000    2.667    0.000    3.000    0.000    8.000 
#    0.000    0.000    0.000    0.000    0.000    0.000 
#    0.000    8.000    0.000    0.667    0.000    0.333 
#
# Total GULP energy -133615.885757 kJ/mol
# GULP energy per Si atom -5567.328573 kJ/mol
# Density = 2.494365 g / cm^3
# Si number density = 25.000556 Si / 1000 Ang^3
#
#
#
# Elastic Constant Matrix: (Units=GPa)
#
#
# Indices 1 2 3 4 5 6 
#
# 1 143.7390 68.8690 -0.9775 0.0000 0.0000 0.0000
# 2 68.8690 240.1299 8.9199 0.0000 0.0000 0.0000
# 3 -0.9775 8.9199 107.9158 0.0000 0.0000 0.0000
# 4 0.0000 0.0000 0.0000 -41.0176 0.0000 0.0000
# 5 0.0000 0.0000 0.0000 0.0000 -8.6783 0.0000
# 6 0.0000 0.0000 0.0000 0.0000 0.0000 47.5685
#
#
#
# Elastic Compliance Matrix: (Units=1/GPa)
#
#
# Indices 1 2 3 4 5 6 
#
# 1 0.008073 -0.002325 0.000265 0.000000 0.000000 0.000000
# 2 -0.002325 0.004847 -0.000422 0.000000 0.000000 0.000000
# 3 0.000265 -0.000422 0.009304 0.000000 0.000000 0.000000
# 4 0.000000 0.000000 0.000000 -0.024380 0.000000 0.000000
# 5 0.000000 0.000000 0.000000 0.000000 -0.115230 0.000000
# 6 0.000000 0.000000 0.000000 0.000000 0.000000 0.021022
#
#
# Mechanical properties :
#
#
# Convention : Reuss Voigt Hill
#
# Bulk Modulus (GPa) = 57.93573 71.71195 64.82384
# Shear Modulus (GPa) = -58.37864 27.23941 -15.56962
#
# Velocity S-wave (km/s) = -4.83752 3.30442 -2.49824
# Velocity P-wave (km/s) = 2.82455 6.58068 4.20281
#
# Compressibility (1/GPa) = 0.01726051
#
# Stress axis : x y z
#
# Youngs Moduli (GPa) = 123.87126 206.31626 107.48360
#
# Poissons Ratio (x) = 0.47972 -0.02852
# Poissons Ratio (y) = 0.28802 0.04532
# Poissons Ratio (z) = -0.03286 0.08700
#
# Static dielectric constant tensor:
#      x y z
#    x 1.578470 0.000000 0.000000 
#    y 0.000000 1.921950 0.000000 
#    z 0.000000 0.000000 2.003150 
# 
# From -- ./inp_files/5829.got.cif
#   From: 2010.05.17/outbox.cif.g08.bks.cpg/sg34_3_cif.got.tgz:5829.got - 2010.06.03 17:23:11.
