data_PCOD9347007
_publ_section_title
;
Structure prediction by ZEFSAII (Michael W. Deem and Ramdas Pophale) SiO2 
 PCOD9347007
Probable space group: P N A 21
;
_chemical_formula_sum "Si O2"
_cell_formula_units_Z 16
_cell_length_a 16.640455
_cell_length_b 8.322456
_cell_length_c 4.841578
_cell_angle_alpha 90.000000
_cell_angle_beta 90.000000
_cell_angle_gamma 90.000000
_cell_volume 670.507496
_symmetry_space_group_name_H-M "P N A 21"
_symmetry_group_IT_number 33
_symmetry_cell_setting 'orthorhombic'
loop_
_space_group_symop_operation_xyz
x,y,z
-x,-y,1/2+z
1/2-x,1/2+y,1/2+z
1/2+x,1/2-y,z
loop_
_atom_site_type_symbol
_atom_site_label
_atom_site_fract_x
_atom_site_fract_y
_atom_site_fract_z
Si Si1 0.026168 0.402564 0.321230
Si Si2 0.710753 0.685551 0.584279
Si Si3 0.964640 0.083725 0.020802
Si Si4 0.696355 0.067986 0.586447
O O1 0.112391 0.375770 0.458990
O O2 0.971093 0.465548 0.574365
O O3 0.992049 0.246671 0.170656
O O4 0.630800 0.594213 0.485858
O O5 0.696645 0.875426 0.580947
O O6 0.784231 0.635651 0.387411
O O7 0.732937 0.631845 0.890765
O O8 0.991408 0.944538 0.232074
#
# Coordination Sequence:
#
# PCOD9347007 Si02
#       4
#     4   4   4   4
#     4  12  26  50  77 106 145 198 247 302 367 440
#     4  12  28  50  70 112 148 195 246 302 371 445
#     4  12  28  48  77 109 150 193 250 308 364 438
#     4  12  28  48  76 105 153 194 245 304 374 441
#
# _framework density 23.862518999999999
#
# number of rings (size 3 to 8) (size 9 to 14) (size 15 to 20)
#    0.000    0.000    2.500    6.000   14.000    0.000 
#    0.000    0.000    0.000    0.000    0.000    0.000 
#    0.000    0.000    0.000    0.000    0.000    0.000 
#
# Total GULP energy -89791.427415 kJ/mol
# GULP energy per Si atom -5611.964213 kJ/mol
# Density = 2.380821 g / cm^3
# Si number density = 23.862519 Si / 1000 Ang^3
#
#
#
# Elastic Constant Matrix: (Units=GPa)
#
#
# Indices 1 2 3 4 5 6 
#
# 1 80.4445 16.1433 -0.0948 0.0000 0.0000 0.0000
# 2 16.1433 42.3575 5.7898 0.0000 0.0000 0.0000
# 3 -0.0948 5.7898 103.9365 0.0000 0.0000 0.0000
# 4 0.0000 0.0000 0.0000 37.2096 0.0000 0.0000
# 5 0.0000 0.0000 0.0000 0.0000 50.7354 0.0000
# 6 0.0000 0.0000 0.0000 0.0000 0.0000 87.8054
#
#
#
# Elastic Compliance Matrix: (Units=1/GPa)
#
#
# Indices 1 2 3 4 5 6 
#
# 1 0.013470 -0.005175 0.000301 0.000000 0.000000 0.000000
# 2 -0.005175 0.025778 -0.001441 0.000000 0.000000 0.000000
# 3 0.000301 -0.001441 0.009702 0.000000 0.000000 0.000000
# 4 0.000000 0.000000 0.000000 0.026875 0.000000 0.000000
# 5 0.000000 0.000000 0.000000 0.000000 0.019710 0.000000
# 6 0.000000 0.000000 0.000000 0.000000 0.000000 0.011389
#
#
# Mechanical properties :
#
#
# Convention : Reuss Voigt Hill
#
# Bulk Modulus (GPa) = 27.53332 30.04609 28.78971
# Shear Modulus (GPa) = 37.97691 48.81010 43.39351
#
# Velocity S-wave (km/s) = 3.99367 4.52760 4.26899
# Velocity P-wave (km/s) = 5.72968 6.32067 6.03242
#
# Compressibility (1/GPa) = 0.03631963
#
# Stress axis : x y z
#
# Youngs Moduli (GPa) = 74.24067 38.79326 103.07379
#
# Poissons Ratio (x) = 0.20074 -0.03098
# Poissons Ratio (y) = 0.38417 0.14849
# Poissons Ratio (z) = -0.02231 0.05589
#
# Static dielectric constant tensor:
#      x y z
#    x 1.868890 0.000000 0.000000 
#    y 0.000000 1.921770 0.000000 
#    z 0.000000 0.000000 1.875880 
# 
# From -- ./inp_files/1195.got.cif
#   From: 2010.05.17/outbox.cif.g08.bks.cpg/sg33_1_cif.got.tgz:1195.got - 2010.06.03 17:15:25.
