data_PCOD9347125
_publ_section_title
;
Structure prediction by ZEFSAII (Michael W. Deem and Ramdas Pophale) SiO2 
 PCOD9347125
Probable space group: P N N 2
;
_chemical_formula_sum "Si O2"
_cell_formula_units_Z 26
_cell_length_a 10.668327
_cell_length_b 21.412707
_cell_length_c 5.414789
_cell_angle_alpha 90.000000
_cell_angle_beta 90.000000
_cell_angle_gamma 90.000000
_cell_volume 1236.942271
_symmetry_space_group_name_H-M "P N N 2"
_symmetry_group_IT_number 34
_symmetry_cell_setting 'orthorhombic'
loop_
_space_group_symop_operation_xyz
x,y,z
-x,-y,z
1/2-x,1/2+y,1/2+z
1/2+x,1/2-y,1/2+z
loop_
_atom_site_type_symbol
_atom_site_label
_atom_site_fract_x
_atom_site_fract_y
_atom_site_fract_z
Si Si1 0.832638 0.416884 0.451790
Si Si2 0.710774 0.370575 0.941923
Si Si3 0.598648 0.761840 0.463894
Si Si4 0.014276 0.788413 0.466852
Si Si5 0.603869 0.124857 0.479355
Si Si6 0.105093 0.345212 0.478819
Si Si7 0.500000 0.000000 0.677800
O O1 0.759396 0.412209 0.710792
O O2 0.963040 0.376197 0.474004
O O3 0.885009 0.483191 0.358266
O O4 0.752090 0.392700 0.216368
O O5 0.566018 0.350877 0.930758
O O6 0.784957 0.305715 0.906925
O O7 0.577428 0.716132 0.234581
O O8 0.487955 0.814562 0.475527
O O9 0.598679 0.727959 0.728443
O O10 0.920892 0.728024 0.480627
O O11 0.670856 0.129040 0.221149
O O12 0.529044 0.060102 0.510548
O O13 0.674849 0.133580 0.733622
#
# Coordination Sequence:
#
# PCOD9347125 Si02
#       7
#     4   4   4   4   4   4   2
#     4  11  19  30  44  64  98 119 161 184 221 281
#     4  12  19  31  46  66  90 126 164 188 217 283
#     4  10  17  34  42  63  94 117 157 192 223 272
#     4  10  19  28  48  61  83 128 158 184 235 256
#     4   9  16  25  43  55  85 116 149 174 214 265
#     4   9  15  30  39  57  83 118 144 187 212 262
#     4  10  18  28  44  66  86 136 152 176 232 274
#
# _framework density 21.019573000000001
#
# number of rings (size 3 to 8) (size 9 to 14) (size 15 to 20)
#    0.000    1.846    7.692    0.923    0.000    5.538 
#    0.000    0.000    0.000    0.000    0.000    0.000 
#    0.000    0.000    0.000  146.769    1.846    0.308 
#
# Total GULP energy -144844.790845 kJ/mol
# GULP energy per Si atom -5570.953494 kJ/mol
# Density = 2.097173 g / cm^3
# Si number density = 21.019573 Si / 1000 Ang^3
#
#
#
# Elastic Constant Matrix: (Units=GPa)
#
#
# Indices 1 2 3 4 5 6 
#
# 1 10.3285 15.9280 10.5154 0.0000 0.0000 0.0000
# 2 15.9280 45.9786 28.2005 0.0000 0.0000 0.0000
# 3 10.5154 28.2005 194.1536 0.0000 0.0000 0.0000
# 4 0.0000 0.0000 0.0000 24.3684 0.0000 0.0000
# 5 0.0000 0.0000 0.0000 0.0000 -4.6451 0.0000
# 6 0.0000 0.0000 0.0000 0.0000 0.0000 -0.4821
#
#
#
# Elastic Compliance Matrix: (Units=1/GPa)
#
#
# Indices 1 2 3 4 5 6 
#
# 1 0.208006 -0.071520 -0.000878 0.000000 0.000000 0.000000
# 2 -0.071520 0.048467 -0.003166 0.000000 0.000000 0.000000
# 3 -0.000878 -0.003166 0.005658 0.000000 0.000000 0.000000
# 4 0.000000 0.000000 0.000000 0.041037 0.000000 0.000000
# 5 0.000000 0.000000 0.000000 0.000000 -0.215279 0.000000
# 6 0.000000 0.000000 0.000000 0.000000 0.000000 -2.074048
#
#
# Mechanical properties :
#
#
# Convention : Reuss Voigt Hill
#
# Bulk Modulus (GPa) = 9.00864 39.97204 24.49034
# Shear Modulus (GPa) = -2.78082 16.90268 7.06093
#
# Velocity S-wave (km/s) = -1.15145 2.83881 1.83480
# Velocity P-wave (km/s) = 1.58977 5.45921 4.02059
#
# Compressibility (1/GPa) = 0.11100450
#
# Stress axis : x y z
#
# Youngs Moduli (GPa) = 4.80754 20.63248 176.74139
#
# Poissons Ratio (x) = 1.47563 0.15510
# Poissons Ratio (y) = 0.34383 0.55961
# Poissons Ratio (z) = 0.00422 0.06533
#
# Static dielectric constant tensor:
#      x y z
#    x 1.796830 0.000000 0.000000 
#    y 0.000000 1.765950 0.000000 
#    z 0.000000 0.000000 1.881680 
# 
# From -- ./inp_files/1344.got.cif
#   From: 2010.05.17/outbox.cif.g08.bks.cpg/sg34_1_cif.got.tgz:1344.got - 2010.06.03 17:23:11.
