data_PCOD9347519
_publ_section_title
;
Structure prediction by ZEFSAII (Michael W. Deem and Ramdas Pophale) SiO2 
 PCOD9347519
Probable space group: P N N 2
;
_chemical_formula_sum "Si O2"
_cell_formula_units_Z 32
_cell_length_a 18.083510
_cell_length_b 5.278732
_cell_length_c 14.363435
_cell_angle_alpha 90.000000
_cell_angle_beta 90.000000
_cell_angle_gamma 90.000000
_cell_volume 1371.104820
_symmetry_space_group_name_H-M "P N N 2"
_symmetry_group_IT_number 34
_symmetry_cell_setting 'orthorhombic'
loop_
_space_group_symop_operation_xyz
x,y,z
-x,-y,z
1/2-x,1/2+y,1/2+z
1/2+x,1/2-y,1/2+z
loop_
_atom_site_type_symbol
_atom_site_label
_atom_site_fract_x
_atom_site_fract_y
_atom_site_fract_z
Si Si1 0.175853 0.947843 0.812190
Si Si2 0.710401 0.796922 0.677859
Si Si3 0.028672 0.748256 0.384995
Si Si4 0.952526 0.744551 0.768071
Si Si5 0.178587 0.613032 0.447779
Si Si6 0.847386 0.438417 0.655355
Si Si7 0.466282 0.251176 0.672474
Si Si8 0.738852 0.897153 0.464199
O O1 0.142175 0.782712 0.728626
O O2 0.182241 0.756840 0.899020
O O3 0.253728 0.039035 0.762962
O O4 0.118164 0.173165 0.830493
O O5 0.765487 0.554855 0.674677
O O6 0.622597 0.746028 0.680239
O O7 0.722189 0.909926 0.573940
O O8 0.115423 0.711952 0.381003
O O9 0.000314 0.750466 0.278359
O O10 0.000000 0.500000 0.434750
O O11 0.000000 0.000000 0.431291
O O12 0.909726 0.648265 0.675164
O O13 0.000000 0.500000 0.799932
O O14 0.000000 0.000000 0.758898
O O15 0.150311 0.663584 0.551983
O O16 0.194614 0.311603 0.448979
O O17 0.244664 0.815219 0.434378
O O18 0.500000 0.500000 0.626142
O O19 0.500000 0.000000 0.627326
#
# Coordination Sequence:
#
# PCOD9347519 Si02
#       8
#     4   4   4   4   4   4   4   4
#     4  11  23  42  70 100 129 179 225 282 341 405
#     4  10  23  43  65 100 130 172 220 286 329 408
#     4  10  21  38  55  89 123 164 207 250 318 402
#     4  11  23  42  65  94 134 177 229 273 331 409
#     4  11  23  42  58  97 130 165 210 280 324 400
#     4  10  23  41  68  97 133 171 231 269 342 403
#     4  10  23  39  66  89 123 168 215 262 332 394
#     4  11  25  39  68  94 129 164 224 276 338 393
#
# _framework density 23.338842
#
# number of rings (size 3 to 8) (size 9 to 14) (size 15 to 20)
#    0.000    1.500    2.500    1.500    7.000    1.500 
#    2.250    0.625    2.750    0.000    0.000    0.000 
#    0.000    0.000    0.000    0.000    0.000    0.000 
#
# Total GULP energy -178355.011287 kJ/mol
# GULP energy per Si atom -5573.594103 kJ/mol
# Density = 2.328572 g / cm^3
# Si number density = 23.338842 Si / 1000 Ang^3
#
#
#
# Elastic Constant Matrix: (Units=GPa)
#
#
# Indices 1 2 3 4 5 6 
#
# 1 122.5241 45.8819 -9.9371 0.0000 0.0000 0.0000
# 2 45.8819 131.3671 1.8935 0.0000 0.0000 0.0000
# 3 -9.9371 1.8935 48.8047 0.0000 0.0000 0.0000
# 4 0.0000 0.0000 0.0000 18.5647 0.0000 0.0000
# 5 0.0000 0.0000 0.0000 0.0000 10.4899 0.0000
# 6 0.0000 0.0000 0.0000 0.0000 0.0000 40.7779
#
#
#
# Elastic Compliance Matrix: (Units=1/GPa)
#
#
# Indices 1 2 3 4 5 6 
#
# 1 0.009597 -0.003382 0.002085 0.000000 0.000000 0.000000
# 2 -0.003382 0.008808 -0.001030 0.000000 0.000000 0.000000
# 3 0.002085 -0.001030 0.020954 0.000000 0.000000 0.000000
# 4 0.000000 0.000000 0.000000 0.053866 0.000000 0.000000
# 5 0.000000 0.000000 0.000000 0.000000 0.095330 0.000000
# 6 0.000000 0.000000 0.000000 0.000000 0.000000 0.024523
#
#
# Mechanical properties :
#
#
# Convention : Reuss Voigt Hill
#
# Bulk Modulus (GPa) = 28.81361 42.04137 35.42749
# Shear Modulus (GPa) = 21.80533 31.62366 26.71450
#
# Velocity S-wave (km/s) = 3.05994 3.68500 3.38692
# Velocity P-wave (km/s) = 4.98567 6.01317 5.52336
#
# Compressibility (1/GPa) = 0.03470582
#
# Stress axis : x y z
#
# Youngs Moduli (GPa) = 104.19631 113.52877 47.72269
#
# Poissons Ratio (x) = 0.38396 -0.09952
# Poissons Ratio (y) = 0.35240 0.04917
# Poissons Ratio (z) = -0.21728 0.11698
#
# Static dielectric constant tensor:
#      x y z
#    x 1.954590 0.000000 0.000000 
#    y 0.000000 1.913050 0.000000 
#    z 0.000000 0.000000 1.871020 
# 
# From -- ./inp_files/6967.got.cif
#   From: 2010.05.17/outbox.cif.g08.bks.cpg/sg34_4_cif.got.tgz:6967.got - 2010.06.03 17:23:11.
