data_PCOD9347551
_publ_section_title
;
Structure prediction by ZEFSAII (Michael W. Deem and Ramdas Pophale) SiO2 
 PCOD9347551
Probable space group: P N N 2
;
_chemical_formula_sum "Si O2"
_cell_formula_units_Z 24
_cell_length_a 4.949587
_cell_length_b 25.357884
_cell_length_c 8.069472
_cell_angle_alpha 90.000000
_cell_angle_beta 90.000000
_cell_angle_gamma 90.000000
_cell_volume 1012.807928
_symmetry_space_group_name_H-M "P N N 2"
_symmetry_group_IT_number 34
_symmetry_cell_setting 'orthorhombic'
loop_
_space_group_symop_operation_xyz
x,y,z
-x,-y,z
1/2-x,1/2+y,1/2+z
1/2+x,1/2-y,1/2+z
loop_
_atom_site_type_symbol
_atom_site_label
_atom_site_fract_x
_atom_site_fract_y
_atom_site_fract_z
Si Si1 0.096630 0.152520 0.964170
Si Si2 0.760000 0.463621 0.460177
Si Si3 0.266311 0.035721 0.348058
Si Si4 0.621855 0.688858 0.796354
Si Si5 0.854288 0.349234 0.978809
Si Si6 0.071769 0.303546 0.302143
O O1 0.378429 0.183664 0.958210
O O2 0.876777 0.184882 0.856504
O O3 0.167746 0.094013 0.899116
O O4 0.971928 0.150314 0.148290
O O5 0.500000 0.500000 0.454521
O O6 0.832414 0.453685 0.654051
O O7 0.000000 0.500000 0.387360
O O8 0.274758 0.091181 0.438170
O O9 0.500000 0.000000 0.421790
O O10 0.000000 0.000000 0.355693
O O11 0.924070 0.675462 0.852060
O O12 0.532846 0.746990 0.738240
O O13 0.425903 0.681390 0.954391
O O14 0.987072 0.342888 0.156618
#
# Coordination Sequence:
#
# PCOD9347551 Si02
#       6
#     4   4   4   4   4   4
#     4  12  25  44  69 101 136 180 227 282 342 403
#     4  10  21  39  67  99 125 165 226 284 328 393
#     4  10  21  39  67  99 125 165 226 284 327 393
#     4  12  24  43  70  97 134 187 238 268 327 412
#     4  12  25  44  69 101 136 180 227 282 342 403
#     4  12  26  43  64 101 146 179 218 284 346 406
#
# _framework density 23.696497000000001
#
# number of rings (size 3 to 8) (size 9 to 14) (size 15 to 20)
#    0.000    0.667    1.667    7.000    4.667    0.000 
#    0.000    3.333    0.000    0.000    0.000    0.000 
#    0.000    0.000    0.000    0.000    0.000    0.000 
#
# Total GULP energy -134171.009561 kJ/mol
# GULP energy per Si atom -5590.458732 kJ/mol
# Density = 2.364256 g / cm^3
# Si number density = 23.696497 Si / 1000 Ang^3
#
#
#
# Elastic Constant Matrix: (Units=GPa)
#
#
# Indices 1 2 3 4 5 6 
#
# 1 92.6866 23.0716 10.0146 0.0000 0.0000 0.0000
# 2 23.0716 129.6576 -1.0268 0.0000 0.0000 0.0000
# 3 10.0146 -1.0268 60.7954 0.0000 0.0000 0.0000
# 4 0.0000 0.0000 0.0000 -16.4628 0.0000 0.0000
# 5 0.0000 0.0000 0.0000 0.0000 23.0930 0.0000
# 6 0.0000 0.0000 0.0000 0.0000 0.0000 40.2874
#
#
#
# Elastic Compliance Matrix: (Units=1/GPa)
#
#
# Indices 1 2 3 4 5 6 
#
# 1 0.011511 -0.002064 -0.001931 0.000000 0.000000 0.000000
# 2 -0.002064 0.008084 0.000476 0.000000 0.000000 0.000000
# 3 -0.001931 0.000476 0.016775 0.000000 0.000000 0.000000
# 4 0.000000 0.000000 0.000000 -0.060743 0.000000 0.000000
# 5 0.000000 0.000000 0.000000 0.000000 0.043303 0.000000
# 6 0.000000 0.000000 0.000000 0.000000 0.000000 0.024822
#
#
# Mechanical properties :
#
#
# Convention : Reuss Voigt Hill
#
# Bulk Modulus (GPa) = 34.09105 38.58426 36.33766
# Shear Modulus (GPa) = 82.55495 26.12221 54.33858
#
# Velocity S-wave (km/s) = 5.90881 3.32379 4.79383
# Velocity P-wave (km/s) = 7.80832 5.57209 6.78300
#
# Compressibility (1/GPa) = 0.02933321
#
# Stress axis : x y z
#
# Youngs Moduli (GPa) = 86.87053 123.70712 59.61339
#
# Poissons Ratio (x) = 0.25529 0.11512
# Poissons Ratio (y) = 0.17927 -0.02840
# Poissons Ratio (z) = 0.16775 -0.05894
#
# Static dielectric constant tensor:
#      x y z
#    x 1.825840 0.000000 0.000000 
#    y 0.000000 2.048340 0.000000 
#    z 0.000000 0.000000 1.941490 
# 
# From -- ./inp_files/2106.got.cif
#   From: 2010.05.17/outbox.cif.g08.bks.cpg/sg34_2_cif.got.tgz:2106.got - 2010.06.03 17:23:11.
