data_PCOD9347573
_publ_section_title
;
Structure prediction by ZEFSAII (Michael W. Deem and Ramdas Pophale) SiO2 
 PCOD9347573
Probable space group: P N N 2
;
_chemical_formula_sum "Si O2"
_cell_formula_units_Z 32
_cell_length_a 11.017225
_cell_length_b 8.435465
_cell_length_c 14.651960
_cell_angle_alpha 90.000000
_cell_angle_beta 90.000000
_cell_angle_gamma 90.000000
_cell_volume 1361.685996
_symmetry_space_group_name_H-M "P N N 2"
_symmetry_group_IT_number 34
_symmetry_cell_setting 'orthorhombic'
loop_
_space_group_symop_operation_xyz
x,y,z
-x,-y,z
1/2-x,1/2+y,1/2+z
1/2+x,1/2-y,1/2+z
loop_
_atom_site_type_symbol
_atom_site_label
_atom_site_fract_x
_atom_site_fract_y
_atom_site_fract_z
Si Si1 0.266844 0.412965 0.575480
Si Si2 0.902742 0.140076 0.903492
Si Si3 0.567581 0.247986 0.958333
Si Si4 0.250076 0.768244 0.622680
Si Si5 0.343885 0.923036 0.793645
Si Si6 0.514999 0.813515 0.239213
Si Si7 0.746022 0.744005 0.761070
Si Si8 0.812863 0.083710 0.451050
O O1 0.364999 0.337168 0.507699
O O2 0.136497 0.347888 0.538291
O O3 0.270642 0.602447 0.571375
O O4 0.291414 0.371820 0.679818
O O5 0.781107 0.083617 0.852289
O O6 0.943660 0.289502 0.844140
O O7 0.000000 0.000000 0.897576
O O8 0.564101 0.142080 0.868151
O O9 0.648397 0.403070 0.936163
O O10 0.434091 0.314457 0.975192
O O11 0.337550 0.808301 0.706766
O O12 0.118248 0.756512 0.673067
O O13 0.261235 0.900086 0.544393
O O14 0.338542 0.102470 0.759405
O O15 0.386861 0.722143 0.235468
O O16 0.500000 0.000000 0.220027
O O17 0.741515 0.659595 0.859547
#
# Coordination Sequence:
#
# PCOD9347573 Si02
#       8
#     4   4   4   4   4   4   4   4
#     4  11  23  40  66  94 129 171 219 269 329 403
#     4  10  21  41  64  95 125 170 212 272 332 394
#     4  10  23  43  62  88 127 169 215 269 329 398
#     4  11  23  39  64  99 124 167 212 270 326 390
#     4  10  22  41  65  90 128 166 219 269 323 395
#     4  11  23  40  67  97 132 166 220 273 330 396
#     4  12  23  40  64  96 128 172 217 273 330 392
#     4  11  24  40  64  92 128 170 212 271 333 387
#
# _framework density 23.500278000000002
#
# number of rings (size 3 to 8) (size 9 to 14) (size 15 to 20)
#    0.000    1.250    2.500    3.750    3.500    2.500 
#    4.500    0.000    0.000    0.000    0.000    0.000 
#    0.000    0.000    0.000    0.000    0.000    0.000 
#
# Total GULP energy -178960.238738 kJ/mol
# GULP energy per Si atom -5592.507461 kJ/mol
# Density = 2.344679 g / cm^3
# Si number density = 23.500278 Si / 1000 Ang^3
#
#
#
# Elastic Constant Matrix: (Units=GPa)
#
#
# Indices 1 2 3 4 5 6 
#
# 1 19.6671 12.4026 6.2759 0.0000 0.0000 0.0000
# 2 12.4026 77.8254 24.9460 0.0000 0.0000 0.0000
# 3 6.2759 24.9460 153.3202 0.0000 0.0000 0.0000
# 4 0.0000 0.0000 0.0000 37.7912 0.0000 0.0000
# 5 0.0000 0.0000 0.0000 0.0000 15.6154 0.0000
# 6 0.0000 0.0000 0.0000 0.0000 0.0000 21.1052
#
#
#
# Elastic Compliance Matrix: (Units=1/GPa)
#
#
# Indices 1 2 3 4 5 6 
#
# 1 0.056644 -0.008740 -0.000897 0.000000 0.000000 0.000000
# 2 -0.008740 0.014905 -0.002067 0.000000 0.000000 0.000000
# 3 -0.000897 -0.002067 0.006895 0.000000 0.000000 0.000000
# 4 0.000000 0.000000 0.000000 0.026461 0.000000 0.000000
# 5 0.000000 0.000000 0.000000 0.000000 0.064039 0.000000
# 6 0.000000 0.000000 0.000000 0.000000 0.000000 0.047382
#
#
# Mechanical properties :
#
#
# Convention : Reuss Voigt Hill
#
# Bulk Modulus (GPa) = 18.16967 37.56240 27.86603
# Shear Modulus (GPa) = 19.37394 28.71492 24.04443
#
# Velocity S-wave (km/s) = 2.87437 3.49936 3.20215
# Velocity P-wave (km/s) = 4.33180 5.68734 5.05521
#
# Compressibility (1/GPa) = 0.05503679
#
# Stress axis : x y z
#
# Youngs Moduli (GPa) = 17.65418 67.09292 145.02500
#
# Poissons Ratio (x) = 0.58636 0.13003
# Poissons Ratio (y) = 0.15429 0.29981
# Poissons Ratio (z) = 0.01583 0.13870
#
# Static dielectric constant tensor:
#      x y z
#    x 1.968080 0.000000 0.000000 
#    y 0.000000 1.843540 0.000000 
#    z 0.000000 0.000000 1.869020 
# 
# From -- ./inp_files/6833.got.cif
#   From: 2010.05.17/outbox.cif.g08.bks.cpg/sg34_4_cif.got.tgz:6833.got - 2010.06.03 17:23:11.
