data_PCOD9347348
_publ_section_title
;
Structure prediction by ZEFSAII (Michael W. Deem and Ramdas Pophale) SiO2 
 PCOD9347348
Probable space group: P N N 2
;
_chemical_formula_sum "Si O2"
_cell_formula_units_Z 28
_cell_length_a 12.240107
_cell_length_b 8.015895
_cell_length_c 15.381790
_cell_angle_alpha 90.000000
_cell_angle_beta 90.000000
_cell_angle_gamma 90.000000
_cell_volume 1509.190671
_symmetry_space_group_name_H-M "P N N 2"
_symmetry_group_IT_number 34
_symmetry_cell_setting 'orthorhombic'
loop_
_space_group_symop_operation_xyz
x,y,z
-x,-y,z
1/2-x,1/2+y,1/2+z
1/2+x,1/2-y,1/2+z
loop_
_atom_site_type_symbol
_atom_site_label
_atom_site_fract_x
_atom_site_fract_y
_atom_site_fract_z
Si Si1 0.093603 0.365558 0.365410
Si Si2 0.773218 0.189230 0.189909
Si Si3 0.098284 0.123052 0.217526
Si Si4 0.435947 0.829320 0.070509
Si Si5 0.317229 0.540576 0.310307
Si Si6 0.000000 0.000000 0.665707
Si Si7 0.000000 0.000000 0.954631
Si Si8 0.016416 0.689777 0.085270
O O1 0.074972 0.200011 0.310352
O O2 0.083455 0.331939 0.467437
O O3 0.212641 0.430220 0.335834
O O4 0.000000 0.500000 0.342167
O O5 0.679572 0.179930 0.118396
O O6 0.731824 0.285595 0.275175
O O7 0.876592 0.286864 0.147084
O O8 0.800342 0.998564 0.213320
O O9 0.088713 0.266749 0.145746
O O10 0.000000 0.000000 0.193512
O O11 0.495881 0.664511 0.106202
O O12 0.500000 0.000000 0.092848
O O13 0.394619 0.485230 0.229557
O O14 0.397298 0.543383 0.393003
O O15 0.023321 0.835276 0.012751
O O16 0.000000 0.500000 0.053842
#
# Coordination Sequence:
#
# PCOD9347348 Si02
#       8
#     4   4   4   4   4   2   2   4
#     4  11  22  37  60  91 124 161 208 259 317 366
#     4  10  20  41  62  92 122 167 211 252 317 376
#     4  10  20  35  62  89 123 156 205 262 304 369
#     4  10  23  40  62  88 127 163 207 256 308 378
#     4  10  22  41  63  86 130 163 204 262 317 368
#     4   9  22  44  63  88 120 170 209 250 310 387
#     4  11  22  44  61  94 132 162 203 272 314 369
#     4  11  21  40  67  91 123 164 214 259 318 377
#
# _framework density 18.552992
#
# number of rings (size 3 to 8) (size 9 to 14) (size 15 to 20)
#    0.000    1.714    2.143    3.857    3.000    0.000 
#    5.143    1.429    0.000    0.000    0.000    0.000 
#    0.000    0.000    0.000    0.000    0.000    0.000 
#
# Total GULP energy -156087.692343 kJ/mol
# GULP energy per Si atom -5574.560441 kJ/mol
# Density = 1.851076 g / cm^3
# Si number density = 18.552992 Si / 1000 Ang^3
#
#
#
# Elastic Constant Matrix: (Units=GPa)
#
#
# Indices 1 2 3 4 5 6 
#
# 1 71.3519 38.0473 32.2603 0.0000 0.0000 0.0000
# 2 38.0473 140.3987 65.7140 0.0000 0.0000 0.0000
# 3 32.2603 65.7140 93.4008 0.0000 0.0000 0.0000
# 4 0.0000 0.0000 0.0000 30.3975 0.0000 0.0000
# 5 0.0000 0.0000 0.0000 0.0000 -0.0465 0.0000
# 6 0.0000 0.0000 0.0000 0.0000 0.0000 23.1230
#
#
#
# Elastic Compliance Matrix: (Units=1/GPa)
#
#
# Indices 1 2 3 4 5 6 
#
# 1 0.017329 -0.002825 -0.003998 0.000000 0.000000 0.000000
# 2 -0.002825 0.011080 -0.006820 0.000000 0.000000 0.000000
# 3 -0.003998 -0.006820 0.016886 0.000000 0.000000 0.000000
# 4 0.000000 0.000000 0.000000 0.032897 0.000000 0.000000
# 5 0.000000 0.000000 0.000000 0.000000-21.486440 0.000000
# 6 0.000000 0.000000 0.000000 0.000000 0.000000 0.043247
#
#
# Mechanical properties :
#
#
# Convention : Reuss Voigt Hill
#
# Bulk Modulus (GPa) = 55.52646 64.13271 59.82959
# Shear Modulus (GPa) = -0.23439 21.97010 10.86786
#
# Velocity S-wave (km/s) = -0.35582 3.44493 2.42290
# Velocity P-wave (km/s) = 5.46120 7.10392 6.33603
#
# Compressibility (1/GPa) = 0.01800943
#
# Stress axis : x y z
#
# Youngs Moduli (GPa) = 57.70706 90.25095 59.22147
#
# Poissons Ratio (x) = 0.25494 0.23676
# Poissons Ratio (y) = 0.16301 0.40389
# Poissons Ratio (z) = 0.23071 0.61551
#
# Static dielectric constant tensor:
#      x y z
#    x 1.676520 0.000000 0.000000 
#    y 0.000000 1.667510 0.000000 
#    z 0.000000 0.000000 1.625810 
# 
# From -- ./inp_files/6753.got.cif
#   From: 2010.05.17/outbox.cif.g08.bks.cpg/sg34_4_cif.got.tgz:6753.got - 2010.06.03 17:23:11.
