data_PCOD9347206
_publ_section_title
;
Structure prediction by ZEFSAII (Michael W. Deem and Ramdas Pophale) SiO2 
 PCOD9347206
Probable space group: P N N 2
;
_chemical_formula_sum "Si O2"
_cell_formula_units_Z 30
_cell_length_a 12.247557
_cell_length_b 16.557912
_cell_length_c 5.593546
_cell_angle_alpha 90.000000
_cell_angle_beta 90.000000
_cell_angle_gamma 90.000000
_cell_volume 1134.337405
_symmetry_space_group_name_H-M "P N N 2"
_symmetry_group_IT_number 34
_symmetry_cell_setting 'orthorhombic'
loop_
_space_group_symop_operation_xyz
x,y,z
-x,-y,z
1/2-x,1/2+y,1/2+z
1/2+x,1/2-y,1/2+z
loop_
_atom_site_type_symbol
_atom_site_label
_atom_site_fract_x
_atom_site_fract_y
_atom_site_fract_z
Si Si1 0.832824 0.901861 0.688730
Si Si2 0.852704 0.138312 0.281907
Si Si3 0.830784 0.539140 0.996852
Si Si4 0.071686 0.719030 0.624332
Si Si5 0.592020 0.092502 0.994899
Si Si6 0.211840 0.248944 0.398461
Si Si7 0.958936 0.804525 0.017154
Si Si8 0.500000 0.500000 0.887552
O O1 0.790352 0.813398 0.617717
O O2 0.938712 0.932509 0.543668
O O3 0.741601 0.965217 0.603390
O O4 0.886214 0.882978 0.947007
O O5 0.749144 0.115292 0.446534
O O6 0.909298 0.205944 0.450689
O O7 0.912712 0.173185 0.044183
O O8 0.906056 0.048845 0.257571
O O9 0.904167 0.558124 0.226890
O O10 0.884793 0.536056 0.729170
O O11 0.188231 0.713542 0.747601
O O12 0.024153 0.637301 0.514840
O O13 0.974152 0.739948 0.807925
O O14 0.694287 0.159024 0.993866
O O15 0.105703 0.235266 0.233743
#
# Coordination Sequence:
#
# PCOD9347206 Si02
#       8
#     4   4   4   4   4   4   4   2
#     4  11  25  44  69 107 149 198 244 318 387 462
#     4  11  22  37  65 107 142 186 235 306 381 442
#     4  11  28  45  75 107 154 197 247 313 389 457
#     4  12  25  42  69 106 141 192 251 313 371 443
#     4  12  24  49  71 109 146 193 257 313 372 461
#     4  12  25  45  73 108 150 195 257 313 382 457
#     4  12  22  43  72 106 147 191 248 309 385 453
#     4  10  18  40  58  98 140 176 234 296 376 450
#
# _framework density 26.447154000000001
#
# number of rings (size 3 to 8) (size 9 to 14) (size 15 to 20)
#    0.000    0.533    6.667    1.600    1.867    1.600 
#    0.000    0.667    0.000    0.000    0.000    0.000 
#    0.000    0.000    0.000    0.000    0.000    0.000 
#
# Total GULP energy -167105.869799 kJ/mol
# GULP energy per Si atom -5570.195660 kJ/mol
# Density = 2.638696 g / cm^3
# Si number density = 26.447154 Si / 1000 Ang^3
#
#
#
# Elastic Constant Matrix: (Units=GPa)
#
#
# Indices 1 2 3 4 5 6 
#
# 1 107.3529 20.3445 4.4122 0.0000 0.0000 0.0000
# 2 20.3445 50.0019 26.9799 0.0000 0.0000 0.0000
# 3 4.4122 26.9799 97.8649 0.0000 0.0000 0.0000
# 4 0.0000 0.0000 0.0000 35.8101 0.0000 0.0000
# 5 0.0000 0.0000 0.0000 0.0000 -364.3866 0.0000
# 6 0.0000 0.0000 0.0000 0.0000 0.0000 35.4710
#
#
#
# Elastic Compliance Matrix: (Units=1/GPa)
#
#
# Indices 1 2 3 4 5 6 
#
# 1 0.010146 -0.004560 0.000800 0.000000 0.000000 0.000000
# 2 -0.004560 0.025543 -0.006836 0.000000 0.000000 0.000000
# 3 0.000800 -0.006836 0.012067 0.000000 0.000000 0.000000
# 4 0.000000 0.000000 0.000000 0.027925 0.000000 0.000000
# 5 0.000000 0.000000 0.000000 0.000000 -0.002744 0.000000
# 6 0.000000 0.000000 0.000000 0.000000 0.000000 0.028192
#
#
# Mechanical properties :
#
#
# Convention : Reuss Voigt Hill
#
# Bulk Modulus (GPa) = 37.64572 39.85477 38.75025
# Shear Modulus (GPa) = 38.11660 -45.05555 -3.46947
#
# Velocity S-wave (km/s) = 3.80048 -4.13195 -1.14660
# Velocity P-wave (km/s) = 5.78994 2.76799 3.59595
#
# Compressibility (1/GPa) = 0.02656344
#
# Stress axis : x y z
#
# Youngs Moduli (GPa) = 98.55783 39.14935 82.87214
#
# Poissons Ratio (x) = 0.17851 -0.06627
# Poissons Ratio (y) = 0.44940 0.56654
# Poissons Ratio (z) = -0.07881 0.26764
#
# Static dielectric constant tensor:
#      x y z
#    x 7.362150 0.000000 0.000000 
#    y 0.000000 2.063000 0.000000 
#    z 0.000000 0.000000 2.237310 
# 
# From -- ./inp_files/1306.got.cif
#   From: 2010.05.17/outbox.cif.g08.bks.cpg/sg34_1_cif.got.tgz:1306.got - 2010.06.03 17:23:11.
