data_PCOD9347366
_publ_section_title
;
Structure prediction by ZEFSAII (Michael W. Deem and Ramdas Pophale) SiO2 
 PCOD9347366
Probable space group: P N N 2
;
_chemical_formula_sum "Si O2"
_cell_formula_units_Z 30
_cell_length_a 11.686808
_cell_length_b 13.056890
_cell_length_c 8.029121
_cell_angle_alpha 90.000000
_cell_angle_beta 90.000000
_cell_angle_gamma 90.000000
_cell_volume 1225.190603
_symmetry_space_group_name_H-M "P N N 2"
_symmetry_group_IT_number 34
_symmetry_cell_setting 'orthorhombic'
loop_
_space_group_symop_operation_xyz
x,y,z
-x,-y,z
1/2-x,1/2+y,1/2+z
1/2+x,1/2-y,1/2+z
loop_
_atom_site_type_symbol
_atom_site_label
_atom_site_fract_x
_atom_site_fract_y
_atom_site_fract_z
Si Si1 0.379622 0.938206 0.229580
Si Si2 0.223023 0.779275 0.045182
Si Si3 0.600978 0.304734 0.826999
Si Si4 0.613100 0.793972 0.890381
Si Si5 0.500000 0.000000 0.790959
Si Si6 0.822909 0.614668 0.095694
Si Si7 0.711531 0.408249 0.574468
Si Si8 0.879435 0.056362 0.802566
O O1 0.329858 0.854554 0.096519
O O2 0.358763 0.881608 0.404617
O O3 0.500000 0.000000 0.226198
O O4 0.289744 0.027853 0.197734
O O5 0.161014 0.736409 0.208614
O O6 0.288546 0.690368 0.944753
O O7 0.135929 0.844084 0.926598
O O8 0.484624 0.289165 0.925355
O O9 0.626905 0.204222 0.713582
O O10 0.598896 0.388778 0.682742
O O11 0.546535 0.903254 0.894507
O O12 0.717563 0.808068 0.016877
O O13 0.394602 0.979130 0.670941
O O14 0.692245 0.588786 0.140426
O O15 0.687749 0.470122 0.408233
O O16 0.000000 0.000000 0.771038
#
# Coordination Sequence:
#
# PCOD9347366 Si02
#       8
#     4   4   4   4   2   4   4   4
#     4  11  23  39  65  94 126 164 215 269 322 389
#     4  10  23  41  62  93 130 166 213 267 326 388
#     4  10  23  39  61  92 126 165 212 268 329 386
#     4  11  22  41  66  90 133 164 215 269 327 382
#     4  10  20  36  68  92 120 166 210 270 320 374
#     4  10  20  39  60  91 121 162 212 262 321 383
#     4  11  23  37  63  94 123 166 215 256 324 394
#     4  10  21  41  62  88 125 167 211 259 319 388
#
# _framework density 24.485986
#
# number of rings (size 3 to 8) (size 9 to 14) (size 15 to 20)
#    0.000    1.600    2.000    2.400    4.667    0.000 
#    0.000   14.667    0.000    0.000    0.000    0.000 
#    0.000    0.000    0.000    0.000    0.000    0.000 
#
# Total GULP energy -167378.121706 kJ/mol
# GULP energy per Si atom -5579.270724 kJ/mol
# Density = 2.443025 g / cm^3
# Si number density = 24.485986 Si / 1000 Ang^3
#
#
#
# Elastic Constant Matrix: (Units=GPa)
#
#
# Indices 1 2 3 4 5 6 
#
# 1 89.3408 22.2067 13.6076 0.0000 0.0000 0.0000
# 2 22.2067 37.9314 8.3241 0.0000 0.0000 0.0000
# 3 13.6076 8.3241 40.1684 0.0000 0.0000 0.0000
# 4 0.0000 0.0000 0.0000 37.2899 0.0000 0.0000
# 5 0.0000 0.0000 0.0000 0.0000 32.5665 0.0000
# 6 0.0000 0.0000 0.0000 0.0000 0.0000 28.9712
#
#
#
# Elastic Compliance Matrix: (Units=1/GPa)
#
#
# Indices 1 2 3 4 5 6 
#
# 1 0.013450 -0.007202 -0.003064 0.000000 0.000000 0.000000
# 2 -0.007202 0.031476 -0.004083 0.000000 0.000000 0.000000
# 3 -0.003064 -0.004083 0.026779 0.000000 0.000000 0.000000
# 4 0.000000 0.000000 0.000000 0.026817 0.000000 0.000000
# 5 0.000000 0.000000 0.000000 0.000000 0.030706 0.000000
# 6 0.000000 0.000000 0.000000 0.000000 0.000000 0.034517
#
#
# Mechanical properties :
#
#
# Convention : Reuss Voigt Hill
#
# Bulk Modulus (GPa) = 23.25179 28.41304 25.83241
# Shear Modulus (GPa) = 24.18051 27.98566 26.08308
#
# Velocity S-wave (km/s) = 3.14590 3.38439 3.26732
# Velocity P-wave (km/s) = 4.76573 5.18662 4.98062
#
# Compressibility (1/GPa) = 0.04300745
#
# Stress axis : x y z
#
# Youngs Moduli (GPa) = 74.35031 31.77063 37.34234
#
# Poissons Ratio (x) = 0.22880 0.11441
# Poissons Ratio (y) = 0.53545 0.15247
# Poissons Ratio (z) = 0.22780 0.12972
#
# Static dielectric constant tensor:
#      x y z
#    x 1.965870 0.000000 0.000000 
#    y 0.000000 2.043850 0.000000 
#    z 0.000000 0.000000 1.906250 
# 
# From -- ./inp_files/3304.got.cif
#   From: 2010.05.17/outbox.cif.g08.bks.cpg/sg34_2_cif.got.tgz:3304.got - 2010.06.03 17:23:11.
