data_PCOD9347100
_publ_section_title
;
Structure prediction by ZEFSAII (Michael W. Deem and Ramdas Pophale) SiO2 
 PCOD9347100
Probable space group: P N N 2
;
_chemical_formula_sum "Si O2"
_cell_formula_units_Z 28
_cell_length_a 5.372725
_cell_length_b 7.060533
_cell_length_c 30.103641
_cell_angle_alpha 90.000000
_cell_angle_beta 90.000000
_cell_angle_gamma 90.000000
_cell_volume 1141.960614
_symmetry_space_group_name_H-M "P N N 2"
_symmetry_group_IT_number 34
_symmetry_cell_setting 'orthorhombic'
loop_
_space_group_symop_operation_xyz
x,y,z
-x,-y,z
1/2-x,1/2+y,1/2+z
1/2+x,1/2-y,1/2+z
loop_
_atom_site_type_symbol
_atom_site_label
_atom_site_fract_x
_atom_site_fract_y
_atom_site_fract_z
Si Si1 0.747754 0.770443 0.440510
Si Si2 0.747122 0.872463 0.342439
Si Si3 0.067767 0.791550 0.578781
Si Si4 0.742858 0.701265 0.978283
Si Si5 0.947371 0.222066 0.212177
Si Si6 0.564430 0.777414 0.611409
Si Si7 0.556090 0.774662 0.249407
O O1 0.755327 0.753980 0.387620
O O2 0.499613 0.704366 0.464650
O O3 0.003942 0.696619 0.459265
O O4 0.751182 0.994877 0.454546
O O5 0.685458 0.759380 0.297570
O O6 0.500000 0.000000 0.348044
O O7 0.000000 0.000000 0.338392
O O8 0.188055 0.819789 0.530288
O O9 0.287955 0.690438 0.605611
O O10 0.788045 0.709367 0.579434
O O11 0.000000 0.000000 0.597902
O O12 0.855713 0.246188 0.161970
O O13 0.725454 0.299139 0.243472
O O14 0.228693 0.300467 0.216715
O O15 0.000000 0.000000 0.221953
O O16 0.500000 0.000000 0.603327
O O17 0.500000 0.000000 0.242147
#
# Coordination Sequence:
#
# PCOD9347100 Si02
#       7
#     4   4   4   4   4   4   4
#     4  10  16  22  35  55  84 125 156 172 207 275
#     4  11  16  25  36  60  88 117 161 179 218 269
#     4  10  18  28  43  62  91 121 159 182 229 275
#     4  10  16  24  35  55  84 126 154 171 213 276
#     4  10  19  35  49  66  88 122 158 190 247 278
#     4  10  21  32  48  69  89 119 157 202 232 278
#     4   9  18  28  46  63  86 120 157 188 224 285
#
# _framework density 24.519234000000001
#
# number of rings (size 3 to 8) (size 9 to 14) (size 15 to 20)
#    0.000    2.000    4.286    3.857    4.000    0.000 
#    0.000    0.000    0.000    0.000    0.000    0.000 
#    0.000    0.000    0.000   25.714    2.857    0.000 
#
# Total GULP energy -156161.264517 kJ/mol
# GULP energy per Si atom -5577.188018 kJ/mol
# Density = 2.446343 g / cm^3
# Si number density = 24.519234 Si / 1000 Ang^3
#
#
#
# Elastic Constant Matrix: (Units=GPa)
#
#
# Indices 1 2 3 4 5 6 
#
# 1 263.5895 7.5298 55.8224 0.0000 0.0000 0.0000
# 2 7.5298 81.9137 -23.6032 0.0000 0.0000 0.0000
# 3 55.8224 -23.6032 106.9175 0.0000 0.0000 0.0000
# 4 0.0000 0.0000 0.0000 -6.7479 0.0000 0.0000
# 5 0.0000 0.0000 0.0000 0.0000 50.4532 0.0000
# 6 0.0000 0.0000 0.0000 0.0000 0.0000 -22.1957
#
#
#
# Elastic Compliance Matrix: (Units=1/GPa)
#
#
# Indices 1 2 3 4 5 6 
#
# 1 0.004361 -0.001129 -0.002526 0.000000 0.000000 0.000000
# 2 -0.001129 0.013329 0.003532 0.000000 0.000000 0.000000
# 3 -0.002526 0.003532 0.011452 0.000000 0.000000 0.000000
# 4 0.000000 0.000000 0.000000 -0.148194 0.000000 0.000000
# 5 0.000000 0.000000 0.000000 0.000000 0.019820 0.000000
# 6 0.000000 0.000000 0.000000 0.000000 0.000000 -0.045054
#
#
# Mechanical properties :
#
#
# Convention : Reuss Voigt Hill
#
# Bulk Modulus (GPa) = 34.60656 59.10209 46.85433
# Shear Modulus (GPa) = -37.20022 31.81336 -2.69343
#
# Velocity S-wave (km/s) = -3.89933 3.60597 -1.04923
# Velocity P-wave (km/s) = 2.47555 6.44159 4.20510
#
# Compressibility (1/GPa) = 0.02889626
#
# Stress axis : x y z
#
# Youngs Moduli (GPa) = 229.30554 75.02180 87.32392
#
# Poissons Ratio (x) = 0.08468 0.22059
# Poissons Ratio (y) = 0.25883 -0.30842
# Poissons Ratio (z) = 0.57925 -0.26497
#
# Static dielectric constant tensor:
#      x y z
#    x 2.032660 0.000000 0.000000 
#    y 0.000000 2.002990 0.000000 
#    z 0.000000 0.000000 1.941950 
# 
# From -- ./inp_files/8577.got.cif
#   From: 2010.05.17/outbox.cif.g08.bks.cpg/sg34_5_cif.got.tgz:8577.got - 2010.06.03 17:23:11.
