data_PCOD9347309
_publ_section_title
;
Structure prediction by ZEFSAII (Michael W. Deem and Ramdas Pophale) SiO2 
 PCOD9347309
Probable space group: P N N 2
;
_chemical_formula_sum "Si O2"
_cell_formula_units_Z 24
_cell_length_a 5.160810
_cell_length_b 8.239925
_cell_length_c 23.100023
_cell_angle_alpha 90.000000
_cell_angle_beta 90.000000
_cell_angle_gamma 90.000000
_cell_volume 982.321256
_symmetry_space_group_name_H-M "P N N 2"
_symmetry_group_IT_number 34
_symmetry_cell_setting 'orthorhombic'
loop_
_space_group_symop_operation_xyz
x,y,z
-x,-y,z
1/2-x,1/2+y,1/2+z
1/2+x,1/2-y,1/2+z
loop_
_atom_site_type_symbol
_atom_site_label
_atom_site_fract_x
_atom_site_fract_y
_atom_site_fract_z
Si Si1 0.000000 0.500000 0.278880
Si Si2 0.644803 0.179521 0.131057
Si Si3 0.882537 0.318728 0.949986
Si Si4 0.151915 0.172132 0.329176
Si Si5 0.840990 0.766474 0.058073
Si Si6 0.000000 0.000000 0.523548
Si Si7 0.000000 0.000000 0.699417
Si Si8 0.500000 0.000000 0.236546
O O1 0.978083 0.327832 0.312741
O O2 0.250754 0.478301 0.239413
O O3 0.396135 0.142395 0.089230
O O4 0.555877 0.347008 0.159782
O O5 0.904213 0.201067 0.095015
O O6 0.694169 0.075954 0.189304
O O7 0.811576 0.270691 0.885503
O O8 0.000000 0.500000 0.944451
O O9 0.618421 0.355134 0.985317
O O10 0.066120 0.211001 0.991173
O O11 0.348796 0.123482 0.277770
O O12 0.000000 0.000000 0.341298
O O13 0.735731 0.581232 0.057213
#
# Coordination Sequence:
#
# PCOD9347309 Si02
#       8
#     2   4   4   4   4   2   2   2
#     4  12  28  50  75 111 156 198 268 316 404 470
#     4  12  26  43  75 105 156 198 262 321 398 480
#     4  10  21  40  73 112 146 199 263 328 397 476
#     4  12  26  49  81 115 158 212 268 340 402 500
#     4  11  24  41  69 113 145 198 258 328 387 480
#     4  10  19  40  68 110 144 188 263 316 396 456
#     4  12  25  46  66 110 144 190 249 322 372 470
#     4  12  28  50  73 111 164 226 262 332 428 484
#
# _framework density 24.431925
#
# number of rings (size 3 to 8) (size 9 to 14) (size 15 to 20)
#    0.000    0.667    5.000    2.500    7.000    0.000 
#    0.000    0.833    3.667    0.000    0.000    0.000 
#    0.000    0.000    0.000    0.000    0.000    0.000 
#
# Total GULP energy -134113.354688 kJ/mol
# GULP energy per Si atom -5588.056445 kJ/mol
# Density = 2.437632 g / cm^3
# Si number density = 24.431925 Si / 1000 Ang^3
#
#
#
# Elastic Constant Matrix: (Units=GPa)
#
#
# Indices 1 2 3 4 5 6 
#
# 1 175.0515 40.2486 73.4095 0.0000 0.0000 0.0000
# 2 40.2486 97.0424 52.6770 0.0000 0.0000 0.0000
# 3 73.4095 52.6770 164.4892 0.0000 0.0000 0.0000
# 4 0.0000 0.0000 0.0000 0.6588 0.0000 0.0000
# 5 0.0000 0.0000 0.0000 0.0000 26.1736 0.0000
# 6 0.0000 0.0000 0.0000 0.0000 0.0000 28.6034
#
#
#
# Elastic Compliance Matrix: (Units=1/GPa)
#
#
# Indices 1 2 3 4 5 6 
#
# 1 0.007205 -0.001504 -0.002734 0.000000 0.000000 0.000000
# 2 -0.001504 0.012787 -0.003424 0.000000 0.000000 0.000000
# 3 -0.002734 -0.003424 0.008396 0.000000 0.000000 0.000000
# 4 0.000000 0.000000 0.000000 1.517957 0.000000 0.000000
# 5 0.000000 0.000000 0.000000 0.000000 0.038207 0.000000
# 6 0.000000 0.000000 0.000000 0.000000 0.000000 0.034961
#
#
# Mechanical properties :
#
#
# Convention : Reuss Voigt Hill
#
# Bulk Modulus (GPa) = 76.54328 85.47258 81.00793
# Shear Modulus (GPa) = 3.05029 29.10367 16.07698
#
# Velocity S-wave (km/s) = 1.11857 3.45514 2.56800
# Velocity P-wave (km/s) = 5.75026 7.13984 6.48239
#
# Compressibility (1/GPa) = 0.01306450
#
# Stress axis : x y z
#
# Youngs Moduli (GPa) = 138.79465 78.20349 119.10634
#
# Poissons Ratio (x) = 0.11764 0.32560
# Poissons Ratio (y) = 0.20879 0.40778
# Poissons Ratio (z) = 0.37942 0.26774
#
# Static dielectric constant tensor:
#      x y z
#    x 1.969400 0.000000 0.000000 
#    y 0.000000 2.089590 0.000000 
#    z 0.000000 0.000000 1.964030 
# 
# From -- ./inp_files/8325.got.cif
#   From: 2010.05.17/outbox.cif.g08.bks.cpg/sg34_5_cif.got.tgz:8325.got - 2010.06.03 17:23:11.
