data_PCOD9347015
_publ_section_title
;
Structure prediction by ZEFSAII (Michael W. Deem and Ramdas Pophale) SiO2 
 PCOD9347015
Probable space group: P N A 21
;
_chemical_formula_sum "Si O2"
_cell_formula_units_Z 24
_cell_length_a 14.795244
_cell_length_b 13.596242
_cell_length_c 5.095025
_cell_angle_alpha 90.000000
_cell_angle_beta 90.000000
_cell_angle_gamma 90.000000
_cell_volume 1024.913792
_symmetry_space_group_name_H-M "P N A 21"
_symmetry_group_IT_number 33
_symmetry_cell_setting 'orthorhombic'
loop_
_space_group_symop_operation_xyz
x,y,z
-x,-y,1/2+z
1/2-x,1/2+y,1/2+z
1/2+x,1/2-y,z
loop_
_atom_site_type_symbol
_atom_site_label
_atom_site_fract_x
_atom_site_fract_y
_atom_site_fract_z
Si Si1 0.752446 0.579395 0.583940
Si Si2 0.300608 0.791524 0.078122
Si Si3 0.658458 0.873861 0.980137
Si Si4 0.493289 0.765676 0.279537
Si Si5 0.019917 0.564373 0.620492
Si Si6 0.458659 0.449328 0.996431
O O1 0.770924 0.656322 0.349096
O O2 0.814494 0.482802 0.567842
O O3 0.774604 0.631700 0.854851
O O4 0.647555 0.548053 0.562608
O O5 0.244227 0.694555 0.011705
O O6 0.405593 0.763846 0.097603
O O7 0.485348 0.984478 0.889195
O O8 0.577882 0.815898 0.130176
O O9 0.619273 0.893890 0.688897
O O10 0.468312 0.841436 0.512504
O O11 0.517870 0.660217 0.395288
O O12 0.513768 0.478790 0.257417
#
# Coordination Sequence:
#
# PCOD9347015 Si02
#       6
#     4   4   4   4   4   4
#     4  12  29  50  78 118 160 206 275 336 402 485
#     4  12  30  49  77 116 160 210 270 336 405 484
#     4  12  29  51  80 117 162 211 270 337 404 485
#     4  12  29  50  82 119 164 219 270 338 415 484
#     4  12  27  46  79 120 160 210 261 335 410 479
#     4  12  28  54  84 114 164 224 276 334 408 497
#
# _framework density 23.416602000000001
#
# number of rings (size 3 to 8) (size 9 to 14) (size 15 to 20)
#    0.000    0.000    3.333    4.000   11.667    1.333 
#    0.000    0.000    0.000    0.000    0.000    0.000 
#    0.000    0.000    0.000    0.000    0.000    0.000 
#
# Total GULP energy -134542.461147 kJ/mol
# GULP energy per Si atom -5605.935881 kJ/mol
# Density = 2.336331 g / cm^3
# Si number density = 23.416602 Si / 1000 Ang^3
#
#
#
# Elastic Constant Matrix: (Units=GPa)
#
#
# Indices 1 2 3 4 5 6 
#
# 1 146.9709 45.2935 52.4090 0.0000 0.0000 0.0000
# 2 45.2935 104.8413 4.9789 0.0000 0.0000 0.0000
# 3 52.4090 4.9789 94.5996 0.0000 0.0000 0.0000
# 4 0.0000 0.0000 0.0000 29.8163 0.0000 0.0000
# 5 0.0000 0.0000 0.0000 0.0000 33.6622 0.0000
# 6 0.0000 0.0000 0.0000 0.0000 0.0000 42.3052
#
#
#
# Elastic Compliance Matrix: (Units=1/GPa)
#
#
# Indices 1 2 3 4 5 6 
#
# 1 0.009937 -0.004042 -0.005292 0.000000 0.000000 0.000000
# 2 -0.004042 0.011206 0.001649 0.000000 0.000000 0.000000
# 3 -0.005292 0.001649 0.013416 0.000000 0.000000 0.000000
# 4 0.000000 0.000000 0.000000 0.033539 0.000000 0.000000
# 5 0.000000 0.000000 0.000000 0.000000 0.029707 0.000000
# 6 0.000000 0.000000 0.000000 0.000000 0.000000 0.023638
#
#
# Mechanical properties :
#
#
# Convention : Reuss Voigt Hill
#
# Bulk Modulus (GPa) = 52.11176 61.30828 56.71002
# Shear Modulus (GPa) = 34.91423 37.40543 36.15983
#
# Velocity S-wave (km/s) = 3.86554 4.00107 3.93389
# Velocity P-wave (km/s) = 6.49813 6.89805 6.70108
#
# Compressibility (1/GPa) = 0.01918953
#
# Stress axis : x y z
#
# Youngs Moduli (GPa) = 100.63570 89.23844 74.53737
#
# Poissons Ratio (x) = 0.36066 0.39448
# Poissons Ratio (y) = 0.40673 -0.12293
# Poissons Ratio (z) = 0.53260 -0.14718
#
# Static dielectric constant tensor:
#      x y z
#    x 1.931670 0.000000 0.000000 
#    y 0.000000 1.862050 0.000000 
#    z 0.000000 0.000000 1.902470 
# 
# From -- ./inp_files/784.got.cif
#   From: 2010.05.17/outbox.cif.g08.bks.cpg/sg33_1_cif.got.tgz:784.got - 2010.06.03 17:15:25.
