data_PCOD9347851
_publ_section_title
;
Structure prediction by ZEFSAII (Michael W. Deem and Ramdas Pophale) SiO2 
 PCOD9347851
Probable space group: P N N 2
;
_chemical_formula_sum "Si O2"
_cell_formula_units_Z 18
_cell_length_a 15.327120
_cell_length_b 9.586102
_cell_length_c 4.701855
_cell_angle_alpha 90.000000
_cell_angle_beta 90.000000
_cell_angle_gamma 90.000000
_cell_volume 690.831028
_symmetry_space_group_name_H-M "P N N 2"
_symmetry_group_IT_number 34
_symmetry_cell_setting 'orthorhombic'
loop_
_space_group_symop_operation_xyz
x,y,z
-x,-y,z
1/2-x,1/2+y,1/2+z
1/2+x,1/2-y,1/2+z
loop_
_atom_site_type_symbol
_atom_site_label
_atom_site_fract_x
_atom_site_fract_y
_atom_site_fract_z
Si Si1 0.247160 0.083414 0.663090
Si Si2 0.504287 0.713057 0.852922
Si Si3 0.861430 0.990579 0.201272
Si Si4 0.862006 0.353144 0.697572
Si Si5 0.500000 0.000000 0.532813
O O1 0.086143 0.131636 0.367044
O O2 0.216294 0.969720 0.423557
O O3 0.285618 0.191425 0.419606
O O4 0.171238 0.069034 0.901911
O O5 0.569908 0.614021 0.678649
O O6 0.488587 0.862032 0.715835
O O7 0.561393 0.743598 0.131784
O O8 0.675367 0.904710 0.895754
O O9 0.913927 0.479139 0.844350
#
# Coordination Sequence:
#
# PCOD9347851 Si02
#       5
#     4   4   4   4   2
#     4  10  24  49  69 113 151 198 244 321 379 442
#     4  11  26  50  80 111 151 201 263 306 378 465
#     4  10  26  49  80 110 148 203 257 315 378 454
#     4  11  24  48  71 109 153 200 249 310 380 454
#     4  12  26  48  74 110 148 204 238 310 372 464
#
# _framework density 26.055575000000001
#
# number of rings (size 3 to 8) (size 9 to 14) (size 15 to 20)
#    0.000    1.333    2.222    0.667    6.222    1.778 
#   24.000    0.000    0.000    0.000    0.000    0.000 
#    0.000    0.000    0.000    0.000    0.000    0.000 
#
# Total GULP energy -100261.804213 kJ/mol
# GULP energy per Si atom -5570.100234 kJ/mol
# Density = 2.599627 g / cm^3
# Si number density = 26.055575 Si / 1000 Ang^3
#
#
#
# Elastic Constant Matrix: (Units=GPa)
#
#
# Indices 1 2 3 4 5 6 
#
# 1 91.9804 29.0938 62.2719 0.0000 0.0000 0.0000
# 2 29.0938 106.2226 45.4495 0.0000 0.0000 0.0000
# 3 62.2719 45.4495 238.1272 0.0000 0.0000 0.0000
# 4 0.0000 0.0000 0.0000 30.1078 0.0000 0.0000
# 5 0.0000 0.0000 0.0000 0.0000 20.2700 0.0000
# 6 0.0000 0.0000 0.0000 0.0000 0.0000 -108.2207
#
#
#
# Elastic Compliance Matrix: (Units=1/GPa)
#
#
# Indices 1 2 3 4 5 6 
#
# 1 0.013763 -0.002428 -0.003136 0.000000 0.000000 0.000000
# 2 -0.002428 0.010680 -0.001403 0.000000 0.000000 0.000000
# 3 -0.003136 -0.001403 0.005287 0.000000 0.000000 0.000000
# 4 0.000000 0.000000 0.000000 0.033214 0.000000 0.000000
# 5 0.000000 0.000000 0.000000 0.000000 0.049334 0.000000
# 6 0.000000 0.000000 0.000000 0.000000 0.000000 -0.009240
#
#
# Mechanical properties :
#
#
# Convention : Reuss Voigt Hill
#
# Bulk Modulus (GPa) = 63.30825 78.88451 71.09638
# Shear Modulus (GPa) = 40.90431 8.39910 24.65170
#
# Velocity S-wave (km/s) = 3.96648 1.79737 3.07924
# Velocity P-wave (km/s) = 6.73256 5.88630 6.32361
#
# Compressibility (1/GPa) = 0.01579573
#
# Stress axis : x y z
#
# Youngs Moduli (GPa) = 72.66011 93.63591 189.13269
#
# Poissons Ratio (x) = 0.22734 0.59305
# Poissons Ratio (y) = 0.17641 0.26544
# Poissons Ratio (z) = 0.22784 0.13141
#
# Static dielectric constant tensor:
#      x y z
#    x 2.275110 0.000000 0.000000 
#    y 0.000000 2.135810 0.000000 
#    z 0.000000 0.000000 2.045980 
# 
# From -- ./inp_files/798.got.cif
#   From: 2010.05.17/outbox.cif.g08.bks.cpg/sg34_1_cif.got.tgz:798.got - 2010.06.03 17:23:11.
