data_PCOD9347066
_publ_section_title
;
Structure prediction by ZEFSAII (Michael W. Deem and Ramdas Pophale) SiO2 
 PCOD9347066
Probable space group: P N A 21
;
_chemical_formula_sum "Si O2"
_cell_formula_units_Z 32
_cell_length_a 21.000000
_cell_length_b 9.000000
_cell_length_c 9.000000
_cell_angle_alpha 90.000000
_cell_angle_beta 90.000000
_cell_angle_gamma 90.000000
_cell_volume 1701.000000
_symmetry_space_group_name_H-M "P N A 21"
_symmetry_group_IT_number 33
_symmetry_cell_setting 'orthorhombic'
loop_
_space_group_symop_operation_xyz
x,y,z
-x,-y,1/2+z
1/2-x,1/2+y,1/2+z
1/2+x,1/2-y,z
loop_
_atom_site_type_symbol
_atom_site_label
_atom_site_fract_x
_atom_site_fract_y
_atom_site_fract_z
Si Si1 0.359496 0.963941 0.950860
Si Si2 0.837523 0.750970 0.679387
Si Si3 0.268338 0.000064 0.221447
Si Si4 0.162448 0.757966 0.256436
Si Si5 0.018382 0.844248 0.263466
Si Si6 0.998905 0.517302 0.096518
Si Si7 0.356594 0.039577 0.494648
Si Si8 0.522031 0.335101 0.108152
O O1 0.351207 0.828681 0.836656
O O2 0.342578 0.119211 0.869309
O O3 0.432622 0.973069 0.007018
O O4 0.308644 0.945324 0.081039
O O5 0.778217 0.861971 0.684804
O O6 0.830124 0.611873 0.568381
O O7 0.902138 0.833006 0.631693
O O8 0.322761 0.049103 0.337286
O O9 0.221607 0.868258 0.277365
O O10 0.095173 0.842179 0.266830
O O11 0.163926 0.678834 0.095454
O O12 0.000752 0.676581 0.192851
O O13 0.994072 0.844266 0.433186
O O14 0.999087 0.005377 0.184924
O O15 0.066049 0.528017 0.005291
O O16 0.001201 0.339914 0.155737
#
# Coordination Sequence:
#
# PCOD9347066 Si02
#       8
#     4   4   4   4   4   4   4   4
#     4  11  24  41  68  94 134 181 224 283 345 416
#     4  10  23  42  60  93 135 171 217 282 342 399
#     4  12  22  39  68  95 127 174 226 267 345 418
#     4  10  21  44  59  90 138 167 218 283 339 399
#     4  11  24  43  68 101 136 183 229 288 352 407
#     4  10  24  43  70  99 136 178 233 286 344 405
#     4   9  22  39  65  91 128 174 217 275 333 399
#     4  11  24  43  70  99 138 182 226 288 348 411
#
# _framework density 18.812463000000001
#
# number of rings (size 3 to 8) (size 9 to 14) (size 15 to 20)
#    0.000    1.500    2.500    2.250    5.250    0.000 
#    2.250    0.000    0.000    0.000    0.000    0.000 
#    0.000    0.000    0.000    0.000    0.000    0.000 
#
# Total GULP energy -178306.342871 kJ/mol
# GULP energy per Si atom -5572.073215 kJ/mol
# Density = 1.876965 g / cm^3
# Si number density = 18.812463 Si / 1000 Ang^3
#
#
#
# Elastic Constant Matrix: (Units=GPa)
#
#
# Indices 1 2 3 4 5 6 
#
# 1 106.3515 38.7693 47.5752 0.0000 0.0000 0.0000
# 2 38.7693 112.5838 36.5914 0.0000 0.0000 0.0000
# 3 47.5752 36.5914 97.2249 0.0000 0.0000 0.0000
# 4 0.0000 0.0000 0.0000 24.3361 0.0000 0.0000
# 5 0.0000 0.0000 0.0000 0.0000 32.1192 0.0000
# 6 0.0000 0.0000 0.0000 0.0000 0.0000 27.2384
#
#
#
# Elastic Compliance Matrix: (Units=1/GPa)
#
#
# Indices 1 2 3 4 5 6 
#
# 1 0.012712 -0.002684 -0.005210 0.000000 0.000000 0.000000
# 2 -0.002684 0.010687 -0.002709 0.000000 0.000000 0.000000
# 3 -0.005210 -0.002709 0.013854 0.000000 0.000000 0.000000
# 4 0.000000 0.000000 0.000000 0.041091 0.000000 0.000000
# 5 0.000000 0.000000 0.000000 0.000000 0.031134 0.000000
# 6 0.000000 0.000000 0.000000 0.000000 0.000000 0.036713
#
#
# Mechanical properties :
#
#
# Convention : Reuss Voigt Hill
#
# Bulk Modulus (GPa) = 62.31573 62.44800 62.38186
# Shear Modulus (GPa) = 28.94415 29.62036 29.28226
#
# Velocity S-wave (km/s) = 3.92671 3.97231 3.94957
# Velocity P-wave (km/s) = 7.33180 7.36927 7.35056
#
# Compressibility (1/GPa) = 0.01604731
#
# Stress axis : x y z
#
# Youngs Moduli (GPa) = 78.66609 93.57219 72.17943
#
# Poissons Ratio (x) = 0.25116 0.37607
# Poissons Ratio (y) = 0.21115 0.19551
# Poissons Ratio (z) = 0.40986 0.25346
#
# Static dielectric constant tensor:
#      x y z
#    x 1.621850 0.000000 0.000000 
#    y 0.000000 1.680980 0.000000 
#    z 0.000000 0.000000 1.696550 
# 
# From -- ./inp_files/4974.got.cif
#   From: 2010.05.17/outbox.ucp.g08.bks.cvg/sg33_3_cif.got.tgz:4974.got - 2010.06.11 10:35:07.
