data_PCOD9347297
_publ_section_title
;
Structure prediction by ZEFSAII (Michael W. Deem and Ramdas Pophale) SiO2 
 PCOD9347297
Probable space group: P N N 2
;
_chemical_formula_sum "Si O2"
_cell_formula_units_Z 30
_cell_length_a 9.432888
_cell_length_b 10.612416
_cell_length_c 13.730509
_cell_angle_alpha 90.000000
_cell_angle_beta 90.000000
_cell_angle_gamma 90.000000
_cell_volume 1374.502648
_symmetry_space_group_name_H-M "P N N 2"
_symmetry_group_IT_number 34
_symmetry_cell_setting 'orthorhombic'
loop_
_space_group_symop_operation_xyz
x,y,z
-x,-y,z
1/2-x,1/2+y,1/2+z
1/2+x,1/2-y,1/2+z
loop_
_atom_site_type_symbol
_atom_site_label
_atom_site_fract_x
_atom_site_fract_y
_atom_site_fract_z
Si Si1 0.230200 0.668863 0.924930
Si Si2 0.226348 0.941628 0.020176
Si Si3 0.994088 0.211686 0.325621
Si Si4 0.644015 0.323393 0.617464
Si Si5 0.500000 0.000000 0.895017
Si Si6 0.071140 0.637654 0.723218
Si Si7 0.267263 0.796266 0.220703
Si Si8 0.924163 0.384184 0.103322
O O1 0.399502 0.661384 0.908382
O O2 0.154568 0.638356 0.824307
O O3 0.193721 0.812393 0.961432
O O4 0.164507 0.582181 0.007890
O O5 0.250950 0.894274 0.131308
O O6 0.129748 0.062759 0.041497
O O7 0.363174 0.994369 0.964642
O O8 0.065006 0.166037 0.223057
O O9 0.000139 0.363973 0.340533
O O10 0.830456 0.169168 0.313643
O O11 0.811788 0.317720 0.644204
O O12 0.554805 0.207393 0.575964
O O13 0.000000 0.500000 0.706530
O O14 0.932553 0.724226 0.734830
O O15 0.187478 0.676666 0.176288
O O16 0.000000 0.500000 0.151191
#
# Coordination Sequence:
#
# PCOD9347297 Si02
#       8
#     4   4   4   4   2   4   4   4
#     4   9  21  38  60  92 127 161 215 271 344 387
#     4  10  19  38  62  94 123 168 215 280 309 407
#     4   9  21  37  59  94 126 166 215 271 326 404
#     4  10  21  37  67  92 125 172 231 263 334 397
#     4  10  20  38  66  88 134 164 210 278 346 360
#     4  11  20  39  63  97 132 169 216 283 331 394
#     4  10  21  36  64  92 124 170 223 256 341 393
#     4  10  22  41  64  84 129 178 218 269 333 399
#
# _framework density 21.826076
#
# number of rings (size 3 to 8) (size 9 to 14) (size 15 to 20)
#    0.000    2.133    1.333    1.200    3.733    5.867 
#    0.000    2.000    0.000    3.200    0.000    0.000 
#    0.000    0.000    0.000    0.000    0.000    0.000 
#
# Total GULP energy -167043.818992 kJ/mol
# GULP energy per Si atom -5568.127300 kJ/mol
# Density = 2.177640 g / cm^3
# Si number density = 21.826076 Si / 1000 Ang^3
#
#
#
# Elastic Constant Matrix: (Units=GPa)
#
#
# Indices 1 2 3 4 5 6 
#
# 1 170.0644 23.5084 32.8111 0.0000 0.0000 0.0000
# 2 23.5084 28.3540 3.0953 0.0000 0.0000 0.0000
# 3 32.8111 3.0953 49.0664 0.0000 0.0000 0.0000
# 4 0.0000 0.0000 0.0000 38.7993 0.0000 0.0000
# 5 0.0000 0.0000 0.0000 0.0000 36.1873 0.0000
# 6 0.0000 0.0000 0.0000 0.0000 0.0000 26.8938
#
#
#
# Elastic Compliance Matrix: (Units=1/GPa)
#
#
# Indices 1 2 3 4 5 6 
#
# 1 0.007587 -0.005776 -0.004709 0.000000 0.000000 0.000000
# 2 -0.005776 0.039911 0.001345 0.000000 0.000000 0.000000
# 3 -0.004709 0.001345 0.023445 0.000000 0.000000 0.000000
# 4 0.000000 0.000000 0.000000 0.025774 0.000000 0.000000
# 5 0.000000 0.000000 0.000000 0.000000 0.027634 0.000000
# 6 0.000000 0.000000 0.000000 0.000000 0.000000 0.037183
#
#
# Mechanical properties :
#
#
# Convention : Reuss Voigt Hill
#
# Bulk Modulus (GPa) = 18.98919 40.70161 29.84540
# Shear Modulus (GPa) = 25.33325 32.91407 29.12366
#
# Velocity S-wave (km/s) = 3.41058 3.88753 3.65684
# Velocity P-wave (km/s) = 4.92225 6.23211 5.61550
#
# Compressibility (1/GPa) = 0.05266153
#
# Stress axis : x y z
#
# Youngs Moduli (GPa) = 131.80123 25.05581 42.65341
#
# Poissons Ratio (x) = 0.14473 0.20086
# Poissons Ratio (y) = 0.76135 -0.05737
# Poissons Ratio (z) = 0.62068 -0.03370
#
# Static dielectric constant tensor:
#      x y z
#    x 1.891750 0.000000 0.000000 
#    y 0.000000 1.867530 0.000000 
#    z 0.000000 0.000000 1.815540 
# 
# From -- ./inp_files/6528.got.cif
#   From: 2010.05.17/outbox.cif.g08.bks.cpg/sg34_4_cif.got.tgz:6528.got - 2010.06.03 17:23:11.
