data_PCOD9347795
_publ_section_title
;
Structure prediction by ZEFSAII (Michael W. Deem and Ramdas Pophale) SiO2 
 PCOD9347795
Probable space group: P N N 2
;
_chemical_formula_sum "Si O2"
_cell_formula_units_Z 30
_cell_length_a 21.358377
_cell_length_b 10.619433
_cell_length_c 5.040830
_cell_angle_alpha 90.000000
_cell_angle_beta 90.000000
_cell_angle_gamma 90.000000
_cell_volume 1143.330077
_symmetry_space_group_name_H-M "P N N 2"
_symmetry_group_IT_number 34
_symmetry_cell_setting 'orthorhombic'
loop_
_space_group_symop_operation_xyz
x,y,z
-x,-y,z
1/2-x,1/2+y,1/2+z
1/2+x,1/2-y,1/2+z
loop_
_atom_site_type_symbol
_atom_site_label
_atom_site_fract_x
_atom_site_fract_y
_atom_site_fract_z
Si Si1 0.114269 0.103652 0.860840
Si Si2 0.317273 0.803581 0.621663
Si Si3 0.133127 0.748977 0.070955
Si Si4 0.947968 0.239646 0.549387
Si Si5 0.217667 0.950555 0.906061
Si Si6 0.500000 0.500000 0.718370
Si Si7 0.673368 0.978078 0.235661
Si Si8 0.077457 0.353775 0.528813
O O1 0.095025 0.223236 0.684441
O O2 0.163463 0.010535 0.716897
O O3 0.164549 0.161311 0.067665
O O4 0.054913 0.053042 0.024859
O O5 0.256475 0.833661 0.786630
O O6 0.305293 0.889668 0.367002
O O7 0.380862 0.852246 0.763747
O O8 0.077260 0.772215 0.850715
O O9 0.171815 0.877043 0.105318
O O10 0.170478 0.633296 0.943681
O O11 0.107569 0.716750 0.358478
O O12 0.972808 0.108702 0.413993
O O13 0.004186 0.337634 0.508631
O O14 0.275453 0.036335 0.005366
O O15 0.602673 0.020637 0.166951
#
# Coordination Sequence:
#
# PCOD9347795 Si02
#       8
#     4   4   4   4   4   2   4   4
#     4  11  23  44  71 108 146 194 250 312 382 454
#     4  10  23  44  71  99 145 196 250 301 375 448
#     4  12  29  48  75 117 151 195 259 311 380 452
#     4  12  28  48  76 112 152 192 250 319 377 461
#     4  11  25  43  75 107 146 204 245 318 372 445
#     4  12  24  46  76 106 156 190 252 312 390 458
#     4  10  26  49  71 106 153 202 254 311 375 462
#     4  10  24  46  72 106 144 201 244 308 390 450
#
# _framework density 26.239142000000001
#
# number of rings (size 3 to 8) (size 9 to 14) (size 15 to 20)
#    0.000    1.067    2.667    1.600    9.333    5.333 
#    0.000    0.000    0.000    0.000    0.000    0.000 
#    0.000    0.000    0.000    0.000    0.000    0.000 
#
# Total GULP energy -167585.909326 kJ/mol
# GULP energy per Si atom -5586.196978 kJ/mol
# Density = 2.617942 g / cm^3
# Si number density = 26.239142 Si / 1000 Ang^3
#
#
#
# Elastic Constant Matrix: (Units=GPa)
#
#
# Indices 1 2 3 4 5 6 
#
# 1 135.8245 36.2994 6.9738 0.0000 0.0000 0.0000
# 2 36.2994 90.2483 7.5968 0.0000 0.0000 0.0000
# 3 6.9738 7.5968 59.6581 0.0000 0.0000 0.0000
# 4 0.0000 0.0000 0.0000 38.5624 0.0000 0.0000
# 5 0.0000 0.0000 0.0000 0.0000 16.9070 0.0000
# 6 0.0000 0.0000 0.0000 0.0000 0.0000 40.7999
#
#
#
# Elastic Compliance Matrix: (Units=1/GPa)
#
#
# Indices 1 2 3 4 5 6 
#
# 1 0.008267 -0.003279 -0.000549 0.000000 0.000000 0.000000
# 2 -0.003279 0.012501 -0.001209 0.000000 0.000000 0.000000
# 3 -0.000549 -0.001209 0.016980 0.000000 0.000000 0.000000
# 4 0.000000 0.000000 0.000000 0.025932 0.000000 0.000000
# 5 0.000000 0.000000 0.000000 0.000000 0.059147 0.000000
# 6 0.000000 0.000000 0.000000 0.000000 0.000000 0.024510
#
#
# Mechanical properties :
#
#
# Convention : Reuss Voigt Hill
#
# Bulk Modulus (GPa) = 36.13289 43.05231 39.59260
# Shear Modulus (GPa) = 30.00567 34.91124 32.45846
#
# Velocity S-wave (km/s) = 3.38530 3.65156 3.52095
# Velocity P-wave (km/s) = 5.39267 5.84994 5.62595
#
# Compressibility (1/GPa) = 0.02767561
#
# Stress axis : x y z
#
# Youngs Moduli (GPa) = 120.96411 79.99298 58.89203
#
# Poissons Ratio (x) = 0.26229 0.03232
# Poissons Ratio (y) = 0.39663 0.07118
# Poissons Ratio (z) = 0.06639 0.09668
#
# Static dielectric constant tensor:
#      x y z
#    x 2.098800 0.000000 0.000000 
#    y 0.000000 2.188860 0.000000 
#    z 0.000000 0.000000 2.078610 
# 
# From -- ./inp_files/1038.got.cif
#   From: 2010.05.17/outbox.cif.g08.bks.cpg/sg34_1_cif.got.tgz:1038.got - 2010.06.03 17:23:11.
