data_PCOD9347467
_publ_section_title
;
Structure prediction by ZEFSAII (Michael W. Deem and Ramdas Pophale) SiO2 
 PCOD9347467
Probable space group: P N N 2
;
_chemical_formula_sum "Si O2"
_cell_formula_units_Z 32
_cell_length_a 16.449358
_cell_length_b 12.788537
_cell_length_c 7.280246
_cell_angle_alpha 90.000000
_cell_angle_beta 90.000000
_cell_angle_gamma 90.000000
_cell_volume 1531.496016
_symmetry_space_group_name_H-M "P N N 2"
_symmetry_group_IT_number 34
_symmetry_cell_setting 'orthorhombic'
loop_
_space_group_symop_operation_xyz
x,y,z
-x,-y,z
1/2-x,1/2+y,1/2+z
1/2+x,1/2-y,1/2+z
loop_
_atom_site_type_symbol
_atom_site_label
_atom_site_fract_x
_atom_site_fract_y
_atom_site_fract_z
Si Si1 0.683900 0.098843 0.054830
Si Si2 0.621240 0.296842 0.191898
Si Si3 0.480995 0.377133 0.450721
Si Si4 0.751983 0.966291 0.606852
Si Si5 0.754698 0.888023 0.194936
Si Si6 0.083072 0.445763 0.246617
Si Si7 0.925110 0.796339 0.258070
Si Si8 0.811609 0.173141 0.756470
O O1 0.662196 0.182546 0.209531
O O2 0.732644 0.994410 0.094506
O O3 0.599550 0.061246 0.965004
O O4 0.736906 0.161638 0.902445
O O5 0.548176 0.317229 0.329110
O O6 0.691923 0.383460 0.215225
O O7 0.586099 0.303742 0.979937
O O8 0.500000 0.500000 0.429641
O O9 0.495439 0.345527 0.663550
O O10 0.393768 0.345222 0.369908
O O11 0.661505 0.991724 0.675640
O O12 0.798871 0.076987 0.617130
O O13 0.743855 0.917897 0.407425
O O14 0.848143 0.856519 0.172523
O O15 0.699292 0.785779 0.162123
O O16 0.080129 0.324012 0.194961
O O17 0.000000 0.500000 0.196136
#
# Coordination Sequence:
#
# PCOD9347467 Si02
#       8
#     4   4   4   4   4   4   4   4
#     4  10  22  43  66  88 135 173 219 274 330 402
#     4  10  22  44  66  91 136 174 216 275 333 397
#     4  12  25  39  68  97 129 173 217 274 338 388
#     4  10  20  42  65  88 127 175 213 270 334 389
#     4  11  22  40  67  94 127 177 223 274 329 405
#     4  10  22  40  64  92 129 169 216 275 333 393
#     4  10  23  43  62  92 135 168 217 277 329 390
#     4  11  22  44  62  99 130 165 228 272 324 413
#
# _framework density 20.894601999999999
#
# number of rings (size 3 to 8) (size 9 to 14) (size 15 to 20)
#    0.000    1.500    6.250    0.750    5.250    2.500 
#    2.250    0.625    0.000    0.000    0.000    0.000 
#    0.000    0.000    0.000    0.000    0.000    0.000 
#
# Total GULP energy -178581.531906 kJ/mol
# GULP energy per Si atom -5580.672872 kJ/mol
# Density = 2.084704 g / cm^3
# Si number density = 20.894602 Si / 1000 Ang^3
#
#
#
# Elastic Constant Matrix: (Units=GPa)
#
#
# Indices 1 2 3 4 5 6 
#
# 1 88.1556 25.3168 11.5006 0.0000 0.0000 0.0000
# 2 25.3168 130.5578 16.5312 0.0000 0.0000 0.0000
# 3 11.5006 16.5312 29.5281 0.0000 0.0000 0.0000
# 4 0.0000 0.0000 0.0000 30.8785 0.0000 0.0000
# 5 0.0000 0.0000 0.0000 0.0000 24.6135 0.0000
# 6 0.0000 0.0000 0.0000 0.0000 0.0000 28.2432
#
#
#
# Elastic Compliance Matrix: (Units=1/GPa)
#
#
# Indices 1 2 3 4 5 6 
#
# 1 0.012386 -0.001928 -0.003745 0.000000 0.000000 0.000000
# 2 -0.001928 0.008544 -0.004032 0.000000 0.000000 0.000000
# 3 -0.003745 -0.004032 0.037582 0.000000 0.000000 0.000000
# 4 0.000000 0.000000 0.000000 0.032385 0.000000 0.000000
# 5 0.000000 0.000000 0.000000 0.000000 0.040628 0.000000
# 6 0.000000 0.000000 0.000000 0.000000 0.000000 0.035407
#
#
# Mechanical properties :
#
#
# Convention : Reuss Voigt Hill
#
# Bulk Modulus (GPa) = 25.57422 39.43762 32.50592
# Shear Modulus (GPa) = 25.07835 29.73991 27.40913
#
# Velocity S-wave (km/s) = 3.46819 3.77680 3.62578
# Velocity P-wave (km/s) = 5.32015 6.15910 5.75493
#
# Compressibility (1/GPa) = 0.03910188
#
# Stress axis : x y z
#
# Youngs Moduli (GPa) = 80.73834 117.04375 26.60841
#
# Poissons Ratio (x) = 0.22561 0.09964
# Poissons Ratio (y) = 0.15563 0.10730
# Poissons Ratio (z) = 0.30235 0.47198
#
# Static dielectric constant tensor:
#      x y z
#    x 1.730470 0.000000 0.000000 
#    y 0.000000 1.789150 0.000000 
#    z 0.000000 0.000000 1.822820 
# 
# From -- ./inp_files/3328.got.cif
#   From: 2010.05.17/outbox.cif.g08.bks.cpg/sg34_2_cif.got.tgz:3328.got - 2010.06.03 17:23:11.
