data_PCOD9347732
_publ_section_title
;
Structure prediction by ZEFSAII (Michael W. Deem and Ramdas Pophale) SiO2 
 PCOD9347732
Probable space group: P N N 2
;
_chemical_formula_sum "Si O2"
_cell_formula_units_Z 18
_cell_length_a 5.213374
_cell_length_b 5.057028
_cell_length_c 26.661350
_cell_angle_alpha 90.000000
_cell_angle_beta 90.000000
_cell_angle_gamma 90.000000
_cell_volume 702.904585
_symmetry_space_group_name_H-M "P N N 2"
_symmetry_group_IT_number 34
_symmetry_cell_setting 'orthorhombic'
loop_
_space_group_symop_operation_xyz
x,y,z
-x,-y,z
1/2-x,1/2+y,1/2+z
1/2+x,1/2-y,1/2+z
loop_
_atom_site_type_symbol
_atom_site_label
_atom_site_fract_x
_atom_site_fract_y
_atom_site_fract_z
Si Si1 0.668068 0.263234 0.452950
Si Si2 0.249125 0.815482 0.342701
Si Si3 0.000000 0.500000 0.532446
Si Si4 0.248082 0.820135 0.235609
Si Si5 0.000000 0.000000 0.591273
Si Si6 0.500000 0.000000 0.647154
O O1 0.500000 0.500000 0.473141
O O2 0.744283 0.331757 0.395711
O O3 0.892820 0.282038 0.492280
O O4 0.500000 0.000000 0.452723
O O5 0.258186 0.666904 0.289253
O O6 0.500000 0.000000 0.341684
O O7 0.000000 0.000000 0.345961
O O8 0.121530 0.273605 0.568214
O O9 0.181515 0.660715 0.186215
O O10 0.500000 0.000000 0.229942
O O11 0.000000 0.000000 0.242151
O O12 0.733357 0.122355 0.614904
#
# Coordination Sequence:
#
# PCOD9347732 Si02
#       6
#     4   4   2   4   2   2
#     4  11  26  47  77 112 153 201 248 310 382 469
#     4   9  21  42  70 112 154 193 244 300 374 461
#     4  12  30  51  78 110 148 205 262 330 396 456
#     4  10  22  45  74 108 152 194 245 310 379 467
#     4  12  32  50  80 110 152 196 270 340 386 456
#     4  12  28  49  76 112 140 207 262 324 398 458
#
# _framework density 25.608027
#
# number of rings (size 3 to 8) (size 9 to 14) (size 15 to 20)
#    0.000    1.333    0.000    2.667   17.111    0.889 
#   14.000    0.000    0.000    0.000    0.000    0.000 
#    0.000    0.000    0.000    0.000    0.000    0.000 
#
# Total GULP energy -100228.843834 kJ/mol
# GULP energy per Si atom -5568.269102 kJ/mol
# Density = 2.554974 g / cm^3
# Si number density = 25.608027 Si / 1000 Ang^3
#
#
#
# Elastic Constant Matrix: (Units=GPa)
#
#
# Indices 1 2 3 4 5 6 
#
# 1 176.6549 27.8105 24.3829 0.0000 0.0000 0.0000
# 2 27.8105 101.6770 28.7797 0.0000 0.0000 0.0000
# 3 24.3829 28.7797 45.5210 0.0000 0.0000 0.0000
# 4 0.0000 0.0000 0.0000 15.8620 0.0000 0.0000
# 5 0.0000 0.0000 0.0000 0.0000 10.0494 0.0000
# 6 0.0000 0.0000 0.0000 0.0000 0.0000 47.9871
#
#
#
# Elastic Compliance Matrix: (Units=1/GPa)
#
#
# Indices 1 2 3 4 5 6 
#
# 1 0.006182 -0.000918 -0.002731 0.000000 0.000000 0.000000
# 2 -0.000918 0.012115 -0.007168 0.000000 0.000000 0.000000
# 3 -0.002731 -0.007168 0.027962 0.000000 0.000000 0.000000
# 4 0.000000 0.000000 0.000000 0.063044 0.000000 0.000000
# 5 0.000000 0.000000 0.000000 0.000000 0.099508 0.000000
# 6 0.000000 0.000000 0.000000 0.000000 0.000000 0.020839
#
#
# Mechanical properties :
#
#
# Convention : Reuss Voigt Hill
#
# Bulk Modulus (GPa) = 40.60739 53.97767 47.29253
# Shear Modulus (GPa) = 19.26837 30.97170 25.12004
#
# Velocity S-wave (km/s) = 2.74603 3.48149 3.13540
# Velocity P-wave (km/s) = 5.09372 6.10616 5.62277
#
# Compressibility (1/GPa) = 0.02462606
#
# Stress axis : x y z
#
# Youngs Moduli (GPa) = 161.75413 82.54252 35.76225
#
# Poissons Ratio (x) = 0.07577 0.09767
# Poissons Ratio (y) = 0.14848 0.25634
# Poissons Ratio (z) = 0.44177 0.59164
#
# Static dielectric constant tensor:
#      x y z
#    x 2.048040 0.000000 0.000000 
#    y 0.000000 2.083010 0.000000 
#    z 0.000000 0.000000 2.198110 
# 
# From -- ./inp_files/8517.got.cif
#   From: 2010.05.17/outbox.cif.g08.bks.cpg/sg34_5_cif.got.tgz:8517.got - 2010.06.03 17:23:11.
