data_PCOD9347247
_publ_section_title
;
Structure prediction by ZEFSAII (Michael W. Deem and Ramdas Pophale) SiO2 
 PCOD9347247
Probable space group: P N N 2
;
_chemical_formula_sum "Si O2"
_cell_formula_units_Z 32
_cell_length_a 13.206152
_cell_length_b 17.634697
_cell_length_c 6.714043
_cell_angle_alpha 90.000000
_cell_angle_beta 90.000000
_cell_angle_gamma 90.000000
_cell_volume 1563.609902
_symmetry_space_group_name_H-M "P N N 2"
_symmetry_group_IT_number 34
_symmetry_cell_setting 'orthorhombic'
loop_
_space_group_symop_operation_xyz
x,y,z
-x,-y,z
1/2-x,1/2+y,1/2+z
1/2+x,1/2-y,1/2+z
loop_
_atom_site_type_symbol
_atom_site_label
_atom_site_fract_x
_atom_site_fract_y
_atom_site_fract_z
Si Si1 0.879582 0.903589 0.737540
Si Si2 0.043558 0.700666 0.891499
Si Si3 0.618685 0.526905 0.917936
Si Si4 0.274046 0.576826 0.629766
Si Si5 0.456451 0.083981 0.049176
Si Si6 0.235788 0.206208 0.465850
Si Si7 0.943460 0.174212 0.553444
Si Si8 0.936173 0.711349 0.286933
O O1 0.822673 0.829504 0.652133
O O2 0.994221 0.887470 0.680990
O O3 0.849906 0.977765 0.612242
O O4 0.858730 0.910143 0.966202
O O5 0.028140 0.623634 0.766230
O O6 0.146411 0.707242 0.018955
O O7 0.070877 0.760084 0.714620
O O8 0.953219 0.712662 0.049061
O O9 0.500000 0.500000 0.870808
O O10 0.693411 0.498096 0.746325
O O11 0.633339 0.616701 0.950016
O O12 0.164869 0.577768 0.525339
O O13 0.273233 0.644196 0.789777
O O14 0.500000 0.000000 0.042906
O O15 0.509602 0.138319 0.885972
O O16 0.177424 0.278813 0.375569
O O17 0.007523 0.214823 0.379957
#
# Coordination Sequence:
#
# PCOD9347247 Si02
#       8
#     4   4   4   4   4   4   4   4
#     4   9  17  32  55  76 110 151 181 227 286 343
#     4  10  20  37  60  81 111 153 192 244 306 355
#     4   9  19  33  50  84 121 142 182 238 282 358
#     4  10  19  35  60  80 112 164 196 228 299 358
#     4  10  23  42  56  81 118 154 206 248 286 356
#     4   9  19  35  55  86 109 141 204 242 286 358
#     4   9  19  34  51  83 119 138 180 241 291 349
#     4  10  20  38  60  81 113 153 190 252 300 344
#
# _framework density 20.465464000000001
#
# number of rings (size 3 to 8) (size 9 to 14) (size 15 to 20)
#    0.000    2.500    0.000    2.250    0.000    3.000 
#    6.750    0.000    0.000    0.000    0.000    0.000 
#    0.000    0.000    0.000    0.000    0.000    0.000 
#
# Total GULP energy -178167.481411 kJ/mol
# GULP energy per Si atom -5567.733794 kJ/mol
# Density = 2.041888 g / cm^3
# Si number density = 20.465464 Si / 1000 Ang^3
#
#
#
# Elastic Constant Matrix: (Units=GPa)
#
#
# Indices 1 2 3 4 5 6 
#
# 1 20.9695 11.6625 -3.3157 0.0000 0.0000 0.0000
# 2 11.6625 98.2060 12.0594 0.0000 0.0000 0.0000
# 3 -3.3157 12.0594 43.7702 0.0000 0.0000 0.0000
# 4 0.0000 0.0000 0.0000 13.2927 0.0000 0.0000
# 5 0.0000 0.0000 0.0000 0.0000 19.1539 0.0000
# 6 0.0000 0.0000 0.0000 0.0000 0.0000 22.2326
#
#
#
# Elastic Compliance Matrix: (Units=1/GPa)
#
#
# Indices 1 2 3 4 5 6 
#
# 1 0.052489 -0.006957 0.005893 0.000000 0.000000 0.000000
# 2 -0.006957 0.011461 -0.003685 0.000000 0.000000 0.000000
# 3 0.005893 -0.003685 0.024308 0.000000 0.000000 0.000000
# 4 0.000000 0.000000 0.000000 0.075230 0.000000 0.000000
# 5 0.000000 0.000000 0.000000 0.000000 0.052209 0.000000
# 6 0.000000 0.000000 0.000000 0.000000 0.000000 0.044979
#
#
# Mechanical properties :
#
#
# Convention : Reuss Voigt Hill
#
# Bulk Modulus (GPa) = 12.69661 22.63979 17.66820
# Shear Modulus (GPa) = 16.86752 20.43846 18.65299
#
# Velocity S-wave (km/s) = 2.87399 3.16362 3.02228
# Velocity P-wave (km/s) = 4.15096 4.94278 4.56408
#
# Compressibility (1/GPa) = 0.07876118
#
# Stress axis : x y z
#
# Youngs Moduli (GPa) = 19.05147 87.24984 41.13834
#
# Poissons Ratio (x) = 0.60700 -0.24243
# Poissons Ratio (y) = 0.13254 0.15159
# Poissons Ratio (z) = -0.11227 0.32150
#
# Static dielectric constant tensor:
#      x y z
#    x 1.846110 0.000000 0.000000 
#    y 0.000000 1.781530 0.000000 
#    z 0.000000 0.000000 1.746770 
# 
# From -- ./inp_files/1330.got.cif
#   From: 2010.05.17/outbox.cif.g08.bks.cpg/sg34_1_cif.got.tgz:1330.got - 2010.06.03 17:23:11.
