data_PCOD9347405
_publ_section_title
;
Structure prediction by ZEFSAII (Michael W. Deem and Ramdas Pophale) SiO2 
 PCOD9347405
Probable space group: P N N 2
;
_chemical_formula_sum "Si O2"
_cell_formula_units_Z 26
_cell_length_a 7.920540
_cell_length_b 14.801366
_cell_length_c 8.743924
_cell_angle_alpha 90.000000
_cell_angle_beta 90.000000
_cell_angle_gamma 90.000000
_cell_volume 1025.092282
_symmetry_space_group_name_H-M "P N N 2"
_symmetry_group_IT_number 34
_symmetry_cell_setting 'orthorhombic'
loop_
_space_group_symop_operation_xyz
x,y,z
-x,-y,z
1/2-x,1/2+y,1/2+z
1/2+x,1/2-y,1/2+z
loop_
_atom_site_type_symbol
_atom_site_label
_atom_site_fract_x
_atom_site_fract_y
_atom_site_fract_z
Si Si1 0.000000 0.500000 0.539590
Si Si2 0.920205 0.643060 0.747463
Si Si3 0.241187 0.531901 0.303273
Si Si4 0.905758 0.626988 0.103043
Si Si5 0.241679 0.710462 0.044895
Si Si6 0.682326 0.323281 0.730809
Si Si7 0.473845 0.378444 0.445395
O O1 0.878376 0.554207 0.651396
O O2 0.907496 0.435223 0.417090
O O3 0.830935 0.726124 0.666158
O O4 0.122281 0.648808 0.725509
O O5 0.872446 0.630652 0.922603
O O6 0.175037 0.462921 0.172942
O O7 0.339197 0.455062 0.407940
O O8 0.389144 0.606847 0.308628
O O9 0.838533 0.718573 0.180045
O O10 0.112141 0.637138 0.116431
O O11 0.360434 0.670307 0.912011
O O12 0.118290 0.781572 0.954064
O O13 0.570463 0.378766 0.609226
#
# Coordination Sequence:
#
# PCOD9347405 Si02
#       7
#     2   4   4   4   4   4   4
#     4  12  22  40  66  90 130 182 226 276 354 420
#     4  11  23  40  66 100 135 176 228 294 352 427
#     4  11  22  41  66  95 134 188 228 282 358 423
#     4  10  23  41  67  98 137 173 238 289 346 430
#     4  10  21  42  67 100 133 175 236 293 355 412
#     4  10  20  40  67  96 128 174 225 292 343 418
#     4  10  20  38  69  93 133 178 230 286 348 420
#
# _framework density 25.363568999999998
#
# number of rings (size 3 to 8) (size 9 to 14) (size 15 to 20)
#    0.000    1.538    4.615    0.000    0.000    4.308 
#    2.769    0.000    6.769    0.000    0.000    0.000 
#    0.000    0.000    0.000    0.000    0.000    0.000 
#
# Total GULP energy -145210.593094 kJ/mol
# GULP energy per Si atom -5585.022811 kJ/mol
# Density = 2.530584 g / cm^3
# Si number density = 25.363569 Si / 1000 Ang^3
#
#
#
# Elastic Constant Matrix: (Units=GPa)
#
#
# Indices 1 2 3 4 5 6 
#
# 1 53.4018 -4.8575 34.9612 0.0000 0.0000 0.0000
# 2 -4.8575 115.4745 25.3130 0.0000 0.0000 0.0000
# 3 34.9612 25.3130 186.9006 0.0000 0.0000 0.0000
# 4 0.0000 0.0000 0.0000 34.6725 0.0000 0.0000
# 5 0.0000 0.0000 0.0000 0.0000 31.6055 0.0000
# 6 0.0000 0.0000 0.0000 0.0000 0.0000 13.1415
#
#
#
# Elastic Compliance Matrix: (Units=1/GPa)
#
#
# Indices 1 2 3 4 5 6 
#
# 1 0.021720 0.001859 -0.004315 0.000000 0.000000 0.000000
# 2 0.001859 0.009084 -0.001578 0.000000 0.000000 0.000000
# 3 -0.004315 -0.001578 0.006371 0.000000 0.000000 0.000000
# 4 0.000000 0.000000 0.000000 0.028841 0.000000 0.000000
# 5 0.000000 0.000000 0.000000 0.000000 0.031640 0.000000
# 6 0.000000 0.000000 0.000000 0.000000 0.000000 0.076095
#
#
# Mechanical properties :
#
#
# Convention : Reuss Voigt Hill
#
# Bulk Modulus (GPa) = 34.35425 51.84559 43.09992
# Shear Modulus (GPa) = 26.10683 35.90792 31.00738
#
# Velocity S-wave (km/s) = 3.21176 3.76670 3.50024
# Velocity P-wave (km/s) = 5.22762 6.27716 5.77627
#
# Compressibility (1/GPa) = 0.02910848
#
# Stress axis : x y z
#
# Youngs Moduli (GPa) = 46.04076 110.08269 156.95441
#
# Poissons Ratio (x) = -0.20470 0.67721
# Poissons Ratio (y) = -0.08561 0.24770
# Poissons Ratio (z) = 0.19865 0.17373
#
# Static dielectric constant tensor:
#      x y z
#    x 2.158780 0.000000 0.000000 
#    y 0.000000 2.130760 0.000000 
#    z 0.000000 0.000000 2.180120 
# 
# From -- ./inp_files/2787.got.cif
#   From: 2010.05.17/outbox.cif.g08.bks.cpg/sg34_2_cif.got.tgz:2787.got - 2010.06.03 17:23:11.
