data_PCOD9347649
_publ_section_title
;
Structure prediction by ZEFSAII (Michael W. Deem and Ramdas Pophale) SiO2 
 PCOD9347649
Probable space group: P N N 2
;
_chemical_formula_sum "Si O2"
_cell_formula_units_Z 20
_cell_length_a 17.635011
_cell_length_b 10.546513
_cell_length_c 5.152974
_cell_angle_alpha 90.000000
_cell_angle_beta 90.000000
_cell_angle_gamma 90.000000
_cell_volume 958.390673
_symmetry_space_group_name_H-M "P N N 2"
_symmetry_group_IT_number 34
_symmetry_cell_setting 'orthorhombic'
loop_
_space_group_symop_operation_xyz
x,y,z
-x,-y,z
1/2-x,1/2+y,1/2+z
1/2+x,1/2-y,1/2+z
loop_
_atom_site_type_symbol
_atom_site_label
_atom_site_fract_x
_atom_site_fract_y
_atom_site_fract_z
Si Si1 0.008353 0.853234 0.125000
Si Si2 0.383945 0.600555 0.256712
Si Si3 0.342929 0.444813 0.755889
Si Si4 0.429463 0.905322 0.743886
Si Si5 0.832092 0.622862 0.728577
O O1 0.098262 0.836012 0.159105
O O2 0.963438 0.738728 0.258595
O O3 0.000000 0.000000 0.222407
O O4 0.970986 0.863090 0.836510
O O5 0.352599 0.550658 0.532051
O O6 0.340236 0.726965 0.183839
O O7 0.368686 0.497946 0.035527
O O8 0.255487 0.408831 0.760889
O O9 0.379448 0.910144 0.484963
O O10 0.500000 0.000000 0.730770
O O11 0.375227 0.937020 0.984122
#
# Coordination Sequence:
#
# PCOD9347649 Si02
#       5
#     4   4   4   4   4
#     4   9  21  39  63  89 120 162 209 251 303 367
#     4  10  22  40  61  90 128 161 203 264 315 362
#     4  11  23  38  64  93 119 161 214 260 307 369
#     4  11  24  43  64  91 130 170 205 251 314 380
#     4  11  23  42  63  91 128 164 204 264 316 360
#
# _framework density 20.868314999999999
#
# number of rings (size 3 to 8) (size 9 to 14) (size 15 to 20)
#    0.000    1.600    0.000    5.400    0.000   18.400 
#    0.000    2.000    0.000    0.000    0.000    0.000 
#    0.000    0.000    0.000    0.000    0.000    0.000 
#
# Total GULP energy -111563.271046 kJ/mol
# GULP energy per Si atom -5578.163552 kJ/mol
# Density = 2.082082 g / cm^3
# Si number density = 20.868315 Si / 1000 Ang^3
#
#
#
# Elastic Constant Matrix: (Units=GPa)
#
#
# Indices 1 2 3 4 5 6 
#
# 1 209.8215 48.4609 84.5044 0.0000 0.0000 0.0000
# 2 48.4609 50.6941 32.7270 0.0000 0.0000 0.0000
# 3 84.5044 32.7270 121.7629 0.0000 0.0000 0.0000
# 4 0.0000 0.0000 0.0000 -19.9338 0.0000 0.0000
# 5 0.0000 0.0000 0.0000 0.0000 27.8665 0.0000
# 6 0.0000 0.0000 0.0000 0.0000 0.0000 17.7737
#
#
#
# Elastic Compliance Matrix: (Units=1/GPa)
#
#
# Indices 1 2 3 4 5 6 
#
# 1 0.007388 -0.004540 -0.003907 0.000000 0.000000 0.000000
# 2 -0.004540 0.026658 -0.004014 0.000000 0.000000 0.000000
# 3 -0.003907 -0.004014 0.012003 0.000000 0.000000 0.000000
# 4 0.000000 0.000000 0.000000 -0.050166 0.000000 0.000000
# 5 0.000000 0.000000 0.000000 0.000000 0.035885 0.000000
# 6 0.000000 0.000000 0.000000 0.000000 0.000000 0.056263
#
#
# Mechanical properties :
#
#
# Convention : Reuss Voigt Hill
#
# Bulk Modulus (GPa) = 47.33444 79.29591 63.31517
# Shear Modulus (GPa) = 41.66793 19.58035 30.62414
#
# Velocity S-wave (km/s) = 4.47330 3.06646 3.83495
# Velocity P-wave (km/s) = 7.02938 7.11465 7.07215
#
# Compressibility (1/GPa) = 0.02112627
#
# Stress axis : x y z
#
# Youngs Moduli (GPa) = 135.35146 37.51240 83.31171
#
# Poissons Ratio (x) = 0.17032 0.32551
# Poissons Ratio (y) = 0.61454 0.33441
# Poissons Ratio (z) = 0.52883 0.15057
#
# Static dielectric constant tensor:
#      x y z
#    x 1.823470 0.000000 0.000000 
#    y 0.000000 1.771760 0.000000 
#    z 0.000000 0.000000 1.753150 
# 
# From -- ./inp_files/1186.got.cif
#   From: 2010.05.17/outbox.cif.g08.bks.cpg/sg34_1_cif.got.tgz:1186.got - 2010.06.03 17:23:11.
