data_PCOD9347777
_publ_section_title
;
Structure prediction by ZEFSAII (Michael W. Deem and Ramdas Pophale) SiO2 
 PCOD9347777
Probable space group: P N N 2
;
_chemical_formula_sum "Si O2"
_cell_formula_units_Z 32
_cell_length_a 9.461436
_cell_length_b 29.783187
_cell_length_c 5.216211
_cell_angle_alpha 90.000000
_cell_angle_beta 90.000000
_cell_angle_gamma 90.000000
_cell_volume 1469.885057
_symmetry_space_group_name_H-M "P N N 2"
_symmetry_group_IT_number 34
_symmetry_cell_setting 'orthorhombic'
loop_
_space_group_symop_operation_xyz
x,y,z
-x,-y,z
1/2-x,1/2+y,1/2+z
1/2+x,1/2-y,1/2+z
loop_
_atom_site_type_symbol
_atom_site_label
_atom_site_fract_x
_atom_site_fract_y
_atom_site_fract_z
Si Si1 0.750906 0.062756 0.461030
Si Si2 0.276330 0.268036 0.364347
Si Si3 0.915958 0.721979 0.859448
Si Si4 0.474336 0.450872 0.567046
Si Si5 0.217872 0.566462 0.762324
Si Si6 0.701419 0.629034 0.323716
Si Si7 0.843945 0.485893 0.266262
Si Si8 0.457948 0.879654 0.192908
O O1 0.803566 0.112598 0.531245
O O2 0.604224 0.075623 0.330008
O O3 0.861724 0.037845 0.286785
O O4 0.736975 0.032036 0.709573
O O5 0.176013 0.261322 0.613669
O O6 0.421688 0.239608 0.360515
O O7 0.329901 0.319641 0.368974
O O8 0.174228 0.265108 0.113484
O O9 0.929489 0.667811 0.829744
O O10 0.500000 0.500000 0.435108
O O11 0.618873 0.432866 0.688657
O O12 0.407072 0.406379 0.443200
O O13 0.160166 0.530375 0.555507
O O14 0.124652 0.610249 0.692575
O O15 0.204065 0.551086 0.057878
O O16 0.861867 0.622038 0.434802
O O17 0.000000 0.500000 0.197182
#
# Coordination Sequence:
#
# PCOD9347777 Si02
#       8
#     4   4   4   4   4   4   4   4
#     4  11  21  40  65  87 129 183 222 270 335 404
#     4  11  24  47  76 109 141 185 231 290 360 436
#     4  11  24  46  75 109 145 180 233 291 361 431
#     4  11  24  40  60  97 136 180 227 286 339 395
#     4  12  26  41  60  98 128 170 226 285 330 380
#     4  10  23  42  69  91 134 185 225 267 345 418
#     4  12  24  39  65  88 125 173 231 275 325 392
#     4  10  23  43  66  97 132 178 228 278 334 407
#
# _framework density 21.770409999999998
#
# number of rings (size 3 to 8) (size 9 to 14) (size 15 to 20)
#    0.000    1.000    3.750    2.625    3.500    1.500 
#    2.250    0.000    0.000    0.000    0.000    0.000 
#    0.000    0.000    0.000    0.000    0.000    0.000 
#
# Total GULP energy -178418.886715 kJ/mol
# GULP energy per Si atom -5575.590210 kJ/mol
# Density = 2.172086 g / cm^3
# Si number density = 21.770410 Si / 1000 Ang^3
#
#
#
# Elastic Constant Matrix: (Units=GPa)
#
#
# Indices 1 2 3 4 5 6 
#
# 1 146.8543 55.1556 41.7855 0.0000 0.0000 0.0000
# 2 55.1556 82.1686 31.2614 0.0000 0.0000 0.0000
# 3 41.7855 31.2614 93.2413 0.0000 0.0000 0.0000
# 4 0.0000 0.0000 0.0000 22.7320 0.0000 0.0000
# 5 0.0000 0.0000 0.0000 0.0000 16.1875 0.0000
# 6 0.0000 0.0000 0.0000 0.0000 0.0000 40.7966
#
#
#
# Elastic Compliance Matrix: (Units=1/GPa)
#
#
# Indices 1 2 3 4 5 6 
#
# 1 0.009568 -0.005492 -0.002447 0.000000 0.000000 0.000000
# 2 -0.005492 0.017102 -0.003273 0.000000 0.000000 0.000000
# 3 -0.002447 -0.003273 0.012919 0.000000 0.000000 0.000000
# 4 0.000000 0.000000 0.000000 0.043991 0.000000 0.000000
# 5 0.000000 0.000000 0.000000 0.000000 0.061776 0.000000
# 6 0.000000 0.000000 0.000000 0.000000 0.000000 0.024512
#
#
# Mechanical properties :
#
#
# Convention : Reuss Voigt Hill
#
# Bulk Modulus (GPa) = 58.25415 64.29659 61.27537
# Shear Modulus (GPa) = 25.25105 28.88065 27.06585
#
# Velocity S-wave (km/s) = 3.40939 3.64621 3.52979
# Velocity P-wave (km/s) = 6.50501 6.87928 6.69476
#
# Compressibility (1/GPa) = 0.01716616
#
# Stress axis : x y z
#
# Youngs Moduli (GPa) = 104.51206 58.47413 77.40809
#
# Poissons Ratio (x) = 0.32113 0.18939
# Poissons Ratio (y) = 0.57396 0.25332
# Poissons Ratio (z) = 0.25571 0.19136
#
# Static dielectric constant tensor:
#      x y z
#    x 1.894540 0.000000 0.000000 
#    y 0.000000 1.786000 0.000000 
#    z 0.000000 0.000000 1.892380 
# 
# From -- ./inp_files/664.got.cif
#   From: 2010.05.17/outbox.cif.g08.bks.cpg/sg34_1_cif.got.tgz:664.got - 2010.06.03 17:23:11.
