data_PCOD9347961
_publ_section_title
;
Structure prediction by ZEFSAII (Michael W. Deem and Ramdas Pophale) SiO2 
 PCOD9347961
Probable space group: P N N 2
;
_chemical_formula_sum "Si O2"
_cell_formula_units_Z 16
_cell_length_a 6.649846
_cell_length_b 17.423190
_cell_length_c 6.866711
_cell_angle_alpha 90.000000
_cell_angle_beta 90.000000
_cell_angle_gamma 90.000000
_cell_volume 795.587645
_symmetry_space_group_name_H-M "P N N 2"
_symmetry_group_IT_number 34
_symmetry_cell_setting 'orthorhombic'
loop_
_space_group_symop_operation_xyz
x,y,z
-x,-y,z
1/2-x,1/2+y,1/2+z
1/2+x,1/2-y,1/2+z
loop_
_atom_site_type_symbol
_atom_site_label
_atom_site_fract_x
_atom_site_fract_y
_atom_site_fract_z
Si Si1 0.624494 0.843707 0.543420
Si Si2 0.422632 0.586235 0.729984
Si Si3 0.311344 0.807534 0.220657
Si Si4 0.576169 0.914673 0.946341
O O1 0.607503 0.644283 0.744500
O O2 0.440083 0.808465 0.419479
O O3 0.555339 0.897721 0.718963
O O4 0.752633 0.775732 0.641931
O O5 0.500000 0.500000 0.755318
O O6 0.261019 0.608942 0.893562
O O7 0.303785 0.592172 0.525268
O O8 0.445151 0.852202 0.061658
O O9 0.500000 0.000000 0.995214
#
# Coordination Sequence:
#
# PCOD9347961 Si02
#       4
#     4   4   4   4
#     4  11  26  41  70  97 132 176 222 270 329 394
#     4  11  24  43  67  98 136 174 221 276 326 387
#     4  11  24  46  65  96 136 171 221 272 327 394
#     4  11  24  42  67  98 135 175 220 274 327 388
#
# _framework density 20.110921000000001
#
# number of rings (size 3 to 8) (size 9 to 14) (size 15 to 20)
#    0.000    1.000    2.500    3.000    3.500    9.000 
#    0.000    0.000    0.000    0.000    0.000    0.000 
#    0.000    0.000    0.000    0.000    0.000    0.000 
#
# Total GULP energy -89507.547104 kJ/mol
# GULP energy per Si atom -5594.221694 kJ/mol
# Density = 2.006515 g / cm^3
# Si number density = 20.110921 Si / 1000 Ang^3
#
#
#
# Elastic Constant Matrix: (Units=GPa)
#
#
# Indices 1 2 3 4 5 6 
#
# 1 88.6132 2.9421 34.7061 0.0000 0.0000 0.0000
# 2 2.9421 63.8664 5.4298 0.0000 0.0000 0.0000
# 3 34.7061 5.4298 104.8071 0.0000 0.0000 0.0000
# 4 0.0000 0.0000 0.0000 30.4534 0.0000 0.0000
# 5 0.0000 0.0000 0.0000 0.0000 13.1679 0.0000
# 6 0.0000 0.0000 0.0000 0.0000 0.0000 38.2566
#
#
#
# Elastic Compliance Matrix: (Units=1/GPa)
#
#
# Indices 1 2 3 4 5 6 
#
# 1 0.012970 -0.000233 -0.004283 0.000000 0.000000 0.000000
# 2 -0.000233 0.015731 -0.000738 0.000000 0.000000 0.000000
# 3 -0.004283 -0.000738 0.010998 0.000000 0.000000 0.000000
# 4 0.000000 0.000000 0.000000 0.032837 0.000000 0.000000
# 5 0.000000 0.000000 0.000000 0.000000 0.075942 0.000000
# 6 0.000000 0.000000 0.000000 0.000000 0.000000 0.026139
#
#
# Mechanical properties :
#
#
# Convention : Reuss Voigt Hill
#
# Bulk Modulus (GPa) = 34.25692 38.16031 36.20861
# Shear Modulus (GPa) = 25.65997 30.65615 28.15806
#
# Velocity S-wave (km/s) = 3.57588 3.90853 3.74590
# Velocity P-wave (km/s) = 5.84125 6.27574 6.06239
#
# Compressibility (1/GPa) = 0.02919118
#
# Stress axis : x y z
#
# Youngs Moduli (GPa) = 77.09999 63.56811 90.92723
#
# Poissons Ratio (x) = 0.01484 0.38943
# Poissons Ratio (y) = 0.01799 0.06708
# Poissons Ratio (z) = 0.33021 0.04690
#
# Static dielectric constant tensor:
#      x y z
#    x 1.710110 0.000000 0.000000 
#    y 0.000000 1.661740 0.000000 
#    z 0.000000 0.000000 1.695880 
# 
# From -- ./inp_files/312.got.cif
#   From: 2010.05.17/outbox.cif.g08.bks.cpg/sg34_1_cif.got.tgz:312.got - 2010.06.03 17:23:11.
