data_PCOD9347635
_publ_section_title
;
Structure prediction by ZEFSAII (Michael W. Deem and Ramdas Pophale) SiO2 
 PCOD9347635
Probable space group: P N N 2
;
_chemical_formula_sum "Si O2"
_cell_formula_units_Z 18
_cell_length_a 6.088345
_cell_length_b 20.521397
_cell_length_c 6.895710
_cell_angle_alpha 90.000000
_cell_angle_beta 90.000000
_cell_angle_gamma 90.000000
_cell_volume 861.559281
_symmetry_space_group_name_H-M "P N N 2"
_symmetry_group_IT_number 34
_symmetry_cell_setting 'orthorhombic'
loop_
_space_group_symop_operation_xyz
x,y,z
-x,-y,z
1/2-x,1/2+y,1/2+z
1/2+x,1/2-y,1/2+z
loop_
_atom_site_type_symbol
_atom_site_label
_atom_site_fract_x
_atom_site_fract_y
_atom_site_fract_z
Si Si1 0.637678 0.162403 0.801640
Si Si2 0.824900 0.393355 0.984053
Si Si3 0.000000 0.000000 0.405021
Si Si4 0.942507 0.209765 0.468057
Si Si5 0.793547 0.608143 0.702400
O O1 0.499907 0.119307 0.651736
O O2 0.821340 0.199188 0.673183
O O3 0.487231 0.216826 0.905266
O O4 0.726395 0.118403 0.974744
O O5 0.669077 0.454957 0.022074
O O6 0.669942 0.330142 0.971284
O O7 0.961309 0.403096 0.785153
O O8 0.141143 0.949853 0.278186
O O9 0.792307 0.173922 0.307664
#
# Coordination Sequence:
#
# PCOD9347635 Si02
#       5
#     4   4   2   4   4
#     4  11  22  39  65  95 123 160 203 251 311 370
#     4  10  22  41  63  89 123 163 207 255 307 364
#     4  10  22  44  62  84 126 164 208 262 304 360
#     4  10  22  38  62  94 127 156 199 254 309 371
#     4  10  22  41  63  88 121 165 206 254 308 363
#
# _framework density 20.892351999999999
#
# number of rings (size 3 to 8) (size 9 to 14) (size 15 to 20)
#    0.000    1.778    0.000    3.333    0.000    8.889 
#    0.000   26.667    0.000    0.000    0.000    0.000 
#    0.000    0.000    0.000    0.000    0.000    0.000 
#
# Total GULP energy -100639.341944 kJ/mol
# GULP energy per Si atom -5591.074552 kJ/mol
# Density = 2.084480 g / cm^3
# Si number density = 20.892352 Si / 1000 Ang^3
#
#
#
# Elastic Constant Matrix: (Units=GPa)
#
#
# Indices 1 2 3 4 5 6 
#
# 1 78.0814 16.4393 31.2123 0.0000 0.0000 0.0000
# 2 16.4393 88.3560 15.4814 0.0000 0.0000 0.0000
# 3 31.2123 15.4814 110.1044 0.0000 0.0000 0.0000
# 4 0.0000 0.0000 0.0000 6.2943 0.0000 0.0000
# 5 0.0000 0.0000 0.0000 0.0000 12.0353 0.0000
# 6 0.0000 0.0000 0.0000 0.0000 0.0000 25.3756
#
#
#
# Elastic Compliance Matrix: (Units=1/GPa)
#
#
# Indices 1 2 3 4 5 6 
#
# 1 0.014804 -0.002070 -0.003906 0.000000 0.000000 0.000000
# 2 -0.002070 0.011893 -0.001085 0.000000 0.000000 0.000000
# 3 -0.003906 -0.001085 0.010342 0.000000 0.000000 0.000000
# 4 0.000000 0.000000 0.000000 0.158873 0.000000 0.000000
# 5 0.000000 0.000000 0.000000 0.000000 0.083089 0.000000
# 6 0.000000 0.000000 0.000000 0.000000 0.000000 0.039408
#
#
# Mechanical properties :
#
#
# Convention : Reuss Voigt Hill
#
# Bulk Modulus (GPa) = 43.63540 44.75642 44.19591
# Shear Modulus (GPa) = 14.69848 22.96829 18.83339
#
# Velocity S-wave (km/s) = 2.65530 3.31926 3.00567
# Velocity P-wave (km/s) = 5.50745 6.01323 5.76589
#
# Compressibility (1/GPa) = 0.02291717
#
# Stress axis : x y z
#
# Youngs Moduli (GPa) = 67.54827 84.08172 96.69245
#
# Poissons Ratio (x) = 0.17406 0.37764
# Poissons Ratio (y) = 0.13983 0.10495
# Poissons Ratio (z) = 0.26382 0.09126
#
# Static dielectric constant tensor:
#      x y z
#    x 1.770630 0.000000 0.000000 
#    y 0.000000 1.732010 0.000000 
#    z 0.000000 0.000000 1.724750 
# 
# From -- ./inp_files/138.got.cif
#   From: 2010.05.17/outbox.cif.g08.bks.cpg/sg34_1_cif.got.tgz:138.got - 2010.06.03 17:23:11.
