data_PCOD9347864
_publ_section_title
;
Structure prediction by ZEFSAII (Michael W. Deem and Ramdas Pophale) SiO2 
 PCOD9347864
Probable space group: P N N 2
;
_chemical_formula_sum "Si O2"
_cell_formula_units_Z 30
_cell_length_a 19.500188
_cell_length_b 6.287650
_cell_length_c 10.876026
_cell_angle_alpha 90.000000
_cell_angle_beta 90.000000
_cell_angle_gamma 90.000000
_cell_volume 1333.513431
_symmetry_space_group_name_H-M "P N N 2"
_symmetry_group_IT_number 34
_symmetry_cell_setting 'orthorhombic'
loop_
_space_group_symop_operation_xyz
x,y,z
-x,-y,z
1/2-x,1/2+y,1/2+z
1/2+x,1/2-y,1/2+z
loop_
_atom_site_type_symbol
_atom_site_label
_atom_site_fract_x
_atom_site_fract_y
_atom_site_fract_z
Si Si1 0.267816 0.054837 0.779940
Si Si2 0.696344 0.244969 0.501160
Si Si3 0.825011 0.099274 0.615484
Si Si4 0.569328 0.141853 0.363517
Si Si5 0.640442 0.298453 0.890093
Si Si6 0.918983 0.515293 0.592761
Si Si7 0.126790 0.896542 0.163236
Si Si8 0.500000 0.500000 0.514509
O O1 0.186666 0.020423 0.742926
O O2 0.297047 0.836399 0.836751
O O3 0.253071 0.205877 0.899112
O O4 0.325742 0.198828 0.707000
O O5 0.742356 0.134528 0.605008
O O6 0.636388 0.095763 0.447324
O O7 0.668860 0.459580 0.565106
O O8 0.873905 0.301777 0.611723
O O9 0.843589 0.948611 0.504601
O O10 0.591523 0.139237 0.221435
O O11 0.545059 0.360383 0.423094
O O12 0.500000 0.000000 0.373706
O O13 0.613307 0.445989 0.779987
O O14 0.597113 0.119100 0.961162
O O15 0.000000 0.500000 0.590842
O O16 0.052400 0.862582 0.099484
#
# Coordination Sequence:
#
# PCOD9347864 Si02
#       8
#     4   4   4   4   4   4   4   2
#     4  12  25  43  73 105 146 187 244 300 368 430
#     4  11  23  43  67 103 142 183 241 301 356 431
#     4  12  26  42  71 106 141 186 246 302 364 431
#     4  10  25  45  73 100 141 190 242 296 362 435
#     4  12  24  44  70 103 144 188 238 296 369 432
#     4  11  27  48  70 105 146 193 246 298 371 447
#     4  11  25  44  69 105 145 191 237 301 367 434
#     4  10  26  48  68 108 142 188 248 288 364 446
#
# _framework density 22.496962
#
# number of rings (size 3 to 8) (size 9 to 14) (size 15 to 20)
#    0.000    0.800    4.000    1.600    5.600    9.067 
#    0.000    0.667    0.000    0.000    0.000    0.000 
#    0.000    0.000    0.000    0.000    0.000    0.000 
#
# Total GULP energy -167053.848988 kJ/mol
# GULP energy per Si atom -5568.461633 kJ/mol
# Density = 2.244576 g / cm^3
# Si number density = 22.496962 Si / 1000 Ang^3
#
#
#
# Elastic Constant Matrix: (Units=GPa)
#
#
# Indices 1 2 3 4 5 6 
#
# 1 79.2429 26.0466 16.3848 0.0000 0.0000 0.0000
# 2 26.0466 66.1345 20.0176 0.0000 0.0000 0.0000
# 3 16.3848 20.0176 80.4607 0.0000 0.0000 0.0000
# 4 0.0000 0.0000 0.0000 37.0863 0.0000 0.0000
# 5 0.0000 0.0000 0.0000 0.0000 20.7079 0.0000
# 6 0.0000 0.0000 0.0000 0.0000 0.0000 31.3617
#
#
#
# Elastic Compliance Matrix: (Units=1/GPa)
#
#
# Indices 1 2 3 4 5 6 
#
# 1 0.014703 -0.005282 -0.001680 0.000000 0.000000 0.000000
# 2 -0.005282 0.018250 -0.003465 0.000000 0.000000 0.000000
# 3 -0.001680 -0.003465 0.013632 0.000000 0.000000 0.000000
# 4 0.000000 0.000000 0.000000 0.026964 0.000000 0.000000
# 5 0.000000 0.000000 0.000000 0.000000 0.048291 0.000000
# 6 0.000000 0.000000 0.000000 0.000000 0.000000 0.031886
#
#
# Mechanical properties :
#
#
# Convention : Reuss Voigt Hill
#
# Bulk Modulus (GPa) = 38.86262 38.97068 38.91665
# Shear Modulus (GPa) = 27.29900 28.72379 28.01139
#
# Velocity S-wave (km/s) = 3.48724 3.57709 3.53245
# Velocity P-wave (km/s) = 5.79022 5.86694 5.82871
#
# Compressibility (1/GPa) = 0.02573167
#
# Stress axis : x y z
#
# Youngs Moduli (GPa) = 68.01332 54.79530 73.35420
#
# Poissons Ratio (x) = 0.28944 0.12323
# Poissons Ratio (y) = 0.35926 0.25415
# Poissons Ratio (z) = 0.11426 0.18985
#
# Static dielectric constant tensor:
#      x y z
#    x 1.945470 0.000000 0.000000 
#    y 0.000000 1.838220 0.000000 
#    z 0.000000 0.000000 1.894060 
# 
# From -- ./inp_files/5855.got.cif
#   From: 2010.05.17/outbox.cif.g08.bks.cpg/sg34_3_cif.got.tgz:5855.got - 2010.06.03 17:23:11.
