data_PCOD9347782
_publ_section_title
;
Structure prediction by ZEFSAII (Michael W. Deem and Ramdas Pophale) SiO2 
 PCOD9347782
Probable space group: P N N 2
;
_chemical_formula_sum "Si O2"
_cell_formula_units_Z 32
_cell_length_a 19.282477
_cell_length_b 12.675530
_cell_length_c 5.146608
_cell_angle_alpha 90.000000
_cell_angle_beta 90.000000
_cell_angle_gamma 90.000000
_cell_volume 1257.911363
_symmetry_space_group_name_H-M "P N N 2"
_symmetry_group_IT_number 34
_symmetry_cell_setting 'orthorhombic'
loop_
_space_group_symop_operation_xyz
x,y,z
-x,-y,z
1/2-x,1/2+y,1/2+z
1/2+x,1/2-y,1/2+z
loop_
_atom_site_type_symbol
_atom_site_label
_atom_site_fract_x
_atom_site_fract_y
_atom_site_fract_z
Si Si1 0.919711 0.496822 0.054460
Si Si2 0.010841 0.796848 0.332416
Si Si3 0.780848 0.539062 0.138399
Si Si4 0.455525 0.603612 0.331899
Si Si5 0.827772 0.144597 0.294849
Si Si6 0.783113 0.309884 0.861049
Si Si7 0.586145 0.870925 0.046880
Si Si8 0.189526 0.070343 0.040646
O O1 0.859468 0.581426 0.110583
O O2 0.893618 0.408417 0.260604
O O3 0.000000 0.500000 0.126654
O O4 0.920482 0.464869 0.753350
O O5 0.976259 0.874251 0.536741
O O6 0.093411 0.815765 0.313784
O O7 0.013478 0.687592 0.494707
O O8 0.978820 0.809130 0.047481
O O9 0.754178 0.491366 0.408751
O O10 0.724252 0.622124 0.035011
O O11 0.780524 0.431670 0.966031
O O12 0.500000 0.500000 0.411393
O O13 0.372835 0.593166 0.343988
O O14 0.841173 0.023432 0.211592
O O15 0.789243 0.222201 0.086417
O O16 0.852770 0.304274 0.686691
O O17 0.715389 0.323867 0.680092
#
# Coordination Sequence:
#
# PCOD9347782 Si02
#       8
#     4   4   4   4   4   4   4   4
#     4  11  23  46  75  99 136 183 235 305 366 433
#     4  12  25  44  68 101 138 190 237 295 349 444
#     4  10  23  43  69 102 139 185 240 300 366 438
#     4  12  25  42  67 100 146 188 236 289 367 431
#     4  11  24  42  70 104 137 194 250 298 367 451
#     4  10  23  43  70 101 138 189 243 304 361 437
#     4  11  23  45  72  99 132 183 245 285 362 443
#     4  11  24  44  68 103 147 191 244 310 364 455
#
# _framework density 25.438994999999998
#
# number of rings (size 3 to 8) (size 9 to 14) (size 15 to 20)
#    0.000    1.000    2.500    4.500    5.250    0.000 
#    2.250    2.500    0.000    0.000    0.000    0.000 
#    0.000    0.000    0.000    0.000    0.000    0.000 
#
# Total GULP energy -178491.050894 kJ/mol
# GULP energy per Si atom -5577.845340 kJ/mol
# Density = 2.538109 g / cm^3
# Si number density = 25.438995 Si / 1000 Ang^3
#
#
#
# Elastic Constant Matrix: (Units=GPa)
#
#
# Indices 1 2 3 4 5 6 
#
# 1 128.0173 15.4192 14.1755 0.0000 0.0000 0.0000
# 2 15.4192 61.7750 18.5095 0.0000 0.0000 0.0000
# 3 14.1755 18.5095 98.1316 0.0000 0.0000 0.0000
# 4 0.0000 0.0000 0.0000 34.0836 0.0000 0.0000
# 5 0.0000 0.0000 0.0000 0.0000 40.0934 0.0000
# 6 0.0000 0.0000 0.0000 0.0000 0.0000 28.3227
#
#
#
# Elastic Compliance Matrix: (Units=1/GPa)
#
#
# Indices 1 2 3 4 5 6 
#
# 1 0.008118 -0.001775 -0.000838 0.000000 0.000000 0.000000
# 2 -0.001775 0.017546 -0.003053 0.000000 0.000000 0.000000
# 3 -0.000838 -0.003053 0.010887 0.000000 0.000000 0.000000
# 4 0.000000 0.000000 0.000000 0.029340 0.000000 0.000000
# 5 0.000000 0.000000 0.000000 0.000000 0.024942 0.000000
# 6 0.000000 0.000000 0.000000 0.000000 0.000000 0.035307
#
#
# Mechanical properties :
#
#
# Convention : Reuss Voigt Hill
#
# Bulk Modulus (GPa) = 39.65297 42.68137 41.16717
# Shear Modulus (GPa) = 34.27519 36.48793 35.38156
#
# Velocity S-wave (km/s) = 3.67461 3.79136 3.73344
# Velocity P-wave (km/s) = 5.79870 5.99836 5.89937
#
# Compressibility (1/GPa) = 0.02521879
#
# Stress axis : x y z
#
# Youngs Moduli (GPa) = 123.18246 56.99424 91.85033
#
# Poissons Ratio (x) = 0.10118 0.07696
# Poissons Ratio (y) = 0.21868 0.28042
# Poissons Ratio (z) = 0.10321 0.17400
#
# Static dielectric constant tensor:
#      x y z
#    x 2.080670 0.000000 0.000000 
#    y 0.000000 2.196690 0.000000 
#    z 0.000000 0.000000 2.072280 
# 
# From -- ./inp_files/1497.got.cif
#   From: 2010.05.17/outbox.cif.g08.bks.cpg/sg34_1_cif.got.tgz:1497.got - 2010.06.03 17:23:11.
