data_PCOD9347665
_publ_section_title
;
Structure prediction by ZEFSAII (Michael W. Deem and Ramdas Pophale) SiO2 
 PCOD9347665
Probable space group: P N N 2
;
_chemical_formula_sum "Si O2"
_cell_formula_units_Z 16
_cell_length_a 15.897863
_cell_length_b 4.975021
_cell_length_c 8.397231
_cell_angle_alpha 90.000000
_cell_angle_beta 90.000000
_cell_angle_gamma 90.000000
_cell_volume 664.155493
_symmetry_space_group_name_H-M "P N N 2"
_symmetry_group_IT_number 34
_symmetry_cell_setting 'orthorhombic'
loop_
_space_group_symop_operation_xyz
x,y,z
-x,-y,z
1/2-x,1/2+y,1/2+z
1/2+x,1/2-y,1/2+z
loop_
_atom_site_type_symbol
_atom_site_label
_atom_site_fract_x
_atom_site_fract_y
_atom_site_fract_z
Si Si1 0.180511 0.568106 0.215070
Si Si2 0.500000 0.500000 0.032051
Si Si3 0.443284 0.730922 0.341379
Si Si4 0.275419 0.607863 0.524334
Si Si5 0.000000 0.500000 0.304139
O O1 0.199453 0.598996 0.401533
O O2 0.239752 0.324741 0.160707
O O3 0.083918 0.473658 0.200849
O O4 0.199513 0.829166 0.108754
O O5 0.433372 0.618641 0.159938
O O6 0.483005 0.255155 0.915277
O O7 0.500000 0.500000 0.424310
O O8 0.352654 0.729767 0.420576
O O9 0.500000 0.000000 0.335364
#
# Coordination Sequence:
#
# PCOD9347665 Si02
#       5
#     4   2   4   4   2
#     4  12  30  48  78 106 160 189 258 309 386 436
#     4  10  22  40  72 106 144 190 242 298 366 450
#     4  10  22  40  72 102 144 192 243 291 366 452
#     4  12  28  48  75 111 151 198 248 315 377 445
#     4  12  26  44  74 108 150 190 250 310 376 432
#
# _framework density 24.090741000000001
#
# number of rings (size 3 to 8) (size 9 to 14) (size 15 to 20)
#    0.750    0.000    1.250    4.500   12.250    0.000 
#    0.000    0.000    0.000    0.000    0.000    0.000 
#    0.000    0.000    0.000    0.000    0.000    0.000 
#
# Total GULP energy -89457.978369 kJ/mol
# GULP energy per Si atom -5591.123648 kJ/mol
# Density = 2.403591 g / cm^3
# Si number density = 24.090741 Si / 1000 Ang^3
#
#
#
# Elastic Constant Matrix: (Units=GPa)
#
#
# Indices 1 2 3 4 5 6 
#
# 1 102.7361 30.4880 25.3109 0.0000 0.0000 0.0000
# 2 30.4880 152.9403 30.7049 0.0000 0.0000 0.0000
# 3 25.3109 30.7049 89.8557 0.0000 0.0000 0.0000
# 4 0.0000 0.0000 0.0000 50.6378 0.0000 0.0000
# 5 0.0000 0.0000 0.0000 0.0000 41.8219 0.0000
# 6 0.0000 0.0000 0.0000 0.0000 0.0000 6.4450
#
#
#
# Elastic Compliance Matrix: (Units=1/GPa)
#
#
# Indices 1 2 3 4 5 6 
#
# 1 0.010839 -0.001662 -0.002485 0.000000 0.000000 0.000000
# 2 -0.001662 0.007275 -0.002018 0.000000 0.000000 0.000000
# 3 -0.002485 -0.002018 0.012519 0.000000 0.000000 0.000000
# 4 0.000000 0.000000 0.000000 0.019748 0.000000 0.000000
# 5 0.000000 0.000000 0.000000 0.000000 0.023911 0.000000
# 6 0.000000 0.000000 0.000000 0.000000 0.000000 0.155160
#
#
# Mechanical properties :
#
#
# Convention : Reuss Voigt Hill
#
# Bulk Modulus (GPa) = 54.63685 57.61549 56.12617
# Shear Modulus (GPa) = 20.17084 37.04950 28.61017
#
# Velocity S-wave (km/s) = 2.89673 3.92588 3.44990
# Velocity P-wave (km/s) = 5.82382 6.67218 6.26238
#
# Compressibility (1/GPa) = 0.01830267
#
# Stress axis : x y z
#
# Youngs Moduli (GPa) = 92.25826 137.45947 79.88136
#
# Poissons Ratio (x) = 0.22842 0.19853
# Poissons Ratio (y) = 0.15331 0.16119
# Poissons Ratio (z) = 0.22930 0.27737
#
# Static dielectric constant tensor:
#      x y z
#    x 1.964270 0.000000 0.000000 
#    y 0.000000 1.914760 0.000000 
#    z 0.000000 0.000000 1.977130 
# 
# From -- ./inp_files/3469.got.cif
#   From: 2010.05.17/outbox.cif.g08.bks.cpg/sg34_2_cif.got.tgz:3469.got - 2010.06.03 17:23:11.
