data_PCOD9347304
_publ_section_title
;
Structure prediction by ZEFSAII (Michael W. Deem and Ramdas Pophale) SiO2 
 PCOD9347304
Probable space group: P N N 2
;
_chemical_formula_sum "Si O2"
_cell_formula_units_Z 32
_cell_length_a 26.230134
_cell_length_b 6.342780
_cell_length_c 9.020305
_cell_angle_alpha 90.000000
_cell_angle_beta 90.000000
_cell_angle_gamma 90.000000
_cell_volume 1500.725907
_symmetry_space_group_name_H-M "P N N 2"
_symmetry_group_IT_number 34
_symmetry_cell_setting 'orthorhombic'
loop_
_space_group_symop_operation_xyz
x,y,z
-x,-y,z
1/2-x,1/2+y,1/2+z
1/2+x,1/2-y,1/2+z
loop_
_atom_site_type_symbol
_atom_site_label
_atom_site_fract_x
_atom_site_fract_y
_atom_site_fract_z
Si Si1 0.633578 0.934289 0.968520
Si Si2 0.377232 0.229797 0.514869
Si Si3 0.621002 0.104968 0.277428
Si Si4 0.813402 0.113185 0.285502
Si Si5 0.227615 0.275015 0.406614
Si Si6 0.056939 0.435649 0.218591
Si Si7 0.054045 0.110780 0.958292
Si Si8 0.218384 0.115764 0.726935
O O1 0.688548 0.047546 0.963426
O O2 0.595631 0.052872 0.855779
O O3 0.646897 0.701461 0.907810
O O4 0.612898 0.963877 0.132379
O O5 0.335573 0.308859 0.630190
O O6 0.403249 0.431679 0.443729
O O7 0.358015 0.052017 0.403289
O O8 0.421709 0.115450 0.608836
O O9 0.569700 0.210304 0.340551
O O10 0.662405 0.286434 0.243564
O O11 0.758176 0.220084 0.299442
O O12 0.803810 0.866713 0.290935
O O13 0.233624 0.124188 0.551516
O O14 0.271719 0.397128 0.315428
O O15 0.056827 0.222042 0.120813
O O16 0.000000 0.500000 0.263384
O O17 0.000000 0.000000 0.936685
#
# Coordination Sequence:
#
# PCOD9347304 Si02
#       8
#     4   4   4   4   4   4   4   4
#     4   9  21  43  59  93 125 170 209 270 329 386
#     4  10  22  40  66  93 122 169 219 269 331 392
#     4  10  24  41  65  94 136 169 217 277 336 403
#     4  10  22  39  66  91 124 167 216 269 321 392
#     4  10  22  42  64  89 135 166 223 265 322 401
#     4  10  19  39  65  90 121 162 219 273 327 396
#     4  11  22  39  64  94 129 169 223 276 337 398
#     4  10  24  40  63  96 127 175 217 272 330 393
#
# _framework density 21.323014000000001
#
# number of rings (size 3 to 8) (size 9 to 14) (size 15 to 20)
#    0.000    2.000    1.250    0.750    3.500    6.000 
#    2.250    0.625    0.000    0.000    0.000    0.000 
#    0.000    0.000    0.000    0.000    0.000    0.000 
#
# Total GULP energy -178562.277986 kJ/mol
# GULP energy per Si atom -5580.071187 kJ/mol
# Density = 2.127448 g / cm^3
# Si number density = 21.323014 Si / 1000 Ang^3
#
#
#
# Elastic Constant Matrix: (Units=GPa)
#
#
# Indices 1 2 3 4 5 6 
#
# 1 60.9058 -0.1829 15.3188 0.0000 0.0000 0.0000
# 2 -0.1829 61.6074 21.5248 0.0000 0.0000 0.0000
# 3 15.3188 21.5248 98.7580 0.0000 0.0000 0.0000
# 4 0.0000 0.0000 0.0000 19.6691 0.0000 0.0000
# 5 0.0000 0.0000 0.0000 0.0000 16.4023 0.0000
# 6 0.0000 0.0000 0.0000 0.0000 0.0000 33.7359
#
#
#
# Elastic Compliance Matrix: (Units=1/GPa)
#
#
# Indices 1 2 3 4 5 6 
#
# 1 0.017149 0.001061 -0.002891 0.000000 0.000000 0.000000
# 2 0.001061 0.017635 -0.004008 0.000000 0.000000 0.000000
# 3 -0.002891 -0.004008 0.011448 0.000000 0.000000 0.000000
# 4 0.000000 0.000000 0.000000 0.050841 0.000000 0.000000
# 5 0.000000 0.000000 0.000000 0.000000 0.060967 0.000000
# 6 0.000000 0.000000 0.000000 0.000000 0.000000 0.029642
#
#
# Mechanical properties :
#
#
# Convention : Reuss Voigt Hill
#
# Bulk Modulus (GPa) = 28.93907 32.73251 30.83579
# Shear Modulus (GPa) = 23.71038 26.26884 24.98961
#
# Velocity S-wave (km/s) = 3.33823 3.51372 3.42710
# Velocity P-wave (km/s) = 5.33475 5.64320 5.49114
#
# Compressibility (1/GPa) = 0.03455536
#
# Stress axis : x y z
#
# Youngs Moduli (GPa) = 58.31179 56.70407 87.35238
#
# Poissons Ratio (x) = -0.06017 0.25257
# Poissons Ratio (y) = -0.06187 0.35014
# Poissons Ratio (z) = 0.16860 0.22729
#
# Static dielectric constant tensor:
#      x y z
#    x 1.784420 0.000000 0.000000 
#    y 0.000000 1.805410 0.000000 
#    z 0.000000 0.000000 1.795240 
# 
# From -- ./inp_files/2207.got.cif
#   From: 2010.05.17/outbox.cif.g08.bks.cpg/sg34_2_cif.got.tgz:2207.got - 2010.06.03 17:23:11.
