data_PCOD9347535
_publ_section_title
;
Structure prediction by ZEFSAII (Michael W. Deem and Ramdas Pophale) SiO2 
 PCOD9347535
Probable space group: P N N 2
;
_chemical_formula_sum "Si O2"
_cell_formula_units_Z 28
_cell_length_a 22.042090
_cell_length_b 9.129300
_cell_length_c 5.204443
_cell_angle_alpha 90.000000
_cell_angle_beta 90.000000
_cell_angle_gamma 90.000000
_cell_volume 1047.284091
_symmetry_space_group_name_H-M "P N N 2"
_symmetry_group_IT_number 34
_symmetry_cell_setting 'orthorhombic'
loop_
_space_group_symop_operation_xyz
x,y,z
-x,-y,z
1/2-x,1/2+y,1/2+z
1/2+x,1/2-y,1/2+z
loop_
_atom_site_type_symbol
_atom_site_label
_atom_site_fract_x
_atom_site_fract_y
_atom_site_fract_z
Si Si1 0.075191 0.182828 0.011390
Si Si2 0.787314 0.201817 0.050237
Si Si3 0.637929 0.049745 0.691171
Si Si4 0.044646 0.886023 0.868758
Si Si5 0.647987 0.700498 0.046572
Si Si6 0.274360 0.542786 0.215176
Si Si7 0.430815 0.953622 0.194696
O O1 0.121369 0.276764 0.176604
O O2 0.074360 0.277406 0.745346
O O3 0.002011 0.189485 0.066041
O O4 0.086788 0.009523 0.002225
O O5 0.839380 0.239807 0.255303
O O6 0.730154 0.285284 0.170512
O O7 0.805691 0.259923 0.766628
O O8 0.777996 0.030371 0.997204
O O9 0.707901 0.018863 0.632648
O O10 0.593753 0.989409 0.468529
O O11 0.614513 0.001028 0.969222
O O12 0.082378 0.792464 0.671606
O O13 0.000000 0.000000 0.721032
O O14 0.671065 0.530726 0.062118
O O15 0.500000 0.000000 0.146437
#
# Coordination Sequence:
#
# PCOD9347535 Si02
#       7
#     4   4   4   4   4   4   4
#     4   7  20  39  63  95 124 182 220 282 341 417
#     4  10  26  43  72 101 143 180 233 293 360 426
#     4  10  22  39  65  94 133 180 225 283 345 427
#     4   8  18  46  66  99 134 180 235 287 350 411
#     4  10  24  45  68 105 135 188 230 303 343 438
#     4  10  26  45  70 106 139 187 233 293 363 431
#     4  10  21  39  59  98 126 180 220 279 340 414
#
# _framework density 26.735818999999999
#
# number of rings (size 3 to 8) (size 9 to 14) (size 15 to 20)
#    2.571    0.000    0.000    0.429    4.000    4.571 
#    7.714    2.143    0.000    0.000    0.000    0.000 
#    0.000    0.000    0.000    0.000    0.000    0.000 
#
# Total GULP energy -155944.611979 kJ/mol
# GULP energy per Si atom -5569.450428 kJ/mol
# Density = 2.667497 g / cm^3
# Si number density = 26.735819 Si / 1000 Ang^3
#
#
#
# Elastic Constant Matrix: (Units=GPa)
#
#
# Indices 1 2 3 4 5 6 
#
# 1 100.7221 4.1353 6.6071 0.0000 0.0000 0.0000
# 2 4.1353 58.1168 18.8448 0.0000 0.0000 0.0000
# 3 6.6071 18.8448 109.9798 0.0000 0.0000 0.0000
# 4 0.0000 0.0000 0.0000 37.6585 0.0000 0.0000
# 5 0.0000 0.0000 0.0000 0.0000 32.7641 0.0000
# 6 0.0000 0.0000 0.0000 0.0000 0.0000 38.5888
#
#
#
# Elastic Compliance Matrix: (Units=1/GPa)
#
#
# Indices 1 2 3 4 5 6 
#
# 1 0.009984 -0.000546 -0.000506 0.000000 0.000000 0.000000
# 2 -0.000546 0.018249 -0.003094 0.000000 0.000000 0.000000
# 3 -0.000506 -0.003094 0.009653 0.000000 0.000000 0.000000
# 4 0.000000 0.000000 0.000000 0.026554 0.000000 0.000000
# 5 0.000000 0.000000 0.000000 0.000000 0.030521 0.000000
# 6 0.000000 0.000000 0.000000 0.000000 0.000000 0.025914
#
#
# Mechanical properties :
#
#
# Convention : Reuss Voigt Hill
#
# Bulk Modulus (GPa) = 33.79193 36.44369 35.11781
# Shear Modulus (GPa) = 35.96262 37.75105 36.85683
#
# Velocity S-wave (km/s) = 3.67155 3.76174 3.71692
# Velocity P-wave (km/s) = 5.53537 5.70335 5.61999
#
# Compressibility (1/GPa) = 0.02959286
#
# Stress axis : x y z
#
# Youngs Moduli (GPa) = 100.16084 54.79794 103.59315
#
# Poissons Ratio (x) = 0.02993 0.05244
# Poissons Ratio (y) = 0.05472 0.32053
# Poissons Ratio (z) = 0.05070 0.16955
#
# Static dielectric constant tensor:
#      x y z
#    x 2.102030 0.000000 0.000000 
#    y 0.000000 2.329760 0.000000 
#    z 0.000000 0.000000 2.047300 
# 
# From -- ./inp_files/1691.got.cif
#   From: 2010.05.17/outbox.cif.g08.bks.cpg/sg34_1_cif.got.tgz:1691.got - 2010.06.03 17:23:11.
