data_PCOD9347306
_publ_section_title
;
Structure prediction by ZEFSAII (Michael W. Deem and Ramdas Pophale) SiO2 
 PCOD9347306
Probable space group: P N N 2
;
_chemical_formula_sum "Si O2"
_cell_formula_units_Z 30
_cell_length_a 17.918047
_cell_length_b 11.948258
_cell_length_c 5.093294
_cell_angle_alpha 90.000000
_cell_angle_beta 90.000000
_cell_angle_gamma 90.000000
_cell_volume 1090.420503
_symmetry_space_group_name_H-M "P N N 2"
_symmetry_group_IT_number 34
_symmetry_cell_setting 'orthorhombic'
loop_
_space_group_symop_operation_xyz
x,y,z
-x,-y,z
1/2-x,1/2+y,1/2+z
1/2+x,1/2-y,1/2+z
loop_
_atom_site_type_symbol
_atom_site_label
_atom_site_fract_x
_atom_site_fract_y
_atom_site_fract_z
Si Si1 0.203911 0.195081 0.282120
Si Si2 0.609598 0.137689 0.045984
Si Si3 0.482005 0.834412 0.542847
Si Si4 0.410441 0.590838 0.484689
Si Si5 0.500000 0.500000 0.958922
Si Si6 0.147160 0.735652 0.041461
Si Si7 0.752205 0.616605 0.884894
Si Si8 0.383325 0.411608 0.083631
O O1 0.141849 0.234559 0.495530
O O2 0.175661 0.115077 0.051247
O O3 0.282240 0.171010 0.419303
O O4 0.210742 0.312358 0.115014
O O5 0.550197 0.115640 0.274222
O O6 0.688213 0.087488 0.163792
O O7 0.564530 0.111365 0.781612
O O8 0.453673 0.706344 0.505390
O O9 0.571340 0.832123 0.577144
O O10 0.428962 0.520842 0.222571
O O11 0.432431 0.518597 0.736013
O O12 0.463402 0.366903 0.986354
O O13 0.180469 0.803165 0.293783
O O14 0.134625 0.833468 0.830868
O O15 0.695523 0.529431 0.009666
#
# Coordination Sequence:
#
# PCOD9347306 Si02
#       8
#     4   4   4   4   2   4   4   4
#     4   9  21  36  59  76 122 163 204 248 301 363
#     4  10  20  36  55  84 109 162 200 250 303 351
#     4  11  22  34  59  83 121 157 204 258 302 361
#     4  11  22  36  52  88 116 177 200 249 298 384
#     4  12  24  36  52  86 128 172 198 232 296 370
#     4  10  22  36  54  84 118 168 201 260 312 362
#     4  10  19  40  54  81 117 170 197 255 296 367
#     4  11  23  34  55  81 127 168 211 240 304 377
#
# _framework density 27.512322000000001
#
# number of rings (size 3 to 8) (size 9 to 14) (size 15 to 20)
#    0.000    1.600    2.667    3.600   11.200    0.000 
#    0.000    0.000    0.000    0.000    0.000    0.000 
#    0.000   43.733    0.000    0.000    0.000    0.000 
#
# Total GULP energy -167120.537458 kJ/mol
# GULP energy per Si atom -5570.684582 kJ/mol
# Density = 2.744970 g / cm^3
# Si number density = 27.512322 Si / 1000 Ang^3
#
#
#
# Elastic Constant Matrix: (Units=GPa)
#
#
# Indices 1 2 3 4 5 6 
#
# 1 199.4872 44.7318 70.0794 0.0000 0.0000 0.0000
# 2 44.7318 79.0074 74.7838 0.0000 0.0000 0.0000
# 3 70.0794 74.7838 287.9643 0.0000 0.0000 0.0000
# 4 0.0000 0.0000 0.0000 113.2249 0.0000 0.0000
# 5 0.0000 0.0000 0.0000 0.0000 52.8317 0.0000
# 6 0.0000 0.0000 0.0000 0.0000 0.0000 50.1076
#
#
#
# Elastic Compliance Matrix: (Units=1/GPa)
#
#
# Indices 1 2 3 4 5 6 
#
# 1 0.005861 -0.002610 -0.000749 0.000000 0.000000 0.000000
# 2 -0.002610 0.017944 -0.004025 0.000000 0.000000 0.000000
# 3 -0.000749 -0.004025 0.004700 0.000000 0.000000 0.000000
# 4 0.000000 0.000000 0.000000 0.008832 0.000000 0.000000
# 5 0.000000 0.000000 0.000000 0.000000 0.018928 0.000000
# 6 0.000000 0.000000 0.000000 0.000000 0.000000 0.019957
#
#
# Mechanical properties :
#
#
# Convention : Reuss Voigt Hill
#
# Bulk Modulus (GPa) = 72.78638 105.07210 88.92924
# Shear Modulus (GPa) = 52.31818 68.35711 60.33765
#
# Velocity S-wave (km/s) = 4.36550 4.98998 4.68815
# Velocity P-wave (km/s) = 7.20579 8.45421 7.85484
#
# Compressibility (1/GPa) = 0.01373883
#
# Stress axis : x y z
#
# Youngs Moduli (GPa) = 170.61836 55.72747 212.76035
#
# Poissons Ratio (x) = 0.14544 0.15927
# Poissons Ratio (y) = 0.44528 0.85637
# Poissons Ratio (z) = 0.12772 0.22430
#
# Static dielectric constant tensor:
#      x y z
#    x -19.512410 0.000000 0.000000 
#    y 0.000000 1.314550 0.000000 
#    z 0.000000 0.000000 1.438570 
# 
# From -- ./inp_files/1307.got.cif
#   From: 2010.05.17/outbox.cif.g08.bks.cpg/sg34_1_cif.got.tgz:1307.got - 2010.06.03 17:23:11.
