data_PCOD9347285
_publ_section_title
;
Structure prediction by ZEFSAII (Michael W. Deem and Ramdas Pophale) SiO2 
 PCOD9347285
Probable space group: P N N 2
;
_chemical_formula_sum "Si O2"
_cell_formula_units_Z 28
_cell_length_a 12.635529
_cell_length_b 11.529097
_cell_length_c 7.435719
_cell_angle_alpha 90.000000
_cell_angle_beta 90.000000
_cell_angle_gamma 90.000000
_cell_volume 1083.207582
_symmetry_space_group_name_H-M "P N N 2"
_symmetry_group_IT_number 34
_symmetry_cell_setting 'orthorhombic'
loop_
_space_group_symop_operation_xyz
x,y,z
-x,-y,z
1/2-x,1/2+y,1/2+z
1/2+x,1/2-y,1/2+z
loop_
_atom_site_type_symbol
_atom_site_label
_atom_site_fract_x
_atom_site_fract_y
_atom_site_fract_z
Si Si1 0.332560 0.535424 0.027870
Si Si2 0.117357 0.480535 0.193021
Si Si3 0.410568 0.590172 0.421773
Si Si4 0.906454 0.749791 0.349682
Si Si5 0.679850 0.946211 0.087390
Si Si6 0.362042 0.816182 0.260792
Si Si7 0.862663 0.224542 0.424122
O O1 0.209525 0.538540 0.081015
O O2 0.391388 0.563941 0.212169
O O3 0.358088 0.623060 0.866885
O O4 0.368374 0.407400 0.982142
O O5 0.145366 0.344427 0.220061
O O6 0.120747 0.523475 0.398878
O O7 0.000000 0.500000 0.120371
O O8 0.500000 0.500000 0.486365
O O9 0.302578 0.554735 0.525002
O O10 0.427216 0.731696 0.400008
O O11 0.894143 0.711263 0.557124
O O12 0.031092 0.751613 0.313266
O O13 0.646853 0.810918 0.096135
O O14 0.648033 0.042102 0.237237
O O15 0.243449 0.771267 0.305046
#
# Coordination Sequence:
#
# PCOD9347285 Si02
#       7
#     4   4   4   4   4   4   4
#     4  10  21  34  57  89 123 157 209 262 317 387
#     4  10  19  37  63  85 112 168 212 254 320 381
#     4   9  17  35  59  81 115 160 201 250 318 376
#     4  10  20  36  63  87 116 165 217 255 319 385
#     4   9  19  35  59  86 119 154 207 259 306 385
#     4   9  20  35  57  88 120 151 210 262 298 390
#     4  11  20  36  60  87 126 162 198 268 328 378
#
# _framework density 25.849156000000001
#
# number of rings (size 3 to 8) (size 9 to 14) (size 15 to 20)
#    0.000    2.286    1.429    3.000    0.000    1.143 
#    0.000    4.286   12.571    0.000    0.000    0.000 
#    0.000    0.000    0.000    0.000    0.000    0.000 
#
# Total GULP energy -156292.256634 kJ/mol
# GULP energy per Si atom -5581.866308 kJ/mol
# Density = 2.579032 g / cm^3
# Si number density = 25.849156 Si / 1000 Ang^3
#
#
#
# Elastic Constant Matrix: (Units=GPa)
#
#
# Indices 1 2 3 4 5 6 
#
# 1 119.5083 30.0102 11.3487 0.0000 0.0000 0.0000
# 2 30.0102 209.0747 15.9800 0.0000 0.0000 0.0000
# 3 11.3487 15.9800 41.1626 0.0000 0.0000 0.0000
# 4 0.0000 0.0000 0.0000 -5.3885 0.0000 0.0000
# 5 0.0000 0.0000 0.0000 0.0000 21.1361 0.0000
# 6 0.0000 0.0000 0.0000 0.0000 0.0000 9.9040
#
#
#
# Elastic Compliance Matrix: (Units=1/GPa)
#
#
# Indices 1 2 3 4 5 6 
#
# 1 0.008838 -0.001115 -0.002004 0.000000 0.000000 0.000000
# 2 -0.001115 0.005070 -0.001661 0.000000 0.000000 0.000000
# 3 -0.002004 -0.001661 0.025491 0.000000 0.000000 0.000000
# 4 0.000000 0.000000 0.000000 -0.185581 0.000000 0.000000
# 5 0.000000 0.000000 0.000000 0.000000 0.047312 0.000000
# 6 0.000000 0.000000 0.000000 0.000000 0.000000 0.100969
#
#
# Mechanical properties :
#
#
# Convention : Reuss Voigt Hill
#
# Bulk Modulus (GPa) = 33.51272 53.82480 43.66876
# Shear Modulus (GPa) = 231.41844 25.95745 128.68794
#
# Velocity S-wave (km/s) = 9.47211 3.17233 7.06345
# Velocity P-wave (km/s) = 11.51610 5.85543 9.13528
#
# Compressibility (1/GPa) = 0.02983941
#
# Stress axis : x y z
#
# Youngs Moduli (GPa) = 113.14787 197.23783 39.22953
#
# Poissons Ratio (x) = 0.22001 0.07860
# Poissons Ratio (y) = 0.12621 0.06515
# Poissons Ratio (z) = 0.22671 0.32756
#
# Static dielectric constant tensor:
#      x y z
#    x 2.049910 0.000000 0.000000 
#    y 0.000000 2.259010 0.000000 
#    z 0.000000 0.000000 2.007520 
# 
# From -- ./inp_files/5420.got.cif
#   From: 2010.05.17/outbox.cif.g08.bks.cpg/sg34_3_cif.got.tgz:5420.got - 2010.06.03 17:23:11.
