data_PCOD9347948
_publ_section_title
;
Structure prediction by ZEFSAII (Michael W. Deem and Ramdas Pophale) SiO2 
 PCOD9347948
Probable space group: P N N 2
;
_chemical_formula_sum "Si O2"
_cell_formula_units_Z 30
_cell_length_a 7.083637
_cell_length_b 18.174843
_cell_length_c 10.279705
_cell_angle_alpha 90.000000
_cell_angle_beta 90.000000
_cell_angle_gamma 90.000000
_cell_volume 1323.450241
_symmetry_space_group_name_H-M "P N N 2"
_symmetry_group_IT_number 34
_symmetry_cell_setting 'orthorhombic'
loop_
_space_group_symop_operation_xyz
x,y,z
-x,-y,z
1/2-x,1/2+y,1/2+z
1/2+x,1/2-y,1/2+z
loop_
_atom_site_type_symbol
_atom_site_label
_atom_site_fract_x
_atom_site_fract_y
_atom_site_fract_z
Si Si1 0.362150 0.659651 0.663830
Si Si2 0.857194 0.933921 0.920753
Si Si3 0.500000 0.000000 0.037644
Si Si4 0.287059 0.424213 0.739570
Si Si5 0.017362 0.302577 0.790943
Si Si6 0.357812 0.433161 0.026224
Si Si7 0.456388 0.824340 0.600163
Si Si8 0.615210 0.349343 0.167693
O O1 0.374102 0.637607 0.512315
O O2 0.493521 0.593661 0.718630
O O3 0.159389 0.653389 0.731636
O O4 0.405740 0.747067 0.671040
O O5 0.638060 0.954505 0.942933
O O6 0.912154 0.911894 0.775869
O O7 0.000000 0.000000 0.959250
O O8 0.341748 0.964974 0.134086
O O9 0.203963 0.342030 0.739379
O O10 0.269004 0.452753 0.886762
O O11 0.024230 0.222319 0.730905
O O12 0.026116 0.306876 0.946066
O O13 0.500000 0.500000 0.059337
O O14 0.508314 0.365903 0.032710
O O15 0.189268 0.394064 0.110047
O O16 0.663421 0.844677 0.647233
#
# Coordination Sequence:
#
# PCOD9347948 Si02
#       8
#     4   4   2   4   4   4   4   4
#     4  12  22  44  72 102 142 181 242 307 358 431
#     4  12  27  45  71 105 147 190 238 302 375 448
#     4  12  26  46  72 110 146 196 246 302 382 446
#     4  11  25  44  73 106 138 184 245 304 361 435
#     4  11  23  43  70 104 140 184 245 306 364 432
#     4  11  27  46  71 104 148 194 240 303 373 445
#     4  11  25  45  71 107 140 194 247 302 372 438
#     4  12  25  46  71 104 150 192 242 305 370 450
#
# _framework density 22.668021
#
# number of rings (size 3 to 8) (size 9 to 14) (size 15 to 20)
#    0.000    0.533    6.667    1.200    1.867    4.800 
#    4.800    0.000    0.000    0.000    0.000    0.000 
#    0.000    0.000    0.000    0.000    0.000    0.000 
#
# Total GULP energy -167168.749838 kJ/mol
# GULP energy per Si atom -5572.291661 kJ/mol
# Density = 2.261643 g / cm^3
# Si number density = 22.668021 Si / 1000 Ang^3
#
#
#
# Elastic Constant Matrix: (Units=GPa)
#
#
# Indices 1 2 3 4 5 6 
#
# 1 111.7302 26.4368 -15.3979 0.0000 0.0000 0.0000
# 2 26.4368 68.2244 6.9804 0.0000 0.0000 0.0000
# 3 -15.3979 6.9804 24.0249 0.0000 0.0000 0.0000
# 4 0.0000 0.0000 0.0000 19.9253 0.0000 0.0000
# 5 0.0000 0.0000 0.0000 0.0000 24.7572 0.0000
# 6 0.0000 0.0000 0.0000 0.0000 0.0000 39.6510
#
#
#
# Elastic Compliance Matrix: (Units=1/GPa)
#
#
# Indices 1 2 3 4 5 6 
#
# 1 0.011438 -0.005341 0.008883 0.000000 0.000000 0.000000
# 2 -0.005341 0.017601 -0.008537 0.000000 0.000000 0.000000
# 3 0.008883 -0.008537 0.049797 0.000000 0.000000 0.000000
# 4 0.000000 0.000000 0.000000 0.050188 0.000000 0.000000
# 5 0.000000 0.000000 0.000000 0.000000 0.040392 0.000000
# 6 0.000000 0.000000 0.000000 0.000000 0.000000 0.025220
#
#
# Mechanical properties :
#
#
# Convention : Reuss Voigt Hill
#
# Bulk Modulus (GPa) = 14.52542 26.66866 20.59704
# Shear Modulus (GPa) = 21.97084 29.26405 25.61744
#
# Velocity S-wave (km/s) = 3.11665 3.59692 3.36536
# Velocity P-wave (km/s) = 4.40149 5.38896 4.92006
#
# Compressibility (1/GPa) = 0.06884483
#
# Stress axis : x y z
#
# Youngs Moduli (GPa) = 87.42757 56.81617 20.08157
#
# Poissons Ratio (x) = 0.30346 -0.17838
# Poissons Ratio (y) = 0.46695 0.17144
# Poissons Ratio (z) = -0.77659 0.48504
#
# Static dielectric constant tensor:
#      x y z
#    x 1.833340 0.000000 0.000000 
#    y 0.000000 1.868470 0.000000 
#    z 0.000000 0.000000 1.836530 
# 
# From -- ./inp_files/4517.got.cif
#   From: 2010.05.17/outbox.cif.g08.bks.cpg/sg34_3_cif.got.tgz:4517.got - 2010.06.03 17:23:11.
