data_PCOD9347169
_publ_section_title
;
Structure prediction by ZEFSAII (Michael W. Deem and Ramdas Pophale) SiO2 
 PCOD9347169
Probable space group: P N N 2
;
_chemical_formula_sum "Si O2"
_cell_formula_units_Z 22
_cell_length_a 10.902088
_cell_length_b 10.868055
_cell_length_c 7.301195
_cell_angle_alpha 90.000000
_cell_angle_beta 90.000000
_cell_angle_gamma 90.000000
_cell_volume 865.078381
_symmetry_space_group_name_H-M "P N N 2"
_symmetry_group_IT_number 34
_symmetry_cell_setting 'orthorhombic'
loop_
_space_group_symop_operation_xyz
x,y,z
-x,-y,z
1/2-x,1/2+y,1/2+z
1/2+x,1/2-y,1/2+z
loop_
_atom_site_type_symbol
_atom_site_label
_atom_site_fract_x
_atom_site_fract_y
_atom_site_fract_z
Si Si1 0.389113 0.823743 0.885080
Si Si2 0.868975 0.183337 0.678921
Si Si3 0.206994 0.567665 0.529866
Si Si4 0.241336 0.454558 0.888893
Si Si5 0.500000 0.000000 0.606931
Si Si6 0.372944 0.694783 0.253501
O O1 0.259119 0.809467 0.783483
O O2 0.481404 0.873866 0.726429
O O3 0.388516 0.713923 0.034216
O O4 0.374346 0.949117 0.998889
O O5 0.875078 0.313978 0.573402
O O6 0.849221 0.076618 0.529921
O O7 0.014052 0.827300 0.807988
O O8 0.281325 0.531716 0.712573
O O9 0.289442 0.593817 0.352555
O O10 0.186772 0.320978 0.828793
O O11 0.123152 0.515727 0.987253
#
# Coordination Sequence:
#
# PCOD9347169 Si02
#       6
#     4   4   4   4   2   4
#     4  10  22  38  62  96 123 163 218 265 328 393
#     4  10  21  38  61  91 124 162 217 267 318 390
#     4  10  21  40  61  86 128 168 208 270 321 384
#     4   9  20  37  61  92 125 171 223 260 321 397
#     4  10  18  34  62  90 124 162 212 272 310 374
#     4  10  21  39  62  90 126 166 212 271 327 381
#
# _framework density 25.43122
#
# number of rings (size 3 to 8) (size 9 to 14) (size 15 to 20)
#    0.000    2.182    0.000    2.182    0.000    8.000 
#    0.000   14.545    0.000    0.000    0.000    0.000 
#    0.000    0.000    0.000    0.000    0.000    0.000 
#
# Total GULP energy -122934.487523 kJ/mol
# GULP energy per Si atom -5587.931251 kJ/mol
# Density = 2.537334 g / cm^3
# Si number density = 25.431220 Si / 1000 Ang^3
#
#
#
# Elastic Constant Matrix: (Units=GPa)
#
#
# Indices 1 2 3 4 5 6 
#
# 1 73.8149 22.5225 16.9020 0.0000 0.0000 0.0000
# 2 22.5225 97.2833 38.9503 0.0000 0.0000 0.0000
# 3 16.9020 38.9503 109.8886 0.0000 0.0000 0.0000
# 4 0.0000 0.0000 0.0000 48.5971 0.0000 0.0000
# 5 0.0000 0.0000 0.0000 0.0000 27.9329 0.0000
# 6 0.0000 0.0000 0.0000 0.0000 0.0000 30.7053
#
#
#
# Elastic Compliance Matrix: (Units=1/GPa)
#
#
# Indices 1 2 3 4 5 6 
#
# 1 0.014719 -0.002915 -0.001231 0.000000 0.000000 0.000000
# 2 -0.002915 0.012557 -0.004002 0.000000 0.000000 0.000000
# 3 -0.001231 -0.004002 0.010708 0.000000 0.000000 0.000000
# 4 0.000000 0.000000 0.000000 0.020577 0.000000 0.000000
# 5 0.000000 0.000000 0.000000 0.000000 0.035800 0.000000
# 6 0.000000 0.000000 0.000000 0.000000 0.000000 0.032568
#
#
# Mechanical properties :
#
#
# Convention : Reuss Voigt Hill
#
# Bulk Modulus (GPa) = 46.10970 48.63737 47.37354
# Shear Modulus (GPa) = 33.23294 34.95453 34.09373
#
# Velocity S-wave (km/s) = 3.61886 3.71141 3.66543
# Velocity P-wave (km/s) = 5.96926 6.12639 6.04833
#
# Compressibility (1/GPa) = 0.02168741
#
# Stress axis : x y z
#
# Youngs Moduli (GPa) = 67.94137 79.63969 93.38755
#
# Poissons Ratio (x) = 0.23214 0.11493
# Poissons Ratio (y) = 0.19804 0.37377
# Poissons Ratio (z) = 0.08362 0.31875
#
# Static dielectric constant tensor:
#      x y z
#    x 2.043730 0.000000 0.000000 
#    y 0.000000 2.034140 0.000000 
#    z 0.000000 0.000000 2.134970 
# 
# From -- ./inp_files/2690.got.cif
#   From: 2010.05.17/outbox.cif.g08.bks.cpg/sg34_2_cif.got.tgz:2690.got - 2010.06.03 17:23:11.
