data_PCOD9347966
_publ_section_title
;
Structure prediction by ZEFSAII (Michael W. Deem and Ramdas Pophale) SiO2 
 PCOD9347966
Probable space group: P N N 2
;
_chemical_formula_sum "Si O2"
_cell_formula_units_Z 22
_cell_length_a 5.116343
_cell_length_b 16.736739
_cell_length_c 12.026256
_cell_angle_alpha 90.000000
_cell_angle_beta 90.000000
_cell_angle_gamma 90.000000
_cell_volume 1029.819094
_symmetry_space_group_name_H-M "P N N 2"
_symmetry_group_IT_number 34
_symmetry_cell_setting 'orthorhombic'
loop_
_space_group_symop_operation_xyz
x,y,z
-x,-y,z
1/2-x,1/2+y,1/2+z
1/2+x,1/2-y,1/2+z
loop_
_atom_site_type_symbol
_atom_site_label
_atom_site_fract_x
_atom_site_fract_y
_atom_site_fract_z
Si Si1 0.000000 0.000000 0.584160
Si Si2 0.762975 0.341436 0.018043
Si Si3 0.272172 0.203279 0.264082
Si Si4 0.737815 0.049623 0.948359
Si Si5 0.162914 0.380153 0.218381
Si Si6 0.241144 0.322287 0.629142
O O1 0.800551 0.043050 0.666131
O O2 0.104078 0.075542 0.515181
O O3 0.652211 0.257736 0.062964
O O4 0.969172 0.357892 0.117638
O O5 0.826114 0.320615 0.891140
O O6 0.320878 0.298569 0.245422
O O7 0.479853 0.153751 0.193113
O O8 0.977499 0.190665 0.217433
O O9 0.594261 0.090627 0.841901
O O10 0.500000 0.000000 0.000846
O O11 0.828256 0.115579 0.036366
O O12 0.000000 0.000000 0.917486
#
# Coordination Sequence:
#
# PCOD9347966 Si02
#       6
#     2   4   4   4   4   4
#     4  12  22  44  66 110 134 184 240 294 352 414
#     4  11  25  44  71 102 143 186 239 297 357 429
#     4  11  25  46  73 100 141 189 235 289 359 433
#     4  12  25  45  72 105 142 185 242 301 357 427
#     4  11  24  43  72 104 141 182 241 298 355 417
#     4  11  25  47  70 102 139 191 236 289 360 434
#
# _framework density 21.362973
#
# number of rings (size 3 to 8) (size 9 to 14) (size 15 to 20)
#    0.000    0.727    4.545    2.727    2.545    0.000 
#    4.909    0.000    0.000    0.000    0.000    0.000 
#    0.000    0.000    0.000    0.000    0.000    0.000 
#
# Total GULP energy -122469.822383 kJ/mol
# GULP energy per Si atom -5566.810108 kJ/mol
# Density = 2.131435 g / cm^3
# Si number density = 21.362973 Si / 1000 Ang^3
#
#
#
# Elastic Constant Matrix: (Units=GPa)
#
#
# Indices 1 2 3 4 5 6 
#
# 1 53.9667 13.6386 22.6573 0.0000 0.0000 0.0000
# 2 13.6386 76.2571 48.2007 0.0000 0.0000 0.0000
# 3 22.6573 48.2007 143.7621 0.0000 0.0000 0.0000
# 4 0.0000 0.0000 0.0000 34.0636 0.0000 0.0000
# 5 0.0000 0.0000 0.0000 0.0000 25.0172 0.0000
# 6 0.0000 0.0000 0.0000 0.0000 0.0000 9.8708
#
#
#
# Elastic Compliance Matrix: (Units=1/GPa)
#
#
# Indices 1 2 3 4 5 6 
#
# 1 0.020085 -0.002019 -0.002488 0.000000 0.000000 0.000000
# 2 -0.002019 0.016843 -0.005329 0.000000 0.000000 0.000000
# 3 -0.002488 -0.005329 0.009135 0.000000 0.000000 0.000000
# 4 0.000000 0.000000 0.000000 0.029357 0.000000 0.000000
# 5 0.000000 0.000000 0.000000 0.000000 0.039973 0.000000
# 6 0.000000 0.000000 0.000000 0.000000 0.000000 0.101309
#
#
# Mechanical properties :
#
#
# Convention : Reuss Voigt Hill
#
# Bulk Modulus (GPa) = 37.89378 49.21987 43.55682
# Shear Modulus (GPa) = 20.39396 26.42294 23.40845
#
# Velocity S-wave (km/s) = 3.09308 3.52071 3.31380
# Velocity P-wave (km/s) = 5.52564 6.29421 5.92241
#
# Compressibility (1/GPa) = 0.02638956
#
# Stress axis : x y z
#
# Youngs Moduli (GPa) = 49.78836 59.37195 109.47165
#
# Poissons Ratio (x) = 0.11989 0.27241
# Poissons Ratio (y) = 0.10054 0.58336
# Poissons Ratio (z) = 0.12389 0.31639
#
# Static dielectric constant tensor:
#      x y z
#    x 1.855200 0.000000 0.000000 
#    y 0.000000 1.821960 0.000000 
#    z 0.000000 0.000000 1.790440 
# 
# From -- ./inp_files/4394.got.cif
#   From: 2010.05.17/outbox.cif.g08.bks.cpg/sg34_3_cif.got.tgz:4394.got - 2010.06.03 17:23:11.
