data_PCOD9347004
_publ_section_title
;
Structure prediction by ZEFSAII (Michael W. Deem and Ramdas Pophale) SiO2 
 PCOD9347004
Probable space group: P N A 21
;
_chemical_formula_sum "Si O2"
_cell_formula_units_Z 16
_cell_length_a 4.971649
_cell_length_b 27.367120
_cell_length_c 5.134882
_cell_angle_alpha 90.000000
_cell_angle_beta 90.000000
_cell_angle_gamma 90.000000
_cell_volume 698.650580
_symmetry_space_group_name_H-M "P N A 21"
_symmetry_group_IT_number 33
_symmetry_cell_setting 'orthorhombic'
loop_
_space_group_symop_operation_xyz
x,y,z
-x,-y,1/2+z
1/2-x,1/2+y,1/2+z
1/2+x,1/2-y,z
loop_
_atom_site_type_symbol
_atom_site_label
_atom_site_fract_x
_atom_site_fract_y
_atom_site_fract_z
Si Si1 0.954730 0.282601 0.750000
Si Si2 0.992616 0.083840 0.269477
Si Si3 0.499601 0.847465 0.743663
Si Si4 0.192339 0.499661 0.010162
O O1 0.651746 0.263553 0.781448
O O2 0.970459 0.306759 0.466098
O O3 0.044557 0.321060 0.968865
O O4 0.739986 0.117409 0.337620
O O5 0.236255 0.119658 0.204295
O O6 0.115138 0.046351 0.479065
O O7 0.877870 0.047778 0.048130
O O8 0.997453 0.503406 0.258384
#
# Coordination Sequence:
#
# PCOD9347004 Si02
#       4
#     4   4   4   4
#     4  12  26  50  76 106 146 186 240 310 392 442
#     4  12  28  49  73 114 152 198 257 297 372 430
#     4  12  28  45  79 108 146 190 251 309 358 464
#     4  12  28  50  76 108 162 208 252 310 372 440
#
# _framework density 22.901288000000001
#
# number of rings (size 3 to 8) (size 9 to 14) (size 15 to 20)
#    0.000    0.000    2.500    6.000    3.500    4.000 
#    0.000    0.000    0.000    0.000    0.000    0.000 
#    0.000    0.000    0.000    0.000    0.000    0.000 
#
# Total GULP energy -89653.516778 kJ/mol
# GULP energy per Si atom -5603.344799 kJ/mol
# Density = 2.284916 g / cm^3
# Si number density = 22.901288 Si / 1000 Ang^3
#
#
#
# Elastic Constant Matrix: (Units=GPa)
#
#
# Indices 1 2 3 4 5 6 
#
# 1 140.5837 28.0254 32.1299 0.0000 0.0000 0.0000
# 2 28.0254 69.0564 5.9956 0.0000 0.0000 0.0000
# 3 32.1299 5.9956 122.7406 0.0000 0.0000 0.0000
# 4 0.0000 0.0000 0.0000 -34.3642 0.0000 0.0000
# 5 0.0000 0.0000 0.0000 0.0000 37.3782 0.0000
# 6 0.0000 0.0000 0.0000 0.0000 0.0000 12.0584
#
#
#
# Elastic Compliance Matrix: (Units=1/GPa)
#
#
# Indices 1 2 3 4 5 6 
#
# 1 0.008197 -0.003154 -0.001992 0.000000 0.000000 0.000000
# 2 -0.003154 0.015756 0.000056 0.000000 0.000000 0.000000
# 3 -0.001992 0.000056 0.008666 0.000000 0.000000 0.000000
# 4 0.000000 0.000000 0.000000 -0.029100 0.000000 0.000000
# 5 0.000000 0.000000 0.000000 0.000000 0.026754 0.000000
# 6 0.000000 0.000000 0.000000 0.000000 0.000000 0.082930
#
#
# Mechanical properties :
#
#
# Convention : Reuss Voigt Hill
#
# Bulk Modulus (GPa) = 44.56348 51.63138 48.09743
# Shear Modulus (GPa) = 38.20836 20.76312 29.48574
#
# Velocity S-wave (km/s) = 4.08903 3.01431 3.59209
# Velocity P-wave (km/s) = 6.46488 5.89142 6.18480
#
# Compressibility (1/GPa) = 0.02243990
#
# Stress axis : x y z
#
# Youngs Moduli (GPa) = 121.99444 63.46808 115.39482
#
# Poissons Ratio (x) = 0.20016 0.22983
# Poissons Ratio (y) = 0.38474 -0.00645
# Poissons Ratio (z) = 0.24298 -0.00355
#
# Static dielectric constant tensor:
#      x y z
#    x 1.828750 0.000000 0.000000 
#    y 0.000000 1.833120 0.000000 
#    z 0.000000 0.000000 1.833490 
# 
# From -- ./inp_files/142.got.cif
#   From: 2010.05.17/outbox.cif.g08.bks.cpg/sg33_1_cif.got.tgz:142.got - 2010.06.03 17:15:25.
