data_PCOD9347548
_publ_section_title
;
Structure prediction by ZEFSAII (Michael W. Deem and Ramdas Pophale) SiO2 
 PCOD9347548
Probable space group: P N N 2
;
_chemical_formula_sum "Si O2"
_cell_formula_units_Z 32
_cell_length_a 8.658404
_cell_length_b 14.324912
_cell_length_c 12.351636
_cell_angle_alpha 90.000000
_cell_angle_beta 90.000000
_cell_angle_gamma 90.000000
_cell_volume 1531.984225
_symmetry_space_group_name_H-M "P N N 2"
_symmetry_group_IT_number 34
_symmetry_cell_setting 'orthorhombic'
loop_
_space_group_symop_operation_xyz
x,y,z
-x,-y,z
1/2-x,1/2+y,1/2+z
1/2+x,1/2-y,1/2+z
loop_
_atom_site_type_symbol
_atom_site_label
_atom_site_fract_x
_atom_site_fract_y
_atom_site_fract_z
Si Si1 0.440875 0.904072 0.619300
Si Si2 0.978918 0.818555 0.326706
Si Si3 0.164360 0.949062 0.015095
Si Si4 0.677252 0.750396 0.630333
Si Si5 0.717761 0.937047 0.215604
Si Si6 0.974468 0.723981 0.753824
Si Si7 0.741833 0.160538 0.825464
Si Si8 0.775360 0.593794 0.898074
O O1 0.585184 0.838788 0.584594
O O2 0.334952 0.855635 0.708990
O O3 0.341034 0.928751 0.514567
O O4 0.500000 0.000000 0.669044
O O5 0.093738 0.765320 0.245938
O O6 0.094387 0.878745 0.399987
O O7 0.874150 0.884381 0.251118
O O8 0.861798 0.743739 0.378530
O O9 0.147520 0.844324 0.063752
O O10 0.258299 0.008419 0.103779
O O11 0.248932 0.929416 0.901732
O O12 0.000000 0.000000 0.001001
O O13 0.857209 0.758614 0.660983
O O14 0.583680 0.860140 0.211085
O O15 0.695550 0.011615 0.311717
O O16 0.087175 0.801550 0.802179
O O17 0.873312 0.680079 0.850340
#
# Coordination Sequence:
#
# PCOD9347548 Si02
#       8
#     4   4   4   4   4   4   4   4
#     4  11  25  46  62  86 128 182 223 265 324 409
#     4   9  19  40  65  96 130 166 213 272 335 388
#     4  12  22  39  67 101 136 171 214 282 349 398
#     4  10  21  40  68  89 129 168 216 273 339 387
#     4  11  19  37  68 106 129 157 223 289 338 385
#     4  10  21  39  66 101 128 165 221 280 330 399
#     4  10  25  42  61  93 136 179 215 257 334 420
#     4  11  20  37  69  94 123 165 219 274 329 380
#
# _framework density 20.887944000000001
#
# number of rings (size 3 to 8) (size 9 to 14) (size 15 to 20)
#    0.000    1.500    3.750    2.250    0.000    3.000 
#    2.250    3.750    0.000    0.000    0.000    0.000 
#    0.000    0.000    0.000    0.000    0.000    0.000 
#
# Total GULP energy -178690.396186 kJ/mol
# GULP energy per Si atom -5584.074881 kJ/mol
# Density = 2.084040 g / cm^3
# Si number density = 20.887944 Si / 1000 Ang^3
#
#
#
# Elastic Constant Matrix: (Units=GPa)
#
#
# Indices 1 2 3 4 5 6 
#
# 1 124.8878 35.4854 34.4568 0.0000 0.0000 0.0000
# 2 35.4854 54.3308 17.8556 0.0000 0.0000 0.0000
# 3 34.4568 17.8556 80.0523 0.0000 0.0000 0.0000
# 4 0.0000 0.0000 0.0000 14.1439 0.0000 0.0000
# 5 0.0000 0.0000 0.0000 0.0000 19.7994 0.0000
# 6 0.0000 0.0000 0.0000 0.0000 0.0000 15.1725
#
#
#
# Elastic Compliance Matrix: (Units=1/GPa)
#
#
# Indices 1 2 3 4 5 6 
#
# 1 0.010559 -0.005830 -0.003244 0.000000 0.000000 0.000000
# 2 -0.005830 0.023081 -0.002639 0.000000 0.000000 0.000000
# 3 -0.003244 -0.002639 0.014477 0.000000 0.000000 0.000000
# 4 0.000000 0.000000 0.000000 0.070702 0.000000 0.000000
# 5 0.000000 0.000000 0.000000 0.000000 0.050507 0.000000
# 6 0.000000 0.000000 0.000000 0.000000 0.000000 0.065909
#
#
# Mechanical properties :
#
#
# Convention : Reuss Voigt Hill
#
# Bulk Modulus (GPa) = 40.50210 48.31848 44.41029
# Shear Modulus (GPa) = 18.73428 21.25470 19.99449
#
# Velocity S-wave (km/s) = 2.99807 3.19338 3.09726
# Velocity P-wave (km/s) = 5.60507 6.06460 5.83936
#
# Compressibility (1/GPa) = 0.02469008
#
# Stress axis : x y z
#
# Youngs Moduli (GPa) = 94.70693 43.32600 69.07556
#
# Poissons Ratio (x) = 0.25260 0.22411
# Poissons Ratio (y) = 0.55215 0.18227
# Poissons Ratio (z) = 0.30727 0.11433
#
# Static dielectric constant tensor:
#      x y z
#    x 1.789060 0.000000 0.000000 
#    y 0.000000 1.789150 0.000000 
#    z 0.000000 0.000000 1.769350 
# 
# From -- ./inp_files/5113.got.cif
#   From: 2010.05.17/outbox.cif.g08.bks.cpg/sg34_3_cif.got.tgz:5113.got - 2010.06.03 17:23:11.
