data_PCOD9347225
_publ_section_title
;
Structure prediction by ZEFSAII (Michael W. Deem and Ramdas Pophale) SiO2 
 PCOD9347225
Probable space group: P N N 2
;
_chemical_formula_sum "Si O2"
_cell_formula_units_Z 18
_cell_length_a 10.678141
_cell_length_b 12.633781
_cell_length_c 5.272921
_cell_angle_alpha 90.000000
_cell_angle_beta 90.000000
_cell_angle_gamma 90.000000
_cell_volume 711.344962
_symmetry_space_group_name_H-M "P N N 2"
_symmetry_group_IT_number 34
_symmetry_cell_setting 'orthorhombic'
loop_
_space_group_symop_operation_xyz
x,y,z
-x,-y,z
1/2-x,1/2+y,1/2+z
1/2+x,1/2-y,1/2+z
loop_
_atom_site_type_symbol
_atom_site_label
_atom_site_fract_x
_atom_site_fract_y
_atom_site_fract_z
Si Si1 0.424817 0.180571 0.729100
Si Si2 0.970878 0.772913 0.723414
Si Si3 0.814226 0.977349 0.724107
Si Si4 0.500000 0.000000 0.986689
Si Si5 0.726152 0.078354 0.219122
O O1 0.454512 0.239972 0.474165
O O2 0.303736 0.106103 0.728144
O O3 0.532176 0.094307 0.796309
O O4 0.442930 0.251803 0.977838
O O5 0.926752 0.893535 0.725120
O O6 0.848666 0.691057 0.722096
O O7 0.797594 0.045763 0.471430
O O8 0.807866 0.052298 0.970430
O O9 0.385185 0.008397 0.177856
#
# Coordination Sequence:
#
# PCOD9347225 Si02
#       5
#     4   4   4   2   4
#     4  10  19  32  52  77 104 131 167 211 260 302
#     4  11  21  34  54  78 105 135 168 210 256 303
#     4  11  21  34  54  78 105 135 168 210 256 303
#     4   8  16  30  52  78 100 126 160 222 276 298
#     4  10  19  32  52  77 104 131 167 211 260 302
#
# _framework density 25.304179999999999
#
# number of rings (size 3 to 8) (size 9 to 14) (size 15 to 20)
#    0.000    1.778    0.000    9.333    0.000    1.778 
#    0.000    0.000    0.000    8.000    0.000    0.000 
#    0.000    0.000    0.000    0.000    0.000    0.000 
#
# Total GULP energy -100545.296327 kJ/mol
# GULP energy per Si atom -5585.849796 kJ/mol
# Density = 2.524659 g / cm^3
# Si number density = 25.304180 Si / 1000 Ang^3
#
#
#
# Elastic Constant Matrix: (Units=GPa)
#
#
# Indices 1 2 3 4 5 6 
#
# 1 55.1068 52.3463 38.5975 0.0000 0.0000 0.0000
# 2 52.3463 171.9967 81.3020 0.0000 0.0000 0.0000
# 3 38.5975 81.3020 223.2755 0.0000 0.0000 0.0000
# 4 0.0000 0.0000 0.0000 -42.6648 0.0000 0.0000
# 5 0.0000 0.0000 0.0000 0.0000 -9.5178 0.0000
# 6 0.0000 0.0000 0.0000 0.0000 0.0000 65.4604
#
#
#
# Elastic Compliance Matrix: (Units=1/GPa)
#
#
# Indices 1 2 3 4 5 6 
#
# 1 0.026221 -0.007051 -0.001965 0.000000 0.000000 0.000000
# 2 -0.007051 0.008919 -0.002029 0.000000 0.000000 0.000000
# 3 -0.001965 -0.002029 0.005557 0.000000 0.000000 0.000000
# 4 0.000000 0.000000 0.000000 -0.023439 0.000000 0.000000
# 5 0.000000 0.000000 0.000000 0.000000 -0.105066 0.000000
# 6 0.000000 0.000000 0.000000 0.000000 0.000000 0.015276
#
#
# Mechanical properties :
#
#
# Convention : Reuss Voigt Hill
#
# Bulk Modulus (GPa) = 53.74369 88.31893 71.03131
# Shear Modulus (GPa) = -113.02556 21.19779 -45.91389
#
# Velocity S-wave (km/s) = -6.69057 2.89748 -4.26429
# Velocity P-wave (km/s) = 6.19676 6.79504 1.97138
#
# Compressibility (1/GPa) = 0.01860684
#
# Stress axis : x y z
#
# Youngs Moduli (GPa) = 38.13722 112.11908 179.94539
#
# Poissons Ratio (x) = 0.79059 0.35363
# Poissons Ratio (y) = 0.26892 0.36507
# Poissons Ratio (z) = 0.07495 0.22746
#
# Static dielectric constant tensor:
#      x y z
#    x 2.201250 0.000000 0.000000 
#    y 0.000000 2.102110 0.000000 
#    z 0.000000 0.000000 1.946330 
# 
# From -- ./inp_files/818.got.cif
#   From: 2010.05.17/outbox.cif.g08.bks.cpg/sg34_1_cif.got.tgz:818.got - 2010.06.03 17:23:11.
