data_PCOD9347064
_publ_section_title
;
Structure prediction by ZEFSAII (Michael W. Deem and Ramdas Pophale) SiO2 
 PCOD9347064
Probable space group: P N A 21
;
_chemical_formula_sum "Si O2"
_cell_formula_units_Z 24
_cell_length_a 15.000000
_cell_length_b 9.000000
_cell_length_c 9.000000
_cell_angle_alpha 90.000000
_cell_angle_beta 90.000000
_cell_angle_gamma 90.000000
_cell_volume 1215.000000
_symmetry_space_group_name_H-M "P N A 21"
_symmetry_group_IT_number 33
_symmetry_cell_setting 'orthorhombic'
loop_
_space_group_symop_operation_xyz
x,y,z
-x,-y,1/2+z
1/2-x,1/2+y,1/2+z
1/2+x,1/2-y,z
loop_
_atom_site_type_symbol
_atom_site_label
_atom_site_fract_x
_atom_site_fract_y
_atom_site_fract_z
Si Si1 0.848469 0.175930 0.925710
Si Si2 0.498203 0.104156 0.975551
Si Si3 0.686527 0.143415 0.135376
Si Si4 0.261005 0.179249 0.659358
Si Si5 0.734341 0.386791 0.345861
Si Si6 0.613247 0.083484 0.687318
O O1 0.832337 0.241078 0.762529
O O2 0.838609 0.000482 0.910544
O O3 0.937213 0.247961 0.989889
O O4 0.757058 0.210178 0.015950
O O5 0.590390 0.110843 0.067085
O O6 0.432212 0.976809 0.037424
O O7 0.534540 0.085995 0.808830
O O8 0.681468 0.263948 0.260199
O O9 0.732649 0.994429 0.196878
O O10 0.284703 0.183698 0.485837
O O11 0.165977 0.260853 0.676789
O O12 0.808231 0.473045 0.247646
#
# Coordination Sequence:
#
# PCOD9347064 Si02
#       6
#     4   4   4   4   4   4
#     4  10  22  42  62  93 135 167 217 278 327 401
#     4  12  23  42  68 100 129 179 225 280 338 412
#     4  11  22  43  68  92 133 175 224 278 339 400
#     4  10  21  41  65  94 127 171 217 275 335 401
#     4  10  22  43  63  94 126 177 223 269 341 397
#     4  11  24  41  68  97 130 175 230 274 342 407
#
# _framework density 19.753086
#
# number of rings (size 3 to 8) (size 9 to 14) (size 15 to 20)
#    0.000    1.333    6.667    1.000    4.667    0.000 
#    6.000    0.000    0.000    0.000    0.000    0.000 
#    0.000    0.000    0.000    0.000    0.000    0.000 
#
# Total GULP energy -133684.646670 kJ/mol
# GULP energy per Si atom -5570.193611 kJ/mol
# Density = 1.970813 g / cm^3
# Si number density = 19.753086 Si / 1000 Ang^3
#
#
#
# Elastic Constant Matrix: (Units=GPa)
#
#
# Indices 1 2 3 4 5 6 
#
# 1 100.6913 49.2790 14.2126 0.0000 0.0000 0.0000
# 2 49.2790 57.7476 59.3222 0.0000 0.0000 0.0000
# 3 14.2126 59.3222 36.0656 0.0000 0.0000 0.0000
# 4 0.0000 0.0000 0.0000 38.4068 0.0000 0.0000
# 5 0.0000 0.0000 0.0000 0.0000 42.5528 0.0000
# 6 0.0000 0.0000 0.0000 0.0000 0.0000 -11.2284
#
#
#
# Elastic Compliance Matrix: (Units=1/GPa)
#
#
# Indices 1 2 3 4 5 6 
#
# 1 0.008934 0.005810 -0.013077 0.000000 0.000000 0.000000
# 2 0.005810 -0.021330 0.032794 0.000000 0.000000 0.000000
# 3 -0.013077 0.032794 -0.021061 0.000000 0.000000 0.000000
# 4 0.000000 0.000000 0.000000 0.026037 0.000000 0.000000
# 5 0.000000 0.000000 0.000000 0.000000 0.023500 0.000000
# 6 0.000000 0.000000 0.000000 0.000000 0.000000 -0.089060
#
#
# Mechanical properties :
#
#
# Convention : Reuss Voigt Hill
#
# Bulk Modulus (GPa) = 56.82533 48.90355 52.86444
# Shear Modulus (GPa) = -42.31279 18.72561 -11.79359
#
# Velocity S-wave (km/s) = -4.63329 3.08227 -2.44611
# Velocity P-wave (km/s) = 0.45513 6.12196 4.34083
#
# Compressibility (1/GPa) = 0.01759779
#
# Stress axis : x y z
#
# Youngs Moduli (GPa) = 111.93515 -46.88329 -47.48189
#
# Poissons Ratio (x) = 0.27239 -0.62092
# Poissons Ratio (y) = -0.65034 1.55713
# Poissons Ratio (z) = 1.46378 1.53750
#
# Static dielectric constant tensor:
#      x y z
#    x 1.636100 0.000000 0.000000 
#    y 0.000000 1.742920 0.000000 
#    z 0.000000 0.000000 1.825980 
# 
# From -- ./inp_files/4235.got.cif
#   From: 2010.05.17/outbox.ucp.g08.bks.cvg/sg33_3_cif.got.tgz:4235.got - 2010.06.11 10:35:07.
