data_PCOD9347585
_publ_section_title
;
Structure prediction by ZEFSAII (Michael W. Deem and Ramdas Pophale) SiO2 
 PCOD9347585
Probable space group: P N N 2
;
_chemical_formula_sum "Si O2"
_cell_formula_units_Z 32
_cell_length_a 12.817224
_cell_length_b 8.480900
_cell_length_c 14.462920
_cell_angle_alpha 90.000000
_cell_angle_beta 90.000000
_cell_angle_gamma 90.000000
_cell_volume 1572.142473
_symmetry_space_group_name_H-M "P N N 2"
_symmetry_group_IT_number 34
_symmetry_cell_setting 'orthorhombic'
loop_
_space_group_symop_operation_xyz
x,y,z
-x,-y,z
1/2-x,1/2+y,1/2+z
1/2+x,1/2-y,1/2+z
loop_
_atom_site_type_symbol
_atom_site_label
_atom_site_fract_x
_atom_site_fract_y
_atom_site_fract_z
Si Si1 0.469738 0.327124 0.438210
Si Si2 0.415953 0.317070 0.224899
Si Si3 0.825703 0.685435 0.016540
Si Si4 0.486378 0.185929 0.745453
Si Si5 0.790907 0.176351 0.327348
Si Si6 0.636511 0.325133 0.185614
Si Si7 0.299286 0.640175 0.702726
Si Si8 0.666760 0.830406 0.575718
O O1 0.500000 0.500000 0.474195
O O2 0.452347 0.338861 0.329909
O O3 0.564709 0.215149 0.466115
O O4 0.367024 0.253374 0.482623
O O5 0.521648 0.251016 0.178199
O O6 0.384620 0.487503 0.184762
O O7 0.313196 0.213972 0.223586
O O8 0.742845 0.659851 0.933913
O O9 0.807736 0.826794 0.090950
O O10 0.833748 0.519764 0.070033
O O11 0.405477 0.247831 0.821620
O O12 0.597973 0.269825 0.740759
O O13 0.421577 0.216091 0.650467
O O14 0.500000 0.000000 0.755006
O O15 0.701169 0.284144 0.278867
O O16 0.797110 0.024338 0.259085
O O17 0.718786 0.280109 0.107382
#
# Coordination Sequence:
#
# PCOD9347585 Si02
#       8
#     4   4   4   4   4   4   4   4
#     4  12  23  36  67 102 127 167 236 294 334 411
#     4  11  21  43  65  91 130 180 224 269 354 417
#     4  12  23  43  63 101 137 179 232 292 349 433
#     4  11  21  43  70  93 132 181 226 281 365 417
#     4  11  25  41  66 100 141 172 230 298 352 412
#     4  10  21  42  62  89 127 180 215 270 344 410
#     4  12  24  40  70 101 135 184 231 288 360 422
#     4  11  22  39  67  93 132 170 222 285 349 411
#
# _framework density 20.354388
#
# number of rings (size 3 to 8) (size 9 to 14) (size 15 to 20)
#    0.000    0.750    6.250    2.250    3.500    0.500 
#    0.000    3.750    2.750    0.000    0.000    0.000 
#    0.000    0.000    0.000    0.000    0.000    0.000 
#
# Total GULP energy -178551.361420 kJ/mol
# GULP energy per Si atom -5579.730044 kJ/mol
# Density = 2.030806 g / cm^3
# Si number density = 20.354388 Si / 1000 Ang^3
#
#
#
# Elastic Constant Matrix: (Units=GPa)
#
#
# Indices 1 2 3 4 5 6 
#
# 1 185.4283 44.0023 34.2938 0.0000 0.0000 0.0000
# 2 44.0023 44.8362 10.3777 0.0000 0.0000 0.0000
# 3 34.2938 10.3777 73.6119 0.0000 0.0000 0.0000
# 4 0.0000 0.0000 0.0000 19.9233 0.0000 0.0000
# 5 0.0000 0.0000 0.0000 0.0000 38.6699 0.0000
# 6 0.0000 0.0000 0.0000 0.0000 0.0000 22.8089
#
#
#
# Elastic Compliance Matrix: (Units=1/GPa)
#
#
# Indices 1 2 3 4 5 6 
#
# 1 0.007458 -0.006735 -0.002525 0.000000 0.000000 0.000000
# 2 -0.006735 0.029138 -0.000970 0.000000 0.000000 0.000000
# 3 -0.002525 -0.000970 0.014898 0.000000 0.000000 0.000000
# 4 0.000000 0.000000 0.000000 0.050193 0.000000 0.000000
# 5 0.000000 0.000000 0.000000 0.000000 0.025860 0.000000
# 6 0.000000 0.000000 0.000000 0.000000 0.000000 0.043843
#
#
# Mechanical properties :
#
#
# Convention : Reuss Voigt Hill
#
# Bulk Modulus (GPa) = 32.22340 53.46933 42.84637
# Shear Modulus (GPa) = 24.72880 30.62726 27.67803
#
# Velocity S-wave (km/s) = 3.48934 3.88326 3.69156
# Velocity P-wave (km/s) = 5.66565 6.81414 6.26626
#
# Compressibility (1/GPa) = 0.03103334
#
# Stress axis : x y z
#
# Youngs Moduli (GPa) = 134.08190 34.31987 67.12364
#
# Poissons Ratio (x) = 0.23114 0.16949
# Poissons Ratio (y) = 0.90304 0.06512
# Poissons Ratio (z) = 0.33857 0.03329
#
# Static dielectric constant tensor:
#      x y z
#    x 1.731720 0.000000 0.000000 
#    y 0.000000 1.744390 0.000000 
#    z 0.000000 0.000000 1.745140 
# 
# From -- ./inp_files/6842.got.cif
#   From: 2010.05.17/outbox.cif.g08.bks.cpg/sg34_4_cif.got.tgz:6842.got - 2010.06.03 17:23:11.
