data_PCOD9347516
_publ_section_title
;
Structure prediction by ZEFSAII (Michael W. Deem and Ramdas Pophale) SiO2 
 PCOD9347516
Probable space group: P N N 2
;
_chemical_formula_sum "Si O2"
_cell_formula_units_Z 28
_cell_length_a 10.106243
_cell_length_b 14.017649
_cell_length_c 9.037628
_cell_angle_alpha 90.000000
_cell_angle_beta 90.000000
_cell_angle_gamma 90.000000
_cell_volume 1280.322503
_symmetry_space_group_name_H-M "P N N 2"
_symmetry_group_IT_number 34
_symmetry_cell_setting 'orthorhombic'
loop_
_space_group_symop_operation_xyz
x,y,z
-x,-y,z
1/2-x,1/2+y,1/2+z
1/2+x,1/2-y,1/2+z
loop_
_atom_site_type_symbol
_atom_site_label
_atom_site_fract_x
_atom_site_fract_y
_atom_site_fract_z
Si Si1 0.684347 0.244779 0.959700
Si Si2 0.678670 0.787967 0.162268
Si Si3 0.305935 0.645292 0.392622
Si Si4 0.317417 0.897742 0.527539
Si Si5 0.384423 0.833735 0.236525
Si Si6 0.374700 0.556818 0.117706
Si Si7 0.014667 0.611282 0.278679
O O1 0.787069 0.272878 0.833522
O O2 0.578242 0.182499 0.870244
O O3 0.718607 0.180260 0.102486
O O4 0.632898 0.341453 0.036991
O O5 0.712843 0.686481 0.079027
O O6 0.529771 0.828605 0.164469
O O7 0.773424 0.858044 0.066022
O O8 0.375625 0.743897 0.348904
O O9 0.384727 0.569605 0.295317
O O10 0.162673 0.644035 0.311878
O O11 0.344072 0.913071 0.353588
O O12 0.455323 0.880671 0.613503
O O13 0.254304 0.994474 0.588117
O O14 0.500000 0.500000 0.059943
O O15 0.000000 0.500000 0.324562
#
# Coordination Sequence:
#
# PCOD9347516 Si02
#       7
#     4   4   4   4   4   4   4
#     4  10  23  42  65  95 131 175 211 286 336 393
#     4  10  21  42  63  93 131 172 223 272 339 399
#     4  10  21  39  63  91 125 173 217 268 331 392
#     4  10  22  37  61  97 126 170 228 268 333 409
#     4  10  21  37  64  92 128 172 213 272 326 403
#     4  11  23  42  67  93 131 175 222 274 341 403
#     4  11  21  40  64  94 132 170 218 279 331 395
#
# _framework density 21.869489999999999
#
# number of rings (size 3 to 8) (size 9 to 14) (size 15 to 20)
#    0.000    1.714    2.857    1.714    6.000    0.000 
#    2.571    1.429    0.000    0.000    0.000    0.000 
#    0.000    0.000    0.000    0.000    0.000    0.000 
#
# Total GULP energy -155981.246687 kJ/mol
# GULP energy per Si atom -5570.758810 kJ/mol
# Density = 2.181971 g / cm^3
# Si number density = 21.869490 Si / 1000 Ang^3
#
#
#
# Elastic Constant Matrix: (Units=GPa)
#
#
# Indices 1 2 3 4 5 6 
#
# 1 24.1157 -2.5191 -5.4681 0.0000 0.0000 0.0000
# 2 -2.5191 51.0635 3.9665 0.0000 0.0000 0.0000
# 3 -5.4681 3.9665 135.5438 0.0000 0.0000 0.0000
# 4 0.0000 0.0000 0.0000 27.8806 0.0000 0.0000
# 5 0.0000 0.0000 0.0000 0.0000 24.6344 0.0000
# 6 0.0000 0.0000 0.0000 0.0000 0.0000 21.2569
#
#
#
# Elastic Compliance Matrix: (Units=1/GPa)
#
#
# Indices 1 2 3 4 5 6 
#
# 1 0.042042 0.001947 0.001639 0.000000 0.000000 0.000000
# 2 0.001947 0.019718 -0.000498 0.000000 0.000000 0.000000
# 3 0.001639 -0.000498 0.007458 0.000000 0.000000 0.000000
# 4 0.000000 0.000000 0.000000 0.035867 0.000000 0.000000
# 5 0.000000 0.000000 0.000000 0.000000 0.040594 0.000000
# 6 0.000000 0.000000 0.000000 0.000000 0.000000 0.047043
#
#
# Mechanical properties :
#
#
# Convention : Reuss Voigt Hill
#
# Bulk Modulus (GPa) = 13.26383 22.52017 17.89200
# Shear Modulus (GPa) = 23.62067 29.07065 26.34566
#
# Velocity S-wave (km/s) = 3.29001 3.64988 3.47461
# Velocity P-wave (km/s) = 4.52884 5.29925 4.92912
#
# Compressibility (1/GPa) = 0.07539298
#
# Stress axis : x y z
#
# Youngs Moduli (GPa) = 23.78589 50.71448 134.07700
#
# Poissons Ratio (x) = -0.09873 -0.21976
# Poissons Ratio (y) = -0.04630 0.06684
# Poissons Ratio (z) = -0.03899 0.02528
#
# Static dielectric constant tensor:
#      x y z
#    x 1.846690 0.000000 0.000000 
#    y 0.000000 1.841440 0.000000 
#    z 0.000000 0.000000 1.881000 
# 
# From -- ./inp_files/3261.got.cif
#   From: 2010.05.17/outbox.cif.g08.bks.cpg/sg34_2_cif.got.tgz:3261.got - 2010.06.03 17:23:11.
