data_PCOD9347027
_publ_section_title
;
Structure prediction by ZEFSAII (Michael W. Deem and Ramdas Pophale) SiO2 
 PCOD9347027
Probable space group: P N A 21
;
_chemical_formula_sum "Si O2"
_cell_formula_units_Z 16
_cell_length_a 8.712459
_cell_length_b 12.989096
_cell_length_c 5.072595
_cell_angle_alpha 90.000000
_cell_angle_beta 90.000000
_cell_angle_gamma 90.000000
_cell_volume 574.050188
_symmetry_space_group_name_H-M "P N A 21"
_symmetry_group_IT_number 33
_symmetry_cell_setting 'orthorhombic'
loop_
_space_group_symop_operation_xyz
x,y,z
-x,-y,1/2+z
1/2-x,1/2+y,1/2+z
1/2+x,1/2-y,z
loop_
_atom_site_type_symbol
_atom_site_label
_atom_site_fract_x
_atom_site_fract_y
_atom_site_fract_z
Si Si1 0.652044 0.407299 0.765880
Si Si2 0.869524 0.145208 0.133813
Si Si3 0.608348 0.235273 0.395597
Si Si4 0.011860 0.569368 0.264492
O O1 0.630987 0.529802 0.750250
O O2 0.663242 0.347069 0.491085
O O3 0.824284 0.389398 0.874877
O O4 0.497158 0.363740 0.904032
O O5 0.695112 0.184455 0.150492
O O6 0.937464 0.233856 0.320330
O O7 0.600923 0.153302 0.632555
O O8 0.950349 0.498611 0.501056
#
# Coordination Sequence:
#
# PCOD9347027 Si02
#       4
#     4   4   4   4
#     4  12  28  49  84 122 173 232 294 366 441 533
#     4  12  28  51  80 123 171 226 299 357 444 527
#     4  12  28  49  82 125 168 237 284 375 438 527
#     4  12  30  53  86 126 174 229 301 364 443 529
#
# _framework density 27.872129000000001
#
# number of rings (size 3 to 8) (size 9 to 14) (size 15 to 20)
#    0.000    0.000    7.500    0.000   10.500    2.000 
#    0.000    0.000    0.000    0.000    0.000    0.000 
#    0.000    0.000    0.000    0.000    0.000    0.000 
#
# Total GULP energy -89384.806828 kJ/mol
# GULP energy per Si atom -5586.550427 kJ/mol
# Density = 2.780869 g / cm^3
# Si number density = 27.872129 Si / 1000 Ang^3
#
#
#
# Elastic Constant Matrix: (Units=GPa)
#
#
# Indices 1 2 3 4 5 6 
#
# 1 93.4170 32.7471 25.1500 0.0000 0.0000 0.0000
# 2 32.7471 134.3929 53.5420 0.0000 0.0000 0.0000
# 3 25.1500 53.5420 130.6932 0.0000 0.0000 0.0000
# 4 0.0000 0.0000 0.0000 53.0295 0.0000 0.0000
# 5 0.0000 0.0000 0.0000 0.0000 38.2479 0.0000
# 6 0.0000 0.0000 0.0000 0.0000 0.0000 42.3634
#
#
#
# Elastic Compliance Matrix: (Units=1/GPa)
#
#
# Indices 1 2 3 4 5 6 
#
# 1 0.011891 -0.002373 -0.001316 0.000000 0.000000 0.000000
# 2 -0.002373 0.009366 -0.003380 0.000000 0.000000 0.000000
# 3 -0.001316 -0.003380 0.009290 0.000000 0.000000 0.000000
# 4 0.000000 0.000000 0.000000 0.018857 0.000000 0.000000
# 5 0.000000 0.000000 0.000000 0.000000 0.026145 0.000000
# 6 0.000000 0.000000 0.000000 0.000000 0.000000 0.023605
#
#
# Mechanical properties :
#
#
# Convention : Reuss Voigt Hill
#
# Bulk Modulus (GPa) = 60.94794 64.59791 62.77293
# Shear Modulus (GPa) = 42.10093 43.19909 42.65001
#
# Velocity S-wave (km/s) = 3.89074 3.94115 3.91602
# Velocity P-wave (km/s) = 6.48831 6.62850 6.55878
#
# Compressibility (1/GPa) = 0.01640744
#
# Stress axis : x y z
#
# Youngs Moduli (GPa) = 84.09810 106.77120 107.64751
#
# Poissons Ratio (x) = 0.25338 0.14167
# Poissons Ratio (y) = 0.19957 0.36388
# Poissons Ratio (z) = 0.11067 0.36092
#
# Static dielectric constant tensor:
#      x y z
#    x 2.317910 0.000000 0.000000 
#    y 0.000000 2.082610 0.000000 
#    z 0.000000 0.000000 2.201710 
# 
# From -- ./inp_files/264.got.cif
#   From: 2010.05.17/outbox.cif.g08.bks.cpg/sg33_1_cif.got.tgz:264.got - 2010.06.03 17:15:25.
