data_PCOD9347282
_publ_section_title
;
Structure prediction by ZEFSAII (Michael W. Deem and Ramdas Pophale) SiO2 
 PCOD9347282
Probable space group: P N N 2
;
_chemical_formula_sum "Si O2"
_cell_formula_units_Z 24
_cell_length_a 13.318853
_cell_length_b 9.807551
_cell_length_c 7.353316
_cell_angle_alpha 90.000000
_cell_angle_beta 90.000000
_cell_angle_gamma 90.000000
_cell_volume 960.529330
_symmetry_space_group_name_H-M "P N N 2"
_symmetry_group_IT_number 34
_symmetry_cell_setting 'orthorhombic'
loop_
_space_group_symop_operation_xyz
x,y,z
-x,-y,z
1/2-x,1/2+y,1/2+z
1/2+x,1/2-y,1/2+z
loop_
_atom_site_type_symbol
_atom_site_label
_atom_site_fract_x
_atom_site_fract_y
_atom_site_fract_z
Si Si1 0.728485 0.223750 0.745510
Si Si2 0.741816 0.725554 0.659612
Si Si3 0.886213 0.979906 0.299492
Si Si4 0.928008 0.885578 0.696386
Si Si5 0.066650 0.628946 0.618066
Si Si6 0.110336 0.536279 0.203124
O O1 0.647072 0.339372 0.711641
O O2 0.832477 0.301022 0.700463
O O3 0.688979 0.083725 0.660686
O O4 0.720146 0.187819 0.960299
O O5 0.693268 0.596387 0.754236
O O6 0.826805 0.811200 0.769688
O O7 0.651471 0.827599 0.616792
O O8 0.889518 0.963900 0.517085
O O9 0.000000 0.000000 0.240518
O O10 0.993099 0.758609 0.624725
O O11 0.000000 0.000000 0.791753
O O12 0.097616 0.577094 0.416752
O O13 0.000000 0.500000 0.694604
O O14 0.000000 0.500000 0.137823
#
# Coordination Sequence:
#
# PCOD9347282 Si02
#       6
#     4   4   4   4   4   4
#     4  11  23  39  60  93 124 155 203 256 304 351
#     4  11  22  38  62  91 121 154 204 258 299 349
#     4  10  19  37  61  86 118 161 201 242 297 364
#     4  10  20  37  61  88 119 162 204 240 298 369
#     4  11  22  41  63  87 123 166 202 246 304 372
#     4  11  22  40  63  89 119 162 206 244 298 373
#
# _framework density 24.986225000000001
#
# number of rings (size 3 to 8) (size 9 to 14) (size 15 to 20)
#    0.000    1.333    0.000   10.000    0.000    2.000 
#    0.000    5.833    0.000    0.000    0.000    0.000 
#    0.000    0.000    0.000    0.000    0.000    0.000 
#
# Total GULP energy -134068.513915 kJ/mol
# GULP energy per Si atom -5586.188080 kJ/mol
# Density = 2.492936 g / cm^3
# Si number density = 24.986225 Si / 1000 Ang^3
#
#
#
# Elastic Constant Matrix: (Units=GPa)
#
#
# Indices 1 2 3 4 5 6 
#
# 1 121.6376 48.5179 30.3509 0.0000 0.0000 0.0000
# 2 48.5179 173.5338 15.1059 0.0000 0.0000 0.0000
# 3 30.3509 15.1059 45.1350 0.0000 0.0000 0.0000
# 4 0.0000 0.0000 0.0000 54.0250 0.0000 0.0000
# 5 0.0000 0.0000 0.0000 0.0000 -5.8938 0.0000
# 6 0.0000 0.0000 0.0000 0.0000 0.0000 62.1132
#
#
#
# Elastic Compliance Matrix: (Units=1/GPa)
#
#
# Indices 1 2 3 4 5 6 
#
# 1 0.010811 -0.002462 -0.006446 0.000000 0.000000 0.000000
# 2 -0.002462 0.006496 -0.000519 0.000000 0.000000 0.000000
# 3 -0.006446 -0.000519 0.026664 0.000000 0.000000 0.000000
# 4 0.000000 0.000000 0.000000 0.018510 0.000000 0.000000
# 5 0.000000 0.000000 0.000000 0.000000 -0.169669 0.000000
# 6 0.000000 0.000000 0.000000 0.000000 0.000000 0.016100
#
#
# Mechanical properties :
#
#
# Convention : Reuss Voigt Hill
#
# Bulk Modulus (GPa) = 39.81173 58.69510 49.25342
# Shear Modulus (GPa) = -78.29437 38.47099 -19.91169
#
# Velocity S-wave (km/s) = -5.60384 3.92814 -2.82602
# Velocity P-wave (km/s) = 5.08947 6.64197 3.01770
#
# Compressibility (1/GPa) = 0.02511823
#
# Stress axis : x y z
#
# Youngs Moduli (GPa) = 92.49421 153.94178 37.50353
#
# Poissons Ratio (x) = 0.37895 0.24176
# Poissons Ratio (y) = 0.22769 0.01946
# Poissons Ratio (z) = 0.59624 0.07986
#
# Static dielectric constant tensor:
#      x y z
#    x 2.055590 0.000000 0.000000 
#    y 0.000000 1.884160 0.000000 
#    z 0.000000 0.000000 2.029680 
# 
# From -- ./inp_files/3548.got.cif
#   From: 2010.05.17/outbox.cif.g08.bks.cpg/sg34_2_cif.got.tgz:3548.got - 2010.06.03 17:23:11.
