data_PCOD9347466
_publ_section_title
;
Structure prediction by ZEFSAII (Michael W. Deem and Ramdas Pophale) SiO2 
 PCOD9347466
Probable space group: P N N 2
;
_chemical_formula_sum "Si O2"
_cell_formula_units_Z 24
_cell_length_a 14.313527
_cell_length_b 9.619667
_cell_length_c 8.904810
_cell_angle_alpha 90.000000
_cell_angle_beta 90.000000
_cell_angle_gamma 90.000000
_cell_volume 1226.115429
_symmetry_space_group_name_H-M "P N N 2"
_symmetry_group_IT_number 34
_symmetry_cell_setting 'orthorhombic'
loop_
_space_group_symop_operation_xyz
x,y,z
-x,-y,z
1/2-x,1/2+y,1/2+z
1/2+x,1/2-y,1/2+z
loop_
_atom_site_type_symbol
_atom_site_label
_atom_site_fract_x
_atom_site_fract_y
_atom_site_fract_z
Si Si1 0.460343 0.812421 0.775590
Si Si2 0.700528 0.576433 0.815272
Si Si3 0.732309 0.111303 0.619327
Si Si4 0.000000 0.000000 0.345315
Si Si5 0.846840 0.344228 0.758491
Si Si6 0.000000 0.500000 0.554169
Si Si7 0.351214 0.172887 0.608995
O O1 0.364859 0.843786 0.692311
O O2 0.473741 0.646015 0.769073
O O3 0.554912 0.867924 0.697952
O O4 0.458923 0.881025 0.941875
O O5 0.603709 0.541051 0.903799
O O6 0.754344 0.441128 0.758629
O O7 0.680707 0.681481 0.679888
O O8 0.765103 0.644982 0.942372
O O9 0.815770 0.195456 0.695075
O O10 0.728317 0.944015 0.632210
O O11 0.923666 0.423243 0.658354
O O12 0.873949 0.325814 0.932627
#
# Coordination Sequence:
#
# PCOD9347466 Si02
#       7
#     4   4   4   2   4   2   4
#     4  11  22  42  68  91 132 174 215 274 342 396
#     4  10  23  39  67  90 132 171 220 272 334 394
#     4  11  22  40  64  96 125 171 215 268 326 402
#     4  10  20  42  64  96 124 172 214 274 336 388
#     4  11  25  40  64  97 129 170 227 271 319 403
#     4  12  26  40  68  94 132 180 224 270 336 400
#     4  10  23  41  65  93 128 173 215 273 330 389
#
# _framework density 19.574014999999999
#
# number of rings (size 3 to 8) (size 9 to 14) (size 15 to 20)
#    0.000    1.333    3.333    2.000    7.000    0.000 
#    0.000    0.000    0.000    4.000    0.000    0.000 
#    0.000    0.000    0.000    0.000    0.000    0.000 
#
# Total GULP energy -133644.477043 kJ/mol
# GULP energy per Si atom -5568.519877 kJ/mol
# Density = 1.952946 g / cm^3
# Si number density = 19.574015 Si / 1000 Ang^3
#
#
#
# Elastic Constant Matrix: (Units=GPa)
#
#
# Indices 1 2 3 4 5 6 
#
# 1 89.2748 23.8052 46.8260 0.0000 0.0000 0.0000
# 2 23.8052 83.0531 49.7930 0.0000 0.0000 0.0000
# 3 46.8260 49.7930 121.8367 0.0000 0.0000 0.0000
# 4 0.0000 0.0000 0.0000 0.1847 0.0000 0.0000
# 5 0.0000 0.0000 0.0000 0.0000 22.4566 0.0000
# 6 0.0000 0.0000 0.0000 0.0000 0.0000 37.9677
#
#
#
# Elastic Compliance Matrix: (Units=1/GPa)
#
#
# Indices 1 2 3 4 5 6 
#
# 1 0.014098 -0.001050 -0.004990 0.000000 0.000000 0.000000
# 2 -0.001050 0.016026 -0.006146 0.000000 0.000000 0.000000
# 3 -0.004990 -0.006146 0.012637 0.000000 0.000000 0.000000
# 4 0.000000 0.000000 0.000000 5.414866 0.000000 0.000000
# 5 0.000000 0.000000 0.000000 0.000000 0.044530 0.000000
# 6 0.000000 0.000000 0.000000 0.000000 0.000000 0.026338
#
#
# Mechanical properties :
#
#
# Convention : Reuss Voigt Hill
#
# Bulk Modulus (GPa) = 54.37442 59.44589 56.91016
# Shear Modulus (GPa) = 0.89944 23.70448 12.30196
#
# Velocity S-wave (km/s) = 0.67861 3.48374 2.50968
# Velocity P-wave (km/s) = 5.33415 6.82771 6.12662
#
# Compressibility (1/GPa) = 0.01839100
#
# Stress axis : x y z
#
# Youngs Moduli (GPa) = 70.93044 62.39771 79.13104
#
# Poissons Ratio (x) = 0.06549 0.39483
# Poissons Ratio (y) = 0.07445 0.48636
# Poissons Ratio (z) = 0.35391 0.38352
#
# Static dielectric constant tensor:
#      x y z
#    x 1.702820 0.000000 0.000000 
#    y 0.000000 1.743160 0.000000 
#    z 0.000000 0.000000 1.688490 
# 
# From -- ./inp_files/3552.got.cif
#   From: 2010.05.17/outbox.cif.g08.bks.cpg/sg34_2_cif.got.tgz:3552.got - 2010.06.03 17:23:11.
