data_PCOD9347484
_publ_section_title
;
Structure prediction by ZEFSAII (Michael W. Deem and Ramdas Pophale) SiO2 
 PCOD9347484
Probable space group: P N N 2
;
_chemical_formula_sum "Si O2"
_cell_formula_units_Z 26
_cell_length_a 22.354335
_cell_length_b 9.399179
_cell_length_c 4.870058
_cell_angle_alpha 90.000000
_cell_angle_beta 90.000000
_cell_angle_gamma 90.000000
_cell_volume 1023.259555
_symmetry_space_group_name_H-M "P N N 2"
_symmetry_group_IT_number 34
_symmetry_cell_setting 'orthorhombic'
loop_
_space_group_symop_operation_xyz
x,y,z
-x,-y,z
1/2-x,1/2+y,1/2+z
1/2+x,1/2-y,1/2+z
loop_
_atom_site_type_symbol
_atom_site_label
_atom_site_fract_x
_atom_site_fract_y
_atom_site_fract_z
Si Si1 0.679481 0.424560 0.563110
Si Si2 0.500000 0.500000 0.191705
Si Si3 0.888657 0.834578 0.526309
Si Si4 0.146443 0.773438 0.306277
Si Si5 0.307448 0.118459 0.318782
Si Si6 0.582267 0.066766 0.364042
Si Si7 0.473558 0.210098 0.511379
O O1 0.658246 0.398393 0.253155
O O2 0.652721 0.567458 0.697116
O O3 0.747923 0.422584 0.657003
O O4 0.645841 0.307159 0.746179
O O5 0.555748 0.443930 0.015603
O O6 0.481547 0.364584 0.376741
O O7 0.915006 0.689113 0.640876
O O8 0.161425 0.735302 0.618076
O O9 0.195172 0.691811 0.115155
O O10 0.079589 0.721175 0.231767
O O11 0.348968 0.982700 0.383835
O O12 0.537936 0.142204 0.585983
O O13 0.551521 0.913650 0.310291
#
# Coordination Sequence:
#
# PCOD9347484 Si02
#       7
#     4   2   4   4   4   4   4
#     4  12  26  44  72 104 146 190 250 297 368 441
#     4  10  20  44  74 104 144 186 242 294 366 424
#     4  11  25  45  70 105 141 190 238 308 356 440
#     4  11  24  47  71 105 139 194 245 304 364 433
#     4  11  26  43  73 102 146 191 242 306 367 441
#     4   9  22  44  70 106 142 188 238 299 366 429
#     4   9  19  44  73 103 145 184 242 295 364 429
#
# _framework density 25.408998
#
# number of rings (size 3 to 8) (size 9 to 14) (size 15 to 20)
#    0.000    1.538    1.538    1.846    6.462    3.077 
#    0.000   12.308    0.000    0.000    0.000    0.000 
#    0.000    0.000    0.000    0.000    0.000    0.000 
#
# Total GULP energy -145249.550073 kJ/mol
# GULP energy per Si atom -5586.521157 kJ/mol
# Density = 2.535117 g / cm^3
# Si number density = 25.408998 Si / 1000 Ang^3
#
#
#
# Elastic Constant Matrix: (Units=GPa)
#
#
# Indices 1 2 3 4 5 6 
#
# 1 151.0713 24.6128 11.2529 0.0000 0.0000 0.0000
# 2 24.6128 131.6434 3.4987 0.0000 0.0000 0.0000
# 3 11.2529 3.4987 73.6990 0.0000 0.0000 0.0000
# 4 0.0000 0.0000 0.0000 9.8100 0.0000 0.0000
# 5 0.0000 0.0000 0.0000 0.0000 31.0576 0.0000
# 6 0.0000 0.0000 0.0000 0.0000 0.0000 29.4647
#
#
#
# Elastic Compliance Matrix: (Units=1/GPa)
#
#
# Indices 1 2 3 4 5 6 
#
# 1 0.006899 -0.001264 -0.000993 0.000000 0.000000 0.000000
# 2 -0.001264 0.007837 -0.000179 0.000000 0.000000 0.000000
# 3 -0.000993 -0.000179 0.013729 0.000000 0.000000 0.000000
# 4 0.000000 0.000000 0.000000 0.101937 0.000000 0.000000
# 5 0.000000 0.000000 0.000000 0.000000 0.032198 0.000000
# 6 0.000000 0.000000 0.000000 0.000000 0.000000 0.033939
#
#
# Mechanical properties :
#
#
# Convention : Reuss Voigt Hill
#
# Bulk Modulus (GPa) = 42.38507 48.34917 45.36712
# Shear Modulus (GPa) = 23.89186 35.20307 29.54746
#
# Velocity S-wave (km/s) = 3.06974 3.72621 3.41379
# Velocity P-wave (km/s) = 5.41126 6.13046 5.78205
#
# Compressibility (1/GPa) = 0.02359321
#
# Stress axis : x y z
#
# Youngs Moduli (GPa) = 144.94337 127.59534 72.83910
#
# Poissons Ratio (x) = 0.16122 0.07236
# Poissons Ratio (y) = 0.18314 0.01305
# Poissons Ratio (z) = 0.14399 0.02286
#
# Static dielectric constant tensor:
#      x y z
#    x 2.081270 0.000000 0.000000 
#    y 0.000000 2.078890 0.000000 
#    z 0.000000 0.000000 1.991220 
# 
# From -- ./inp_files/1670.got.cif
#   From: 2010.05.17/outbox.cif.g08.bks.cpg/sg34_1_cif.got.tgz:1670.got - 2010.06.03 17:23:11.
