data_PCOD9347830
_publ_section_title
;
Structure prediction by ZEFSAII (Michael W. Deem and Ramdas Pophale) SiO2 
 PCOD9347830
Probable space group: P N N 2
;
_chemical_formula_sum "Si O2"
_cell_formula_units_Z 20
_cell_length_a 4.815402
_cell_length_b 26.878270
_cell_length_c 5.640938
_cell_angle_alpha 90.000000
_cell_angle_beta 90.000000
_cell_angle_gamma 90.000000
_cell_volume 730.104773
_symmetry_space_group_name_H-M "P N N 2"
_symmetry_group_IT_number 34
_symmetry_cell_setting 'orthorhombic'
loop_
_space_group_symop_operation_xyz
x,y,z
-x,-y,z
1/2-x,1/2+y,1/2+z
1/2+x,1/2-y,1/2+z
loop_
_atom_site_type_symbol
_atom_site_label
_atom_site_fract_x
_atom_site_fract_y
_atom_site_fract_z
Si Si1 0.289019 0.811708 0.806830
Si Si2 0.354525 0.608279 0.800016
Si Si3 0.453054 0.587370 0.285734
Si Si4 0.242808 0.965033 0.146602
Si Si5 0.703335 0.292298 0.599718
O O1 0.143659 0.863409 0.744099
O O2 0.227972 0.764846 0.640738
O O3 0.609511 0.810631 0.879266
O O4 0.121747 0.796570 0.044324
O O5 0.270208 0.592113 0.529838
O O6 0.679695 0.588949 0.766304
O O7 0.265738 0.665981 0.803188
O O8 0.277088 0.583491 0.047885
O O9 0.668766 0.545327 0.370278
O O10 0.500000 0.000000 0.179743
O O11 0.000000 0.000000 0.246193
#
# Coordination Sequence:
#
# PCOD9347830 Si02
#       5
#     4   4   4   4   4
#     4  11  23  41  66 100 140 184 229 279 341 410
#     4   9  22  43  68  99 137 174 230 280 343 405
#     4   9  22  43  68  99 137 174 230 280 343 405
#     4  10  24  44  70  98 134 178 228 286 350 408
#     4  11  23  41  66 100 140 184 229 279 341 410
#
# _framework density 27.393329000000001
#
# number of rings (size 3 to 8) (size 9 to 14) (size 15 to 20)
#    1.200    0.800    0.000    2.400    2.800    4.800 
#    0.000    8.000    0.000    0.000    0.000    0.000 
#    0.000    0.000    0.000    0.000    0.000    0.000 
#
# Total GULP energy -111396.260200 kJ/mol
# GULP energy per Si atom -5569.813010 kJ/mol
# Density = 2.733098 g / cm^3
# Si number density = 27.393329 Si / 1000 Ang^3
#
#
#
# Elastic Constant Matrix: (Units=GPa)
#
#
# Indices 1 2 3 4 5 6 
#
# 1 82.5248 40.5782 7.1405 0.0000 0.0000 0.0000
# 2 40.5782 151.9199 15.9317 0.0000 0.0000 0.0000
# 3 7.1405 15.9317 153.1261 0.0000 0.0000 0.0000
# 4 0.0000 0.0000 0.0000 47.9401 0.0000 0.0000
# 5 0.0000 0.0000 0.0000 0.0000 19.6284 0.0000
# 6 0.0000 0.0000 0.0000 0.0000 0.0000 46.0420
#
#
#
# Elastic Compliance Matrix: (Units=1/GPa)
#
#
# Indices 1 2 3 4 5 6 
#
# 1 0.013960 -0.003701 -0.000266 0.000000 0.000000 0.000000
# 2 -0.003701 0.007636 -0.000622 0.000000 0.000000 0.000000
# 3 -0.000266 -0.000622 0.006608 0.000000 0.000000 0.000000
# 4 0.000000 0.000000 0.000000 0.020859 0.000000 0.000000
# 5 0.000000 0.000000 0.000000 0.000000 0.050947 0.000000
# 6 0.000000 0.000000 0.000000 0.000000 0.000000 0.021719
#
#
# Mechanical properties :
#
#
# Convention : Reuss Voigt Hill
#
# Bulk Modulus (GPa) = 52.55798 57.20794 54.88296
# Shear Modulus (GPa) = 36.43008 44.31681 40.37344
#
# Velocity S-wave (km/s) = 3.65072 4.02655 3.84323
# Velocity P-wave (km/s) = 6.08263 6.52278 6.30655
#
# Compressibility (1/GPa) = 0.01902661
#
# Stress axis : x y z
#
# Youngs Moduli (GPa) = 71.63134 130.95566 151.33924
#
# Poissons Ratio (x) = 0.48466 0.04025
# Poissons Ratio (y) = 0.26510 0.09412
# Poissons Ratio (z) = 0.01905 0.08144
#
# Static dielectric constant tensor:
#      x y z
#    x 2.172960 0.000000 0.000000 
#    y 0.000000 2.247200 0.000000 
#    z 0.000000 0.000000 2.209470 
# 
# From -- ./inp_files/208.got.cif
#   From: 2010.05.17/outbox.cif.g08.bks.cpg/sg34_1_cif.got.tgz:208.got - 2010.06.03 17:23:11.
