data_PCOD9347692
_publ_section_title
;
Structure prediction by ZEFSAII (Michael W. Deem and Ramdas Pophale) SiO2 
 PCOD9347692
Probable space group: P N N 2
;
_chemical_formula_sum "Si O2"
_cell_formula_units_Z 18
_cell_length_a 12.724654
_cell_length_b 7.611660
_cell_length_c 8.496434
_cell_angle_alpha 90.000000
_cell_angle_beta 90.000000
_cell_angle_gamma 90.000000
_cell_volume 822.928401
_symmetry_space_group_name_H-M "P N N 2"
_symmetry_group_IT_number 34
_symmetry_cell_setting 'orthorhombic'
loop_
_space_group_symop_operation_xyz
x,y,z
-x,-y,z
1/2-x,1/2+y,1/2+z
1/2+x,1/2-y,1/2+z
loop_
_atom_site_type_symbol
_atom_site_label
_atom_site_fract_x
_atom_site_fract_y
_atom_site_fract_z
Si Si1 0.255807 0.141669 0.703290
Si Si2 0.036810 0.203185 0.561562
Si Si3 0.500000 0.000000 0.294715
Si Si4 0.484042 0.294598 0.717437
Si Si5 0.668604 0.163895 0.501618
O O1 0.160551 0.213234 0.597802
O O2 0.367359 0.234897 0.675442
O O3 0.225809 0.196711 0.884739
O O4 0.267412 0.941854 0.636365
O O5 0.011122 0.277530 0.389992
O O6 0.984853 0.327044 0.690272
O O7 0.000000 0.000000 0.576974
O O8 0.391530 0.974832 0.389528
O O9 0.500000 0.500000 0.736592
O O10 0.569034 0.244166 0.589495
#
# Coordination Sequence:
#
# PCOD9347692 Si02
#       5
#     4   4   2   4   4
#     4  11  24  47  70 105 143 198 242 301 385 441
#     4  10  24  46  68 104 145 181 246 300 363 449
#     4  10  22  42  70  96 140 188 222 312 350 440
#     4  11  24  46  70 104 145 183 243 310 362 451
#     4  11  23  45  70 103 145 185 251 296 371 446
#
# _framework density 21.873107000000001
#
# number of rings (size 3 to 8) (size 9 to 14) (size 15 to 20)
#    0.000    1.333    2.222    2.667    3.111    5.333 
#   20.000    0.000    0.000    0.000    0.000    0.000 
#    0.000    0.000    0.000    0.000    0.000    0.000 
#
# Total GULP energy -100412.477527 kJ/mol
# GULP energy per Si atom -5578.470974 kJ/mol
# Density = 2.182332 g / cm^3
# Si number density = 21.873107 Si / 1000 Ang^3
#
#
#
# Elastic Constant Matrix: (Units=GPa)
#
#
# Indices 1 2 3 4 5 6 
#
# 1 108.1466 34.0921 65.5259 0.0000 0.0000 0.0000
# 2 34.0921 75.9801 63.0828 0.0000 0.0000 0.0000
# 3 65.5259 63.0828 119.6456 0.0000 0.0000 0.0000
# 4 0.0000 0.0000 0.0000 48.9005 0.0000 0.0000
# 5 0.0000 0.0000 0.0000 0.0000 53.6453 0.0000
# 6 0.0000 0.0000 0.0000 0.0000 0.0000 -4.9417
#
#
#
# Elastic Compliance Matrix: (Units=1/GPa)
#
#
# Indices 1 2 3 4 5 6 
#
# 1 0.013840 0.000148 -0.007658 0.000000 0.000000 0.000000
# 2 0.000148 0.023410 -0.012424 0.000000 0.000000 0.000000
# 3 -0.007658 -0.012424 0.019102 0.000000 0.000000 0.000000
# 4 0.000000 0.000000 0.000000 0.020450 0.000000 0.000000
# 5 0.000000 0.000000 0.000000 0.000000 0.018641 0.000000
# 6 0.000000 0.000000 0.000000 0.000000 0.000000 -0.202361
#
#
# Mechanical properties :
#
#
# Convention : Reuss Voigt Hill
#
# Bulk Modulus (GPa) = 60.66146 69.90819 65.28483
# Shear Modulus (GPa) = -81.22556 28.92561 -26.14997
#
# Velocity S-wave (km/s) = -6.10045 3.64047 -3.46140
# Velocity P-wave (km/s) = 4.67195 7.04988 3.73321
#
# Compressibility (1/GPa) = 0.01648493
#
# Stress axis : x y z
#
# Youngs Moduli (GPa) = 72.25537 42.71706 52.35013
#
# Poissons Ratio (x) = -0.00631 0.40087
# Poissons Ratio (y) = -0.01068 0.65038
# Poissons Ratio (z) = 0.55330 0.53070
#
# Static dielectric constant tensor:
#      x y z
#    x 1.763150 0.000000 0.000000 
#    y 0.000000 1.798040 0.000000 
#    z 0.000000 0.000000 1.909210 
# 
# From -- ./inp_files/2418.got.cif
#   From: 2010.05.17/outbox.cif.g08.bks.cpg/sg34_2_cif.got.tgz:2418.got - 2010.06.03 17:23:11.
