data_PCOD9347880
_publ_section_title
;
Structure prediction by ZEFSAII (Michael W. Deem and Ramdas Pophale) SiO2 
 PCOD9347880
Probable space group: P N N 2
;
_chemical_formula_sum "Si O2"
_cell_formula_units_Z 20
_cell_length_a 8.772077
_cell_length_b 7.566152
_cell_length_c 11.863168
_cell_angle_alpha 90.000000
_cell_angle_beta 90.000000
_cell_angle_gamma 90.000000
_cell_volume 787.368757
_symmetry_space_group_name_H-M "P N N 2"
_symmetry_group_IT_number 34
_symmetry_cell_setting 'orthorhombic'
loop_
_space_group_symop_operation_xyz
x,y,z
-x,-y,z
1/2-x,1/2+y,1/2+z
1/2+x,1/2-y,1/2+z
loop_
_atom_site_type_symbol
_atom_site_label
_atom_site_fract_x
_atom_site_fract_y
_atom_site_fract_z
Si Si1 0.668981 0.927215 0.430980
Si Si2 0.206753 0.187726 0.894241
Si Si3 0.669051 0.440797 0.139319
Si Si4 0.000000 0.500000 0.367230
Si Si5 0.000000 0.000000 0.062487
Si Si6 0.824808 0.776176 0.226938
O O1 0.758543 0.111015 0.407483
O O2 0.743290 0.836836 0.540603
O O3 0.500000 0.000000 0.445459
O O4 0.696802 0.815459 0.319466
O O5 0.172597 0.147050 0.762572
O O6 0.345415 0.056989 0.929162
O O7 0.057554 0.143997 0.969436
O O8 0.500000 0.500000 0.108979
O O9 0.763626 0.621917 0.147942
O O10 0.961136 0.673017 0.291547
O O11 0.871683 0.946508 0.155939
#
# Coordination Sequence:
#
# PCOD9347880 Si02
#       6
#     4   4   4   2   2   4
#     4  12  28  47  77 108 147 196 243 305 371 443
#     4  11  25  48  72 105 149 189 247 298 374 432
#     4  11  25  47  73 104 149 194 245 302 365 442
#     4  10  26  48  70 104 146 194 242 310 354 448
#     4  12  24  48  78 108 148 198 244 318 360 444
#     4  11  26  47  75 107 148 193 253 297 380 430
#
# _framework density 25.401057000000002
#
# number of rings (size 3 to 8) (size 9 to 14) (size 15 to 20)
#    0.000    0.800    3.000    2.400   12.600    1.600 
#    1.800    0.000    0.000    0.000    0.000    0.000 
#    0.000    0.000    0.000    0.000    0.000    0.000 
#
# Total GULP energy -111641.216102 kJ/mol
# GULP energy per Si atom -5582.060805 kJ/mol
# Density = 2.534324 g / cm^3
# Si number density = 25.401057 Si / 1000 Ang^3
#
#
#
# Elastic Constant Matrix: (Units=GPa)
#
#
# Indices 1 2 3 4 5 6 
#
# 1 88.1057 -4.3358 32.2626 0.0000 0.0000 0.0000
# 2 -4.3358 71.4690 2.4137 0.0000 0.0000 0.0000
# 3 32.2626 2.4137 132.4864 0.0000 0.0000 0.0000
# 4 0.0000 0.0000 0.0000 8.4978 0.0000 0.0000
# 5 0.0000 0.0000 0.0000 0.0000 36.3447 0.0000
# 6 0.0000 0.0000 0.0000 0.0000 0.0000 27.9178
#
#
#
# Elastic Compliance Matrix: (Units=1/GPa)
#
#
# Indices 1 2 3 4 5 6 
#
# 1 0.012514 0.000863 -0.003063 0.000000 0.000000 0.000000
# 2 0.000863 0.014060 -0.000466 0.000000 0.000000 0.000000
# 3 -0.003063 -0.000466 0.008302 0.000000 0.000000 0.000000
# 4 0.000000 0.000000 0.000000 0.117677 0.000000 0.000000
# 5 0.000000 0.000000 0.000000 0.000000 0.027514 0.000000
# 6 0.000000 0.000000 0.000000 0.000000 0.000000 0.035819
#
#
# Mechanical properties :
#
#
# Convention : Reuss Voigt Hill
#
# Bulk Modulus (GPa) = 33.84868 39.19357 36.52112
# Shear Modulus (GPa) = 21.63860 32.00012 26.81936
#
# Velocity S-wave (km/s) = 2.92186 3.55321 3.25289
# Velocity P-wave (km/s) = 4.97370 5.68306 5.34017
#
# Compressibility (1/GPa) = 0.02954325
#
# Stress axis : x y z
#
# Youngs Moduli (GPa) = 79.90985 71.12294 120.44782
#
# Poissons Ratio (x) = -0.06135 0.36894
# Poissons Ratio (y) = -0.06893 0.05615
# Poissons Ratio (z) = 0.24477 0.03316
#
# Static dielectric constant tensor:
#      x y z
#    x 2.076740 0.000000 0.000000 
#    y 0.000000 2.078580 0.000000 
#    z 0.000000 0.000000 2.019900 
# 
# From -- ./inp_files/4814.got.cif
#   From: 2010.05.17/outbox.cif.g08.bks.cpg/sg34_3_cif.got.tgz:4814.got - 2010.06.03 17:23:11.
