data_PCOD9347860
_publ_section_title
;
Structure prediction by ZEFSAII (Michael W. Deem and Ramdas Pophale) SiO2 
 PCOD9347860
Probable space group: P N N 2
;
_chemical_formula_sum "Si O2"
_cell_formula_units_Z 26
_cell_length_a 20.775632
_cell_length_b 8.657492
_cell_length_c 6.610216
_cell_angle_alpha 90.000000
_cell_angle_beta 90.000000
_cell_angle_gamma 90.000000
_cell_volume 1188.945627
_symmetry_space_group_name_H-M "P N N 2"
_symmetry_group_IT_number 34
_symmetry_cell_setting 'orthorhombic'
loop_
_space_group_symop_operation_xyz
x,y,z
-x,-y,z
1/2-x,1/2+y,1/2+z
1/2+x,1/2-y,1/2+z
loop_
_atom_site_type_symbol
_atom_site_label
_atom_site_fract_x
_atom_site_fract_y
_atom_site_fract_z
Si Si1 0.865401 0.055008 0.120570
Si Si2 0.191803 0.019065 0.520166
Si Si3 0.020663 0.731328 0.016584
Si Si4 0.500000 0.000000 0.872923
Si Si5 0.391000 0.040703 0.210556
Si Si6 0.219915 0.764848 0.798701
Si Si7 0.885166 0.792658 0.846181
O O1 0.935290 0.123666 0.073134
O O2 0.846935 0.073493 0.351181
O O3 0.816335 0.150756 0.983221
O O4 0.862192 0.876676 0.050434
O O5 0.229301 0.152828 0.402412
O O6 0.140628 0.094466 0.672893
O O7 0.237687 0.903548 0.646428
O O8 0.997226 0.646142 0.220662
O O9 0.064776 0.612846 0.888517
O O10 0.961654 0.777494 0.873663
O O11 0.437281 0.014102 0.017369
O O12 0.332253 0.158154 0.182397
O O13 0.363081 0.878604 0.290199
#
# Coordination Sequence:
#
# PCOD9347860 Si02
#       7
#     4   4   4   2   4   4   4
#     4  10  25  44  66  99 136 184 223 283 363 406
#     4  11  26  47  71 101 133 186 239 280 363 410
#     4  11  22  44  64  99 143 176 226 289 342 427
#     4  12  20  38  70  98 132 184 228 264 362 412
#     4  11  23  42  67 102 141 177 235 287 345 419
#     4  10  26  47  69  96 139 177 233 301 332 427
#     4  11  23  43  65 103 137 176 229 289 339 419
#
# _framework density 21.868113999999998
#
# number of rings (size 3 to 8) (size 9 to 14) (size 15 to 20)
#    0.000    1.231    3.077    1.385    6.462    1.231 
#    5.538    0.000    0.000    0.000    0.000    0.000 
#    0.000    0.000    0.000    0.000    0.000    0.000 
#
# Total GULP energy -145318.987706 kJ/mol
# GULP energy per Si atom -5589.191835 kJ/mol
# Density = 2.181834 g / cm^3
# Si number density = 21.868114 Si / 1000 Ang^3
#
#
#
# Elastic Constant Matrix: (Units=GPa)
#
#
# Indices 1 2 3 4 5 6 
#
# 1 44.4859 22.9567 37.2014 0.0000 0.0000 0.0000
# 2 22.9567 112.7125 53.4120 0.0000 0.0000 0.0000
# 3 37.2014 53.4120 116.9236 0.0000 0.0000 0.0000
# 4 0.0000 0.0000 0.0000 19.0592 0.0000 0.0000
# 5 0.0000 0.0000 0.0000 0.0000 25.4419 0.0000
# 6 0.0000 0.0000 0.0000 0.0000 0.0000 29.8695
#
#
#
# Elastic Compliance Matrix: (Units=1/GPa)
#
#
# Indices 1 2 3 4 5 6 
#
# 1 0.031011 -0.002094 -0.008910 0.000000 0.000000 0.000000
# 2 -0.002094 0.011465 -0.004571 0.000000 0.000000 0.000000
# 3 -0.008910 -0.004571 0.013476 0.000000 0.000000 0.000000
# 4 0.000000 0.000000 0.000000 0.052468 0.000000 0.000000
# 5 0.000000 0.000000 0.000000 0.000000 0.039305 0.000000
# 6 0.000000 0.000000 0.000000 0.000000 0.000000 0.033479
#
#
# Mechanical properties :
#
#
# Convention : Reuss Voigt Hill
#
# Bulk Modulus (GPa) = 40.32083 55.69581 48.00832
# Shear Modulus (GPa) = 22.66337 25.57758 24.12047
#
# Velocity S-wave (km/s) = 3.22276 3.42369 3.32474
# Velocity P-wave (km/s) = 5.68563 6.41507 6.06134
#
# Compressibility (1/GPa) = 0.02480107
#
# Stress axis : x y z
#
# Youngs Moduli (GPa) = 32.24695 87.22437 74.20799
#
# Poissons Ratio (x) = 0.18263 0.66121
# Poissons Ratio (y) = 0.06752 0.33921
# Poissons Ratio (z) = 0.28733 0.39871
#
# Static dielectric constant tensor:
#      x y z
#    x 1.796670 0.000000 0.000000 
#    y 0.000000 1.820460 0.000000 
#    z 0.000000 0.000000 1.760160 
# 
# From -- ./inp_files/500.got.cif
#   From: 2010.05.17/outbox.cif.g08.bks.cpg/sg34_1_cif.got.tgz:500.got - 2010.06.03 17:23:11.
