data_PCOD9347888
_publ_section_title
;
Structure prediction by ZEFSAII (Michael W. Deem and Ramdas Pophale) SiO2 
 PCOD9347888
Probable space group: P N N 2
;
_chemical_formula_sum "Si O2"
_cell_formula_units_Z 20
_cell_length_a 10.629388
_cell_length_b 7.626989
_cell_length_c 9.861102
_cell_angle_alpha 90.000000
_cell_angle_beta 90.000000
_cell_angle_gamma 90.000000
_cell_volume 799.441761
_symmetry_space_group_name_H-M "P N N 2"
_symmetry_group_IT_number 34
_symmetry_cell_setting 'orthorhombic'
loop_
_space_group_symop_operation_xyz
x,y,z
-x,-y,z
1/2-x,1/2+y,1/2+z
1/2+x,1/2-y,1/2+z
loop_
_atom_site_type_symbol
_atom_site_label
_atom_site_fract_x
_atom_site_fract_y
_atom_site_fract_z
Si Si1 0.252717 0.557651 0.322640
Si Si2 0.767250 0.857867 0.317958
Si Si3 0.396687 0.141733 0.068913
Si Si4 0.605127 0.852992 0.568341
Si Si5 0.000000 0.000000 0.663515
Si Si6 0.500000 0.500000 0.647270
O O1 0.220852 0.352013 0.316316
O O2 0.156175 0.648623 0.220770
O O3 0.390077 0.574755 0.259557
O O4 0.223382 0.629811 0.470683
O O5 0.651142 0.905101 0.219012
O O6 0.889097 0.937211 0.247764
O O7 0.278641 0.102127 0.469457
O O8 0.451152 0.336946 0.075495
O O9 0.500000 0.000000 0.024008
O O10 0.548021 0.659282 0.552537
O O11 0.500000 0.000000 0.551218
#
# Coordination Sequence:
#
# PCOD9347888 Si02
#       6
#     4   4   4   4   2   2
#     4  11  26  51  75 114 156 197 266 318 379 471
#     4  11  27  49  79 117 151 210 254 321 393 460
#     4  11  26  50  76 110 156 200 260 318 381 460
#     4  12  27  52  78 113 159 203 267 323 383 468
#     4  10  28  52  78 114 156 210 248 326 392 452
#     4  12  28  52  84 114 158 216 252 326 404 450
#
# _framework density 25.017455999999999
#
# number of rings (size 3 to 8) (size 9 to 14) (size 15 to 20)
#    0.000    0.800    2.000    2.400    5.600   12.000 
#    3.600    0.000    0.000    0.000    0.000    0.000 
#    0.000    0.000    0.000    0.000    0.000    0.000 
#
# Total GULP energy -112214.920215 kJ/mol
# GULP energy per Si atom -5610.746011 kJ/mol
# Density = 2.496051 g / cm^3
# Si number density = 25.017456 Si / 1000 Ang^3
#
#
#
# Elastic Constant Matrix: (Units=GPa)
#
#
# Indices 1 2 3 4 5 6 
#
# 1 112.3271 68.4901 11.2390 0.0000 0.0000 0.0000
# 2 68.4901 108.5222 24.3614 0.0000 0.0000 0.0000
# 3 11.2390 24.3614 92.4856 0.0000 0.0000 0.0000
# 4 0.0000 0.0000 0.0000 -24.2858 0.0000 0.0000
# 5 0.0000 0.0000 0.0000 0.0000 35.0104 0.0000
# 6 0.0000 0.0000 0.0000 0.0000 0.0000 33.4476
#
#
#
# Elastic Compliance Matrix: (Units=1/GPa)
#
#
# Indices 1 2 3 4 5 6 
#
# 1 0.014513 -0.009314 0.000690 0.000000 0.000000 0.000000
# 2 -0.009314 0.015771 -0.003022 0.000000 0.000000 0.000000
# 3 0.000690 -0.003022 0.011525 0.000000 0.000000 0.000000
# 4 0.000000 0.000000 0.000000 -0.041176 0.000000 0.000000
# 5 0.000000 0.000000 0.000000 0.000000 0.028563 0.000000
# 6 0.000000 0.000000 0.000000 0.000000 0.000000 0.029897
#
#
# Mechanical properties :
#
#
# Convention : Reuss Voigt Hill
#
# Bulk Modulus (GPa) = 54.00881 57.94623 55.97752
# Shear Modulus (GPa) = 56.46008 22.78408 39.62208
#
# Velocity S-wave (km/s) = 4.75576 3.02110 3.98399
# Velocity P-wave (km/s) = 7.19664 5.94828 6.60203
#
# Compressibility (1/GPa) = 0.01851550
#
# Stress axis : x y z
#
# Youngs Moduli (GPa) = 68.90533 63.40584 86.76940
#
# Poissons Ratio (x) = 0.59056 -0.05985
# Poissons Ratio (y) = 0.64179 0.26226
# Poissons Ratio (z) = -0.04753 0.19164
#
# Static dielectric constant tensor:
#      x y z
#    x 1.974510 0.000000 0.000000 
#    y 0.000000 1.948040 0.000000 
#    z 0.000000 0.000000 1.918930 
# 
# From -- ./inp_files/6286.got.cif
#   From: 2010.05.17/outbox.cif.g08.bks.cpg/sg34_4_cif.got.tgz:6286.got - 2010.06.03 17:23:11.
