data_PCOD9347350
_publ_section_title
;
Structure prediction by ZEFSAII (Michael W. Deem and Ramdas Pophale) SiO2 
 PCOD9347350
Probable space group: P N N 2
;
_chemical_formula_sum "Si O2"
_cell_formula_units_Z 18
_cell_length_a 12.046724
_cell_length_b 12.018939
_cell_length_c 3.926044
_cell_angle_alpha 90.000000
_cell_angle_beta 90.000000
_cell_angle_gamma 90.000000
_cell_volume 568.447360
_symmetry_space_group_name_H-M "P N N 2"
_symmetry_group_IT_number 34
_symmetry_cell_setting 'orthorhombic'
loop_
_space_group_symop_operation_xyz
x,y,z
-x,-y,z
1/2-x,1/2+y,1/2+z
1/2+x,1/2-y,1/2+z
loop_
_atom_site_type_symbol
_atom_site_label
_atom_site_fract_x
_atom_site_fract_y
_atom_site_fract_z
Si Si1 0.829522 0.000744 0.865440
Si Si2 0.836408 0.674525 0.304405
Si Si3 0.833551 0.347605 0.820053
Si Si4 0.500000 0.000000 0.763828
Si Si5 0.001529 0.172099 0.855254
O O1 0.751410 0.085111 0.652190
O O2 0.745400 0.261195 0.991337
O O3 0.915458 0.087752 0.039736
O O4 0.913250 0.914807 0.681614
O O5 0.745864 0.924892 0.088766
O O6 0.922665 0.586650 0.468557
O O7 0.916060 0.749821 0.072496
O O8 0.920203 0.257781 0.660354
O O9 0.913872 0.424079 0.048988
#
# Coordination Sequence:
#
# PCOD9347350 Si02
#       5
#     4   4   4   2   4
#     4   9  16  31  56  78  98 133 170 203 250 306
#     4   9  18  34  53  75 102 134 168 206 253 299
#     4   9  18  34  53  75 102 134 168 206 253 299
#     4  10  20  36  52  72 108 136 160 214 256 290
#     4   8  16  32  54  76 106 132 160 212 256 290
#
# _framework density 31.665199999999999
#
# number of rings (size 3 to 8) (size 9 to 14) (size 15 to 20)
#    0.000    3.111    0.000    0.000    0.000    0.889 
#    0.000   24.444    0.000   18.667    0.000    0.000 
#    0.000    0.000    0.000    0.000    0.000    0.000 
#
# Total GULP energy -100364.329297 kJ/mol
# GULP energy per Si atom -5575.796072 kJ/mol
# Density = 3.159313 g / cm^3
# Si number density = 31.665200 Si / 1000 Ang^3
#
#
#
# Elastic Constant Matrix: (Units=GPa)
#
#
# Indices 1 2 3 4 5 6 
#
# 1 289.1463 185.0166 84.2922 0.0000 0.0000 0.0000
# 2 185.0166 273.4119 81.2918 0.0000 0.0000 0.0000
# 3 84.2922 81.2918 63.7320 0.0000 0.0000 0.0000
# 4 0.0000 0.0000 0.0000 45.6394 0.0000 0.0000
# 5 0.0000 0.0000 0.0000 0.0000 71.9330 0.0000
# 6 0.0000 0.0000 0.0000 0.0000 0.0000 227.0865
#
#
#
# Elastic Compliance Matrix: (Units=1/GPa)
#
#
# Indices 1 2 3 4 5 6 
#
# 1 0.007029 -0.003210 -0.005202 0.000000 0.000000 0.000000
# 2 -0.003210 0.007358 -0.005140 0.000000 0.000000 0.000000
# 3 -0.005202 -0.005140 0.029127 0.000000 0.000000 0.000000
# 4 0.000000 0.000000 0.000000 0.021911 0.000000 0.000000
# 5 0.000000 0.000000 0.000000 0.000000 0.013902 0.000000
# 6 0.000000 0.000000 0.000000 0.000000 0.000000 0.004404
#
#
# Mechanical properties :
#
#
# Convention : Reuss Voigt Hill
#
# Bulk Modulus (GPa) = 60.93769 147.49904 104.21837
# Shear Modulus (GPa) = 42.99090 87.31110 65.15100
#
# Velocity S-wave (km/s) = 3.68866 5.25672 4.54088
# Velocity P-wave (km/s) = 6.11782 9.13926 7.77669
#
# Compressibility (1/GPa) = 0.01641020
#
# Stress axis : x y z
#
# Youngs Moduli (GPa) = 142.27254 135.91499 34.33188
#
# Poissons Ratio (x) = 0.43622 0.17861
# Poissons Ratio (y) = 0.45663 0.17646
# Poissons Ratio (z) = 0.74017 0.69858
#
# Static dielectric constant tensor:
#      x y z
#    x 2.386470 0.000000 0.000000 
#    y 0.000000 2.358180 0.000000 
#    z 0.000000 0.000000 2.587680 
# 
# From -- ./inp_files/755.got.cif
#   From: 2010.05.17/outbox.cif.g08.bks.cpg/sg34_1_cif.got.tgz:755.got - 2010.06.03 17:23:11.
