data_PCOD9347970
_publ_section_title
;
Structure prediction by ZEFSAII (Michael W. Deem and Ramdas Pophale) SiO2 
 PCOD9347970
Probable space group: P N N 2
;
_chemical_formula_sum "Si O2"
_cell_formula_units_Z 18
_cell_length_a 12.085846
_cell_length_b 10.142173
_cell_length_c 5.105574
_cell_angle_alpha 90.000000
_cell_angle_beta 90.000000
_cell_angle_gamma 90.000000
_cell_volume 625.824622
_symmetry_space_group_name_H-M "P N N 2"
_symmetry_group_IT_number 34
_symmetry_cell_setting 'orthorhombic'
loop_
_space_group_symop_operation_xyz
x,y,z
-x,-y,z
1/2-x,1/2+y,1/2+z
1/2+x,1/2-y,1/2+z
loop_
_atom_site_type_symbol
_atom_site_label
_atom_site_fract_x
_atom_site_fract_y
_atom_site_fract_z
Si Si1 0.353304 0.180354 0.149780
Si Si2 0.500000 0.000000 0.538559
Si Si3 0.937419 0.824084 0.611812
Si Si4 0.798925 0.614110 0.398960
Si Si5 0.147221 0.040711 0.105683
O O1 0.426037 0.101785 0.364707
O O2 0.443693 0.273260 0.020677
O O3 0.244731 0.266112 0.201676
O O4 0.282550 0.057078 0.016101
O O5 0.593197 0.066343 0.720621
O O6 0.861441 0.695791 0.625743
O O7 0.886299 0.926148 0.398318
O O8 0.927241 0.889699 0.893523
O O9 0.667116 0.607597 0.522856
#
# Coordination Sequence:
#
# PCOD9347970 Si02
#       5
#     4   2   4   4   4
#     4  11  24  45  74 106 146 194 252 310 378 459
#     4  12  24  50  80 110 152 206 256 318 392 462
#     4  11  25  45  70 103 143 190 243 307 377 448
#     4  11  24  45  74 106 146 194 252 310 378 459
#     4  11  25  45  70 103 143 190 243 307 377 448
#
# _framework density 28.762056000000001
#
# number of rings (size 3 to 8) (size 9 to 14) (size 15 to 20)
#    0.000    0.889    0.000    8.000    0.000    8.000 
#    0.000    8.889    0.000    0.000    0.000    0.000 
#    0.000    0.000    0.000    0.000    0.000    0.000 
#
# Total GULP energy -100348.791704 kJ/mol
# GULP energy per Si atom -5574.932872 kJ/mol
# Density = 2.869659 g / cm^3
# Si number density = 28.762056 Si / 1000 Ang^3
#
#
#
# Elastic Constant Matrix: (Units=GPa)
#
#
# Indices 1 2 3 4 5 6 
#
# 1 249.1694 97.0690 57.2857 0.0000 0.0000 0.0000
# 2 97.0690 139.1689 41.0072 0.0000 0.0000 0.0000
# 3 57.2857 41.0072 124.9222 0.0000 0.0000 0.0000
# 4 0.0000 0.0000 0.0000 30.2145 0.0000 0.0000
# 5 0.0000 0.0000 0.0000 0.0000 -338.9136 0.0000
# 6 0.0000 0.0000 0.0000 0.0000 0.0000 87.4583
#
#
#
# Elastic Compliance Matrix: (Units=1/GPa)
#
#
# Indices 1 2 3 4 5 6 
#
# 1 0.005741 -0.003575 -0.001459 0.000000 0.000000 0.000000
# 2 -0.003575 0.010180 -0.001703 0.000000 0.000000 0.000000
# 3 -0.001459 -0.001703 0.009233 0.000000 0.000000 0.000000
# 4 0.000000 0.000000 0.000000 0.033097 0.000000 0.000000
# 5 0.000000 0.000000 0.000000 0.000000 -0.002951 0.000000
# 6 0.000000 0.000000 0.000000 0.000000 0.000000 0.011434
#
#
# Mechanical properties :
#
#
# Convention : Reuss Voigt Hill
#
# Bulk Modulus (GPa) = 85.60419 100.44272 93.02345
# Shear Modulus (GPa) = 59.45142 -23.05491 18.19826
#
# Velocity S-wave (km/s) = 4.55137 -2.83428 2.51812
# Velocity P-wave (km/s) = 7.57941 4.92818 6.39274
#
# Compressibility (1/GPa) = 0.01168167
#
# Stress axis : x y z
#
# Youngs Moduli (GPa) = 174.17338 98.22779 108.30515
#
# Poissons Ratio (x) = 0.35112 0.15807
# Poissons Ratio (y) = 0.62259 0.18441
# Poissons Ratio (z) = 0.25420 0.16725
#
# Static dielectric constant tensor:
#      x y z
#    x 5.321020 0.000000 0.000000 
#    y 0.000000 2.610450 0.000000 
#    z 0.000000 0.000000 2.252760 
# 
# From -- ./inp_files/768.got.cif
#   From: 2010.05.17/outbox.cif.g08.bks.cpg/sg34_1_cif.got.tgz:768.got - 2010.06.03 17:23:11.
