data_PCOD9347157
_publ_section_title
;
Structure prediction by ZEFSAII (Michael W. Deem and Ramdas Pophale) SiO2 
 PCOD9347157
Probable space group: P N N 2
;
_chemical_formula_sum "Si O2"
_cell_formula_units_Z 24
_cell_length_a 7.637322
_cell_length_b 8.959745
_cell_length_c 18.299413
_cell_angle_alpha 90.000000
_cell_angle_beta 90.000000
_cell_angle_gamma 90.000000
_cell_volume 1252.200607
_symmetry_space_group_name_H-M "P N N 2"
_symmetry_group_IT_number 34
_symmetry_cell_setting 'orthorhombic'
loop_
_space_group_symop_operation_xyz
x,y,z
-x,-y,z
1/2-x,1/2+y,1/2+z
1/2+x,1/2-y,1/2+z
loop_
_atom_site_type_symbol
_atom_site_label
_atom_site_fract_x
_atom_site_fract_y
_atom_site_fract_z
Si Si1 0.896248 0.362652 0.948460
Si Si2 0.683864 0.085082 0.007150
Si Si3 0.317385 0.588906 0.808142
Si Si4 0.811572 0.075255 0.168841
Si Si5 0.861314 0.892012 0.884226
Si Si6 0.059510 0.660202 0.266233
O O1 0.796639 0.430637 0.878939
O O2 0.000000 0.500000 0.987492
O O3 0.041922 0.253308 0.914221
O O4 0.750107 0.255163 0.987354
O O5 0.710002 0.076068 0.093817
O O6 0.500000 0.000000 0.991608
O O7 0.806412 0.985664 0.955409
O O8 0.500000 0.500000 0.816570
O O9 0.232124 0.523776 0.734573
O O10 0.385121 0.756680 0.795958
O O11 0.854192 0.235705 0.204404
O O12 0.000000 0.000000 0.152621
O O13 0.697598 0.856622 0.832386
O O14 0.000000 0.000000 0.843390
O O15 0.000000 0.500000 0.238777
#
# Coordination Sequence:
#
# PCOD9347157 Si02
#       6
#     4   4   4   4   4   4
#     4  11  21  34  58  87 114 144 188 245 285 328
#     4  11  23  39  58  80 113 156 194 229 284 355
#     4   9  19  35  57  82 112 147 181 224 283 347
#     4   9  20  37  56  79 110 148 184 226 283 345
#     4  10  20  34  56  83 114 150 188 227 278 349
#     4  10  18  33  57  83 112 145 186 235 281 332
#
# _framework density 19.166257999999999
#
# number of rings (size 3 to 8) (size 9 to 14) (size 15 to 20)
#    0.000    2.333    0.000    7.000    0.000    2.667 
#    0.000    0.000    0.000    1.000    0.000    0.000 
#    0.000    0.000    0.000    0.000    0.000    0.000 
#
# Total GULP energy -133633.750568 kJ/mol
# GULP energy per Si atom -5568.072940 kJ/mol
# Density = 1.912264 g / cm^3
# Si number density = 19.166258 Si / 1000 Ang^3
#
#
#
# Elastic Constant Matrix: (Units=GPa)
#
#
# Indices 1 2 3 4 5 6 
#
# 1 70.7991 39.9730 35.9359 0.0000 0.0000 0.0000
# 2 39.9730 124.6166 23.5334 0.0000 0.0000 0.0000
# 3 35.9359 23.5334 91.2284 0.0000 0.0000 0.0000
# 4 0.0000 0.0000 0.0000 8.5783 0.0000 0.0000
# 5 0.0000 0.0000 0.0000 0.0000 27.0234 0.0000
# 6 0.0000 0.0000 0.0000 0.0000 0.0000 23.3428
#
#
#
# Elastic Compliance Matrix: (Units=1/GPa)
#
#
# Indices 1 2 3 4 5 6 
#
# 1 0.020537 -0.005319 -0.006718 0.000000 0.000000 0.000000
# 2 -0.005319 0.009813 -0.000436 0.000000 0.000000 0.000000
# 3 -0.006718 -0.000436 0.013720 0.000000 0.000000 0.000000
# 4 0.000000 0.000000 0.000000 0.116573 0.000000 0.000000
# 5 0.000000 0.000000 0.000000 0.000000 0.037005 0.000000
# 6 0.000000 0.000000 0.000000 0.000000 0.000000 0.042840
#
#
# Mechanical properties :
#
#
# Convention : Reuss Voigt Hill
#
# Bulk Modulus (GPa) = 52.28845 53.94765 53.11805
# Shear Modulus (GPa) = 18.39520 24.26902 21.33211
#
# Velocity S-wave (km/s) = 3.10138 3.56228 3.33979
# Velocity P-wave (km/s) = 6.33762 6.71775 6.53045
#
# Compressibility (1/GPa) = 0.01912468
#
# Stress axis : x y z
#
# Youngs Moduli (GPa) = 48.69160 101.90367 72.88510
#
# Poissons Ratio (x) = 0.54204 0.48963
# Poissons Ratio (y) = 0.25900 0.03179
# Poissons Ratio (z) = 0.32710 0.04445
#
# Static dielectric constant tensor:
#      x y z
#    x 1.741690 0.000000 0.000000 
#    y 0.000000 1.698570 0.000000 
#    z 0.000000 0.000000 1.646140 
# 
# From -- ./inp_files/7472.got.cif
#   From: 2010.05.17/outbox.cif.g08.bks.cpg/sg34_4_cif.got.tgz:7472.got - 2010.06.03 17:23:11.
