data_PCOD9347275
_publ_section_title
;
Structure prediction by ZEFSAII (Michael W. Deem and Ramdas Pophale) SiO2 
 PCOD9347275
Probable space group: P N N 2
;
_chemical_formula_sum "Si O2"
_cell_formula_units_Z 28
_cell_length_a 16.591777
_cell_length_b 7.677544
_cell_length_c 10.007319
_cell_angle_alpha 90.000000
_cell_angle_beta 90.000000
_cell_angle_gamma 90.000000
_cell_volume 1274.773304
_symmetry_space_group_name_H-M "P N N 2"
_symmetry_group_IT_number 34
_symmetry_cell_setting 'orthorhombic'
loop_
_space_group_symop_operation_xyz
x,y,z
-x,-y,z
1/2-x,1/2+y,1/2+z
1/2+x,1/2-y,1/2+z
loop_
_atom_site_type_symbol
_atom_site_label
_atom_site_fract_x
_atom_site_fract_y
_atom_site_fract_z
Si Si1 0.158644 0.517616 0.542270
Si Si2 0.881213 0.074838 0.284033
Si Si3 0.762539 0.828966 0.806638
Si Si4 0.000000 0.500000 0.965504
Si Si5 0.500000 0.000000 0.918270
Si Si6 0.812424 0.890971 0.530424
Si Si7 0.335818 0.029374 0.343697
Si Si8 0.048379 0.254469 0.200103
O O1 0.223162 0.574908 0.431760
O O2 0.068600 0.588094 0.508199
O O3 0.155511 0.306278 0.543262
O O4 0.181408 0.577391 0.690721
O O5 0.869227 0.012752 0.438208
O O6 0.884318 0.893323 0.203653
O O7 0.810315 0.207287 0.249639
O O8 0.964312 0.167736 0.247676
O O9 0.794824 0.943859 0.683777
O O10 0.825907 0.681681 0.851361
O O11 0.926564 0.424953 0.881201
O O12 0.036034 0.353037 0.063082
O O13 0.558034 0.104447 0.816462
O O14 0.729127 0.894104 0.446375
#
# Coordination Sequence:
#
# PCOD9347275 Si02
#       8
#     4   4   4   2   2   4   4   4
#     4  11  22  40  61  91 125 162 207 251 312 364
#     4  10  19  37  57  95 122 157 204 253 302 363
#     4  10  22  39  62  88 124 165 203 252 307 371
#     4  11  23  42  62  90 124 164 212 250 320 370
#     4  11  19  36  62  90 114 164 200 246 296 368
#     4  10  22  37  60  89 125 155 208 250 305 364
#     4  10  24  40  61  89 122 164 202 263 305 368
#     4  10  21  34  63  91 121 159 200 254 301 369
#
# _framework density 21.964690000000001
#
# number of rings (size 3 to 8) (size 9 to 14) (size 15 to 20)
#    0.000    1.714    2.857    1.286    2.000    5.714 
#    0.000    0.000    0.000    0.000    3.714    0.000 
#    0.000    0.000    0.000    0.000    0.000    0.000 
#
# Total GULP energy -156237.129527 kJ/mol
# GULP energy per Si atom -5579.897483 kJ/mol
# Density = 2.191470 g / cm^3
# Si number density = 21.964690 Si / 1000 Ang^3
#
#
#
# Elastic Constant Matrix: (Units=GPa)
#
#
# Indices 1 2 3 4 5 6 
#
# 1 52.0888 -5.8205 31.5287 0.0000 0.0000 0.0000
# 2 -5.8205 44.0945 17.0245 0.0000 0.0000 0.0000
# 3 31.5287 17.0245 135.7285 0.0000 0.0000 0.0000
# 4 0.0000 0.0000 0.0000 24.3476 0.0000 0.0000
# 5 0.0000 0.0000 0.0000 0.0000 31.3913 0.0000
# 6 0.0000 0.0000 0.0000 0.0000 0.0000 32.9405
#
#
#
# Elastic Compliance Matrix: (Units=1/GPa)
#
#
# Indices 1 2 3 4 5 6 
#
# 1 0.023536 0.005483 -0.006155 0.000000 0.000000 0.000000
# 2 0.005483 0.025110 -0.004423 0.000000 0.000000 0.000000
# 3 -0.006155 -0.004423 0.009352 0.000000 0.000000 0.000000
# 4 0.000000 0.000000 0.000000 0.041072 0.000000 0.000000
# 5 0.000000 0.000000 0.000000 0.000000 0.031856 0.000000
# 6 0.000000 0.000000 0.000000 0.000000 0.000000 0.030358
#
#
# Mechanical properties :
#
#
# Convention : Reuss Voigt Hill
#
# Bulk Modulus (GPa) = 20.91684 35.26414 28.09049
# Shear Modulus (GPa) = 26.67938 30.34781 28.51360
#
# Velocity S-wave (km/s) = 3.48896 3.72111 3.60690
# Velocity P-wave (km/s) = 5.07682 5.87809 5.49209
#
# Compressibility (1/GPa) = 0.04780836
#
# Stress axis : x y z
#
# Youngs Moduli (GPa) = 42.48763 39.82454 106.92623
#
# Poissons Ratio (x) = -0.21837 0.65814
# Poissons Ratio (y) = -0.23297 0.47297
# Poissons Ratio (z) = 0.26151 0.17616
#
# Static dielectric constant tensor:
#      x y z
#    x 1.816020 0.000000 0.000000 
#    y 0.000000 1.895500 0.000000 
#    z 0.000000 0.000000 1.816170 
# 
# From -- ./inp_files/2796.got.cif
#   From: 2010.05.17/outbox.cif.g08.bks.cpg/sg34_2_cif.got.tgz:2796.got - 2010.06.03 17:23:11.
