data_PCOD9347951
_publ_section_title
;
Structure prediction by ZEFSAII (Michael W. Deem and Ramdas Pophale) SiO2 
 PCOD9347951
Probable space group: P N N 2
;
_chemical_formula_sum "Si O2"
_cell_formula_units_Z 32
_cell_length_a 10.805456
_cell_length_b 16.695161
_cell_length_c 8.463333
_cell_angle_alpha 90.000000
_cell_angle_beta 90.000000
_cell_angle_gamma 90.000000
_cell_volume 1526.775351
_symmetry_space_group_name_H-M "P N N 2"
_symmetry_group_IT_number 34
_symmetry_cell_setting 'orthorhombic'
loop_
_space_group_symop_operation_xyz
x,y,z
-x,-y,z
1/2-x,1/2+y,1/2+z
1/2+x,1/2-y,1/2+z
loop_
_atom_site_type_symbol
_atom_site_label
_atom_site_fract_x
_atom_site_fract_y
_atom_site_fract_z
Si Si1 0.639259 0.001367 0.536740
Si Si2 0.124883 0.288044 0.579551
Si Si3 0.874056 0.221260 0.676287
Si Si4 0.259591 0.346138 0.887460
Si Si5 0.125860 0.454168 0.407111
Si Si6 0.008202 0.094171 0.239808
Si Si7 0.593453 0.566459 0.398833
Si Si8 0.258574 0.157444 0.394366
O O1 0.632881 0.027256 0.720068
O O2 0.694811 0.914822 0.501855
O O3 0.500000 0.000000 0.474239
O O4 0.716377 0.067271 0.444890
O O5 0.169295 0.316482 0.750981
O O6 0.104972 0.363293 0.463943
O O7 0.228470 0.232255 0.505134
O O8 0.005316 0.233298 0.595019
O O9 0.770124 0.209053 0.542339
O O10 0.878807 0.140936 0.783190
O O11 0.852859 0.303442 0.770803
O O12 0.395926 0.357423 0.817005
O O13 0.271733 0.469006 0.455128
O O14 0.000000 0.500000 0.464460
O O15 0.138078 0.128706 0.297914
O O16 0.981034 0.096484 0.052519
O O17 0.000000 0.000000 0.284412
O O18 0.500000 0.500000 0.325238
#
# Coordination Sequence:
#
# PCOD9347951 Si02
#       8
#     4   4   4   4   4   4   4   4
#     4  11  25  45  73  99 137 194 240 295 360 444
#     4  12  27  44  69 109 144 184 239 306 360 442
#     4  12  27  45  72 106 144 190 234 307 375 432
#     4  12  23  45  70  99 141 184 237 284 362 434
#     4  11  25  49  74 100 146 197 248 297 369 453
#     4  11  23  43  73 100 138 186 234 299 352 437
#     4  11  25  47  73 107 146 191 251 299 361 449
#     4  12  25  47  70 107 146 178 241 305 368 428
#
# _framework density 20.959206999999999
#
# number of rings (size 3 to 8) (size 9 to 14) (size 15 to 20)
#    0.000    0.500    6.250    0.750    3.500    6.000 
#    6.750    0.000    0.000    0.000    0.000    0.000 
#    0.000    0.000    0.000    0.000    0.000    0.000 
#
# Total GULP energy -178698.320219 kJ/mol
# GULP energy per Si atom -5584.322507 kJ/mol
# Density = 2.091150 g / cm^3
# Si number density = 20.959207 Si / 1000 Ang^3
#
#
#
# Elastic Constant Matrix: (Units=GPa)
#
#
# Indices 1 2 3 4 5 6 
#
# 1 84.3905 24.0227 8.4749 0.0000 0.0000 0.0000
# 2 24.0227 89.1472 50.4543 0.0000 0.0000 0.0000
# 3 8.4749 50.4543 90.8513 0.0000 0.0000 0.0000
# 4 0.0000 0.0000 0.0000 2.1763 0.0000 0.0000
# 5 0.0000 0.0000 0.0000 0.0000 -23.9921 0.0000
# 6 0.0000 0.0000 0.0000 0.0000 0.0000 37.4056
#
#
#
# Elastic Compliance Matrix: (Units=1/GPa)
#
#
# Indices 1 2 3 4 5 6 
#
# 1 0.012904 -0.004078 0.001061 0.000000 0.000000 0.000000
# 2 -0.004078 0.017648 -0.009420 0.000000 0.000000 0.000000
# 3 0.001061 -0.009420 0.016140 0.000000 0.000000 0.000000
# 4 0.000000 0.000000 0.000000 0.459505 0.000000 0.000000
# 5 0.000000 0.000000 0.000000 0.000000 -0.041680 0.000000
# 6 0.000000 0.000000 0.000000 0.000000 0.000000 0.026734
#
#
# Mechanical properties :
#
#
# Convention : Reuss Voigt Hill
#
# Bulk Modulus (GPa) = 45.83584 47.81031 46.82308
# Shear Modulus (GPa) = 9.55299 15.21375 12.38337
#
# Velocity S-wave (km/s) = 2.13724 2.69713 2.43334
# Velocity P-wave (km/s) = 5.29216 5.70614 5.50304
#
# Compressibility (1/GPa) = 0.02181699
#
# Stress axis : x y z
#
# Youngs Moduli (GPa) = 77.49608 56.66427 61.95928
#
# Poissons Ratio (x) = 0.23106 -0.06573
# Poissons Ratio (y) = 0.31600 0.58368
# Poissons Ratio (z) = -0.08221 0.53380
#
# Static dielectric constant tensor:
#      x y z
#    x 1.810320 0.000000 0.000000 
#    y 0.000000 1.742680 0.000000 
#    z 0.000000 0.000000 1.763920 
# 
# From -- ./inp_files/3336.got.cif
#   From: 2010.05.17/outbox.cif.g08.bks.cpg/sg34_2_cif.got.tgz:3336.got - 2010.06.03 17:23:11.
