data_PCOD9347454
_publ_section_title
;
Structure prediction by ZEFSAII (Michael W. Deem and Ramdas Pophale) SiO2 
 PCOD9347454
Probable space group: P N N 2
;
_chemical_formula_sum "Si O2"
_cell_formula_units_Z 24
_cell_length_a 11.609900
_cell_length_b 11.089154
_cell_length_c 7.316318
_cell_angle_alpha 90.000000
_cell_angle_beta 90.000000
_cell_angle_gamma 90.000000
_cell_volume 941.931818
_symmetry_space_group_name_H-M "P N N 2"
_symmetry_group_IT_number 34
_symmetry_cell_setting 'orthorhombic'
loop_
_space_group_symop_operation_xyz
x,y,z
-x,-y,z
1/2-x,1/2+y,1/2+z
1/2+x,1/2-y,1/2+z
loop_
_atom_site_type_symbol
_atom_site_label
_atom_site_fract_x
_atom_site_fract_y
_atom_site_fract_z
Si Si1 0.464808 0.628766 0.155480
Si Si2 0.659240 0.682697 0.641703
Si Si3 0.583305 0.301669 0.762199
Si Si4 0.888654 0.556267 0.489438
Si Si5 0.228756 0.579490 0.187139
Si Si6 0.796908 0.193329 0.573273
O O1 0.500000 0.500000 0.227837
O O2 0.344248 0.651108 0.248717
O O3 0.577439 0.709253 0.166947
O O4 0.424238 0.614647 0.942101
O O5 0.522247 0.658435 0.631707
O O6 0.765095 0.599639 0.573728
O O7 0.672974 0.818312 0.560568
O O8 0.676830 0.691771 0.859620
O O9 0.702046 0.283714 0.653555
O O10 0.572716 0.171674 0.867112
O O11 0.853244 0.450166 0.353840
O O12 0.000000 0.500000 0.594757
O O13 0.257125 0.445621 0.114458
#
# Coordination Sequence:
#
# PCOD9347454 Si02
#       6
#     4   4   4   4   4   4
#     4   9  18  39  65  89 129 169 213 271 323 388
#     4  11  22  43  64  98 131 169 222 271 324 392
#     4  10  20  42  65  91 130 172 213 266 330 388
#     4  11  22  41  68  98 132 175 217 271 333 391
#     4  10  20  41  67  91 129 172 215 270 326 387
#     4   9  22  40  63  94 128 167 220 264 325 388
#
# _framework density 25.47955
#
# number of rings (size 3 to 8) (size 9 to 14) (size 15 to 20)
#    0.000    2.000    3.333    0.000    0.000    0.000 
#   24.000    0.000    0.000    0.000    0.000    0.000 
#    0.000    0.000    0.000    0.000    0.000    0.000 
#
# Total GULP energy -133673.546114 kJ/mol
# GULP energy per Si atom -5569.731088 kJ/mol
# Density = 2.542156 g / cm^3
# Si number density = 25.479550 Si / 1000 Ang^3
#
#
#
# Elastic Constant Matrix: (Units=GPa)
#
#
# Indices 1 2 3 4 5 6 
#
# 1 151.0541 22.5430 22.4009 0.0000 0.0000 0.0000
# 2 22.5430 66.2091 11.9482 0.0000 0.0000 0.0000
# 3 22.4009 11.9482 49.5422 0.0000 0.0000 0.0000
# 4 0.0000 0.0000 0.0000 19.6541 0.0000 0.0000
# 5 0.0000 0.0000 0.0000 0.0000 34.3975 0.0000
# 6 0.0000 0.0000 0.0000 0.0000 0.0000 50.4034
#
#
#
# Elastic Compliance Matrix: (Units=1/GPa)
#
#
# Indices 1 2 3 4 5 6 
#
# 1 0.007338 -0.001986 -0.002839 0.000000 0.000000 0.000000
# 2 -0.001986 0.016328 -0.003040 0.000000 0.000000 0.000000
# 3 -0.002839 -0.003040 0.022202 0.000000 0.000000 0.000000
# 4 0.000000 0.000000 0.000000 0.050880 0.000000 0.000000
# 5 0.000000 0.000000 0.000000 0.000000 0.029072 0.000000
# 6 0.000000 0.000000 0.000000 0.000000 0.000000 0.019840
#
#
# Mechanical properties :
#
#
# Convention : Reuss Voigt Hill
#
# Bulk Modulus (GPa) = 33.18064 42.28772 37.73418
# Shear Modulus (GPa) = 29.16561 34.88522 32.02542
#
# Velocity S-wave (km/s) = 3.38696 3.70421 3.54913
# Velocity P-wave (km/s) = 5.32411 5.90996 5.62467
#
# Compressibility (1/GPa) = 0.03013806
#
# Stress axis : x y z
#
# Youngs Moduli (GPa) = 136.28601 61.24276 45.04191
#
# Poissons Ratio (x) = 0.12163 0.12786
# Poissons Ratio (y) = 0.27066 0.13693
# Poissons Ratio (z) = 0.38688 0.18618
#
# Static dielectric constant tensor:
#      x y z
#    x 2.154890 0.000000 0.000000 
#    y 0.000000 2.039430 0.000000 
#    z 0.000000 0.000000 2.039940 
# 
# From -- ./inp_files/3157.got.cif
#   From: 2010.05.17/outbox.cif.g08.bks.cpg/sg34_2_cif.got.tgz:3157.got - 2010.06.03 17:23:11.
