data_PCOD9347300
_publ_section_title
;
Structure prediction by ZEFSAII (Michael W. Deem and Ramdas Pophale) SiO2 
 PCOD9347300
Probable space group: P N N 2
;
_chemical_formula_sum "Si O2"
_cell_formula_units_Z 32
_cell_length_a 23.565890
_cell_length_b 9.128469
_cell_length_c 7.985092
_cell_angle_alpha 90.000000
_cell_angle_beta 90.000000
_cell_angle_gamma 90.000000
_cell_volume 1717.756954
_symmetry_space_group_name_H-M "P N N 2"
_symmetry_group_IT_number 34
_symmetry_cell_setting 'orthorhombic'
loop_
_space_group_symop_operation_xyz
x,y,z
-x,-y,z
1/2-x,1/2+y,1/2+z
1/2+x,1/2-y,1/2+z
loop_
_atom_site_type_symbol
_atom_site_label
_atom_site_fract_x
_atom_site_fract_y
_atom_site_fract_z
Si Si1 0.860568 0.480420 0.269200
Si Si2 0.078640 0.811019 0.181315
Si Si3 0.286220 0.049306 0.440364
Si Si4 0.971276 0.650062 0.267381
Si Si5 0.316676 0.381830 0.449904
Si Si6 0.444194 0.558552 0.954912
Si Si7 0.700852 0.094246 0.104662
Si Si8 0.822945 0.938537 0.611546
O O1 0.886642 0.316352 0.280562
O O2 0.910527 0.590108 0.207891
O O3 0.833920 0.532731 0.444909
O O4 0.815265 0.476701 0.120119
O O5 0.018197 0.727977 0.146571
O O6 0.064105 0.951828 0.293979
O O7 0.121515 0.860080 0.034402
O O8 0.314793 0.969934 0.284638
O O9 0.293732 0.220951 0.401595
O O10 0.221281 0.002086 0.472790
O O11 0.956716 0.775549 0.400370
O O12 0.000000 0.500000 0.334630
O O13 0.267603 0.439713 0.574151
O O14 0.316496 0.483293 0.288435
O O15 0.500000 0.500000 0.047048
O O16 0.387164 0.546048 0.056106
O O17 0.692038 0.267412 0.118729
#
# Coordination Sequence:
#
# PCOD9347300 Si02
#       8
#     4   4   4   4   4   4   4   4
#     4  10  19  39  60  91 121 156 208 257 300 380
#     4   9  20  36  62  85 117 166 204 251 316 370
#     4  10  23  38  59  88 122 161 197 249 315 367
#     4   9  18  36  64  85 119 160 207 260 303 362
#     4  10  22  39  56  89 124 159 207 253 310 376
#     4  10  20  36  57  88 113 157 204 244 309 362
#     4  11  22  38  60  88 123 161 205 253 311 374
#     4  11  22  38  56  86 125 153 203 255 301 374
#
# _framework density 18.628945000000002
#
# number of rings (size 3 to 8) (size 9 to 14) (size 15 to 20)
#    0.000    2.000    2.500    0.750    1.750    2.000 
#    0.000    3.125    0.000    2.250    0.000    0.000 
#    0.000    0.000    0.000    0.000    0.000    0.000 
#
# Total GULP energy -178206.720719 kJ/mol
# GULP energy per Si atom -5568.960022 kJ/mol
# Density = 1.858654 g / cm^3
# Si number density = 18.628945 Si / 1000 Ang^3
#
#
#
# Elastic Constant Matrix: (Units=GPa)
#
#
# Indices 1 2 3 4 5 6 
#
# 1 118.5269 26.0869 33.9423 0.0000 0.0000 0.0000
# 2 26.0869 84.1640 44.2220 0.0000 0.0000 0.0000
# 3 33.9423 44.2220 85.6382 0.0000 0.0000 0.0000
# 4 0.0000 0.0000 0.0000 23.9289 0.0000 0.0000
# 5 0.0000 0.0000 0.0000 0.0000 18.8324 0.0000
# 6 0.0000 0.0000 0.0000 0.0000 0.0000 19.0831
#
#
#
# Elastic Compliance Matrix: (Units=1/GPa)
#
#
# Indices 1 2 3 4 5 6 
#
# 1 0.009627 -0.001344 -0.003122 0.000000 0.000000 0.000000
# 2 -0.001344 0.016493 -0.007984 0.000000 0.000000 0.000000
# 3 -0.003122 -0.007984 0.017037 0.000000 0.000000 0.000000
# 4 0.000000 0.000000 0.000000 0.041790 0.000000 0.000000
# 5 0.000000 0.000000 0.000000 0.000000 0.053100 0.000000
# 6 0.000000 0.000000 0.000000 0.000000 0.000000 0.052402
#
#
# Mechanical properties :
#
#
# Convention : Reuss Voigt Hill
#
# Bulk Modulus (GPa) = 54.77060 55.20351 54.98706
# Shear Modulus (GPa) = 22.58004 24.64075 23.61040
#
# Velocity S-wave (km/s) = 3.48529 3.64086 3.56392
# Velocity P-wave (km/s) = 6.75729 6.88273 6.82030
#
# Compressibility (1/GPa) = 0.01825797
#
# Stress axis : x y z
#
# Youngs Moduli (GPa) = 103.87939 60.63123 58.69518
#
# Poissons Ratio (x) = 0.08146 0.18322
# Poissons Ratio (y) = 0.13957 0.46864
# Poissons Ratio (z) = 0.32427 0.48409
#
# Static dielectric constant tensor:
#      x y z
#    x 1.717920 0.000000 0.000000 
#    y 0.000000 1.658970 0.000000 
#    z 0.000000 0.000000 1.615860 
# 
# From -- ./inp_files/4085.got.cif
#   From: 2010.05.17/outbox.cif.g08.bks.cpg/sg34_3_cif.got.tgz:4085.got - 2010.06.03 17:23:11.
