data_PCOD9347997
_publ_section_title
;
Structure prediction by ZEFSAII (Michael W. Deem and Ramdas Pophale) SiO2 
 PCOD9347997
Probable space group: P N N 2
;
_chemical_formula_sum "Si O2"
_cell_formula_units_Z 12
_cell_length_a 5.020222
_cell_length_b 5.408895
_cell_length_c 17.834005
_cell_angle_alpha 90.000000
_cell_angle_beta 90.000000
_cell_angle_gamma 90.000000
_cell_volume 484.261962
_symmetry_space_group_name_H-M "P N N 2"
_symmetry_group_IT_number 34
_symmetry_cell_setting 'orthorhombic'
loop_
_space_group_symop_operation_xyz
x,y,z
-x,-y,z
1/2-x,1/2+y,1/2+z
1/2+x,1/2-y,1/2+z
loop_
_atom_site_type_symbol
_atom_site_label
_atom_site_fract_x
_atom_site_fract_y
_atom_site_fract_z
Si Si1 0.500000 0.000000 0.579850
Si Si2 0.739635 0.838045 0.318146
Si Si3 0.500000 0.500000 0.189759
Si Si4 0.841213 0.731716 0.478626
O O1 0.434543 0.221144 0.521999
O O2 0.750331 0.967379 0.634991
O O3 0.612160 0.706510 0.246538
O O4 0.802447 0.675613 0.390688
O O5 0.500000 0.000000 0.349030
O O6 0.000000 0.000000 0.298350
O O7 0.000000 0.500000 0.512631
O O8 0.000000 0.000000 0.481681
#
# Coordination Sequence:
#
# PCOD9347997 Si02
#       4
#     2   4   2   4
#     4  12  26  52  72 124 160 214 264 340 412 486
#     4  11  26  48  79 116 155 215 276 335 404 493
#     4  12  28  48  78 116 162 208 266 340 412 478
#     4  11  27  51  83 117 160 215 275 335 403 491
#
# _framework density 24.779976999999999
#
# number of rings (size 3 to 8) (size 9 to 14) (size 15 to 20)
#    0.000    0.667    3.333    2.000   11.667    5.333 
#    6.000    0.000    0.000    0.000    0.000    0.000 
#    0.000    0.000    0.000    0.000    0.000    0.000 
#
# Total GULP energy -66982.413754 kJ/mol
# GULP energy per Si atom -5581.867813 kJ/mol
# Density = 2.472358 g / cm^3
# Si number density = 24.779977 Si / 1000 Ang^3
#
#
#
# Elastic Constant Matrix: (Units=GPa)
#
#
# Indices 1 2 3 4 5 6 
#
# 1 208.8143 69.2082 61.6386 0.0000 0.0000 0.0000
# 2 69.2082 101.7626 39.8777 0.0000 0.0000 0.0000
# 3 61.6386 39.8777 165.3712 0.0000 0.0000 0.0000
# 4 0.0000 0.0000 0.0000 -178.2277 0.0000 0.0000
# 5 0.0000 0.0000 0.0000 0.0000 153.1302 0.0000
# 6 0.0000 0.0000 0.0000 0.0000 0.0000 62.6304
#
#
#
# Elastic Compliance Matrix: (Units=1/GPa)
#
#
# Indices 1 2 3 4 5 6 
#
# 1 0.006502 -0.003835 -0.001499 0.000000 0.000000 0.000000
# 2 -0.003835 0.013114 -0.001733 0.000000 0.000000 0.000000
# 3 -0.001499 -0.001733 0.007024 0.000000 0.000000 0.000000
# 4 0.000000 0.000000 0.000000 -0.005611 0.000000 0.000000
# 5 0.000000 0.000000 0.000000 0.000000 0.006530 0.000000
# 6 0.000000 0.000000 0.000000 0.000000 0.000000 0.015967
#
#
# Mechanical properties :
#
#
# Convention : Reuss Voigt Hill
#
# Bulk Modulus (GPa) = 79.95835 90.82192 85.39014
# Shear Modulus (GPa) = 80.86891 27.85481 54.36186
#
# Velocity S-wave (km/s) = 5.71888 3.35638 4.68886
# Velocity P-wave (km/s) = 8.71464 7.19383 7.99050
#
# Compressibility (1/GPa) = 0.01250651
#
# Stress axis : x y z
#
# Youngs Moduli (GPa) = 153.78933 76.25460 142.37787
#
# Poissons Ratio (x) = 0.29243 0.21341
# Poissons Ratio (y) = 0.58976 0.24673
# Poissons Ratio (z) = 0.23051 0.13214
#
# Static dielectric constant tensor:
#      x y z
#    x 1.982680 0.000000 0.000000 
#    y 0.000000 2.162640 0.000000 
#    z 0.000000 0.000000 2.002280 
# 
# From -- ./inp_files/6997.got.cif
#   From: 2010.05.17/outbox.cif.g08.bks.cpg/sg34_4_cif.got.tgz:6997.got - 2010.06.03 17:23:11.
