data_PCOD9347281
_publ_section_title
;
Structure prediction by ZEFSAII (Michael W. Deem and Ramdas Pophale) SiO2 
 PCOD9347281
Probable space group: P N N 2
;
_chemical_formula_sum "Si O2"
_cell_formula_units_Z 24
_cell_length_a 9.681272
_cell_length_b 13.235902
_cell_length_c 7.121637
_cell_angle_alpha 90.000000
_cell_angle_beta 90.000000
_cell_angle_gamma 90.000000
_cell_volume 912.569182
_symmetry_space_group_name_H-M "P N N 2"
_symmetry_group_IT_number 34
_symmetry_cell_setting 'orthorhombic'
loop_
_space_group_symop_operation_xyz
x,y,z
-x,-y,z
1/2-x,1/2+y,1/2+z
1/2+x,1/2-y,1/2+z
loop_
_atom_site_type_symbol
_atom_site_label
_atom_site_fract_x
_atom_site_fract_y
_atom_site_fract_z
Si Si1 0.111328 0.588487 0.338860
Si Si2 0.803166 0.401508 0.771276
Si Si3 0.977514 0.800755 0.234579
Si Si4 0.149585 0.950362 0.792765
Si Si5 0.005724 0.236388 0.810449
Si Si6 0.264635 0.880783 0.192544
O O1 0.165546 0.613434 0.548280
O O2 0.022990 0.686403 0.277997
O O3 0.243379 0.538567 0.226882
O O4 0.000000 0.500000 0.350600
O O5 0.654378 0.355819 0.820502
O O6 0.822460 0.520645 0.795504
O O7 0.914285 0.332347 0.868762
O O8 0.115744 0.861331 0.278982
O O9 0.950565 0.808028 0.010453
O O10 0.095736 0.843243 0.705973
O O11 0.228377 0.911073 0.979460
O O12 0.000000 0.000000 0.827963
O O13 0.136170 0.284435 0.705052
#
# Coordination Sequence:
#
# PCOD9347281 Si02
#       6
#     4   4   4   4   4   4
#     4  11  22  39  61  86 121 161 198 242 297 359
#     4  11  22  39  62  88 116 158 202 240 292 361
#     4  11  23  40  61  89 120 154 198 250 297 346
#     4  10  20  38  61  88 119 160 202 241 292 360
#     4  11  22  37  62  90 118 152 199 249 295 345
#     4  10  19  37  61  85 116 155 195 240 291 353
#
# _framework density 26.299377
#
# number of rings (size 3 to 8) (size 9 to 14) (size 15 to 20)
#    0.000    1.333    0.000   10.000    0.000    2.667 
#    0.000    1.667    0.000    4.000    0.000    0.000 
#    0.000    0.000    0.000    0.000    0.000    0.000 
#
# Total GULP energy -134136.681365 kJ/mol
# GULP energy per Si atom -5589.028390 kJ/mol
# Density = 2.623952 g / cm^3
# Si number density = 26.299377 Si / 1000 Ang^3
#
#
#
# Elastic Constant Matrix: (Units=GPa)
#
#
# Indices 1 2 3 4 5 6 
#
# 1 156.6410 40.2141 -4.8579 0.0000 0.0000 0.0000
# 2 40.2141 139.4288 9.7395 0.0000 0.0000 0.0000
# 3 -4.8579 9.7395 51.4349 0.0000 0.0000 0.0000
# 4 0.0000 0.0000 0.0000 23.4005 0.0000 0.0000
# 5 0.0000 0.0000 0.0000 0.0000 -88.4747 0.0000
# 6 0.0000 0.0000 0.0000 0.0000 0.0000 79.2616
#
#
#
# Elastic Compliance Matrix: (Units=1/GPa)
#
#
# Indices 1 2 3 4 5 6 
#
# 1 0.006950 -0.002078 0.001050 0.000000 0.000000 0.000000
# 2 -0.002078 0.007889 -0.001690 0.000000 0.000000 0.000000
# 3 0.001050 -0.001690 0.019861 0.000000 0.000000 0.000000
# 4 0.000000 0.000000 0.000000 0.042734 0.000000 0.000000
# 5 0.000000 0.000000 0.000000 0.000000 -0.011303 0.000000
# 6 0.000000 0.000000 0.000000 0.000000 0.000000 0.012616
#
#
# Mechanical properties :
#
#
# Convention : Reuss Voigt Hill
#
# Bulk Modulus (GPa) = 34.17120 48.63291 41.40206
# Shear Modulus (GPa) = 53.22554 22.99809 38.11182
#
# Velocity S-wave (km/s) = 4.50358 2.96036 3.81090
# Velocity P-wave (km/s) = 6.32964 5.49701 5.92796
#
# Compressibility (1/GPa) = 0.02926441
#
# Stress axis : x y z
#
# Youngs Moduli (GPa) = 143.88428 126.75105 50.34933
#
# Poissons Ratio (x) = 0.26337 -0.05286
# Poissons Ratio (y) = 0.29897 0.08510
# Poissons Ratio (z) = -0.15106 0.21423
#
# Static dielectric constant tensor:
#      x y z
#    x 2.114050 0.000000 0.000000 
#    y 0.000000 2.132850 0.000000 
#    z 0.000000 0.000000 2.174500 
# 
# From -- ./inp_files/2619.got.cif
#   From: 2010.05.17/outbox.cif.g08.bks.cpg/sg34_2_cif.got.tgz:2619.got - 2010.06.03 17:23:11.
