data_PCOD9347047
_publ_section_title
;
Structure prediction by ZEFSAII (Michael W. Deem and Ramdas Pophale) SiO2 
 PCOD9347047
Probable space group: P N A 21
;
_chemical_formula_sum "Si O2"
_cell_formula_units_Z 24
_cell_length_a 16.921027
_cell_length_b 6.939782
_cell_length_c 7.078793
_cell_angle_alpha 90.000000
_cell_angle_beta 90.000000
_cell_angle_gamma 90.000000
_cell_volume 831.250193
_symmetry_space_group_name_H-M "P N A 21"
_symmetry_group_IT_number 33
_symmetry_cell_setting 'orthorhombic'
loop_
_space_group_symop_operation_xyz
x,y,z
-x,-y,1/2+z
1/2-x,1/2+y,1/2+z
1/2+x,1/2-y,z
loop_
_atom_site_type_symbol
_atom_site_label
_atom_site_fract_x
_atom_site_fract_y
_atom_site_fract_z
Si Si1 0.477321 0.648182 0.793010
Si Si2 0.977580 0.723109 0.360902
Si Si3 0.811555 0.765047 0.395584
Si Si4 0.852165 0.349604 0.915239
Si Si5 0.140673 0.784625 0.837963
Si Si6 0.193804 0.231801 0.347138
O O1 0.506690 0.430800 0.768973
O O2 0.470352 0.742541 0.587055
O O3 0.550199 0.749474 0.903828
O O4 0.389998 0.629804 0.881089
O O5 0.061177 0.620118 0.325813
O O6 0.888804 0.656290 0.312548
O O7 0.722166 0.741000 0.315707
O O8 0.802642 0.736446 0.620707
O O9 0.836995 0.991293 0.373537
O O10 0.819289 0.562302 0.941077
O O11 0.864726 0.246883 0.113899
O O12 0.218122 0.664427 0.903813
#
# Coordination Sequence:
#
# PCOD9347047 Si02
#       6
#     4   4   4   4   4   4
#     4   9  17  31  50  70  97 136 175 209 258 325
#     4   9  17  31  50  70  97 136 175 209 258 325
#     4   8  15  29  50  70  97 139 176 207 259 328
#     4   9  16  28  49  75  99 128 173 225 264 301
#     4   8  15  29  50  70  97 139 176 207 259 328
#     4   9  16  28  49  75  99 128 173 225 264 301
#
# _framework density 28.872173
#
# number of rings (size 3 to 8) (size 9 to 14) (size 15 to 20)
#    0.000    3.333    0.000    0.000    0.000    0.000 
#    0.000    6.667    0.000   68.000    0.000    0.000 
#    0.000    0.000    0.000    0.000    0.000    0.000 
#
# Total GULP energy -134084.473405 kJ/mol
# GULP energy per Si atom -5586.853059 kJ/mol
# Density = 2.880646 g / cm^3
# Si number density = 28.872173 Si / 1000 Ang^3
#
#
#
# Elastic Constant Matrix: (Units=GPa)
#
#
# Indices 1 2 3 4 5 6 
#
# 1 403.9641 36.5124 13.4651 0.0000 0.0000 0.0000
# 2 36.5124 55.5816 29.9557 0.0000 0.0000 0.0000
# 3 13.4651 29.9557 131.5283 0.0000 0.0000 0.0000
# 4 0.0000 0.0000 0.0000 7.9952 0.0000 0.0000
# 5 0.0000 0.0000 0.0000 0.0000 -0.2318 0.0000
# 6 0.0000 0.0000 0.0000 0.0000 0.0000 57.5627
#
#
#
# Elastic Compliance Matrix: (Units=1/GPa)
#
#
# Indices 1 2 3 4 5 6 
#
# 1 0.002634 -0.001807 0.000142 0.000000 0.000000 0.000000
# 2 -0.001807 0.021748 -0.004768 0.000000 0.000000 0.000000
# 3 0.000142 -0.004768 0.008674 0.000000 0.000000 0.000000
# 4 0.000000 0.000000 0.000000 0.125075 0.000000 0.000000
# 5 0.000000 0.000000 0.000000 0.000000 -4.313573 0.000000
# 6 0.000000 0.000000 0.000000 0.000000 0.000000 0.017372
#
#
# Mechanical properties :
#
#
# Convention : Reuss Voigt Hill
#
# Bulk Modulus (GPa) = 49.52856 83.43783 66.48320
# Shear Modulus (GPa) = -1.21404 47.14126 22.96361
#
# Velocity S-wave (km/s) = -0.64915 4.04512 2.82326
# Velocity P-wave (km/s) = 4.07796 7.12595 5.80556
#
# Compressibility (1/GPa) = 0.02019037
#
# Stress axis : x y z
#
# Youngs Moduli (GPa) = 379.64393 45.98057 115.28205
#
# Poissons Ratio (x) = 0.08308 -0.01635
# Poissons Ratio (y) = 0.68594 0.54969
# Poissons Ratio (z) = -0.05385 0.21925
#
# Static dielectric constant tensor:
#      x y z
#    x 2.430680 0.000000 0.000000 
#    y 0.000000 2.339880 0.000000 
#    z 0.000000 0.000000 2.118680 
# 
# From -- ./inp_files/4656.got.cif
#   From: 2010.05.17/outbox.cif.g08.bks.cpg/sg33_3_cif.got.tgz:4656.got - 2010.06.03 17:15:25.
