data_PCOD9347001
_publ_section_title
;
Structure prediction by ZEFSAII (Michael W. Deem and Ramdas Pophale) SiO2 
 PCOD9347001
Probable space group: P N A 21
;
_chemical_formula_sum "Si O2"
_cell_formula_units_Z 28
_cell_length_a 14.346713
_cell_length_b 14.578889
_cell_length_c 5.454081
_cell_angle_alpha 90.000000
_cell_angle_beta 90.000000
_cell_angle_gamma 90.000000
_cell_volume 1140.770871
_symmetry_space_group_name_H-M "P N A 21"
_symmetry_group_IT_number 33
_symmetry_cell_setting 'orthorhombic'
loop_
_space_group_symop_operation_xyz
x,y,z
-x,-y,1/2+z
1/2-x,1/2+y,1/2+z
1/2+x,1/2-y,z
loop_
_atom_site_type_symbol
_atom_site_label
_atom_site_fract_x
_atom_site_fract_y
_atom_site_fract_z
Si Si1 0.052136 0.528531 0.050710
Si Si2 0.802744 0.732911 0.099197
Si Si3 0.516864 0.352349 0.633631
Si Si4 0.711384 0.020584 0.701220
Si Si5 0.351287 0.154700 0.888811
Si Si6 0.604426 0.541700 0.458432
Si Si7 0.643567 0.703387 0.767709
O O1 0.078015 0.625961 0.172790
O O2 0.007272 0.477358 0.292932
O O3 0.152336 0.494842 0.950971
O O4 0.901686 0.779680 0.120206
O O5 0.812320 0.624070 0.126625
O O6 0.734352 0.784262 0.290652
O O7 0.742387 0.744800 0.852817
O O8 0.559130 0.446814 0.529838
O O9 0.477582 0.387538 0.891417
O O10 0.427164 0.318251 0.485756
O O11 0.821586 0.019432 0.747540
O O12 0.683176 0.939394 0.516132
O O13 0.398415 0.219801 0.089082
O O14 0.660931 0.603321 0.650821
#
# Coordination Sequence:
#
# PCOD9347001 Si02
#       7
#     4   4   4   4   4   4   4
#     4  12  28  53  84 123 165 225 287 347 426 514
#     4  12  30  49  80 127 162 224 282 354 434 518
#     4  12  27  49  85 120 164 218 286 353 435 511
#     4  12  28  52  84 118 177 223 288 357 434 511
#     4  12  27  52  83 117 172 223 280 356 432 518
#     4  12  26  49  80 120 161 222 279 360 425 513
#     4  12  26  52  78 119 175 211 284 351 438 515
#
# _framework density 24.544803000000002
#
# number of rings (size 3 to 8) (size 9 to 14) (size 15 to 20)
#    0.000    0.000    5.714    2.571    6.000    5.714 
#    0.000    0.000    0.000    0.000    0.000    0.000 
#    0.000    0.000    0.000    0.000    0.000    0.000 
#
# Total GULP energy -156598.894608 kJ/mol
# GULP energy per Si atom -5592.817665 kJ/mol
# Density = 2.448894 g / cm^3
# Si number density = 24.544803 Si / 1000 Ang^3
#
#
#
# Elastic Constant Matrix: (Units=GPa)
#
#
# Indices 1 2 3 4 5 6 
#
# 1 86.5102 37.7463 17.0734 0.0000 0.0000 0.0000
# 2 37.7463 176.0528 50.2507 0.0000 0.0000 0.0000
# 3 17.0734 50.2507 95.8395 0.0000 0.0000 0.0000
# 4 0.0000 0.0000 0.0000 59.1134 0.0000 0.0000
# 5 0.0000 0.0000 0.0000 0.0000 30.5927 0.0000
# 6 0.0000 0.0000 0.0000 0.0000 0.0000 49.1345
#
#
#
# Elastic Compliance Matrix: (Units=1/GPa)
#
#
# Indices 1 2 3 4 5 6 
#
# 1 0.012832 -0.002468 -0.000992 0.000000 0.000000 0.000000
# 2 -0.002468 0.007155 -0.003312 0.000000 0.000000 0.000000
# 3 -0.000992 -0.003312 0.012347 0.000000 0.000000 0.000000
# 4 0.000000 0.000000 0.000000 0.016917 0.000000 0.000000
# 5 0.000000 0.000000 0.000000 0.000000 0.032688 0.000000
# 6 0.000000 0.000000 0.000000 0.000000 0.000000 0.020352
#
#
# Mechanical properties :
#
#
# Convention : Reuss Voigt Hill
#
# Bulk Modulus (GPa) = 53.21842 63.17148 58.19495
# Shear Modulus (GPa) = 40.95114 44.65692 42.80403
#
# Velocity S-wave (km/s) = 4.08907 4.27007 4.18055
# Velocity P-wave (km/s) = 6.63500 7.07845 6.86031
#
# Compressibility (1/GPa) = 0.01879049
#
# Stress axis : x y z
#
# Youngs Moduli (GPa) = 77.93033 139.77210 80.99043
#
# Poissons Ratio (x) = 0.34497 0.08033
# Poissons Ratio (y) = 0.19234 0.26821
# Poissons Ratio (z) = 0.07730 0.46287
#
# Static dielectric constant tensor:
#      x y z
#    x 2.004470 0.000000 0.000000 
#    y 0.000000 1.944960 0.000000 
#    z 0.000000 0.000000 2.105980 
# 
# From -- ./inp_files/1392.got.cif
#   From: 2010.05.17/outbox.cif.g08.bks.cpg/sg33_1_cif.got.tgz:1392.got - 2010.06.03 17:15:25.
