data_PCOD9347299
_publ_section_title
;
Structure prediction by ZEFSAII (Michael W. Deem and Ramdas Pophale) SiO2 
 PCOD9347299
Probable space group: P N N 2
;
_chemical_formula_sum "Si O2"
_cell_formula_units_Z 30
_cell_length_a 5.378134
_cell_length_b 15.264392
_cell_length_c 17.732920
_cell_angle_alpha 90.000000
_cell_angle_beta 90.000000
_cell_angle_gamma 90.000000
_cell_volume 1455.765370
_symmetry_space_group_name_H-M "P N N 2"
_symmetry_group_IT_number 34
_symmetry_cell_setting 'orthorhombic'
loop_
_space_group_symop_operation_xyz
x,y,z
-x,-y,z
1/2-x,1/2+y,1/2+z
1/2+x,1/2-y,1/2+z
loop_
_atom_site_type_symbol
_atom_site_label
_atom_site_fract_x
_atom_site_fract_y
_atom_site_fract_z
Si Si1 0.914514 0.785692 0.465520
Si Si2 0.808016 0.428111 0.656667
Si Si3 0.906529 0.688133 0.880386
Si Si4 0.157641 0.411943 0.415521
Si Si5 0.427163 0.741397 0.139427
Si Si6 0.931643 0.171812 0.248478
Si Si7 0.329979 0.317484 0.285180
Si Si8 0.000000 0.000000 0.021759
O O1 0.667746 0.826211 0.424512
O O2 0.937917 0.682177 0.443911
O O3 0.894393 0.793175 0.555625
O O4 0.177118 0.822829 0.436846
O O5 0.587145 0.407234 0.714322
O O6 0.707692 0.465530 0.578260
O O7 0.000000 0.500000 0.685750
O O8 0.926647 0.333806 0.639054
O O9 0.794121 0.643629 0.803711
O O10 0.953489 0.783876 0.842055
O O11 0.217364 0.400488 0.326965
O O12 0.399209 0.425648 0.467250
O O13 0.000000 0.500000 0.426825
O O14 0.172757 0.771438 0.178915
O O15 0.565378 0.679722 0.200758
O O16 0.126553 0.238546 0.287317
#
# Coordination Sequence:
#
# PCOD9347299 Si02
#       8
#     4   4   4   4   4   4   4   2
#     4  11  22  35  57  84 119 157 207 258 307 363
#     4  11  22  36  52  87 122 169 211 239 306 380
#     4  10  20  36  56  82 112 158 198 256 306 350
#     4  11  23  34  55  82 122 172 204 250 300 378
#     4  10  22  34  58  80 120 167 204 259 309 360
#     4  10  19  39  57  77 121 166 199 255 298 367
#     4   9  21  37  55  80 117 166 204 247 300 363
#     4  12  24  36  52  86 128 172 198 232 296 370
#
# _framework density 20.607717000000001
#
# number of rings (size 3 to 8) (size 9 to 14) (size 15 to 20)
#    0.000    1.600    2.667    3.600   11.200    0.000 
#    0.000    0.000    0.000    0.000    0.000    0.000 
#    0.000   43.733    0.000    0.000    0.000    0.000 
#
# Total GULP energy -167179.857841 kJ/mol
# GULP energy per Si atom -5572.661928 kJ/mol
# Density = 2.056081 g / cm^3
# Si number density = 20.607717 Si / 1000 Ang^3
#
#
#
# Elastic Constant Matrix: (Units=GPa)
#
#
# Indices 1 2 3 4 5 6 
#
# 1 115.9626 18.2963 61.4232 0.0000 0.0000 0.0000
# 2 18.2963 33.1931 19.9753 0.0000 0.0000 0.0000
# 3 61.4232 19.9753 161.6896 0.0000 0.0000 0.0000
# 4 0.0000 0.0000 0.0000 25.7022 0.0000 0.0000
# 5 0.0000 0.0000 0.0000 0.0000 20.8157 0.0000
# 6 0.0000 0.0000 0.0000 0.0000 0.0000 22.2708
#
#
#
# Elastic Compliance Matrix: (Units=1/GPa)
#
#
# Indices 1 2 3 4 5 6 
#
# 1 0.011249 -0.003920 -0.003789 0.000000 0.000000 0.000000
# 2 -0.003920 0.033913 -0.002700 0.000000 0.000000 0.000000
# 3 -0.003789 -0.002700 0.007958 0.000000 0.000000 0.000000
# 4 0.000000 0.000000 0.000000 0.038907 0.000000 0.000000
# 5 0.000000 0.000000 0.000000 0.000000 0.048041 0.000000
# 6 0.000000 0.000000 0.000000 0.000000 0.000000 0.044902
#
#
# Mechanical properties :
#
#
# Convention : Reuss Voigt Hill
#
# Bulk Modulus (GPa) = 30.95976 56.69276 43.82626
# Shear Modulus (GPa) = 23.08883 27.83444 25.46163
#
# Velocity S-wave (km/s) = 3.35086 3.67915 3.51884
# Velocity P-wave (km/s) = 5.47969 6.75414 6.15002
#
# Compressibility (1/GPa) = 0.03229999
#
# Stress axis : x y z
#
# Youngs Moduli (GPa) = 88.89714 29.48749 125.66513
#
# Poissons Ratio (x) = 0.11560 0.47614
# Poissons Ratio (y) = 0.34851 0.33934
# Poissons Ratio (z) = 0.33683 0.07963
#
# Static dielectric constant tensor:
#      x y z
#    x 1.894370 0.000000 0.000000 
#    y 0.000000 1.730720 0.000000 
#    z 0.000000 0.000000 1.775260 
# 
# From -- ./inp_files/7241.got.cif
#   From: 2010.05.17/outbox.cif.g08.bks.cpg/sg34_4_cif.got.tgz:7241.got - 2010.06.03 17:23:11.
