data_PCOD9347201
_publ_section_title
;
Structure prediction by ZEFSAII (Michael W. Deem and Ramdas Pophale) SiO2 
 PCOD9347201
Probable space group: P N N 2
;
_chemical_formula_sum "Si O2"
_cell_formula_units_Z 32
_cell_length_a 12.830488
_cell_length_b 8.357060
_cell_length_c 14.466834
_cell_angle_alpha 90.000000
_cell_angle_beta 90.000000
_cell_angle_gamma 90.000000
_cell_volume 1551.208562
_symmetry_space_group_name_H-M "P N N 2"
_symmetry_group_IT_number 34
_symmetry_cell_setting 'orthorhombic'
loop_
_space_group_symop_operation_xyz
x,y,z
-x,-y,z
1/2-x,1/2+y,1/2+z
1/2+x,1/2-y,1/2+z
loop_
_atom_site_type_symbol
_atom_site_label
_atom_site_fract_x
_atom_site_fract_y
_atom_site_fract_z
Si Si1 0.469756 0.182373 0.358580
Si Si2 0.414140 0.313492 0.170520
Si Si3 0.827082 0.724794 0.974812
Si Si4 0.479137 0.186220 0.690246
Si Si5 0.784232 0.184996 0.282967
Si Si6 0.631540 0.319939 0.129853
Si Si7 0.304344 0.632613 0.659704
Si Si8 0.672060 0.862483 0.522744
O O1 0.453455 0.301950 0.275469
O O2 0.561928 0.236794 0.425303
O O3 0.366182 0.169315 0.419800
O O4 0.500000 0.000000 0.327198
O O5 0.516711 0.245338 0.118032
O O6 0.389948 0.491193 0.137377
O O7 0.306280 0.220521 0.169463
O O8 0.747175 0.695855 0.890263
O O9 0.812304 0.869790 0.046875
O O10 0.827609 0.556607 0.031742
O O11 0.397090 0.237597 0.767897
O O12 0.587769 0.280180 0.688004
O O13 0.412891 0.205244 0.594944
O O14 0.500000 0.000000 0.699837
O O15 0.692535 0.270634 0.223406
O O16 0.794225 0.017469 0.228141
O O17 0.715790 0.294394 0.049618
#
# Coordination Sequence:
#
# PCOD9347201 Si02
#       8
#     4   4   4   4   4   4   4   4
#     4  10  19  35  65  97 122 162 229 288 337 408
#     4  11  22  38  64  90 130 178 216 271 351 416
#     4  11  20  40  65  98 135 172 233 284 345 426
#     4  11  20  42  70  92 131 177 225 280 360 415
#     4  11  25  41  65  99 138 170 226 301 347 410
#     4  10  22  41  57  92 130 174 216 261 348 414
#     4  12  22  40  67 100 129 181 232 285 358 412
#     4  10  18  38  67  91 125 171 220 277 336 414
#
# _framework density 20.629076999999999
#
# number of rings (size 3 to 8) (size 9 to 14) (size 15 to 20)
#    0.000    1.250    5.000    3.000    0.000    0.000 
#    4.500    3.750    2.750    0.000    0.000    0.000 
#    0.000    0.000    0.000    0.000    0.000    0.000 
#
# Total GULP energy -178464.266052 kJ/mol
# GULP energy per Si atom -5577.008314 kJ/mol
# Density = 2.058212 g / cm^3
# Si number density = 20.629077 Si / 1000 Ang^3
#
#
#
# Elastic Constant Matrix: (Units=GPa)
#
#
# Indices 1 2 3 4 5 6 
#
# 1 181.6260 37.5125 35.0231 0.0000 0.0000 0.0000
# 2 37.5125 25.9775 11.8343 0.0000 0.0000 0.0000
# 3 35.0231 11.8343 70.0404 0.0000 0.0000 0.0000
# 4 0.0000 0.0000 0.0000 20.3246 0.0000 0.0000
# 5 0.0000 0.0000 0.0000 0.0000 30.6956 0.0000
# 6 0.0000 0.0000 0.0000 0.0000 0.0000 1.3905
#
#
#
# Elastic Compliance Matrix: (Units=1/GPa)
#
#
# Indices 1 2 3 4 5 6 
#
# 1 0.008164 -0.010758 -0.002265 0.000000 0.000000 0.000000
# 2 -0.010758 0.055880 -0.004062 0.000000 0.000000 0.000000
# 3 -0.002265 -0.004062 0.016096 0.000000 0.000000 0.000000
# 4 0.000000 0.000000 0.000000 0.049201 0.000000 0.000000
# 5 0.000000 0.000000 0.000000 0.000000 0.032578 0.000000
# 6 0.000000 0.000000 0.000000 0.000000 0.000000 0.719172
#
#
# Mechanical properties :
#
#
# Convention : Reuss Voigt Hill
#
# Bulk Modulus (GPa) = 21.75291 49.59817 35.67554
# Shear Modulus (GPa) = 5.37295 23.36709 14.37002
#
# Velocity S-wave (km/s) = 1.61561 3.36925 2.64216
# Velocity P-wave (km/s) = 3.74806 6.26345 5.16134
#
# Compressibility (1/GPa) = 0.04597086
#
# Stress axis : x y z
#
# Youngs Moduli (GPa) = 122.48170 17.89537 62.12574
#
# Poissons Ratio (x) = 0.19252 0.14071
# Poissons Ratio (y) = 1.31766 0.25237
# Poissons Ratio (z) = 0.27740 0.07270
#
# Static dielectric constant tensor:
#      x y z
#    x 1.782440 0.000000 0.000000 
#    y 0.000000 1.785690 0.000000 
#    z 0.000000 0.000000 1.758070 
# 
# From -- ./inp_files/6841.got.cif
#   From: 2010.05.17/outbox.cif.g08.bks.cpg/sg34_4_cif.got.tgz:6841.got - 2010.06.03 17:23:11.
