data_PCOD9347500
_publ_section_title
;
Structure prediction by ZEFSAII (Michael W. Deem and Ramdas Pophale) SiO2 
 PCOD9347500
Probable space group: P N N 2
;
_chemical_formula_sum "Si O2"
_cell_formula_units_Z 22
_cell_length_a 12.913163
_cell_length_b 13.117187
_cell_length_c 5.097006
_cell_angle_alpha 90.000000
_cell_angle_beta 90.000000
_cell_angle_gamma 90.000000
_cell_volume 863.353170
_symmetry_space_group_name_H-M "P N N 2"
_symmetry_group_IT_number 34
_symmetry_cell_setting 'orthorhombic'
loop_
_space_group_symop_operation_xyz
x,y,z
-x,-y,z
1/2-x,1/2+y,1/2+z
1/2+x,1/2-y,1/2+z
loop_
_atom_site_type_symbol
_atom_site_label
_atom_site_fract_x
_atom_site_fract_y
_atom_site_fract_z
Si Si1 0.000000 0.000000 0.591720
Si Si2 0.925193 0.305984 0.771561
Si Si3 0.677103 0.004678 0.433107
Si Si4 0.764251 0.725109 0.974257
Si Si5 0.043216 0.798340 0.280193
Si Si6 0.195690 0.047587 0.925577
O O1 0.998313 0.901830 0.400781
O O2 0.901913 0.005494 0.787113
O O3 0.908651 0.423097 0.845751
O O4 0.809042 0.256134 0.724693
O O5 0.831750 0.197500 0.285625
O O6 0.978760 0.239350 0.992733
O O7 0.711164 0.972718 0.724113
O O8 0.664463 0.125893 0.461824
O O9 0.768398 0.984948 0.215678
O O10 0.518747 0.788942 0.994662
O O11 0.818039 0.831148 0.914065
#
# Coordination Sequence:
#
# PCOD9347500 Si02
#       6
#     2   4   4   4   4   4
#     4  12  26  36  60  96 130 158 192 270 336 352
#     4   9  19  37  54  84 113 155 199 248 289 361
#     4  11  20  36  62  83 114 161 207 250 296 354
#     4   9  21  36  60  82 121 154 210 247 293 370
#     4  10  21  36  56  82 125 154 193 243 309 369
#     4  11  24  36  56  91 124 153 199 254 311 364
#
# _framework density 25.482040999999999
#
# number of rings (size 3 to 8) (size 9 to 14) (size 15 to 20)
#    1.091    0.727    3.636    0.000    5.091    2.909 
#    0.000    0.000    0.000    1.091    0.000    7.636 
#    0.000    0.000    0.000    0.000    0.000    0.000 
#
# Total GULP energy -122856.726618 kJ/mol
# GULP energy per Si atom -5584.396664 kJ/mol
# Density = 2.542404 g / cm^3
# Si number density = 25.482041 Si / 1000 Ang^3
#
#
#
# Elastic Constant Matrix: (Units=GPa)
#
#
# Indices 1 2 3 4 5 6 
#
# 1 49.6863 20.8930 5.8447 0.0000 0.0000 0.0000
# 2 20.8930 186.9278 8.9603 0.0000 0.0000 0.0000
# 3 5.8447 8.9603 82.0957 0.0000 0.0000 0.0000
# 4 0.0000 0.0000 0.0000 104.4517 0.0000 0.0000
# 5 0.0000 0.0000 0.0000 0.0000 2.1539 0.0000
# 6 0.0000 0.0000 0.0000 0.0000 0.0000 24.0850
#
#
#
# Elastic Compliance Matrix: (Units=1/GPa)
#
#
# Indices 1 2 3 4 5 6 
#
# 1 0.021248 -0.002314 -0.001260 0.000000 0.000000 0.000000
# 2 -0.002314 0.005630 -0.000450 0.000000 0.000000 0.000000
# 3 -0.001260 -0.000450 0.012320 0.000000 0.000000 0.000000
# 4 0.000000 0.000000 0.000000 0.009574 0.000000 0.000000
# 5 0.000000 0.000000 0.000000 0.000000 0.464264 0.000000
# 6 0.000000 0.000000 0.000000 0.000000 0.000000 0.041520
#
#
# Mechanical properties :
#
#
# Convention : Reuss Voigt Hill
#
# Bulk Modulus (GPa) = 32.10396 43.34509 37.72453
# Shear Modulus (GPa) = 8.72622 45.00559 26.86591
#
# Velocity S-wave (km/s) = 1.85254 4.20714 3.25053
# Velocity P-wave (km/s) = 4.14751 6.37550 5.37815
#
# Compressibility (1/GPa) = 0.03114880
#
# Stress axis : x y z
#
# Youngs Moduli (GPa) = 47.06388 177.62288 81.17079
#
# Poissons Ratio (x) = 0.41110 0.10228
# Poissons Ratio (y) = 0.10893 0.03650
# Poissons Ratio (z) = 0.05931 0.07988
#
# Static dielectric constant tensor:
#      x y z
#    x 2.078980 0.000000 0.000000 
#    y 0.000000 -1.702380 0.000000 
#    z 0.000000 0.000000 2.004120 
# 
# From -- ./inp_files/1225.got.cif
#   From: 2010.05.17/outbox.cif.g08.bks.cpg/sg34_1_cif.got.tgz:1225.got - 2010.06.03 17:23:11.
