data_PCOD9347826
_publ_section_title
;
Structure prediction by ZEFSAII (Michael W. Deem and Ramdas Pophale) SiO2 
 PCOD9347826
Probable space group: P N N 2
;
_chemical_formula_sum "Si O2"
_cell_formula_units_Z 20
_cell_length_a 23.101600
_cell_length_b 5.600947
_cell_length_c 5.299347
_cell_angle_alpha 90.000000
_cell_angle_beta 90.000000
_cell_angle_gamma 90.000000
_cell_volume 685.686945
_symmetry_space_group_name_H-M "P N N 2"
_symmetry_group_IT_number 34
_symmetry_cell_setting 'orthorhombic'
loop_
_space_group_symop_operation_xyz
x,y,z
-x,-y,z
1/2-x,1/2+y,1/2+z
1/2+x,1/2-y,1/2+z
loop_
_atom_site_type_symbol
_atom_site_label
_atom_site_fract_x
_atom_site_fract_y
_atom_site_fract_z
Si Si1 0.324947 0.932293 0.827790
Si Si2 0.476158 0.755686 0.143284
Si Si3 0.779737 0.065982 0.102069
Si Si4 0.926353 0.281549 0.270320
Si Si5 0.621025 0.528329 0.271097
O O1 0.299290 0.173706 0.697087
O O2 0.305212 0.670311 0.735923
O O3 0.289449 0.948783 0.089900
O O4 0.393180 0.965235 0.769942
O O5 0.500000 0.500000 0.236411
O O6 0.492714 0.235243 0.865037
O O7 0.409012 0.725661 0.212327
O O8 0.500000 0.000000 0.263613
O O9 0.811655 0.041133 0.830701
O O10 0.908588 0.143265 0.020232
O O11 0.894895 0.169542 0.518012
#
# Coordination Sequence:
#
# PCOD9347826 Si02
#       5
#     4   4   4   4   4
#     4  11  24  43  71 106 145 186 236 294 359 428
#     4  10  24  44  70 100 138 186 238 292 348 416
#     4  11  24  43  71 106 145 186 236 294 359 428
#     4  10  24  47  71 104 144 189 238 296 357 424
#     4  10  24  47  71 104 144 189 238 296 357 424
#
# _framework density 29.167829000000001
#
# number of rings (size 3 to 8) (size 9 to 14) (size 15 to 20)
#    0.000    1.600    0.000    2.400    0.000   24.800 
#    0.000    8.000    0.000    0.000    0.000    0.000 
#    0.000    0.000    0.000    0.000    0.000    0.000 
#
# Total GULP energy -111656.038078 kJ/mol
# GULP energy per Si atom -5582.801904 kJ/mol
# Density = 2.910144 g / cm^3
# Si number density = 29.167829 Si / 1000 Ang^3
#
#
#
# Elastic Constant Matrix: (Units=GPa)
#
#
# Indices 1 2 3 4 5 6 
#
# 1 187.7985 36.2164 35.5730 0.0000 0.0000 0.0000
# 2 36.2164 204.8956 44.8045 0.0000 0.0000 0.0000
# 3 35.5730 44.8045 141.3315 0.0000 0.0000 0.0000
# 4 0.0000 0.0000 0.0000 68.4224 0.0000 0.0000
# 5 0.0000 0.0000 0.0000 0.0000 58.2795 0.0000
# 6 0.0000 0.0000 0.0000 0.0000 0.0000 61.1670
#
#
#
# Elastic Compliance Matrix: (Units=1/GPa)
#
#
# Indices 1 2 3 4 5 6 
#
# 1 0.005695 -0.000745 -0.001197 0.000000 0.000000 0.000000
# 2 -0.000745 0.005341 -0.001506 0.000000 0.000000 0.000000
# 3 -0.001197 -0.001506 0.007854 0.000000 0.000000 0.000000
# 4 0.000000 0.000000 0.000000 0.014615 0.000000 0.000000
# 5 0.000000 0.000000 0.000000 0.000000 0.017159 0.000000
# 6 0.000000 0.000000 0.000000 0.000000 0.000000 0.016349
#
#
# Mechanical properties :
#
#
# Convention : Reuss Voigt Hill
#
# Bulk Modulus (GPa) = 83.36846 85.24592 84.30719
# Shear Modulus (GPa) = 64.17822 65.40257 64.79040
#
# Velocity S-wave (km/s) = 4.69583 4.74041 4.71818
# Velocity P-wave (km/s) = 7.61876 7.69750 7.65823
#
# Compressibility (1/GPa) = 0.01199494
#
# Stress axis : x y z
#
# Youngs Moduli (GPa) = 175.58318 187.21414 127.31840
#
# Poissons Ratio (x) = 0.13945 0.15245
# Poissons Ratio (y) = 0.13078 0.19172
# Poissons Ratio (z) = 0.21024 0.28192
#
# Static dielectric constant tensor:
#      x y z
#    x 2.789320 0.000000 0.000000 
#    y 0.000000 2.310000 0.000000 
#    z 0.000000 0.000000 2.347870 
# 
# From -- ./inp_files/1787.got.cif
#   From: 2010.05.17/outbox.cif.g08.bks.cpg/sg34_1_cif.got.tgz:1787.got - 2010.06.03 17:23:11.
