data_PCOD9347151
_publ_section_title
;
Structure prediction by ZEFSAII (Michael W. Deem and Ramdas Pophale) SiO2 
 PCOD9347151
Probable space group: P N N 2
;
_chemical_formula_sum "Si O2"
_cell_formula_units_Z 16
_cell_length_a 5.400467
_cell_length_b 7.082724
_cell_length_c 12.485610
_cell_angle_alpha 90.000000
_cell_angle_beta 90.000000
_cell_angle_gamma 90.000000
_cell_volume 477.574798
_symmetry_space_group_name_H-M "P N N 2"
_symmetry_group_IT_number 34
_symmetry_cell_setting 'orthorhombic'
loop_
_space_group_symop_operation_xyz
x,y,z
-x,-y,z
1/2-x,1/2+y,1/2+z
1/2+x,1/2-y,1/2+z
loop_
_atom_site_type_symbol
_atom_site_label
_atom_site_fract_x
_atom_site_fract_y
_atom_site_fract_z
Si Si1 0.264290 0.713006 0.536140
Si Si2 0.236493 0.765450 0.093895
Si Si3 0.484673 0.267704 0.786020
Si Si4 0.483224 0.776563 0.345020
O O1 0.250023 0.491756 0.568406
O O2 0.543641 0.781820 0.484355
O O3 0.201934 0.711165 0.396077
O O4 0.003818 0.810323 0.558683
O O5 0.945976 0.730439 0.151098
O O6 0.500000 0.500000 0.796813
O O7 0.751779 0.181289 0.820526
O O8 0.192676 0.240303 0.728947
O O9 0.500000 0.000000 0.328225
#
# Coordination Sequence:
#
# PCOD9347151 Si02
#       4
#     4   4   4   4
#     4  10  19  32  51  84 110 144 185 251 284 338
#     4  10  19  32  57  79 107 145 200 240 279 335
#     4  10  18  32  51  80 107 145 192 240 279 333
#     4  10  21  32  51  81 121 145 182 239 301 343
#
# _framework density 33.502609999999997
#
# number of rings (size 3 to 8) (size 9 to 14) (size 15 to 20)
#    0.000    2.000    2.500    3.000    7.000    0.000 
#    0.000    0.000    0.000    0.000   32.500    0.000 
#    0.000    0.000    0.000    0.000    0.000    0.000 
#
# Total GULP energy -89320.834533 kJ/mol
# GULP energy per Si atom -5582.552158 kJ/mol
# Density = 3.342636 g / cm^3
# Si number density = 33.502610 Si / 1000 Ang^3
#
#
#
# Elastic Constant Matrix: (Units=GPa)
#
#
# Indices 1 2 3 4 5 6 
#
# 1 562.1407 43.9578 154.2065 0.0000 0.0000 0.0000
# 2 43.9578 180.6579 27.5228 0.0000 0.0000 0.0000
# 3 154.2065 27.5228 441.2435 0.0000 0.0000 0.0000
# 4 0.0000 0.0000 0.0000 53.3001 0.0000 0.0000
# 5 0.0000 0.0000 0.0000 0.0000 140.3854 0.0000
# 6 0.0000 0.0000 0.0000 0.0000 0.0000 1.3247
#
#
#
# Elastic Compliance Matrix: (Units=1/GPa)
#
#
# Indices 1 2 3 4 5 6 
#
# 1 0.001993 -0.000383 -0.000673 0.000000 0.000000 0.000000
# 2 -0.000383 0.005662 -0.000219 0.000000 0.000000 0.000000
# 3 -0.000673 -0.000219 0.002515 0.000000 0.000000 0.000000
# 4 0.000000 0.000000 0.000000 0.018762 0.000000 0.000000
# 5 0.000000 0.000000 0.000000 0.000000 0.007123 0.000000
# 6 0.000000 0.000000 0.000000 0.000000 0.000000 0.754906
#
#
# Mechanical properties :
#
#
# Convention : Reuss Voigt Hill
#
# Bulk Modulus (GPa) = 131.22030 181.71293 156.46661
# Shear Modulus (GPa) = 6.28101 102.89237 54.58669
#
# Velocity S-wave (km/s) = 1.37071 5.54783 4.04087
# Velocity P-wave (km/s) = 6.46199 9.76699 8.28105
#
# Compressibility (1/GPa) = 0.00762077
#
# Stress axis : x y z
#
# Youngs Moduli (GPa) = 501.65865 176.62106 397.59212
#
# Poissons Ratio (x) = 0.06756 0.26750
# Poissons Ratio (y) = 0.19190 0.08726
# Poissons Ratio (z) = 0.33751 0.03876
#
# Static dielectric constant tensor:
#      x y z
#    x 2.661050 0.000000 0.000000 
#    y 0.000000 2.110800 0.000000 
#    z 0.000000 0.000000 3.009180 
# 
# From -- ./inp_files/5966.got.cif
#   From: 2010.05.17/outbox.cif.g08.bks.cpg/sg34_3_cif.got.tgz:5966.got - 2010.06.03 17:23:11.
