data_PCOD9347370
_publ_section_title
;
Structure prediction by ZEFSAII (Michael W. Deem and Ramdas Pophale) SiO2 
 PCOD9347370
Probable space group: P N N 2
;
_chemical_formula_sum "Si O2"
_cell_formula_units_Z 24
_cell_length_a 15.087581
_cell_length_b 9.182490
_cell_length_c 9.644965
_cell_angle_alpha 90.000000
_cell_angle_beta 90.000000
_cell_angle_gamma 90.000000
_cell_volume 1336.228513
_symmetry_space_group_name_H-M "P N N 2"
_symmetry_group_IT_number 34
_symmetry_cell_setting 'orthorhombic'
loop_
_space_group_symop_operation_xyz
x,y,z
-x,-y,z
1/2-x,1/2+y,1/2+z
1/2+x,1/2-y,1/2+z
loop_
_atom_site_type_symbol
_atom_site_label
_atom_site_fract_x
_atom_site_fract_y
_atom_site_fract_z
Si Si1 0.986812 0.169671 0.683400
Si Si2 0.012869 0.832124 0.359056
Si Si3 0.599627 0.070204 0.883173
Si Si4 0.666252 0.145681 0.176902
Si Si5 0.843602 0.333356 0.178101
Si Si6 0.406582 0.088530 0.371515
O O1 0.958865 0.179694 0.521291
O O2 0.923615 0.266343 0.780375
O O3 0.081670 0.248782 0.693463
O O4 0.000000 0.000000 0.719617
O O5 0.083860 0.765271 0.255645
O O6 0.923528 0.736494 0.345267
O O7 0.000000 0.000000 0.328677
O O8 0.500000 0.000000 0.899735
O O9 0.652639 0.982129 0.767443
O O10 0.650400 0.069061 0.028307
O O11 0.752553 0.245120 0.180485
O O12 0.659890 0.021103 0.293106
O O13 0.872919 0.369422 0.022662
O O14 0.500000 0.000000 0.381252
#
# Coordination Sequence:
#
# PCOD9347370 Si02
#       6
#     4   4   4   4   4   4
#     4   9  19  37  60  80 107 149 186 213 265 341
#     4   9  18  35  59  81 107 147 186 216 264 339
#     4   9  18  38  59  75 107 152 182 211 271 343
#     4  10  21  36  55  80 109 144 182 223 274 326
#     4  11  22  35  56  85 109 138 184 235 275 309
#     4  10  20  37  57  79 111 146 180 224 275 326
#
# _framework density 17.960999000000001
#
# number of rings (size 3 to 8) (size 9 to 14) (size 15 to 20)
#    0.000    2.333    0.000    5.000    0.000    6.000 
#    0.000    5.000    0.000    0.000    0.000    0.000 
#    0.000    0.000    0.000    0.000    0.000    0.000 
#
# Total GULP energy -133856.395516 kJ/mol
# GULP energy per Si atom -5577.349813 kJ/mol
# Density = 1.792012 g / cm^3
# Si number density = 17.960999 Si / 1000 Ang^3
#
#
#
# Elastic Constant Matrix: (Units=GPa)
#
#
# Indices 1 2 3 4 5 6 
#
# 1 53.9156 29.2726 57.9019 0.0000 0.0000 0.0000
# 2 29.2726 147.9432 87.8843 0.0000 0.0000 0.0000
# 3 57.9019 87.8843 141.4939 0.0000 0.0000 0.0000
# 4 0.0000 0.0000 0.0000 10.7777 0.0000 0.0000
# 5 0.0000 0.0000 0.0000 0.0000 9.2012 0.0000
# 6 0.0000 0.0000 0.0000 0.0000 0.0000 19.1299
#
#
#
# Elastic Compliance Matrix: (Units=1/GPa)
#
#
# Indices 1 2 3 4 5 6 
#
# 1 0.033623 0.002410 -0.015256 0.000000 0.000000 0.000000
# 2 0.002410 0.010884 -0.007747 0.000000 0.000000 0.000000
# 3 -0.015256 -0.007747 0.018122 0.000000 0.000000 0.000000
# 4 0.000000 0.000000 0.000000 0.092784 0.000000 0.000000
# 5 0.000000 0.000000 0.000000 0.000000 0.108682 0.000000
# 6 0.000000 0.000000 0.000000 0.000000 0.000000 0.052274
#
#
# Mechanical properties :
#
#
# Convention : Reuss Voigt Hill
#
# Bulk Modulus (GPa) = 46.63319 77.05225 61.84272
# Shear Modulus (GPa) = 13.70980 19.04135 16.37558
#
# Velocity S-wave (km/s) = 2.76580 3.25953 3.02276
# Velocity P-wave (km/s) = 6.01826 7.56035 6.83295
#
# Compressibility (1/GPa) = 0.02144395
#
# Stress axis : x y z
#
# Youngs Moduli (GPa) = 29.74156 91.87521 55.18150
#
# Poissons Ratio (x) = -0.22141 0.84185
# Poissons Ratio (y) = -0.07167 0.42747
# Poissons Ratio (z) = 0.45374 0.71172
#
# Static dielectric constant tensor:
#      x y z
#    x 1.600790 0.000000 0.000000 
#    y 0.000000 1.639090 0.000000 
#    z 0.000000 0.000000 1.609820 
# 
# From -- ./inp_files/3533.got.cif
#   From: 2010.05.17/outbox.cif.g08.bks.cpg/sg34_2_cif.got.tgz:3533.got - 2010.06.03 17:23:11.
