data_PCOD9347293
_publ_section_title
;
Structure prediction by ZEFSAII (Michael W. Deem and Ramdas Pophale) SiO2 
 PCOD9347293
Probable space group: P N N 2
;
_chemical_formula_sum "Si O2"
_cell_formula_units_Z 18
_cell_length_a 11.137337
_cell_length_b 8.893159
_cell_length_c 10.457118
_cell_angle_alpha 90.000000
_cell_angle_beta 90.000000
_cell_angle_gamma 90.000000
_cell_volume 1035.736847
_symmetry_space_group_name_H-M "P N N 2"
_symmetry_group_IT_number 34
_symmetry_cell_setting 'orthorhombic'
loop_
_space_group_symop_operation_xyz
x,y,z
-x,-y,z
1/2-x,1/2+y,1/2+z
1/2+x,1/2-y,1/2+z
loop_
_atom_site_type_symbol
_atom_site_label
_atom_site_fract_x
_atom_site_fract_y
_atom_site_fract_z
Si Si1 0.139920 0.970251 0.257950
Si Si2 0.272902 0.815672 0.483211
Si Si3 0.358008 0.475555 0.474792
Si Si4 0.000000 0.500000 0.876524
Si Si5 0.180194 0.739038 0.756374
O O1 0.186348 0.866229 0.369840
O O2 0.207391 0.128339 0.270886
O O3 0.170446 0.911284 0.115798
O O4 0.000000 0.000000 0.264616
O O5 0.304154 0.641201 0.465211
O O6 0.395292 0.916750 0.461457
O O7 0.201976 0.818441 0.618768
O O8 0.500000 0.500000 0.466816
O O9 0.319188 0.364669 0.364464
O O10 0.066251 0.627630 0.788230
#
# Coordination Sequence:
#
# PCOD9347293 Si02
#       5
#     4   4   4   2   4
#     4   9  21  40  56  82 123 151 187 245 291 343
#     4  10  21  38  61  88 115 154 194 240 292 348
#     4  10  19  38  61  82 115 152 192 237 297 347
#     4  10  20  40  62  86 124 152 190 254 290 346
#     4  10  21  38  61  87 112 158 197 232 296 351
#
# _framework density 17.378931999999999
#
# number of rings (size 3 to 8) (size 9 to 14) (size 15 to 20)
#    0.000    2.222    2.222    0.000    0.000    4.444 
#   12.000    0.000    0.000    0.000    0.000    0.000 
#    0.000    0.000    0.000    0.000    0.000    0.000 
#
# Total GULP energy -100212.633737 kJ/mol
# GULP energy per Si atom -5567.368541 kJ/mol
# Density = 1.733938 g / cm^3
# Si number density = 17.378932 Si / 1000 Ang^3
#
#
#
# Elastic Constant Matrix: (Units=GPa)
#
#
# Indices 1 2 3 4 5 6 
#
# 1 69.5781 28.7623 70.5415 0.0000 0.0000 0.0000
# 2 28.7623 61.9717 91.6794 0.0000 0.0000 0.0000
# 3 70.5415 91.6794 206.4832 0.0000 0.0000 0.0000
# 4 0.0000 0.0000 0.0000 31.4512 0.0000 0.0000
# 5 0.0000 0.0000 0.0000 0.0000 23.1231 0.0000
# 6 0.0000 0.0000 0.0000 0.0000 0.0000 4.4062
#
#
#
# Elastic Compliance Matrix: (Units=1/GPa)
#
#
# Indices 1 2 3 4 5 6 
#
# 1 0.022138 0.002663 -0.008746 0.000000 0.000000 0.000000
# 2 0.002663 0.047345 -0.021931 0.000000 0.000000 0.000000
# 3 -0.008746 -0.021931 0.017568 0.000000 0.000000 0.000000
# 4 0.000000 0.000000 0.000000 0.031795 0.000000 0.000000
# 5 0.000000 0.000000 0.000000 0.000000 0.043247 0.000000
# 6 0.000000 0.000000 0.000000 0.000000 0.000000 0.226954
#
#
# Mechanical properties :
#
#
# Convention : Reuss Voigt Hill
#
# Bulk Modulus (GPa) = 32.23283 79.99995 56.11639
# Shear Modulus (GPa) = 10.97899 21.59940 16.28919
#
# Velocity S-wave (km/s) = 2.51617 3.52923 3.06485
# Velocity P-wave (km/s) = 5.19893 7.92086 6.69958
#
# Compressibility (1/GPa) = 0.03102427
#
# Stress axis : x y z
#
# Youngs Moduli (GPa) = 45.17096 21.12169 56.92058
#
# Poissons Ratio (x) = -0.05625 0.49781
# Poissons Ratio (y) = -0.12031 1.24833
# Poissons Ratio (z) = 0.39505 0.46322
#
# Static dielectric constant tensor:
#      x y z
#    x 1.596430 0.000000 0.000000 
#    y 0.000000 1.562280 0.000000 
#    z 0.000000 0.000000 1.625460 
# 
# From -- ./inp_files/2373.got.cif
#   From: 2010.05.17/outbox.cif.g08.bks.cpg/sg34_2_cif.got.tgz:2373.got - 2010.06.03 17:23:11.
