data_PCOD9347072
_publ_section_title
;
Structure prediction by ZEFSAII (Michael W. Deem and Ramdas Pophale) SiO2 
 PCOD9347072
Probable space group: P N A 21
;
_chemical_formula_sum "Si O2"
_cell_formula_units_Z 28
_cell_length_a 24.000000
_cell_length_b 6.000000
_cell_length_c 9.000000
_cell_angle_alpha 90.000000
_cell_angle_beta 90.000000
_cell_angle_gamma 90.000000
_cell_volume 1296.000000
_symmetry_space_group_name_H-M "P N A 21"
_symmetry_group_IT_number 33
_symmetry_cell_setting 'orthorhombic'
loop_
_space_group_symop_operation_xyz
x,y,z
-x,-y,1/2+z
1/2-x,1/2+y,1/2+z
1/2+x,1/2-y,z
loop_
_atom_site_type_symbol
_atom_site_label
_atom_site_fract_x
_atom_site_fract_y
_atom_site_fract_z
Si Si1 0.342765 0.297096 0.751350
Si Si2 0.587738 0.060488 0.138917
Si Si3 0.523246 0.239678 0.651921
Si Si4 0.950413 0.961072 0.840013
Si Si5 0.702494 0.501045 0.960954
Si Si6 0.755218 0.379413 0.256923
Si Si7 0.633881 0.134629 0.810862
O O1 0.394816 0.389616 0.844485
O O2 0.339439 0.372114 0.575926
O O3 0.286287 0.416752 0.807365
O O4 0.360343 0.039862 0.734234
O O5 0.567430 0.283405 0.216290
O O6 0.532064 0.910321 0.137292
O O7 0.609631 0.085847 0.973505
O O8 0.535015 0.354678 0.495863
O O9 0.504249 0.410548 0.779694
O O10 0.581151 0.132118 0.702676
O O11 0.742694 0.672453 0.872050
O O12 0.667144 0.366310 0.839467
O O13 0.734997 0.348854 0.084994
O O14 0.818378 0.466209 0.259007
#
# Coordination Sequence:
#
# PCOD9347072 Si02
#       7
#     4   4   4   4   4   4   4
#     4   9  22  41  65  94 133 179 221 283 345 408
#     4  11  21  44  70  94 136 183 225 290 351 419
#     4  11  27  40  69 101 133 182 231 289 353 421
#     4  11  23  43  65  95 139 173 233 283 352 414
#     4  10  23  42  67  97 139 182 223 292 344 429
#     4  10  23  42  67  99 139 176 234 281 357 426
#     4  12  23  42  71  98 135 183 229 288 358 419
#
# _framework density 21.604938000000001
#
# number of rings (size 3 to 8) (size 9 to 14) (size 15 to 20)
#    0.857    0.571    2.857    1.714    4.000    5.714 
#    0.000    0.000    0.000    0.000    0.000    0.000 
#    0.000    0.000    0.000    0.000    0.000    0.000 
#
# Total GULP energy -156090.924518 kJ/mol
# GULP energy per Si atom -5574.675876 kJ/mol
# Density = 2.155576 g / cm^3
# Si number density = 21.604938 Si / 1000 Ang^3
#
#
#
# Elastic Constant Matrix: (Units=GPa)
#
#
# Indices 1 2 3 4 5 6 
#
# 1 109.0943 6.7689 19.7641 0.0000 0.0000 0.0000
# 2 6.7689 3.7973 -10.4324 0.0000 0.0000 0.0000
# 3 19.7641 -10.4324 27.1986 0.0000 0.0000 0.0000
# 4 0.0000 0.0000 0.0000 17.4034 0.0000 0.0000
# 5 0.0000 0.0000 0.0000 0.0000 35.8278 0.0000
# 6 0.0000 0.0000 0.0000 0.0000 0.0000 20.6932
#
#
#
# Elastic Compliance Matrix: (Units=1/GPa)
#
#
# Indices 1 2 3 4 5 6 
#
# 1 0.000907 0.063703 0.023776 0.000000 0.000000 0.000000
# 2 0.063703 -0.420554 -0.207599 0.000000 0.000000 0.000000
# 3 0.023776 -0.207599 -0.060138 0.000000 0.000000 0.000000
# 4 0.000000 0.000000 0.000000 0.057460 0.000000 0.000000
# 5 0.000000 0.000000 0.000000 0.000000 0.027911 0.000000
# 6 0.000000 0.000000 0.000000 0.000000 0.000000 0.048325
#
#
# Mechanical properties :
#
#
# Convention : Reuss Voigt Hill
#
# Bulk Modulus (GPa) = -1.38884 19.14347 8.87732
# Shear Modulus (GPa) = -14.45688 23.05086 4.29699
#
# Velocity S-wave (km/s) = -2.58959 3.26993 1.41181
# Velocity P-wave (km/s) = 3.09606 4.81004 2.60297
#
# Compressibility (1/GPa) = -0.72002575
#
# Stress axis : x y z
#
# Youngs Moduli (GPa) = 1103.08711 -2.37782 -16.62852
#
# Poissons Ratio (x) = 0.15148 0.39535
# Poissons Ratio (y) = -70.27043 -3.45207
# Poissons Ratio (z) = -26.22650 -0.49363
#
# Static dielectric constant tensor:
#      x y z
#    x 1.768140 0.000000 0.000000 
#    y 0.000000 1.905530 0.000000 
#    z 0.000000 0.000000 1.754060 
# 
# From -- ./inp_files/5145.got.cif
#   From: 2010.05.17/outbox.ucp.g08.bks.cvg/sg33_3_cif.got.tgz:5145.got - 2010.06.11 10:35:07.
