data_PCOD9347216
_publ_section_title
;
Structure prediction by ZEFSAII (Michael W. Deem and Ramdas Pophale) SiO2 
 PCOD9347216
Probable space group: P N N 2
;
_chemical_formula_sum "Si O2"
_cell_formula_units_Z 32
_cell_length_a 12.512795
_cell_length_b 19.082584
_cell_length_c 4.891482
_cell_angle_alpha 90.000000
_cell_angle_beta 90.000000
_cell_angle_gamma 90.000000
_cell_volume 1167.970764
_symmetry_space_group_name_H-M "P N N 2"
_symmetry_group_IT_number 34
_symmetry_cell_setting 'orthorhombic'
loop_
_space_group_symop_operation_xyz
x,y,z
-x,-y,z
1/2-x,1/2+y,1/2+z
1/2+x,1/2-y,1/2+z
loop_
_atom_site_type_symbol
_atom_site_label
_atom_site_fract_x
_atom_site_fract_y
_atom_site_fract_z
Si Si1 0.319385 0.183789 0.981980
Si Si2 0.321846 0.312294 0.332927
Si Si3 0.857904 0.097690 0.324114
Si Si4 0.916375 0.798013 0.035018
Si Si5 0.685920 0.917032 0.489227
Si Si6 0.127730 0.441184 0.754767
Si Si7 0.577421 0.397560 0.037205
Si Si8 0.412903 0.843929 0.764704
O O1 0.355682 0.137881 0.719255
O O2 0.370592 0.247195 0.160915
O O3 0.203096 0.216114 0.912414
O O4 0.308502 0.124192 0.207726
O O5 0.369711 0.335065 0.623016
O O6 0.194738 0.306470 0.382733
O O7 0.324558 0.376072 0.121345
O O8 0.757089 0.057319 0.194680
O O9 0.973857 0.067479 0.395272
O O10 0.897622 0.839794 0.311943
O O11 0.969618 0.726114 0.140670
O O12 0.956115 0.854558 0.808384
O O13 0.808776 0.936397 0.581695
O O14 0.614721 0.983508 0.403267
O O15 0.067679 0.405240 0.494812
O O16 0.106382 0.386270 0.990847
#
# Coordination Sequence:
#
# PCOD9347216 Si02
#       8
#     4   4   4   4   4   4   4   4
#     4   9  17  30  47  65  87 119 160 205 247 281
#     4   9  17  30  47  65  87 119 160 205 247 281
#     4  10  19  30  45  67  96 128 160 195 238 294
#     4   9  17  30  47  65  87 119 160 205 247 281
#     4  10  19  30  45  67  96 128 160 195 238 294
#     4  10  19  30  45  67  96 128 160 195 238 294
#     4  10  19  30  45  67  96 128 160 195 238 294
#     4   9  17  30  47  65  87 119 160 205 247 281
#
# _framework density 27.397945
#
# number of rings (size 3 to 8) (size 9 to 14) (size 15 to 20)
#    0.000    2.500    0.000    3.000    0.000    6.500 
#    0.000    0.000    0.000    9.000    0.000    0.000 
#    0.000   28.000    0.000    0.000    0.000    0.000 
#
# Total GULP energy -178253.031886 kJ/mol
# GULP energy per Si atom -5570.407246 kJ/mol
# Density = 2.733559 g / cm^3
# Si number density = 27.397945 Si / 1000 Ang^3
#
#
#
# Elastic Constant Matrix: (Units=GPa)
#
#
# Indices 1 2 3 4 5 6 
#
# 1 89.1957 15.8891 8.6002 0.0000 0.0000 0.0000
# 2 15.8891 78.0272 16.5123 0.0000 0.0000 0.0000
# 3 8.6002 16.5123 163.3099 0.0000 0.0000 0.0000
# 4 0.0000 0.0000 0.0000 31.8148 0.0000 0.0000
# 5 0.0000 0.0000 0.0000 0.0000 31.4838 0.0000
# 6 0.0000 0.0000 0.0000 0.0000 0.0000 16.3923
#
#
#
# Elastic Compliance Matrix: (Units=1/GPa)
#
#
# Indices 1 2 3 4 5 6 
#
# 1 0.011657 -0.002293 -0.000382 0.000000 0.000000 0.000000
# 2 -0.002293 0.013547 -0.001249 0.000000 0.000000 0.000000
# 3 -0.000382 -0.001249 0.006270 0.000000 0.000000 0.000000
# 4 0.000000 0.000000 0.000000 0.031432 0.000000 0.000000
# 5 0.000000 0.000000 0.000000 0.000000 0.031762 0.000000
# 6 0.000000 0.000000 0.000000 0.000000 0.000000 0.061004
#
#
# Mechanical properties :
#
#
# Convention : Reuss Voigt Hill
#
# Bulk Modulus (GPa) = 42.32663 45.83735 44.08199
# Shear Modulus (GPa) = 29.17235 35.24026 32.20630
#
# Velocity S-wave (km/s) = 3.26661 3.59031 3.43228
# Velocity P-wave (km/s) = 5.45069 5.82697 5.64197
#
# Compressibility (1/GPa) = 0.02362579
#
# Stress axis : x y z
#
# Youngs Moduli (GPa) = 85.78843 73.81556 159.49637
#
# Poissons Ratio (x) = 0.16925 0.06093
# Poissons Ratio (y) = 0.19670 0.19922
# Poissons Ratio (z) = 0.03277 0.09220
#
# Static dielectric constant tensor:
#      x y z
#    x 2.661150 0.000000 0.000000 
#    y 0.000000 2.175780 0.000000 
#    z 0.000000 0.000000 2.028630 
# 
# From -- ./inp_files/1533.got.cif
#   From: 2010.05.17/outbox.cif.g08.bks.cpg/sg34_1_cif.got.tgz:1533.got - 2010.06.03 17:23:11.
