data_PCOD9347721
_publ_section_title
;
Structure prediction by ZEFSAII (Michael W. Deem and Ramdas Pophale) SiO2 
 PCOD9347721
Probable space group: P N N 2
;
_chemical_formula_sum "Si O2"
_cell_formula_units_Z 22
_cell_length_a 15.319628
_cell_length_b 5.157971
_cell_length_c 12.380522
_cell_angle_alpha 90.000000
_cell_angle_beta 90.000000
_cell_angle_gamma 90.000000
_cell_volume 978.286526
_symmetry_space_group_name_H-M "P N N 2"
_symmetry_group_IT_number 34
_symmetry_cell_setting 'orthorhombic'
loop_
_space_group_symop_operation_xyz
x,y,z
-x,-y,z
1/2-x,1/2+y,1/2+z
1/2+x,1/2-y,1/2+z
loop_
_atom_site_type_symbol
_atom_site_label
_atom_site_fract_x
_atom_site_fract_y
_atom_site_fract_z
Si Si1 0.500000 0.000000 0.912230
Si Si2 0.225160 0.011767 0.697047
Si Si3 0.670424 0.492814 0.638161
Si Si4 0.566440 0.700840 0.084196
Si Si5 0.398867 0.385169 0.399537
Si Si6 0.000000 0.500000 0.789836
Si Si7 0.000000 0.000000 0.272116
O O1 0.479503 0.757227 0.839032
O O2 0.576086 0.929806 0.998228
O O3 0.299368 0.793978 0.676408
O O4 0.155851 0.936183 0.605948
O O5 0.168563 0.982305 0.807127
O O6 0.257693 0.301436 0.678355
O O7 0.646394 0.542753 0.512595
O O8 0.582637 0.563315 0.699964
O O9 0.500000 0.500000 0.033761
O O10 0.520349 0.783328 0.197075
O O11 0.500000 0.500000 0.397850
O O12 0.420703 0.080564 0.370545
#
# Coordination Sequence:
#
# PCOD9347721 Si02
#       7
#     2   4   4   4   4   2   2
#     4  11  24  41  78 100 142 201 234 303 368 472
#     4  11  28  45  75 112 150 183 256 327 359 442
#     4  12  29  49  72 110 151 196 256 315 374 449
#     4  10  22  44  74 111 146 193 246 305 385 453
#     4  11  26  48  81 104 150 210 251 300 391 456
#     4   9  20  37  78 102 136 187 258 295 342 464
#     4  12  26  50  70 100 148 212 254 294 384 466
#
# _framework density 22.488299000000001
#
# number of rings (size 3 to 8) (size 9 to 14) (size 15 to 20)
#    0.000    1.091    1.818    3.273   15.273    5.091 
#    0.000    0.000    0.000    0.000    0.000    0.000 
#    0.000    0.000    0.000    0.000    0.000    0.000 
#
# Total GULP energy -122552.027302 kJ/mol
# GULP energy per Si atom -5570.546696 kJ/mol
# Density = 2.243711 g / cm^3
# Si number density = 22.488299 Si / 1000 Ang^3
#
#
#
# Elastic Constant Matrix: (Units=GPa)
#
#
# Indices 1 2 3 4 5 6 
#
# 1 64.3130 -8.7450 29.9916 0.0000 0.0000 0.0000
# 2 -8.7450 63.7600 21.3025 0.0000 0.0000 0.0000
# 3 29.9916 21.3025 137.2398 0.0000 0.0000 0.0000
# 4 0.0000 0.0000 0.0000 19.7926 0.0000 0.0000
# 5 0.0000 0.0000 0.0000 0.0000 16.1550 0.0000
# 6 0.0000 0.0000 0.0000 0.0000 0.0000 43.9874
#
#
#
# Elastic Compliance Matrix: (Units=1/GPa)
#
#
# Indices 1 2 3 4 5 6 
#
# 1 0.018252 0.004046 -0.004617 0.000000 0.000000 0.000000
# 2 0.004046 0.017438 -0.003591 0.000000 0.000000 0.000000
# 3 -0.004617 -0.003591 0.008853 0.000000 0.000000 0.000000
# 4 0.000000 0.000000 0.000000 0.050524 0.000000 0.000000
# 5 0.000000 0.000000 0.000000 0.000000 0.061900 0.000000
# 6 0.000000 0.000000 0.000000 0.000000 0.000000 0.022734
#
#
# Mechanical properties :
#
#
# Convention : Reuss Voigt Hill
#
# Bulk Modulus (GPa) = 27.60931 38.93455 33.27193
# Shear Modulus (GPa) = 24.98772 30.83792 27.91282
#
# Velocity S-wave (km/s) = 3.33700 3.70711 3.52691
# Velocity P-wave (km/s) = 5.21069 5.97280 5.60471
#
# Compressibility (1/GPa) = 0.03621966
#
# Stress axis : x y z
#
# Youngs Moduli (GPa) = 54.78842 57.34442 112.95842
#
# Poissons Ratio (x) = -0.23201 0.52149
# Poissons Ratio (y) = -0.22166 0.40563
# Poissons Ratio (z) = 0.25294 0.20592
#
# Static dielectric constant tensor:
#      x y z
#    x 1.822790 0.000000 0.000000 
#    y 0.000000 1.962510 0.000000 
#    z 0.000000 0.000000 1.863960 
# 
# From -- ./inp_files/5597.got.cif
#   From: 2010.05.17/outbox.cif.g08.bks.cpg/sg34_3_cif.got.tgz:5597.got - 2010.06.03 17:23:11.
