data_PCOD9347975
_publ_section_title
;
Structure prediction by ZEFSAII (Michael W. Deem and Ramdas Pophale) SiO2 
 PCOD9347975
Probable space group: P N N 2
;
_chemical_formula_sum "Si O2"
_cell_formula_units_Z 30
_cell_length_a 7.562739
_cell_length_b 22.158809
_cell_length_c 6.940829
_cell_angle_alpha 90.000000
_cell_angle_beta 90.000000
_cell_angle_gamma 90.000000
_cell_volume 1163.153071
_symmetry_space_group_name_H-M "P N N 2"
_symmetry_group_IT_number 34
_symmetry_cell_setting 'orthorhombic'
loop_
_space_group_symop_operation_xyz
x,y,z
-x,-y,z
1/2-x,1/2+y,1/2+z
1/2+x,1/2-y,1/2+z
loop_
_atom_site_type_symbol
_atom_site_label
_atom_site_fract_x
_atom_site_fract_y
_atom_site_fract_z
Si Si1 0.743972 0.463768 0.883720
Si Si2 0.401137 0.321061 0.789902
Si Si3 0.103638 0.252698 0.598208
Si Si4 0.500000 0.500000 0.535737
Si Si5 0.545065 0.395173 0.226350
Si Si6 0.613866 0.288984 0.454550
Si Si7 0.897466 0.588751 0.937623
Si Si8 0.328737 0.824374 0.729742
O O1 0.657458 0.489163 0.689359
O O2 0.810921 0.524599 0.991131
O O3 0.919592 0.425825 0.831256
O O4 0.614972 0.426639 0.028171
O O5 0.291920 0.262854 0.708248
O O6 0.524306 0.333049 0.610345
O O7 0.531724 0.300070 0.960210
O O8 0.187105 0.264391 0.092602
O O9 0.995461 0.250454 0.800759
O O10 0.108668 0.306477 0.442458
O O11 0.518032 0.445473 0.387293
O O12 0.673840 0.341731 0.305239
O O13 0.253524 0.371289 0.831103
O O14 0.352194 0.362759 0.224727
O O15 0.953870 0.629163 0.118934
#
# Coordination Sequence:
#
# PCOD9347975 Si02
#       8
#     4   4   4   2   4   4   4   4
#     4  11  28  51  84 116 156 209 284 340 425 489
#     4  11  24  47  76 114 165 214 276 336 422 501
#     4  11  25  43  75 115 156 224 263 329 415 507
#     4  12  26  52  82 118 152 210 280 354 418 496
#     4  12  26  50  80 121 157 212 276 345 414 508
#     4  11  25  45  75 114 160 214 262 332 413 505
#     4  11  24  55  79 112 161 213 266 354 406 497
#     4  11  24  47  78 112 165 212 261 333 422 491
#
# _framework density 25.791962000000002
#
# number of rings (size 3 to 8) (size 9 to 14) (size 15 to 20)
#    0.000    0.800    2.667    3.600    0.000    5.333 
#    7.200    1.333    0.000    0.000    0.000    0.000 
#    0.000    0.000    0.000    0.000    0.000    0.000 
#
# Total GULP energy -167047.774139 kJ/mol
# GULP energy per Si atom -5568.259138 kJ/mol
# Density = 2.573326 g / cm^3
# Si number density = 25.791962 Si / 1000 Ang^3
#
#
#
# Elastic Constant Matrix: (Units=GPa)
#
#
# Indices 1 2 3 4 5 6 
#
# 1 81.3668 27.6622 27.3992 0.0000 0.0000 0.0000
# 2 27.6622 147.6879 37.0073 0.0000 0.0000 0.0000
# 3 27.3992 37.0073 176.1573 0.0000 0.0000 0.0000
# 4 0.0000 0.0000 0.0000 39.1356 0.0000 0.0000
# 5 0.0000 0.0000 0.0000 0.0000 17.9846 0.0000
# 6 0.0000 0.0000 0.0000 0.0000 0.0000 52.6823
#
#
#
# Elastic Compliance Matrix: (Units=1/GPa)
#
#
# Indices 1 2 3 4 5 6 
#
# 1 0.013573 -0.002125 -0.001665 0.000000 0.000000 0.000000
# 2 -0.002125 0.007480 -0.001241 0.000000 0.000000 0.000000
# 3 -0.001665 -0.001241 0.006196 0.000000 0.000000 0.000000
# 4 0.000000 0.000000 0.000000 0.025552 0.000000 0.000000
# 5 0.000000 0.000000 0.000000 0.000000 0.055603 0.000000
# 6 0.000000 0.000000 0.000000 0.000000 0.000000 0.018982
#
#
# Mechanical properties :
#
#
# Convention : Reuss Voigt Hill
#
# Bulk Modulus (GPa) = 58.17992 65.48327 61.83160
# Shear Modulus (GPa) = 34.92179 42.83672 38.87926
#
# Velocity S-wave (km/s) = 3.68364 4.07978 3.88676
# Velocity P-wave (km/s) = 6.37955 6.90195 6.64588
#
# Compressibility (1/GPa) = 0.01718806
#
# Stress axis : x y z
#
# Youngs Moduli (GPa) = 73.67540 133.68968 161.38532
#
# Poissons Ratio (x) = 0.28411 0.26865
# Poissons Ratio (y) = 0.15657 0.20026
# Poissons Ratio (z) = 0.12265 0.16589
#
# Static dielectric constant tensor:
#      x y z
#    x 2.570770 0.000000 0.000000 
#    y 0.000000 2.237920 0.000000 
#    z 0.000000 0.000000 2.216330 
# 
# From -- ./inp_files/635.got.cif
#   From: 2010.05.17/outbox.cif.g08.bks.cpg/sg34_1_cif.got.tgz:635.got - 2010.06.03 17:23:11.
