data_PCOD9347983
_publ_section_title
;
Structure prediction by ZEFSAII (Michael W. Deem and Ramdas Pophale) SiO2 
 PCOD9347983
Probable space group: P N N 2
;
_chemical_formula_sum "Si O2"
_cell_formula_units_Z 14
_cell_length_a 11.770620
_cell_length_b 7.424818
_cell_length_c 7.135243
_cell_angle_alpha 90.000000
_cell_angle_beta 90.000000
_cell_angle_gamma 90.000000
_cell_volume 623.582502
_symmetry_space_group_name_H-M "P N N 2"
_symmetry_group_IT_number 34
_symmetry_cell_setting 'orthorhombic'
loop_
_space_group_symop_operation_xyz
x,y,z
-x,-y,z
1/2-x,1/2+y,1/2+z
1/2+x,1/2-y,1/2+z
loop_
_atom_site_type_symbol
_atom_site_label
_atom_site_fract_x
_atom_site_fract_y
_atom_site_fract_z
Si Si1 0.597313 0.646660 0.033670
Si Si2 0.626566 0.555810 0.625383
Si Si3 0.500000 0.000000 0.985893
Si Si4 0.785537 0.678422 0.292764
O O1 0.500000 0.500000 0.060384
O O2 0.713565 0.585330 0.127678
O O3 0.612756 0.673968 0.812010
O O4 0.554605 0.839262 0.107476
O O5 0.500000 0.500000 0.557009
O O6 0.700969 0.654607 0.469753
O O7 0.685124 0.374409 0.707958
O O8 0.401673 0.910530 0.861115
#
# Coordination Sequence:
#
# PCOD9347983 Si02
#       4
#     4   4   2   4
#     4  11  25  47  71 102 146 185 243 303 357 434
#     4  11  25  46  71 104 143 187 241 300 361 437
#     4  12  24  46  72 106 138 190 238 302 358 440
#     4  12  25  46  71 104 144 185 243 296 372 425
#
# _framework density 22.450918999999999
#
# number of rings (size 3 to 8) (size 9 to 14) (size 15 to 20)
#    0.000    0.571    8.571    0.857    4.000    0.000 
#    5.143    2.857    0.000    0.000    0.000    0.000 
#    0.000    0.000    0.000    0.000    0.000    0.000 
#
# Total GULP energy -78225.980186 kJ/mol
# GULP energy per Si atom -5587.570013 kJ/mol
# Density = 2.239982 g / cm^3
# Si number density = 22.450919 Si / 1000 Ang^3
#
#
#
# Elastic Constant Matrix: (Units=GPa)
#
#
# Indices 1 2 3 4 5 6 
#
# 1 171.1792 29.9954 54.2254 0.0000 0.0000 0.0000
# 2 29.9954 100.2149 21.5826 0.0000 0.0000 0.0000
# 3 54.2254 21.5826 64.6867 0.0000 0.0000 0.0000
# 4 0.0000 0.0000 0.0000 11.9910 0.0000 0.0000
# 5 0.0000 0.0000 0.0000 0.0000 -178.6306 0.0000
# 6 0.0000 0.0000 0.0000 0.0000 0.0000 37.0659
#
#
#
# Elastic Compliance Matrix: (Units=1/GPa)
#
#
# Indices 1 2 3 4 5 6 
#
# 1 0.008052 -0.001030 -0.006406 0.000000 0.000000 0.000000
# 2 -0.001030 0.010883 -0.002767 0.000000 0.000000 0.000000
# 3 -0.006406 -0.002767 0.021752 0.000000 0.000000 0.000000
# 4 0.000000 0.000000 0.000000 0.083396 0.000000 0.000000
# 5 0.000000 0.000000 0.000000 0.000000 -0.005598 0.000000
# 6 0.000000 0.000000 0.000000 0.000000 0.000000 0.026979
#
#
# Mechanical properties :
#
#
# Convention : Reuss Voigt Hill
#
# Bulk Modulus (GPa) = 49.30984 60.85419 55.08201
# Shear Modulus (GPa) = 28.96367 -10.56293 9.20037
#
# Velocity S-wave (km/s) = 3.59568 -2.17143 2.02655
# Velocity P-wave (km/s) = 6.26495 4.56919 5.48302
#
# Compressibility (1/GPa) = 0.02027993
#
# Stress axis : x y z
#
# Youngs Moduli (GPa) = 124.20001 91.88690 45.97245
#
# Poissons Ratio (x) = 0.09468 0.29448
# Poissons Ratio (y) = 0.12797 0.12722
# Poissons Ratio (z) = 0.79558 0.25428
#
# Static dielectric constant tensor:
#      x y z
#    x 2.788540 0.000000 0.000000 
#    y 0.000000 1.921220 0.000000 
#    z 0.000000 0.000000 1.832510 
# 
# From -- ./inp_files/2313.got.cif
#   From: 2010.05.17/outbox.cif.g08.bks.cpg/sg34_2_cif.got.tgz:2313.got - 2010.06.03 17:23:11.
