data_PCOD9347930
_publ_section_title
;
Structure prediction by ZEFSAII (Michael W. Deem and Ramdas Pophale) SiO2 
 PCOD9347930
Probable space group: P N N 2
;
_chemical_formula_sum "Si O2"
_cell_formula_units_Z 24
_cell_length_a 15.295536
_cell_length_b 8.834453
_cell_length_c 8.503143
_cell_angle_alpha 90.000000
_cell_angle_beta 90.000000
_cell_angle_gamma 90.000000
_cell_volume 1149.010105
_symmetry_space_group_name_H-M "P N N 2"
_symmetry_group_IT_number 34
_symmetry_cell_setting 'orthorhombic'
loop_
_space_group_symop_operation_xyz
x,y,z
-x,-y,z
1/2-x,1/2+y,1/2+z
1/2+x,1/2-y,1/2+z
loop_
_atom_site_type_symbol
_atom_site_label
_atom_site_fract_x
_atom_site_fract_y
_atom_site_fract_z
Si Si1 0.529109 0.252725 0.869200
Si Si2 0.589803 0.316596 0.369410
Si Si3 0.579044 0.755851 0.161068
Si Si4 0.000000 0.000000 0.133244
Si Si5 0.500000 0.000000 0.653489
Si Si6 0.141599 0.530948 0.924026
Si Si7 0.168664 0.053693 0.569215
O O1 0.475997 0.365642 0.753982
O O2 0.556162 0.113844 0.759718
O O3 0.470309 0.184892 0.007659
O O4 0.603793 0.351863 0.954213
O O5 0.497297 0.309253 0.275283
O O6 0.573020 0.425345 0.518946
O O7 0.659496 0.376321 0.243191
O O8 0.618587 0.146479 0.409726
O O9 0.629321 0.882359 0.259617
O O10 0.636241 0.617326 0.097338
O O11 0.433300 0.089969 0.542461
O O12 0.235915 0.556640 0.996254
#
# Coordination Sequence:
#
# PCOD9347930 Si02
#       7
#     4   4   4   2   2   4   4
#     4  11  24  43  72 106 141 190 249 293 363 438
#     4  11  22  45  73 100 141 197 238 294 378 438
#     4  11  22  46  71 100 142 197 238 292 374 439
#     4  12  18  42  78 100 140 188 244 292 352 462
#     4  12  26  42  70 108 144 188 244 302 362 446
#     4  12  26  44  70 107 147 187 247 301 370 432
#     4  11  26  45  69 107 143 189 243 307 359 437
#
# _framework density 20.887544999999999
#
# number of rings (size 3 to 8) (size 9 to 14) (size 15 to 20)
#    0.000    0.667    6.667    1.000    7.000    1.333 
#    3.000    1.667    0.000    0.000    0.000    0.000 
#    0.000    0.000    0.000    0.000    0.000    0.000 
#
# Total GULP energy -134005.751752 kJ/mol
# GULP energy per Si atom -5583.572990 kJ/mol
# Density = 2.084000 g / cm^3
# Si number density = 20.887545 Si / 1000 Ang^3
#
#
#
# Elastic Constant Matrix: (Units=GPa)
#
#
# Indices 1 2 3 4 5 6 
#
# 1 120.9103 40.1755 64.4992 0.0000 0.0000 0.0000
# 2 40.1755 90.1726 55.5056 0.0000 0.0000 0.0000
# 3 64.4992 55.5056 151.3916 0.0000 0.0000 0.0000
# 4 0.0000 0.0000 0.0000 58.6769 0.0000 0.0000
# 5 0.0000 0.0000 0.0000 0.0000 33.5022 0.0000
# 6 0.0000 0.0000 0.0000 0.0000 0.0000 18.9450
#
#
#
# Elastic Compliance Matrix: (Units=1/GPa)
#
#
# Indices 1 2 3 4 5 6 
#
# 1 0.011171 -0.002644 -0.003790 0.000000 0.000000 0.000000
# 2 -0.002644 0.014948 -0.004354 0.000000 0.000000 0.000000
# 3 -0.003790 -0.004354 0.009816 0.000000 0.000000 0.000000
# 4 0.000000 0.000000 0.000000 0.017042 0.000000 0.000000
# 5 0.000000 0.000000 0.000000 0.000000 0.029849 0.000000
# 6 0.000000 0.000000 0.000000 0.000000 0.000000 0.052784
#
#
# Mechanical properties :
#
#
# Convention : Reuss Voigt Hill
#
# Bulk Modulus (GPa) = 69.64150 75.87057 72.75603
# Shear Modulus (GPa) = 30.86934 35.71112 33.29023
#
# Velocity S-wave (km/s) = 3.84849 4.13932 3.99655
# Velocity P-wave (km/s) = 7.29119 7.69724 7.49696
#
# Compressibility (1/GPa) = 0.01435926
#
# Stress axis : x y z
#
# Youngs Moduli (GPa) = 89.51860 66.89857 101.87151
#
# Poissons Ratio (x) = 0.17690 0.38607
# Poissons Ratio (y) = 0.23671 0.44354
# Poissons Ratio (z) = 0.33926 0.29127
#
# Static dielectric constant tensor:
#      x y z
#    x 1.704610 0.000000 0.000000 
#    y 0.000000 1.792040 0.000000 
#    z 0.000000 0.000000 1.773560 
# 
# From -- ./inp_files/2633.got.cif
#   From: 2010.05.17/outbox.cif.g08.bks.cpg/sg34_2_cif.got.tgz:2633.got - 2010.06.03 17:23:11.
