data_PCOD9347630
_publ_section_title
;
Structure prediction by ZEFSAII (Michael W. Deem and Ramdas Pophale) SiO2 
 PCOD9347630
Probable space group: P N N 2
;
_chemical_formula_sum "Si O2"
_cell_formula_units_Z 30
_cell_length_a 5.226348
_cell_length_b 12.410246
_cell_length_c 23.335168
_cell_angle_alpha 90.000000
_cell_angle_beta 90.000000
_cell_angle_gamma 90.000000
_cell_volume 1513.525165
_symmetry_space_group_name_H-M "P N N 2"
_symmetry_group_IT_number 34
_symmetry_cell_setting 'orthorhombic'
loop_
_space_group_symop_operation_xyz
x,y,z
-x,-y,z
1/2-x,1/2+y,1/2+z
1/2+x,1/2-y,1/2+z
loop_
_atom_site_type_symbol
_atom_site_label
_atom_site_fract_x
_atom_site_fract_y
_atom_site_fract_z
Si Si1 0.538804 0.614365 0.523800
Si Si2 0.518120 0.869621 0.854711
Si Si3 0.543064 0.781064 0.979959
Si Si4 0.000000 0.500000 0.135791
Si Si5 0.374718 0.384160 0.062613
Si Si6 0.982141 0.129124 0.786842
Si Si7 0.353190 0.689392 0.171835
Si Si8 0.734856 0.569882 0.652855
O O1 0.500000 0.500000 0.492675
O O2 0.255141 0.662753 0.521259
O O3 0.653626 0.590916 0.586420
O O4 0.752325 0.686320 0.493661
O O5 0.741086 0.837850 0.810660
O O6 0.244960 0.836723 0.828844
O O7 0.500000 0.000000 0.861847
O O8 0.585909 0.816819 0.915371
O O9 0.596391 0.659618 0.999134
O O10 0.105594 0.408339 0.092134
O O11 0.183445 0.578037 0.173333
O O12 0.500000 0.500000 0.066128
O O13 0.521880 0.310959 0.108798
O O14 0.943890 0.170898 0.722513
O O15 0.000000 0.000000 0.786073
O O16 0.244825 0.809709 0.179227
O O17 0.500000 0.500000 0.677640
O O18 0.000000 0.500000 0.655514
#
# Coordination Sequence:
#
# PCOD9347630 Si02
#       8
#     4   4   4   2   4   4   4   4
#     4  11  21  34  57  87 120 161 198 239 302 375
#     4  10  22  38  58  89 125 157 206 255 312 380
#     4  12  22  38  61  86 125 164 199 253 318 380
#     4  10  22  38  64  98 128 168 220 274 330 390
#     4  10  23  38  58  93 122 160 207 266 319 380
#     4  10  22  39  61  91 121 158 206 263 320 370
#     4  11  23  39  66  93 130 170 215 268 330 390
#     4  11  24  39  58  92 135 175 211 258 318 396
#
# _framework density 19.821275
#
# number of rings (size 3 to 8) (size 9 to 14) (size 15 to 20)
#    0.000    1.333    1.333    5.600    8.400    1.067 
#    0.000    0.000    0.000    2.400    0.000    0.000 
#    0.000    0.000    0.000    0.000    0.000    0.000 
#
# Total GULP energy -167167.397849 kJ/mol
# GULP energy per Si atom -5572.246595 kJ/mol
# Density = 1.977616 g / cm^3
# Si number density = 19.821275 Si / 1000 Ang^3
#
#
#
# Elastic Constant Matrix: (Units=GPa)
#
#
# Indices 1 2 3 4 5 6 
#
# 1 94.5271 26.8510 21.9090 0.0000 0.0000 0.0000
# 2 26.8510 69.3071 21.3683 0.0000 0.0000 0.0000
# 3 21.9090 21.3683 57.0927 0.0000 0.0000 0.0000
# 4 0.0000 0.0000 0.0000 15.3940 0.0000 0.0000
# 5 0.0000 0.0000 0.0000 0.0000 4.5244 0.0000
# 6 0.0000 0.0000 0.0000 0.0000 0.0000 20.6495
#
#
#
# Elastic Compliance Matrix: (Units=1/GPa)
#
#
# Indices 1 2 3 4 5 6 
#
# 1 0.012431 -0.003782 -0.003355 0.000000 0.000000 0.000000
# 2 -0.003782 0.017461 -0.005084 0.000000 0.000000 0.000000
# 3 -0.003355 -0.005084 0.020706 0.000000 0.000000 0.000000
# 4 0.000000 0.000000 0.000000 0.064960 0.000000 0.000000
# 5 0.000000 0.000000 0.000000 0.000000 0.221023 0.000000
# 6 0.000000 0.000000 0.000000 0.000000 0.000000 0.048427
#
#
# Mechanical properties :
#
#
# Convention : Reuss Voigt Hill
#
# Bulk Modulus (GPa) = 38.23158 40.13151 39.18155
# Shear Modulus (GPa) = 11.95692 18.16683 15.06187
#
# Velocity S-wave (km/s) = 2.45875 3.03071 2.75959
# Velocity P-wave (km/s) = 5.23361 5.70417 5.47395
#
# Compressibility (1/GPa) = 0.02615639
#
# Stress axis : x y z
#
# Youngs Moduli (GPa) = 80.44580 57.27025 48.29607
#
# Poissons Ratio (x) = 0.21657 0.16203
# Poissons Ratio (y) = 0.30421 0.24554
# Poissons Ratio (z) = 0.26989 0.29117
#
# Static dielectric constant tensor:
#      x y z
#    x 1.952850 0.000000 0.000000 
#    y 0.000000 1.872900 0.000000 
#    z 0.000000 0.000000 1.674000 
# 
# From -- ./inp_files/7967.got.cif
#   From: 2010.05.17/outbox.cif.g08.bks.cpg/sg34_4_cif.got.tgz:7967.got - 2010.06.03 17:23:11.
