data_PCOD9347055
_publ_section_title
;
Structure prediction by ZEFSAII (Michael W. Deem and Ramdas Pophale) SiO2 
 PCOD9347055
Probable space group: P N A 21
;
_chemical_formula_sum "Si O2"
_cell_formula_units_Z 32
_cell_length_a 9.000000
_cell_length_b 21.000000
_cell_length_c 9.000000
_cell_angle_alpha 90.000000
_cell_angle_beta 90.000000
_cell_angle_gamma 90.000000
_cell_volume 1701.000000
_symmetry_space_group_name_H-M "P N A 21"
_symmetry_group_IT_number 33
_symmetry_cell_setting 'orthorhombic'
loop_
_space_group_symop_operation_xyz
x,y,z
-x,-y,1/2+z
1/2-x,1/2+y,1/2+z
1/2+x,1/2-y,z
loop_
_atom_site_type_symbol
_atom_site_label
_atom_site_fract_x
_atom_site_fract_y
_atom_site_fract_z
Si Si1 0.395712 0.441890 0.170700
Si Si2 0.937174 0.223646 0.718916
Si Si3 0.975344 0.916644 0.160723
Si Si4 0.604395 0.785312 0.888465
Si Si5 0.139359 0.321174 0.886192
Si Si6 0.755452 0.048439 0.845733
Si Si7 0.678779 0.407667 0.345896
Si Si8 0.205237 0.322498 0.235173
O O1 0.392807 0.517462 0.216701
O O2 0.559462 0.413644 0.210732
O O3 0.275856 0.393729 0.244202
O O4 0.357782 0.440524 0.994029
O O5 0.911612 0.255239 0.555219
O O6 0.783543 0.201847 0.793926
O O7 0.035803 0.157704 0.713865
O O8 0.008898 0.277885 0.821938
O O9 0.144275 0.934764 0.202539
O O10 0.927857 0.912713 0.989849
O O11 0.719872 0.844834 0.867063
O O12 0.670379 0.727813 0.788993
O O13 0.442853 0.809089 0.831955
O O14 0.128840 0.397728 0.858332
O O15 0.164385 0.311804 0.061908
O O16 0.723581 0.972998 0.842254
#
# Coordination Sequence:
#
# PCOD9347055 Si02
#       8
#     4   4   4   4   4   4   4   4
#     4   9  18  35  59  81 108 144 188 236 283 337
#     4  11  21  36  57  84 112 147 187 233 287 343
#     4   9  17  32  57  81 106 142 187 230 277 340
#     4  12  24  37  58  86 119 151 189 239 293 347
#     4  10  21  38  57  78 109 146 187 231 279 339
#     4   8  18  35  57  81 109 146 189 232 280 341
#     4  10  19  35  56  83 111 145 188 234 281 339
#     4  11  22  38  57  82 112 149 187 233 286 342
#
# _framework density 18.812463000000001
#
# number of rings (size 3 to 8) (size 9 to 14) (size 15 to 20)
#    0.000    2.000    0.000    4.500    0.000    3.000 
#    0.000    6.250    0.000    0.000    0.000    0.000 
#    0.000    0.000    0.000    0.000    0.000    0.000 
#
# Total GULP energy -178272.770188 kJ/mol
# GULP energy per Si atom -5571.024068 kJ/mol
# Density = 1.876965 g / cm^3
# Si number density = 18.812463 Si / 1000 Ang^3
#
#
#
# Elastic Constant Matrix: (Units=GPa)
#
#
# Indices 1 2 3 4 5 6 
#
# 1 46.4052 19.5662 7.7045 0.0000 0.0000 0.0000
# 2 19.5662 141.9763 22.7393 0.0000 0.0000 0.0000
# 3 7.7045 22.7393 57.8839 0.0000 0.0000 0.0000
# 4 0.0000 0.0000 0.0000 31.8212 0.0000 0.0000
# 5 0.0000 0.0000 0.0000 0.0000 27.3032 0.0000
# 6 0.0000 0.0000 0.0000 0.0000 0.0000 33.8798
#
#
#
# Elastic Compliance Matrix: (Units=1/GPa)
#
#
# Indices 1 2 3 4 5 6 
#
# 1 0.023082 -0.002869 -0.001945 0.000000 0.000000 0.000000
# 2 -0.002869 0.007873 -0.002711 0.000000 0.000000 0.000000
# 3 -0.001945 -0.002711 0.018600 0.000000 0.000000 0.000000
# 4 0.000000 0.000000 0.000000 0.031426 0.000000 0.000000
# 5 0.000000 0.000000 0.000000 0.000000 0.036626 0.000000
# 6 0.000000 0.000000 0.000000 0.000000 0.000000 0.029516
#
#
# Mechanical properties :
#
#
# Convention : Reuss Voigt Hill
#
# Bulk Modulus (GPa) = 28.98207 38.47614 33.72910
# Shear Modulus (GPa) = 28.78944 31.68453 30.23698
#
# Velocity S-wave (km/s) = 3.91620 4.10839 4.01344
# Velocity P-wave (km/s) = 5.99066 6.55759 6.28053
#
# Compressibility (1/GPa) = 0.03450409
#
# Stress axis : x y z
#
# Youngs Moduli (GPa) = 43.32360 127.01513 53.76390
#
# Poissons Ratio (x) = 0.36447 0.10457
# Poissons Ratio (y) = 0.12432 0.14575
# Poissons Ratio (z) = 0.08427 0.34433
#
# Static dielectric constant tensor:
#      x y z
#    x 1.646060 0.000000 0.000000 
#    y 0.000000 1.696160 0.000000 
#    z 0.000000 0.000000 1.657620 
# 
# From -- ./inp_files/3461.got.cif
#   From: 2010.05.17/outbox.ucp.g08.bks.cvg/sg33_2_cif.got.tgz:3461.got - 2010.06.11 10:35:07.
