data_PCOD9347091
_publ_section_title
;
Structure prediction by ZEFSAII (Michael W. Deem and Ramdas Pophale) SiO2 
 PCOD9347091
Probable space group: P N A 21
;
_chemical_formula_sum "Si O2"
_cell_formula_units_Z 24
_cell_length_a 18.000000
_cell_length_b 9.000000
_cell_length_c 6.000000
_cell_angle_alpha 90.000000
_cell_angle_beta 90.000000
_cell_angle_gamma 90.000000
_cell_volume 972.000000
_symmetry_space_group_name_H-M "P N A 21"
_symmetry_group_IT_number 33
_symmetry_cell_setting 'orthorhombic'
loop_
_space_group_symop_operation_xyz
x,y,z
-x,-y,1/2+z
1/2-x,1/2+y,1/2+z
1/2+x,1/2-y,z
loop_
_atom_site_type_symbol
_atom_site_label
_atom_site_fract_x
_atom_site_fract_y
_atom_site_fract_z
Si Si1 0.385335 0.761086 0.368320
Si Si2 0.388012 0.557967 0.759947
Si Si3 0.315083 0.322630 0.082546
Si Si4 0.488745 0.315400 0.585837
Si Si5 0.115465 0.609194 0.893308
Si Si6 0.749783 0.898364 0.230620
O O1 0.361992 0.694689 0.607514
O O2 0.466503 0.698782 0.315204
O O3 0.326646 0.689774 0.197810
O O4 0.385687 0.936622 0.335195
O O5 0.423412 0.433411 0.599859
O O6 0.334667 0.452081 0.904964
O O7 0.453231 0.625630 0.907994
O O8 0.381467 0.238392 0.207444
O O9 0.266866 0.425646 0.250230
O O10 0.281755 0.184255 0.947852
O O11 0.455935 0.154126 0.534991
O O12 0.190133 0.626259 0.038033
#
# Coordination Sequence:
#
# PCOD9347091 Si02
#       6
#     4   4   4   4   4   4
#     4  12  29  46  77 114 153 199 257 317 384 453
#     4  12  25  49  75 112 144 205 249 310 382 460
#     4  12  28  48  80 108 157 197 260 313 388 459
#     4  12  25  46  78 105 154 195 256 310 384 451
#     4  12  30  48  76 116 152 201 257 323 381 457
#     4  12  27  49  76 113 150 201 255 319 379 458
#
# _framework density 24.691358000000001
#
# number of rings (size 3 to 8) (size 9 to 14) (size 15 to 20)
#    0.000    0.000    6.667    2.000    7.000    1.333 
#    0.000    0.000    0.000    0.000    0.000    0.000 
#    0.000    0.000    0.000    0.000    0.000    0.000 
#
# Total GULP energy -133993.913819 kJ/mol
# GULP energy per Si atom -5583.079742 kJ/mol
# Density = 2.463516 g / cm^3
# Si number density = 24.691358 Si / 1000 Ang^3
#
#
#
# Elastic Constant Matrix: (Units=GPa)
#
#
# Indices 1 2 3 4 5 6 
#
# 1 49.2014 11.3385 20.7838 0.0000 0.0000 0.0000
# 2 11.3385 148.3365 46.4298 0.0000 0.0000 0.0000
# 3 20.7838 46.4298 53.5370 0.0000 0.0000 0.0000
# 4 0.0000 0.0000 0.0000 42.3398 0.0000 0.0000
# 5 0.0000 0.0000 0.0000 0.0000 39.0080 0.0000
# 6 0.0000 0.0000 0.0000 0.0000 0.0000 29.5950
#
#
#
# Elastic Compliance Matrix: (Units=1/GPa)
#
#
# Indices 1 2 3 4 5 6 
#
# 1 0.024558 0.001519 -0.010852 0.000000 0.000000 0.000000
# 2 0.001519 0.009347 -0.008696 0.000000 0.000000 0.000000
# 3 -0.010852 -0.008696 0.030433 0.000000 0.000000 0.000000
# 4 0.000000 0.000000 0.000000 0.023618 0.000000 0.000000
# 5 0.000000 0.000000 0.000000 0.000000 0.025636 0.000000
# 6 0.000000 0.000000 0.000000 0.000000 0.000000 0.033789
#
#
# Mechanical properties :
#
#
# Convention : Reuss Voigt Hill
#
# Bulk Modulus (GPa) = 35.35822 45.35327 40.35574
# Shear Modulus (GPa) = 25.92462 33.69008 29.80735
#
# Velocity S-wave (km/s) = 3.24380 3.69785 3.47824
# Velocity P-wave (km/s) = 5.32737 6.05311 5.70180
#
# Compressibility (1/GPa) = 0.02828197
#
# Stress axis : x y z
#
# Youngs Moduli (GPa) = 40.71919 106.98354 32.85885
#
# Poissons Ratio (x) = -0.16255 0.35657
# Poissons Ratio (y) = -0.06187 0.28575
# Poissons Ratio (z) = 0.44187 0.93035
#
# Static dielectric constant tensor:
#      x y z
#    x 2.051190 0.000000 0.000000 
#    y 0.000000 1.888010 0.000000 
#    z 0.000000 0.000000 2.107550 
# 
# From -- ./inp_files/1669.got.cif
#   From: 2010.05.17/outbox.ucp.g08.bks.cvg/sg33_1_cif.got.tgz:1669.got - 2010.06.11 10:35:07.
