data_PCOD9347029
_publ_section_title
;
Structure prediction by ZEFSAII (Michael W. Deem and Ramdas Pophale) SiO2 
 PCOD9347029
Probable space group: P N A 21
;
_chemical_formula_sum "Si O2"
_cell_formula_units_Z 20
_cell_length_a 9.613616
_cell_length_b 16.857485
_cell_length_c 4.906292
_cell_angle_alpha 90.000000
_cell_angle_beta 90.000000
_cell_angle_gamma 90.000000
_cell_volume 795.120489
_symmetry_space_group_name_H-M "P N A 21"
_symmetry_group_IT_number 33
_symmetry_cell_setting 'orthorhombic'
loop_
_space_group_symop_operation_xyz
x,y,z
-x,-y,1/2+z
1/2-x,1/2+y,1/2+z
1/2+x,1/2-y,z
loop_
_atom_site_type_symbol
_atom_site_label
_atom_site_fract_x
_atom_site_fract_y
_atom_site_fract_z
Si Si1 0.187222 0.939743 0.115240
Si Si2 0.145066 0.697100 0.250717
Si Si3 0.601724 0.695713 0.750778
Si Si4 0.961130 0.550485 0.444460
Si Si5 0.101687 0.104130 0.895881
O O1 0.304164 0.937696 0.343966
O O2 0.185137 0.027312 0.991290
O O3 0.034191 0.925893 0.239597
O O4 0.198173 0.870661 0.891368
O O5 0.161058 0.764994 0.478229
O O6 0.044154 0.630207 0.373067
O O7 0.295372 0.657115 0.217457
O O8 0.086524 0.736322 0.977856
O O9 0.459897 0.654052 0.648729
O O10 0.979717 0.520674 0.751757
#
# Coordination Sequence:
#
# PCOD9347029 Si02
#       5
#     4   4   4   4   4
#     4  12  28  50  84 113 159 209 275 321 401 470
#     4  12  30  51  79 117 162 207 266 331 405 468
#     4  12  29  49  79 116 162 204 264 333 398 469
#     4  12  29  52  79 116 158 211 261 329 397 482
#     4  12  28  52  83 118 157 215 270 330 393 493
#
# _framework density 25.153421000000002
#
# number of rings (size 3 to 8) (size 9 to 14) (size 15 to 20)
#    0.000    0.000    6.000    1.200   14.000    0.000 
#    0.000    0.000    0.000    0.000    0.000    0.000 
#    0.000    0.000    0.000    0.000    0.000    0.000 
#
# Total GULP energy -112282.906324 kJ/mol
# GULP energy per Si atom -5614.145316 kJ/mol
# Density = 2.509617 g / cm^3
# Si number density = 25.153421 Si / 1000 Ang^3
#
#
#
# Elastic Constant Matrix: (Units=GPa)
#
#
# Indices 1 2 3 4 5 6 
#
# 1 78.0919 21.5759 -5.2158 0.0000 0.0000 0.0000
# 2 21.5759 116.2736 19.0029 0.0000 0.0000 0.0000
# 3 -5.2158 19.0029 90.1286 0.0000 0.0000 0.0000
# 4 0.0000 0.0000 0.0000 41.3112 0.0000 0.0000
# 5 0.0000 0.0000 0.0000 0.0000 41.0455 0.0000
# 6 0.0000 0.0000 0.0000 0.0000 0.0000 18.8075
#
#
#
# Elastic Compliance Matrix: (Units=1/GPa)
#
#
# Indices 1 2 3 4 5 6 
#
# 1 0.013659 -0.002759 0.001372 0.000000 0.000000 0.000000
# 2 -0.002759 0.009465 -0.002155 0.000000 0.000000 0.000000
# 3 0.001372 -0.002155 0.011629 0.000000 0.000000 0.000000
# 4 0.000000 0.000000 0.000000 0.024207 0.000000 0.000000
# 5 0.000000 0.000000 0.000000 0.000000 0.024363 0.000000
# 6 0.000000 0.000000 0.000000 0.000000 0.000000 0.053170
#
#
# Mechanical properties :
#
#
# Convention : Reuss Voigt Hill
#
# Bulk Modulus (GPa) = 36.14136 39.46889 37.80512
# Shear Modulus (GPa) = 32.72255 36.84157 34.78206
#
# Velocity S-wave (km/s) = 3.61074 3.83126 3.72263
# Velocity P-wave (km/s) = 5.63762 5.94110 5.79135
#
# Compressibility (1/GPa) = 0.02766913
#
# Stress axis : x y z
#
# Youngs Moduli (GPa) = 73.21009 105.65708 85.99134
#
# Poissons Ratio (x) = 0.29150 -0.11799
# Poissons Ratio (y) = 0.20198 0.18533
# Poissons Ratio (z) = -0.10046 0.22771
#
# Static dielectric constant tensor:
#      x y z
#    x 1.974660 0.000000 0.000000 
#    y 0.000000 1.977260 0.000000 
#    z 0.000000 0.000000 1.954740 
# 
# From -- ./inp_files/377.got.cif
#   From: 2010.05.17/outbox.cif.g08.bks.cpg/sg33_1_cif.got.tgz:377.got - 2010.06.03 17:15:25.
