data_PCOD9347884
_publ_section_title
;
Structure prediction by ZEFSAII (Michael W. Deem and Ramdas Pophale) SiO2 
 PCOD9347884
Probable space group: P N N 2
;
_chemical_formula_sum "Si O2"
_cell_formula_units_Z 14
_cell_length_a 15.796554
_cell_length_b 4.842665
_cell_length_c 6.578163
_cell_angle_alpha 90.000000
_cell_angle_beta 90.000000
_cell_angle_gamma 90.000000
_cell_volume 503.212492
_symmetry_space_group_name_H-M "P N N 2"
_symmetry_group_IT_number 34
_symmetry_cell_setting 'orthorhombic'
loop_
_space_group_symop_operation_xyz
x,y,z
-x,-y,z
1/2-x,1/2+y,1/2+z
1/2+x,1/2-y,1/2+z
loop_
_atom_site_type_symbol
_atom_site_label
_atom_site_fract_x
_atom_site_fract_y
_atom_site_fract_z
Si Si1 0.382452 0.622649 0.587780
Si Si2 0.117548 0.877347 0.677759
Si Si3 0.000000 0.500000 0.382768
Si Si4 0.741939 0.500003 0.882770
O O1 0.419789 0.499998 0.382770
O O2 0.445260 0.800671 0.730672
O O3 0.328554 0.397089 0.718277
O O4 0.306689 0.804070 0.495920
O O5 0.193310 0.695923 0.769620
O O6 0.054740 0.699328 0.534865
O O7 0.171446 0.102906 0.547264
#
# Coordination Sequence:
#
# PCOD9347884 Si02
#       4
#     4   4   2   4
#     4  11  27  54  80 117 161 211 272 342 395 489
#     4  11  27  54  80 117 161 211 272 342 395 489
#     4  12  32  52  80 136 164 210 272 328 440 476
#     4  10  26  52  86 112 148 222 286 318 398 490
#
# _framework density 27.821249999999999
#
# number of rings (size 3 to 8) (size 9 to 14) (size 15 to 20)
#    0.000    1.143    0.000    1.714   24.000    2.286 
#   20.571    0.000    0.000    0.000    0.000    0.000 
#    0.000    0.000    0.000    0.000    0.000    0.000 
#
# Total GULP energy -78092.529553 kJ/mol
# GULP energy per Si atom -5578.037825 kJ/mol
# Density = 2.775793 g / cm^3
# Si number density = 27.821250 Si / 1000 Ang^3
#
#
#
# Elastic Constant Matrix: (Units=GPa)
#
#
# Indices 1 2 3 4 5 6 
#
# 1 250.3362 84.4593 162.3943 0.0000 0.0000 0.0000
# 2 84.4593 87.4243 80.3751 0.0000 0.0000 0.0000
# 3 162.3943 80.3751 253.0390 0.0000 0.0000 0.0000
# 4 0.0000 0.0000 0.0000 68.2387 0.0000 0.0000
# 5 0.0000 0.0000 0.0000 0.0000 -297.9756 0.0000
# 6 0.0000 0.0000 0.0000 0.0000 0.0000 34.5590
#
#
#
# Elastic Compliance Matrix: (Units=1/GPa)
#
#
# Indices 1 2 3 4 5 6 
#
# 1 0.007773 -0.004129 -0.003677 0.000000 0.000000 0.000000
# 2 -0.004129 0.018350 -0.003179 0.000000 0.000000 0.000000
# 3 -0.003677 -0.003179 0.007321 0.000000 0.000000 0.000000
# 4 0.000000 0.000000 0.000000 0.014654 0.000000 0.000000
# 5 0.000000 0.000000 0.000000 0.000000 -0.003356 0.000000
# 6 0.000000 0.000000 0.000000 0.000000 0.000000 0.028936
#
#
# Mechanical properties :
#
#
# Convention : Reuss Voigt Hill
#
# Bulk Modulus (GPa) = 87.14671 138.36188 112.75429
# Shear Modulus (GPa) = 50.26500 -21.46420 14.40040
#
# Velocity S-wave (km/s) = 4.25516 -2.78061 2.27756
# Velocity P-wave (km/s) = 7.45209 6.28740 6.89438
#
# Compressibility (1/GPa) = 0.01147490
#
# Stress axis : x y z
#
# Youngs Moduli (GPa) = 128.65235 54.49667 136.58416
#
# Poissons Ratio (x) = 0.22500 0.50222
# Poissons Ratio (y) = 0.53117 0.43418
# Poissons Ratio (z) = 0.47305 0.17324
#
# Static dielectric constant tensor:
#      x y z
#    x 2.133570 0.000000 0.000000 
#    y 0.000000 2.284720 0.000000 
#    z 0.000000 0.000000 2.625530 
# 
# From -- ./inp_files/80.got.cif
#   From: 2010.05.17/outbox.cif.g08.bks.cpg/sg34_1_cif.got.tgz:80.got - 2010.06.03 17:23:11.
