data_PCOD9347868
_publ_section_title
;
Structure prediction by ZEFSAII (Michael W. Deem and Ramdas Pophale) SiO2 
 PCOD9347868
Probable space group: P N N 2
;
_chemical_formula_sum "Si O2"
_cell_formula_units_Z 32
_cell_length_a 5.225166
_cell_length_b 14.370810
_cell_length_c 16.844125
_cell_angle_alpha 90.000000
_cell_angle_beta 90.000000
_cell_angle_gamma 90.000000
_cell_volume 1264.823120
_symmetry_space_group_name_H-M "P N N 2"
_symmetry_group_IT_number 34
_symmetry_cell_setting 'orthorhombic'
loop_
_space_group_symop_operation_xyz
x,y,z
-x,-y,z
1/2-x,1/2+y,1/2+z
1/2+x,1/2-y,1/2+z
loop_
_atom_site_type_symbol
_atom_site_label
_atom_site_fract_x
_atom_site_fract_y
_atom_site_fract_z
Si Si1 0.351136 0.587802 0.799670
Si Si2 0.746406 0.063199 0.909243
Si Si3 0.344945 0.783048 0.317342
Si Si4 0.859941 0.727704 0.998481
Si Si5 0.844907 0.696390 0.557374
Si Si6 0.590239 0.609630 0.245431
Si Si7 0.250600 0.939305 0.580940
Si Si8 0.252334 0.470460 0.637924
O O1 0.500000 0.500000 0.842379
O O2 0.578325 0.664066 0.799439
O O3 0.271258 0.534703 0.716494
O O4 0.086946 0.642881 0.819394
O O5 0.738197 0.115029 0.824172
O O6 0.500000 0.000000 0.911602
O O7 0.735241 0.132699 0.982516
O O8 0.000000 0.000000 0.910733
O O9 0.344539 0.742586 0.407350
O O10 0.393943 0.694436 0.260020
O O11 0.643098 0.782953 0.047701
O O12 0.766864 0.622146 0.002756
O O13 0.135996 0.724054 0.041833
O O14 0.775334 0.640012 0.637185
O O15 0.500000 0.500000 0.243668
O O16 0.721330 0.622629 0.160571
O O17 0.500000 0.000000 0.591052
O O18 0.000000 0.000000 0.575405
O O19 0.500000 0.500000 0.591090
O O20 0.000000 0.500000 0.593874
#
# Coordination Sequence:
#
# PCOD9347868 Si02
#       8
#     4   4   4   4   4   4   4   4
#     4  11  26  46  73 108 151 202 253 304 379 455
#     4  11  22  39  68 103 137 184 229 291 368 443
#     4  12  26  47  76 111 153 197 259 317 375 465
#     4  12  27  46  74 109 146 197 252 318 380 450
#     4  12  24  43  71 107 151 186 239 304 380 460
#     4  10  25  47  76 107 148 192 257 313 384 438
#     4  11  26  49  71 101 140 195 254 313 374 436
#     4  11  23  43  67 104 153 195 237 292 372 466
#
# _framework density 25.299979
#
# number of rings (size 3 to 8) (size 9 to 14) (size 15 to 20)
#    0.000    0.750    1.250    6.000    1.750    8.500 
#    0.000    0.000    0.000    0.000    0.000    0.000 
#    0.000    0.000    0.000    0.000    0.000    0.000 
#
# Total GULP energy -178669.372166 kJ/mol
# GULP energy per Si atom -5583.417880 kJ/mol
# Density = 2.524240 g / cm^3
# Si number density = 25.299979 Si / 1000 Ang^3
#
#
#
# Elastic Constant Matrix: (Units=GPa)
#
#
# Indices 1 2 3 4 5 6 
#
# 1 157.0580 29.4162 2.8663 0.0000 0.0000 0.0000
# 2 29.4162 101.5026 16.3425 0.0000 0.0000 0.0000
# 3 2.8663 16.3425 46.3585 0.0000 0.0000 0.0000
# 4 0.0000 0.0000 0.0000 49.2224 0.0000 0.0000
# 5 0.0000 0.0000 0.0000 0.0000 -9.0882 0.0000
# 6 0.0000 0.0000 0.0000 0.0000 0.0000 57.0131
#
#
#
# Elastic Compliance Matrix: (Units=1/GPa)
#
#
# Indices 1 2 3 4 5 6 
#
# 1 0.006736 -0.001999 0.000288 0.000000 0.000000 0.000000
# 2 -0.001999 0.011038 -0.003768 0.000000 0.000000 0.000000
# 3 0.000288 -0.003768 0.022881 0.000000 0.000000 0.000000
# 4 0.000000 0.000000 0.000000 0.020316 0.000000 0.000000
# 5 0.000000 0.000000 0.000000 0.000000 -0.110033 0.000000
# 6 0.000000 0.000000 0.000000 0.000000 0.000000 0.017540
#
#
# Mechanical properties :
#
#
# Convention : Reuss Voigt Hill
#
# Bulk Modulus (GPa) = 33.67095 44.68547 39.17821
# Shear Modulus (GPa) = -468.76141 36.51574 -216.12284
#
# Velocity S-wave (km/s) = -13.62658 3.80321 -9.25254
# Velocity P-wave (km/s) = 15.30492 6.08165 9.93111
#
# Compressibility (1/GPa) = 0.02969920
#
# Stress axis : x y z
#
# Youngs Moduli (GPa) = 148.45302 90.59821 43.70373
#
# Poissons Ratio (x) = 0.18107 -0.01259
# Poissons Ratio (y) = 0.29669 0.16465
# Poissons Ratio (z) = -0.04276 0.34133
#
# Static dielectric constant tensor:
#      x y z
#    x 2.064500 0.000000 0.000000 
#    y 0.000000 2.062920 0.000000 
#    z 0.000000 0.000000 1.992350 
# 
# From -- ./inp_files/7270.got.cif
#   From: 2010.05.17/outbox.cif.g08.bks.cpg/sg34_4_cif.got.tgz:7270.got - 2010.06.03 17:23:11.
