data_PCOD9347094
_publ_section_title
;
Structure prediction by ZEFSAII (Michael W. Deem and Ramdas Pophale) SiO2 
 PCOD9347094
Probable space group: P N N 2
;
_chemical_formula_sum "Si O2"
_cell_formula_units_Z 32
_cell_length_a 17.967467
_cell_length_b 9.512582
_cell_length_c 7.153147
_cell_angle_alpha 90.000000
_cell_angle_beta 90.000000
_cell_angle_gamma 90.000000
_cell_volume 1222.594448
_symmetry_space_group_name_H-M "P N N 2"
_symmetry_group_IT_number 34
_symmetry_cell_setting 'orthorhombic'
loop_
_space_group_symop_operation_xyz
x,y,z
-x,-y,z
1/2-x,1/2+y,1/2+z
1/2+x,1/2-y,1/2+z
loop_
_atom_site_type_symbol
_atom_site_label
_atom_site_fract_x
_atom_site_fract_y
_atom_site_fract_z
Si Si1 0.776352 0.589403 0.993480
Si Si2 0.893422 0.447590 0.507958
Si Si3 0.020292 0.262343 0.523686
Si Si4 0.836088 0.865059 0.435767
Si Si5 0.647174 0.354894 0.496022
Si Si6 0.749533 0.591143 0.437345
Si Si7 0.004552 0.832571 0.094900
Si Si8 0.919571 0.426690 0.061200
O O1 0.702024 0.515786 0.926220
O O2 0.793663 0.744053 0.919228
O O3 0.764556 0.591584 0.216344
O O4 0.851106 0.499298 0.957420
O O5 0.935761 0.592203 0.556401
O O6 0.807014 0.482476 0.539220
O O7 0.902466 0.443542 0.281929
O O8 0.936781 0.310897 0.588233
O O9 0.087202 0.147490 0.553549
O O10 0.005101 0.228967 0.303829
O O11 0.853375 0.833899 0.219972
O O12 0.775085 0.747567 0.497738
O O13 0.670982 0.513412 0.459043
O O14 0.563791 0.306071 0.452605
O O15 0.071796 0.738236 0.021444
O O16 0.000000 0.000000 0.112293
O O17 0.000000 0.500000 0.025833
#
# Coordination Sequence:
#
# PCOD9347094 Si02
#       8
#     4   4   4   4   4   4   4   4
#     4  10  20  34  53  76 103 141 169 210 257 309
#     4   8  12  26  51  69  92 130 163 205 253 297
#     4   8  13  28  46  70  99 123 162 212 253 289
#     4   9  19  33  52  75 103 136 170 209 255 303
#     4  10  20  36  50  76 111 134 166 215 258 304
#     4   9  19  32  51  77 103 132 172 209 256 307
#     4  10  18  27  46  76 100 125 163 222 261 289
#     4  10  14  29  50  70  94 127 171 209 255 300
#
# _framework density 26.173846999999999
#
# number of rings (size 3 to 8) (size 9 to 14) (size 15 to 20)
#    0.000    2.750    3.750    1.500    1.750    1.000 
#   11.250    0.000    0.000    1.500    3.250    0.000 
#    0.000    0.000    0.000    0.000    0.000    0.000 
#
# Total GULP energy -178362.336378 kJ/mol
# GULP energy per Si atom -5573.823012 kJ/mol
# Density = 2.611427 g / cm^3
# Si number density = 26.173847 Si / 1000 Ang^3
#
#
#
# Elastic Constant Matrix: (Units=GPa)
#
#
# Indices 1 2 3 4 5 6 
#
# 1 10.5072 15.6597 -17.2110 0.0000 0.0000 0.0000
# 2 15.6597 84.1131 -10.3046 0.0000 0.0000 0.0000
# 3 -17.2110 -10.3046 65.4185 0.0000 0.0000 0.0000
# 4 0.0000 0.0000 0.0000 29.2191 0.0000 0.0000
# 5 0.0000 0.0000 0.0000 0.0000 -123.2077 0.0000
# 6 0.0000 0.0000 0.0000 0.0000 0.0000 46.1865
#
#
#
# Elastic Compliance Matrix: (Units=1/GPa)
#
#
# Indices 1 2 3 4 5 6 
#
# 1 0.253385 -0.039775 0.060398 0.000000 0.000000 0.000000
# 2 -0.039775 0.018366 -0.007571 0.000000 0.000000 0.000000
# 3 0.060398 -0.007571 0.029984 0.000000 0.000000 0.000000
# 4 0.000000 0.000000 0.000000 0.034224 0.000000 0.000000
# 5 0.000000 0.000000 0.000000 0.000000 -0.008116 0.000000
# 6 0.000000 0.000000 0.000000 0.000000 0.000000 0.021651
#
#
# Mechanical properties :
#
#
# Convention : Reuss Voigt Hill
#
# Bulk Modulus (GPa) = 3.05027 15.14742 9.09884
# Shear Modulus (GPa) = 11.55615 1.89924 6.72770
#
# Velocity S-wave (km/s) = 2.10351 0.85276 1.60498
# Velocity P-wave (km/s) = 2.65849 2.60181 2.63030
#
# Compressibility (1/GPa) = 0.32784021
#
# Stress axis : x y z
#
# Youngs Moduli (GPa) = 3.94656 54.44786 33.35135
#
# Poissons Ratio (x) = 2.16564 -2.01436
# Poissons Ratio (y) = 0.15697 0.25251
# Poissons Ratio (z) = -0.23836 0.41224
#
# Static dielectric constant tensor:
#      x y z
#    x 2.231900 0.000000 0.000000 
#    y 0.000000 2.033380 0.000000 
#    z 0.000000 0.000000 2.075740 
# 
# From -- ./inp_files/5800.got.cif
#   From: 2010.05.17/outbox.cif.g08.bks.cpg/sg34_3_cif.got.tgz:5800.got - 2010.06.03 17:23:11.
