data_PCOD9347378
_publ_section_title
;
Structure prediction by ZEFSAII (Michael W. Deem and Ramdas Pophale) SiO2 
 PCOD9347378
Probable space group: P N N 2
;
_chemical_formula_sum "Si O2"
_cell_formula_units_Z 20
_cell_length_a 11.501398
_cell_length_b 12.528445
_cell_length_c 5.415398
_cell_angle_alpha 90.000000
_cell_angle_beta 90.000000
_cell_angle_gamma 90.000000
_cell_volume 780.329783
_symmetry_space_group_name_H-M "P N N 2"
_symmetry_group_IT_number 34
_symmetry_cell_setting 'orthorhombic'
loop_
_space_group_symop_operation_xyz
x,y,z
-x,-y,z
1/2-x,1/2+y,1/2+z
1/2+x,1/2-y,1/2+z
loop_
_atom_site_type_symbol
_atom_site_label
_atom_site_fract_x
_atom_site_fract_y
_atom_site_fract_z
Si Si1 0.169652 0.363616 0.121300
Si Si2 0.789482 0.942233 0.414847
Si Si3 0.630194 0.730158 0.392032
Si Si4 0.558443 0.809717 0.886217
Si Si5 0.183331 0.124707 0.917279
O O1 0.279589 0.358288 0.305724
O O2 0.053582 0.370460 0.282981
O O3 0.201825 0.459310 0.941352
O O4 0.166434 0.251155 0.971931
O O5 0.711530 0.835190 0.406521
O O6 0.863010 0.922174 0.662290
O O7 0.856215 0.939057 0.157944
O O8 0.580469 0.723005 0.666800
O O9 0.548536 0.756577 0.156136
O O10 0.674438 0.882661 0.899546
#
# Coordination Sequence:
#
# PCOD9347378 Si02
#       5
#     4   4   4   4   4
#     4  10  20  37  64  77 110 162 176 218 304 328
#     4   9  19  35  55  79 111 142 178 227 280 323
#     4   9  21  36  51  86 116 130 188 240 250 332
#     4   9  19  35  55  79 111 142 178 227 280 323
#     4   9  21  36  51  86 116 130 188 240 250 332
#
# _framework density 25.630191
#
# number of rings (size 3 to 8) (size 9 to 14) (size 15 to 20)
#    0.000    3.200    0.000    0.000    0.000   17.600 
#    0.000   12.000    0.000   39.600    0.000    0.000 
#    0.000    0.000    0.000    0.000    0.000    0.000 
#
# Total GULP energy -111644.282614 kJ/mol
# GULP energy per Si atom -5582.214131 kJ/mol
# Density = 2.557186 g / cm^3
# Si number density = 25.630191 Si / 1000 Ang^3
#
#
#
# Elastic Constant Matrix: (Units=GPa)
#
#
# Indices 1 2 3 4 5 6 
#
# 1 39.8232 13.7519 -3.2092 0.0000 0.0000 0.0000
# 2 13.7519 61.3741 1.2672 0.0000 0.0000 0.0000
# 3 -3.2092 1.2672 219.4731 0.0000 0.0000 0.0000
# 4 0.0000 0.0000 0.0000 22.5944 0.0000 0.0000
# 5 0.0000 0.0000 0.0000 0.0000 19.5609 0.0000
# 6 0.0000 0.0000 0.0000 0.0000 0.0000 13.0148
#
#
#
# Elastic Compliance Matrix: (Units=1/GPa)
#
#
# Indices 1 2 3 4 5 6 
#
# 1 0.027258 -0.006117 0.000434 0.000000 0.000000 0.000000
# 2 -0.006117 0.017668 -0.000191 0.000000 0.000000 0.000000
# 3 0.000434 -0.000191 0.004564 0.000000 0.000000 0.000000
# 4 0.000000 0.000000 0.000000 0.044259 0.000000 0.000000
# 5 0.000000 0.000000 0.000000 0.000000 0.051122 0.000000
# 6 0.000000 0.000000 0.000000 0.000000 0.000000 0.076836
#
#
# Mechanical properties :
#
#
# Convention : Reuss Voigt Hill
#
# Bulk Modulus (GPa) = 26.49591 38.25446 32.37518
# Shear Modulus (GPa) = 20.32226 31.62473 25.97350
#
# Velocity S-wave (km/s) = 2.81891 3.51648 3.18684
# Velocity P-wave (km/s) = 4.57769 5.60763 5.11863
#
# Compressibility (1/GPa) = 0.03774168
#
# Stress axis : x y z
#
# Youngs Moduli (GPa) = 36.68625 56.59954 219.11487
#
# Poissons Ratio (x) = 0.34620 -0.09507
# Poissons Ratio (y) = 0.22439 0.04195
# Poissons Ratio (z) = -0.01592 0.01084
#
# Static dielectric constant tensor:
#      x y z
#    x 2.072180 0.000000 0.000000 
#    y 0.000000 1.993290 0.000000 
#    z 0.000000 0.000000 2.192290 
# 
# From -- ./inp_files/1194.got.cif
#   From: 2010.05.17/outbox.cif.g08.bks.cpg/sg34_1_cif.got.tgz:1194.got - 2010.06.03 17:23:11.
