data_PCOD9347229
_publ_section_title
;
Structure prediction by ZEFSAII (Michael W. Deem and Ramdas Pophale) SiO2 
 PCOD9347229
Probable space group: P N N 2
;
_chemical_formula_sum "Si O2"
_cell_formula_units_Z 24
_cell_length_a 12.523912
_cell_length_b 5.535989
_cell_length_c 14.549560
_cell_angle_alpha 90.000000
_cell_angle_beta 90.000000
_cell_angle_gamma 90.000000
_cell_volume 1008.753572
_symmetry_space_group_name_H-M "P N N 2"
_symmetry_group_IT_number 34
_symmetry_cell_setting 'orthorhombic'
loop_
_space_group_symop_operation_xyz
x,y,z
-x,-y,z
1/2-x,1/2+y,1/2+z
1/2+x,1/2-y,1/2+z
loop_
_atom_site_type_symbol
_atom_site_label
_atom_site_fract_x
_atom_site_fract_y
_atom_site_fract_z
Si Si1 0.818355 0.838593 0.828820
Si Si2 0.000000 0.000000 0.244291
Si Si3 0.500000 0.500000 0.440434
Si Si4 0.830382 0.913700 0.609311
Si Si5 0.778757 0.846261 0.307274
Si Si6 0.095155 0.681232 0.085496
Si Si7 0.885430 0.419805 0.636798
O O1 0.837464 0.861428 0.719111
O O2 0.753946 0.598292 0.855080
O O3 0.759839 0.093292 0.849258
O O4 0.933284 0.824201 0.876205
O O5 0.906172 0.853734 0.294431
O O6 0.067803 0.816535 0.180427
O O7 0.414043 0.378930 0.506718
O O8 0.706405 0.952757 0.588165
O O9 0.858151 0.647235 0.571698
O O10 0.894242 0.157389 0.589316
O O11 0.709532 0.873685 0.211370
O O12 0.000000 0.500000 0.067538
O O13 0.000000 0.500000 0.677975
#
# Coordination Sequence:
#
# PCOD9347229 Si02
#       7
#     4   2   2   4   4   4   4
#     4  10  22  39  56  95 125 175 213 275 340 404
#     4  11  20  40  62 102 127 174 228 292 337 400
#     4  11  28  38  66  98 145 180 220 296 367 406
#     4  10  21  37  60  91 127 172 219 276 327 402
#     4  10  22  34  63  90 129 165 222 278 331 398
#     4  11  23  40  63  96 138 179 222 283 356 412
#     4  10  19  33  56  94 123 166 209 280 330 384
#
# _framework density 23.791736
#
# number of rings (size 3 to 8) (size 9 to 14) (size 15 to 20)
#    0.000    1.667    3.333    2.500   14.000    0.000 
#    0.000    0.000    0.000    0.000    8.667    0.000 
#    0.000    0.000    0.000    0.000    0.000    0.000 
#
# Total GULP energy -133966.213945 kJ/mol
# GULP energy per Si atom -5581.925581 kJ/mol
# Density = 2.373758 g / cm^3
# Si number density = 23.791736 Si / 1000 Ang^3
#
#
#
# Elastic Constant Matrix: (Units=GPa)
#
#
# Indices 1 2 3 4 5 6 
#
# 1 125.9943 31.7202 18.6540 0.0000 0.0000 0.0000
# 2 31.7202 190.3098 0.7432 0.0000 0.0000 0.0000
# 3 18.6540 0.7432 25.0050 0.0000 0.0000 0.0000
# 4 0.0000 0.0000 0.0000 -37.5039 0.0000 0.0000
# 5 0.0000 0.0000 0.0000 0.0000 10.3169 0.0000
# 6 0.0000 0.0000 0.0000 0.0000 0.0000 39.0343
#
#
#
# Elastic Compliance Matrix: (Units=1/GPa)
#
#
# Indices 1 2 3 4 5 6 
#
# 1 0.009348 -0.001531 -0.006928 0.000000 0.000000 0.000000
# 2 -0.001531 0.005506 0.000979 0.000000 0.000000 0.000000
# 3 -0.006928 0.000979 0.045132 0.000000 0.000000 0.000000
# 4 0.000000 0.000000 0.000000 -0.026664 0.000000 0.000000
# 5 0.000000 0.000000 0.000000 0.000000 0.096928 0.000000
# 6 0.000000 0.000000 0.000000 0.000000 0.000000 0.025618
#
#
# Mechanical properties :
#
#
# Convention : Reuss Voigt Hill
#
# Bulk Modulus (GPa) = 22.21041 49.28267 35.74654
# Shear Modulus (GPa) = 26.90513 21.71556 24.31035
#
# Velocity S-wave (km/s) = 3.36648 3.02443 3.20003
# Velocity P-wave (km/s) = 4.94636 5.74068 5.35826
#
# Compressibility (1/GPa) = 0.04502394
#
# Stress axis : x y z
#
# Youngs Moduli (GPa) = 106.97379 181.62139 22.15747
#
# Poissons Ratio (x) = 0.27807 0.15351
# Poissons Ratio (y) = 0.16378 -0.02168
# Poissons Ratio (z) = 0.74114 -0.17772
#
# Static dielectric constant tensor:
#      x y z
#    x 1.875930 0.000000 0.000000 
#    y 0.000000 2.090850 0.000000 
#    z 0.000000 0.000000 1.913170 
# 
# From -- ./inp_files/7184.got.cif
#   From: 2010.05.17/outbox.cif.g08.bks.cpg/sg34_4_cif.got.tgz:7184.got - 2010.06.03 17:23:11.
