data_PCOD9347317
_publ_section_title
;
Structure prediction by ZEFSAII (Michael W. Deem and Ramdas Pophale) SiO2 
 PCOD9347317
Probable space group: P N N 2
;
_chemical_formula_sum "Si O2"
_cell_formula_units_Z 22
_cell_length_a 15.087096
_cell_length_b 4.997173
_cell_length_c 11.713267
_cell_angle_alpha 90.000000
_cell_angle_beta 90.000000
_cell_angle_gamma 90.000000
_cell_volume 883.096333
_symmetry_space_group_name_H-M "P N N 2"
_symmetry_group_IT_number 34
_symmetry_cell_setting 'orthorhombic'
loop_
_space_group_symop_operation_xyz
x,y,z
-x,-y,z
1/2-x,1/2+y,1/2+z
1/2+x,1/2-y,1/2+z
loop_
_atom_site_type_symbol
_atom_site_label
_atom_site_fract_x
_atom_site_fract_y
_atom_site_fract_z
Si Si1 0.823235 0.404029 0.717730
Si Si2 0.000000 0.500000 0.809602
Si Si3 0.500000 0.000000 0.690861
Si Si4 0.241736 0.087419 0.849508
Si Si5 0.000000 0.000000 0.357929
Si Si6 0.600565 0.111270 0.988107
Si Si7 0.585045 0.321038 0.507940
O O1 0.926221 0.337894 0.744788
O O2 0.775065 0.616563 0.800965
O O3 0.840890 0.561883 0.600310
O O4 0.777748 0.123725 0.747654
O O5 0.946391 0.691990 0.890596
O O6 0.515707 0.748171 0.773104
O O7 0.419212 0.907426 0.605982
O O8 0.175796 0.047551 0.961685
O O9 0.339704 0.028710 0.892582
O O10 0.080054 0.090847 0.441587
O O11 0.500000 0.000000 0.003291
O O12 0.500000 0.500000 0.541476
#
# Coordination Sequence:
#
# PCOD9347317 Si02
#       7
#     4   2   2   4   2   4   4
#     4  11  25  47  80 111 157 207 268 329 403 471
#     4   9  18  37  70 112 146 203 256 319 382 468
#     4  11  24  43  78 114 156 223 250 325 420 476
#     4  11  28  47  75 122 160 200 273 337 388 484
#     4  12  28  50  74 106 158 212 282 318 400 498
#     4  12  30  54  83 114 163 218 273 329 414 489
#     4  10  19  41  75 114 160 199 260 324 400 472
#
# _framework density 24.912344999999998
#
# number of rings (size 3 to 8) (size 9 to 14) (size 15 to 20)
#    0.000    1.091    4.545    0.000    5.091    1.455 
#    3.273    0.000    0.000    0.000    0.000    0.000 
#    0.000    0.000    0.000    0.000    0.000    0.000 
#
# Total GULP energy -122635.087942 kJ/mol
# GULP energy per Si atom -5574.322179 kJ/mol
# Density = 2.485564 g / cm^3
# Si number density = 24.912345 Si / 1000 Ang^3
#
#
#
# Elastic Constant Matrix: (Units=GPa)
#
#
# Indices 1 2 3 4 5 6 
#
# 1 135.3949 27.8057 35.3206 0.0000 0.0000 0.0000
# 2 27.8057 122.4045 23.2786 0.0000 0.0000 0.0000
# 3 35.3206 23.2786 111.0364 0.0000 0.0000 0.0000
# 4 0.0000 0.0000 0.0000 33.5230 0.0000 0.0000
# 5 0.0000 0.0000 0.0000 0.0000 2.6387 0.0000
# 6 0.0000 0.0000 0.0000 0.0000 0.0000 12.7974
#
#
#
# Elastic Compliance Matrix: (Units=1/GPa)
#
#
# Indices 1 2 3 4 5 6 
#
# 1 0.008291 -0.001439 -0.002336 0.000000 0.000000 0.000000
# 2 -0.001439 0.008759 -0.001378 0.000000 0.000000 0.000000
# 3 -0.002336 -0.001378 0.010038 0.000000 0.000000 0.000000
# 4 0.000000 0.000000 0.000000 0.029830 0.000000 0.000000
# 5 0.000000 0.000000 0.000000 0.000000 0.378973 0.000000
# 6 0.000000 0.000000 0.000000 0.000000 0.000000 0.078141
#
#
# Mechanical properties :
#
#
# Convention : Reuss Voigt Hill
#
# Bulk Modulus (GPa) = 59.59107 60.18286 59.88697
# Shear Modulus (GPa) = 9.43518 28.62055 19.02787
#
# Velocity S-wave (km/s) = 1.94822 3.39315 2.76668
# Velocity P-wave (km/s) = 5.38823 6.28980 5.85639
#
# Compressibility (1/GPa) = 0.01678104
#
# Stress axis : x y z
#
# Youngs Moduli (GPa) = 120.61812 114.17209 99.62168
#
# Poissons Ratio (x) = 0.16431 0.23267
# Poissons Ratio (y) = 0.17359 0.13732
# Poissons Ratio (z) = 0.28171 0.15738
#
# Static dielectric constant tensor:
#      x y z
#    x 2.011610 0.000000 0.000000 
#    y 0.000000 2.031390 0.000000 
#    z 0.000000 0.000000 2.077630 
# 
# From -- ./inp_files/7772.got.cif
#   From: 2010.05.17/outbox.cif.g08.bks.cpg/sg34_4_cif.got.tgz:7772.got - 2010.06.03 17:23:11.
