data_PCOD9347427
_publ_section_title
;
Structure prediction by ZEFSAII (Michael W. Deem and Ramdas Pophale) SiO2 
 PCOD9347427
Probable space group: P N N 2
;
_chemical_formula_sum "Si O2"
_cell_formula_units_Z 18
_cell_length_a 7.984756
_cell_length_b 8.157273
_cell_length_c 12.401456
_cell_angle_alpha 90.000000
_cell_angle_beta 90.000000
_cell_angle_gamma 90.000000
_cell_volume 807.754383
_symmetry_space_group_name_H-M "P N N 2"
_symmetry_group_IT_number 34
_symmetry_cell_setting 'orthorhombic'
loop_
_space_group_symop_operation_xyz
x,y,z
-x,-y,z
1/2-x,1/2+y,1/2+z
1/2+x,1/2-y,1/2+z
loop_
_atom_site_type_symbol
_atom_site_label
_atom_site_fract_x
_atom_site_fract_y
_atom_site_fract_z
Si Si1 0.503368 0.189521 0.495310
Si Si2 0.723836 0.346219 0.333549
Si Si3 0.149628 0.694828 0.561422
Si Si4 0.175111 0.902103 0.156924
Si Si5 0.000000 0.000000 0.671270
O O1 0.792493 0.194757 0.265430
O O2 0.670754 0.211758 0.566709
O O3 0.352825 0.272025 0.559765
O O4 0.500000 0.000000 0.468277
O O5 0.847838 0.365804 0.435892
O O6 0.549018 0.294573 0.390563
O O7 0.665286 0.479863 0.246874
O O8 0.180004 0.531953 0.630753
O O9 0.021111 0.832573 0.601851
O O10 0.000000 0.000000 0.161862
#
# Coordination Sequence:
#
# PCOD9347427 Si02
#       5
#     4   4   4   4   2
#     4   9  19  38  61  88 121 158 213 248 303 373
#     4  10  23  37  65  85 121 167 192 257 315 351
#     4   9  23  37  58  94 120 156 211 248 299 380
#     4  10  20  40  63  86 127 158 205 254 304 364
#     4  12  22  40  64  88 130 156 210 252 310 372
#
# _framework density 22.284002999999998
#
# number of rings (size 3 to 8) (size 9 to 14) (size 15 to 20)
#    1.333    0.889    0.000    2.667    4.667    0.000 
#    0.000    0.000   14.667    0.000    0.000    0.000 
#    0.000    0.000    0.000    0.000    0.000    0.000 
#
# Total GULP energy -100211.156937 kJ/mol
# GULP energy per Si atom -5567.286496 kJ/mol
# Density = 2.223328 g / cm^3
# Si number density = 22.284003 Si / 1000 Ang^3
#
#
#
# Elastic Constant Matrix: (Units=GPa)
#
#
# Indices 1 2 3 4 5 6 
#
# 1 69.0910 31.5093 28.0465 0.0000 0.0000 0.0000
# 2 31.5093 72.8731 27.5811 0.0000 0.0000 0.0000
# 3 28.0465 27.5811 96.9267 0.0000 0.0000 0.0000
# 4 0.0000 0.0000 0.0000 105.5488 0.0000 0.0000
# 5 0.0000 0.0000 0.0000 0.0000 3.4274 0.0000
# 6 0.0000 0.0000 0.0000 0.0000 0.0000 25.9714
#
#
#
# Elastic Compliance Matrix: (Units=1/GPa)
#
#
# Indices 1 2 3 4 5 6 
#
# 1 0.019061 -0.006897 -0.003553 0.000000 0.000000 0.000000
# 2 -0.006897 0.017874 -0.003091 0.000000 0.000000 0.000000
# 3 -0.003553 -0.003091 0.012225 0.000000 0.000000 0.000000
# 4 0.000000 0.000000 0.000000 0.009474 0.000000 0.000000
# 5 0.000000 0.000000 0.000000 0.000000 0.291768 0.000000
# 6 0.000000 0.000000 0.000000 0.000000 0.000000 0.038504
#
#
# Mechanical properties :
#
#
# Convention : Reuss Voigt Hill
#
# Bulk Modulus (GPa) = 45.29161 45.90719 45.59940
# Shear Modulus (GPa) = 11.81063 37.10643 24.45853
#
# Velocity S-wave (km/s) = 2.30468 4.08506 3.31657
# Velocity P-wave (km/s) = 5.23936 6.54951 5.93072
#
# Compressibility (1/GPa) = 0.02207915
#
# Stress axis : x y z
#
# Youngs Moduli (GPa) = 52.46199 55.94580 81.80242
#
# Poissons Ratio (x) = 0.38587 0.29064
# Poissons Ratio (y) = 0.36184 0.25281
# Poissons Ratio (z) = 0.18639 0.17290
#
# Static dielectric constant tensor:
#      x y z
#    x 1.871690 0.000000 0.000000 
#    y 0.000000 1.827610 0.000000 
#    z 0.000000 0.000000 1.900720 
# 
# From -- ./inp_files/5279.got.cif
#   From: 2010.05.17/outbox.cif.g08.bks.cpg/sg34_3_cif.got.tgz:5279.got - 2010.06.03 17:23:11.
