data_PCOD9347124
_publ_section_title
;
Structure prediction by ZEFSAII (Michael W. Deem and Ramdas Pophale) SiO2 
 PCOD9347124
Probable space group: P N N 2
;
_chemical_formula_sum "Si O2"
_cell_formula_units_Z 26
_cell_length_a 7.777797
_cell_length_b 16.119515
_cell_length_c 10.089469
_cell_angle_alpha 90.000000
_cell_angle_beta 90.000000
_cell_angle_gamma 90.000000
_cell_volume 1264.960269
_symmetry_space_group_name_H-M "P N N 2"
_symmetry_group_IT_number 34
_symmetry_cell_setting 'orthorhombic'
loop_
_space_group_symop_operation_xyz
x,y,z
-x,-y,z
1/2-x,1/2+y,1/2+z
1/2+x,1/2-y,1/2+z
loop_
_atom_site_type_symbol
_atom_site_label
_atom_site_fract_x
_atom_site_fract_y
_atom_site_fract_z
Si Si1 0.691138 0.964022 0.273680
Si Si2 0.823584 0.795082 0.198409
Si Si3 0.159083 0.060309 0.570794
Si Si4 0.388134 0.827589 0.477296
Si Si5 0.000000 0.500000 0.111613
Si Si6 0.205476 0.865971 0.198125
Si Si7 0.219120 0.238250 0.489676
O O1 0.694944 0.872797 0.211511
O O2 0.779875 0.956367 0.417988
O O3 0.500000 0.000000 0.285955
O O4 0.786660 0.035082 0.192539
O O5 0.789375 0.731617 0.080261
O O6 0.837957 0.749144 0.339447
O O7 0.009537 0.837631 0.186222
O O8 0.130153 0.159186 0.562496
O O9 0.321492 0.038923 0.665818
O O10 0.000000 0.000000 0.598506
O O11 0.422457 0.918638 0.537781
O O12 0.288931 0.838083 0.338875
O O13 0.579359 0.788079 0.471510
O O14 0.299466 0.818170 0.080148
#
# Coordination Sequence:
#
# PCOD9347124 Si02
#       7
#     4   4   4   4   2   4   4
#     4  11  19  33  54  83 114 149 201 252 289 362
#     4  10  22  37  58  86 119 159 201 241 319 367
#     4  10  17  32  54  81 112 149 195 247 295 355
#     4  10  21  37  59  85 119 155 194 263 299 355
#     4  10  18  34  56  84 114 144 206 246 296 344
#     4  11  20  35  61  84 114 155 201 253 298 365
#     4   9  21  36  53  85 121 144 199 255 299 363
#
# _framework density 20.554006999999999
#
# number of rings (size 3 to 8) (size 9 to 14) (size 15 to 20)
#    0.000    1.846    2.308    4.154    0.000    2.462 
#    0.000    0.000   11.846    0.000    0.000    0.000 
#    0.000    0.000    0.000    0.000    0.000    0.000 
#
# Total GULP energy -144946.752380 kJ/mol
# GULP energy per Si atom -5574.875092 kJ/mol
# Density = 2.050722 g / cm^3
# Si number density = 20.554007 Si / 1000 Ang^3
#
#
#
# Elastic Constant Matrix: (Units=GPa)
#
#
# Indices 1 2 3 4 5 6 
#
# 1 61.8460 11.8390 0.6242 0.0000 0.0000 0.0000
# 2 11.8390 115.0788 50.3884 0.0000 0.0000 0.0000
# 3 0.6242 50.3884 50.5393 0.0000 0.0000 0.0000
# 4 0.0000 0.0000 0.0000 26.8519 0.0000 0.0000
# 5 0.0000 0.0000 0.0000 0.0000 14.2181 0.0000
# 6 0.0000 0.0000 0.0000 0.0000 0.0000 33.5634
#
#
#
# Elastic Compliance Matrix: (Units=1/GPa)
#
#
# Indices 1 2 3 4 5 6 
#
# 1 0.016695 -0.002888 0.002673 0.000000 0.000000 0.000000
# 2 -0.002888 0.015922 -0.015839 0.000000 0.000000 0.000000
# 3 0.002673 -0.015839 0.035545 0.000000 0.000000 0.000000
# 4 0.000000 0.000000 0.000000 0.037241 0.000000 0.000000
# 5 0.000000 0.000000 0.000000 0.000000 0.070333 0.000000
# 6 0.000000 0.000000 0.000000 0.000000 0.000000 0.029794
#
#
# Mechanical properties :
#
#
# Convention : Reuss Voigt Hill
#
# Bulk Modulus (GPa) = 27.73549 39.24082 33.48816
# Shear Modulus (GPa) = 20.02755 25.90084 22.96419
#
# Velocity S-wave (km/s) = 3.12490 3.55369 3.34617
# Velocity P-wave (km/s) = 5.15202 5.99761 5.59082
#
# Compressibility (1/GPa) = 0.03605488
#
# Stress axis : x y z
#
# Youngs Moduli (GPa) = 59.89792 62.80631 28.13334
#
# Poissons Ratio (x) = 0.18139 -0.07521
# Poissons Ratio (y) = 0.17299 0.44560
# Poissons Ratio (z) = -0.16012 0.99477
#
# Static dielectric constant tensor:
#      x y z
#    x 1.843890 0.000000 0.000000 
#    y 0.000000 1.769060 0.000000 
#    z 0.000000 0.000000 1.735130 
# 
# From -- ./inp_files/5031.got.cif
#   From: 2010.05.17/outbox.cif.g08.bks.cpg/sg34_3_cif.got.tgz:5031.got - 2010.06.03 17:23:11.
