data_PCOD9347855
_publ_section_title
;
Structure prediction by ZEFSAII (Michael W. Deem and Ramdas Pophale) SiO2 
 PCOD9347855
Probable space group: P N N 2
;
_chemical_formula_sum "Si O2"
_cell_formula_units_Z 18
_cell_length_a 6.947611
_cell_length_b 21.382593
_cell_length_c 4.678143
_cell_angle_alpha 90.000000
_cell_angle_beta 90.000000
_cell_angle_gamma 90.000000
_cell_volume 694.975279
_symmetry_space_group_name_H-M "P N N 2"
_symmetry_group_IT_number 34
_symmetry_cell_setting 'orthorhombic'
loop_
_space_group_symop_operation_xyz
x,y,z
-x,-y,z
1/2-x,1/2+y,1/2+z
1/2+x,1/2-y,1/2+z
loop_
_atom_site_type_symbol
_atom_site_label
_atom_site_fract_x
_atom_site_fract_y
_atom_site_fract_z
Si Si1 0.693668 0.656266 0.113330
Si Si2 0.508568 0.762268 0.731396
Si Si3 0.993030 0.413353 0.728289
Si Si4 0.000000 0.500000 0.226486
Si Si5 0.323298 0.656176 0.349630
O O1 0.508277 0.619560 0.230579
O O2 0.593066 0.715358 0.960788
O O3 0.832413 0.621153 0.891466
O O4 0.911482 0.547315 0.462750
O O5 0.424246 0.715050 0.503106
O O6 0.341236 0.809870 0.831700
O O7 0.675801 0.809941 0.631146
O O8 0.901271 0.454804 0.990293
O O9 0.815958 0.379221 0.569793
#
# Coordination Sequence:
#
# PCOD9347855 Si02
#       5
#     4   4   4   2   4
#     4  11  25  42  73 112 155 202 244 298 380 477
#     4  10  25  40  66 118 162 194 237 298 366 482
#     4  11  26  48  82 102 148 204 262 329 400 440
#     4  10  26  54  74 106 140 192 270 354 382 428
#     4  11  25  42  73 112 155 202 244 298 380 477
#
# _framework density 25.900200999999999
#
# number of rings (size 3 to 8) (size 9 to 14) (size 15 to 20)
#    0.000    1.333    0.000    2.667   24.889    0.000 
#    0.000    1.111    0.000    0.000    0.000    0.000 
#    0.000    0.000    0.000    0.000    0.000    0.000 
#
# Total GULP energy -100336.125662 kJ/mol
# GULP energy per Si atom -5574.229203 kJ/mol
# Density = 2.584125 g / cm^3
# Si number density = 25.900201 Si / 1000 Ang^3
#
#
#
# Elastic Constant Matrix: (Units=GPa)
#
#
# Indices 1 2 3 4 5 6 
#
# 1 207.3101 51.1828 56.6794 0.0000 0.0000 0.0000
# 2 51.1828 85.3413 49.8107 0.0000 0.0000 0.0000
# 3 56.6794 49.8107 151.5875 0.0000 0.0000 0.0000
# 4 0.0000 0.0000 0.0000 46.7300 0.0000 0.0000
# 5 0.0000 0.0000 0.0000 0.0000 42.1782 0.0000
# 6 0.0000 0.0000 0.0000 0.0000 0.0000 -2.6414
#
#
#
# Elastic Compliance Matrix: (Units=1/GPa)
#
#
# Indices 1 2 3 4 5 6 
#
# 1 0.005857 -0.002765 -0.001281 0.000000 0.000000 0.000000
# 2 -0.002765 0.015803 -0.004159 0.000000 0.000000 0.000000
# 3 -0.001281 -0.004159 0.008443 0.000000 0.000000 0.000000
# 4 0.000000 0.000000 0.000000 0.021400 0.000000 0.000000
# 5 0.000000 0.000000 0.000000 0.000000 0.023709 0.000000
# 6 0.000000 0.000000 0.000000 0.000000 0.000000 -0.378591
#
#
# Mechanical properties :
#
#
# Convention : Reuss Voigt Hill
#
# Bulk Modulus (GPa) = 73.03401 84.39830 78.71615
# Shear Modulus (GPa) = -17.70504 36.35778 9.32637
#
# Velocity S-wave (km/s) = -2.61739 3.75075 1.89966
# Velocity P-wave (km/s) = 4.37323 7.17037 5.93883
#
# Compressibility (1/GPa) = 0.01369225
#
# Stress axis : x y z
#
# Youngs Moduli (GPa) = 170.74864 63.27829 118.44627
#
# Poissons Ratio (x) = 0.17493 0.15178
# Poissons Ratio (y) = 0.47204 0.49264
# Poissons Ratio (z) = 0.21880 0.26318
#
# Static dielectric constant tensor:
#      x y z
#    x 2.247760 0.000000 0.000000 
#    y 0.000000 2.187720 0.000000 
#    z 0.000000 0.000000 2.117970 
# 
# From -- ./inp_files/145.got.cif
#   From: 2010.05.17/outbox.cif.g08.bks.cpg/sg34_1_cif.got.tgz:145.got - 2010.06.03 17:23:11.
