data_PCOD9347173
_publ_section_title
;
Structure prediction by ZEFSAII (Michael W. Deem and Ramdas Pophale) SiO2 
 PCOD9347173
Probable space group: P N N 2
;
_chemical_formula_sum "Si O2"
_cell_formula_units_Z 32
_cell_length_a 9.033820
_cell_length_b 16.718938
_cell_length_c 11.635772
_cell_angle_alpha 90.000000
_cell_angle_beta 90.000000
_cell_angle_gamma 90.000000
_cell_volume 1757.419023
_symmetry_space_group_name_H-M "P N N 2"
_symmetry_group_IT_number 34
_symmetry_cell_setting 'orthorhombic'
loop_
_space_group_symop_operation_xyz
x,y,z
-x,-y,z
1/2-x,1/2+y,1/2+z
1/2+x,1/2-y,1/2+z
loop_
_atom_site_type_symbol
_atom_site_label
_atom_site_fract_x
_atom_site_fract_y
_atom_site_fract_z
Si Si1 0.033085 0.829820 0.564770
Si Si2 0.639091 0.101325 0.230580
Si Si3 0.225088 0.201742 0.006459
Si Si4 0.705576 0.932621 0.169836
Si Si5 0.210346 0.214961 0.733019
Si Si6 0.708053 0.055877 0.496455
Si Si7 0.027252 0.675008 0.064111
Si Si8 0.268923 0.621093 0.915140
O O1 0.131972 0.751221 0.549792
O O2 0.145503 0.902941 0.546696
O O3 0.935138 0.827050 0.679561
O O4 0.912513 0.836546 0.464193
O O5 0.466147 0.088930 0.199798
O O6 0.691778 0.190547 0.205647
O O7 0.671448 0.084714 0.365768
O O8 0.718720 0.028233 0.165158
O O9 0.220647 0.203827 0.869014
O O10 0.238722 0.114198 0.059587
O O11 0.085709 0.251368 0.055375
O O12 0.787951 0.900270 0.283013
O O13 0.355549 0.183438 0.666702
O O14 0.571863 0.094265 0.566926
O O15 0.735964 0.961817 0.483704
O O16 0.125488 0.673105 0.947386
#
# Coordination Sequence:
#
# PCOD9347173 Si02
#       8
#     4   4   4   4   4   4   4   4
#     4  10  21  33  56  85 116 154 191 243 294 349
#     4  10  18  35  59  87 117 146 190 247 299 342
#     4  11  22  37  57  86 125 154 194 240 301 355
#     4  10  20  33  61  88 116 151 187 250 309 345
#     4  11  21  38  56  84 124 157 196 242 291 364
#     4  10  18  36  58  89 111 141 191 256 298 336
#     4  10  21  34  57  84 114 155 190 241 299 351
#     4  10  19  34  60  89 113 140 197 251 297 346
#
# _framework density 18.208518999999999
#
# number of rings (size 3 to 8) (size 9 to 14) (size 15 to 20)
#    0.000    1.750    5.000    0.750    1.750    0.000 
#    0.000    0.625   11.000    3.000    0.000    0.000 
#    0.000    0.000    0.000    0.000    0.000    0.000 
#
# Total GULP energy -178468.406270 kJ/mol
# GULP energy per Si atom -5577.137696 kJ/mol
# Density = 1.816708 g / cm^3
# Si number density = 18.208519 Si / 1000 Ang^3
#
#
#
# Elastic Constant Matrix: (Units=GPa)
#
#
# Indices 1 2 3 4 5 6 
#
# 1 95.6412 24.3836 28.3053 0.0000 0.0000 0.0000
# 2 24.3836 89.6383 27.0737 0.0000 0.0000 0.0000
# 3 28.3053 27.0737 75.0050 0.0000 0.0000 0.0000
# 4 0.0000 0.0000 0.0000 28.8860 0.0000 0.0000
# 5 0.0000 0.0000 0.0000 0.0000 13.0025 0.0000
# 6 0.0000 0.0000 0.0000 0.0000 0.0000 18.5263
#
#
#
# Elastic Compliance Matrix: (Units=1/GPa)
#
#
# Indices 1 2 3 4 5 6 
#
# 1 0.012129 -0.002151 -0.003801 0.000000 0.000000 0.000000
# 2 -0.002151 0.012903 -0.003845 0.000000 0.000000 0.000000
# 3 -0.003801 -0.003845 0.016155 0.000000 0.000000 0.000000
# 4 0.000000 0.000000 0.000000 0.034619 0.000000 0.000000
# 5 0.000000 0.000000 0.000000 0.000000 0.076908 0.000000
# 6 0.000000 0.000000 0.000000 0.000000 0.000000 0.053977
#
#
# Mechanical properties :
#
#
# Convention : Reuss Voigt Hill
#
# Bulk Modulus (GPa) = 46.31470 46.64553 46.48012
# Shear Modulus (GPa) = 21.41482 24.11775 22.76629
#
# Velocity S-wave (km/s) = 3.43313 3.64336 3.53981
# Velocity P-wave (km/s) = 6.41920 6.58573 6.50300
#
# Compressibility (1/GPa) = 0.02159142
#
# Stress axis : x y z
#
# Youngs Moduli (GPa) = 82.44650 77.50363 61.90118
#
# Poissons Ratio (x) = 0.16674 0.23527
# Poissons Ratio (y) = 0.17738 0.23803
# Poissons Ratio (z) = 0.31335 0.29803
#
# Static dielectric constant tensor:
#      x y z
#    x 1.656220 0.000000 0.000000 
#    y 0.000000 1.639880 0.000000 
#    z 0.000000 0.000000 1.602470 
# 
# From -- ./inp_files/5157.got.cif
#   From: 2010.05.17/outbox.cif.g08.bks.cpg/sg34_3_cif.got.tgz:5157.got - 2010.06.03 17:23:11.
