data_PCOD9347179
_publ_section_title
;
Structure prediction by ZEFSAII (Michael W. Deem and Ramdas Pophale) SiO2 
 PCOD9347179
Probable space group: P N N 2
;
_chemical_formula_sum "Si O2"
_cell_formula_units_Z 30
_cell_length_a 16.345246
_cell_length_b 5.507899
_cell_length_c 14.829513
_cell_angle_alpha 90.000000
_cell_angle_beta 90.000000
_cell_angle_gamma 90.000000
_cell_volume 1335.070864
_symmetry_space_group_name_H-M "P N N 2"
_symmetry_group_IT_number 34
_symmetry_cell_setting 'orthorhombic'
loop_
_space_group_symop_operation_xyz
x,y,z
-x,-y,z
1/2-x,1/2+y,1/2+z
1/2+x,1/2-y,1/2+z
loop_
_atom_site_type_symbol
_atom_site_label
_atom_site_fract_x
_atom_site_fract_y
_atom_site_fract_z
Si Si1 0.500000 0.500000 0.189210
Si Si2 0.205300 0.623016 0.317265
Si Si3 0.052244 0.742856 0.197723
Si Si4 0.821309 0.858122 0.639035
Si Si5 0.760791 0.854339 0.108829
Si Si6 0.427147 0.167408 0.341974
Si Si7 0.745078 0.390228 0.819203
Si Si8 0.904637 0.056282 0.020287
O O1 0.580279 0.386797 0.142373
O O2 0.465791 0.296963 0.256687
O O3 0.116649 0.669617 0.274346
O O4 0.275813 0.626993 0.238190
O O5 0.217327 0.362957 0.362066
O O6 0.217083 0.871260 0.371185
O O7 0.000000 0.500000 0.185384
O O8 0.105275 0.767426 0.105808
O O9 0.000000 0.000000 0.212441
O O10 0.791153 0.603200 0.597032
O O11 0.788691 0.107852 0.596172
O O12 0.788474 0.869303 0.215483
O O13 0.839745 0.851850 0.044416
O O14 0.341748 0.065396 0.308598
O O15 0.396848 0.342764 0.421078
O O16 0.500000 0.000000 0.379789
O O17 0.000000 0.000000 0.026085
#
# Coordination Sequence:
#
# PCOD9347179 Si02
#       8
#     2   4   4   4   4   4   4   4
#     4  12  22  38  58  90 124 152 206 248 318 370
#     4  10  18  36  54  79 111 147 202 250 287 340
#     4  11  22  33  54  82 118 155 192 240 297 355
#     4  10  21  34  59  79 112 152 197 258 285 341
#     4  10  20  39  55  79 114 158 204 243 284 353
#     4  12  24  37  56  87 131 165 197 240 316 392
#     4  10  20  36  58  76 109 162 196 250 282 343
#     4  11  24  36  56  84 129 164 194 233 307 379
#
# _framework density 22.470718999999999
#
# number of rings (size 3 to 8) (size 9 to 14) (size 15 to 20)
#    0.000    1.333    6.000    2.800    5.600    1.067 
#    0.000    0.000    0.000    0.000    0.000    0.000 
#   22.000    0.000    0.000    0.000    0.000    0.000 
#
# Total GULP energy -167249.451165 kJ/mol
# GULP energy per Si atom -5574.981706 kJ/mol
# Density = 2.241957 g / cm^3
# Si number density = 22.470719 Si / 1000 Ang^3
#
#
#
# Elastic Constant Matrix: (Units=GPa)
#
#
# Indices 1 2 3 4 5 6 
#
# 1 105.6584 42.6931 25.9422 0.0000 0.0000 0.0000
# 2 42.6931 181.1868 11.3898 0.0000 0.0000 0.0000
# 3 25.9422 11.3898 39.8940 0.0000 0.0000 0.0000
# 4 0.0000 0.0000 0.0000 23.8126 0.0000 0.0000
# 5 0.0000 0.0000 0.0000 0.0000 -37.9980 0.0000
# 6 0.0000 0.0000 0.0000 0.0000 0.0000 43.2512
#
#
#
# Elastic Compliance Matrix: (Units=1/GPa)
#
#
# Indices 1 2 3 4 5 6 
#
# 1 0.012226 -0.002425 -0.007258 0.000000 0.000000 0.000000
# 2 -0.002425 0.006101 -0.000165 0.000000 0.000000 0.000000
# 3 -0.007258 -0.000165 0.029833 0.000000 0.000000 0.000000
# 4 0.000000 0.000000 0.000000 0.041995 0.000000 0.000000
# 5 0.000000 0.000000 0.000000 0.000000 -0.026317 0.000000
# 6 0.000000 0.000000 0.000000 0.000000 0.000000 0.023121
#
#
# Mechanical properties :
#
#
# Convention : Reuss Voigt Hill
#
# Bulk Modulus (GPa) = 35.13134 54.08770 44.60952
# Shear Modulus (GPa) = 43.05036 22.26076 32.65556
#
# Velocity S-wave (km/s) = 4.38178 3.15088 3.81629
# Velocity P-wave (km/s) = 6.42404 6.11228 6.27010
#
# Compressibility (1/GPa) = 0.02846461
#
# Stress axis : x y z
#
# Youngs Moduli (GPa) = 81.79103 163.91137 33.51939
#
# Poissons Ratio (x) = 0.39742 0.24329
# Poissons Ratio (y) = 0.19831 0.00554
# Poissons Ratio (z) = 0.59366 0.02707
#
# Static dielectric constant tensor:
#      x y z
#    x 1.935200 0.000000 0.000000 
#    y 0.000000 1.973030 0.000000 
#    z 0.000000 0.000000 1.880280 
# 
# From -- ./inp_files/7784.got.cif
#   From: 2010.05.17/outbox.cif.g08.bks.cpg/sg34_4_cif.got.tgz:7784.got - 2010.06.03 17:23:11.
