data_PCOD9347340
_publ_section_title
;
Structure prediction by ZEFSAII (Michael W. Deem and Ramdas Pophale) SiO2 
 PCOD9347340
Probable space group: P N N 2
;
_chemical_formula_sum "Si O2"
_cell_formula_units_Z 24
_cell_length_a 22.983372
_cell_length_b 8.874250
_cell_length_c 5.371948
_cell_angle_alpha 90.000000
_cell_angle_beta 90.000000
_cell_angle_gamma 90.000000
_cell_volume 1095.663529
_symmetry_space_group_name_H-M "P N N 2"
_symmetry_group_IT_number 34
_symmetry_cell_setting 'orthorhombic'
loop_
_space_group_symop_operation_xyz
x,y,z
-x,-y,z
1/2-x,1/2+y,1/2+z
1/2+x,1/2-y,1/2+z
loop_
_atom_site_type_symbol
_atom_site_label
_atom_site_fract_x
_atom_site_fract_y
_atom_site_fract_z
Si Si1 0.642608 0.675083 0.500000
Si Si2 0.688986 0.379380 0.292282
Si Si3 0.705837 0.684820 0.013244
Si Si4 0.000000 0.000000 0.512906
Si Si5 0.000000 0.500000 0.490037
Si Si6 0.569948 0.248236 0.287115
Si Si7 0.972976 0.249509 0.153025
O O1 0.654859 0.496658 0.472053
O O2 0.662689 0.709712 0.779862
O O3 0.576398 0.724936 0.448690
O O4 0.681533 0.744107 0.278023
O O5 0.738299 0.280912 0.426726
O O6 0.637861 0.261136 0.230347
O O7 0.710958 0.502490 0.082052
O O8 0.034987 0.890471 0.333842
O O9 0.957666 0.899048 0.672752
O O10 0.959952 0.606863 0.654268
O O11 0.961728 0.397868 0.308749
O O12 0.539669 0.245586 0.559339
#
# Coordination Sequence:
#
# PCOD9347340 Si02
#       7
#     4   4   4   2   2   4   4
#     4  10  24  44  74 101 141 185 244 300 361 442
#     4  10  24  46  73 105 142 193 250 305 362 441
#     4  10  25  45  72 106 142 188 249 299 367 425
#     4  10  20  34  72 102 132 180 232 292 366 444
#     4  10  26  42  64 112 150 178 240 286 392 426
#     4  11  22  44  68 103 142 185 234 304 365 446
#     4  11  22  43  66 106 138 185 232 300 371 435
#
# _framework density 21.904534000000002
#
# number of rings (size 3 to 8) (size 9 to 14) (size 15 to 20)
#    1.000    0.667    0.000    4.000    7.000    1.333 
#    9.000    0.000    0.000    0.000    0.000    0.000 
#    0.000    0.000    0.000    0.000    0.000    0.000 
#
# Total GULP energy -133686.971598 kJ/mol
# GULP energy per Si atom -5570.290483 kJ/mol
# Density = 2.185468 g / cm^3
# Si number density = 21.904534 Si / 1000 Ang^3
#
#
#
# Elastic Constant Matrix: (Units=GPa)
#
#
# Indices 1 2 3 4 5 6 
#
# 1 92.2423 22.7495 9.2142 0.0000 0.0000 0.0000
# 2 22.7495 83.5391 17.2421 0.0000 0.0000 0.0000
# 3 9.2142 17.2421 80.1663 0.0000 0.0000 0.0000
# 4 0.0000 0.0000 0.0000 36.0462 0.0000 0.0000
# 5 0.0000 0.0000 0.0000 0.0000 24.4654 0.0000
# 6 0.0000 0.0000 0.0000 0.0000 0.0000 8.8510
#
#
#
# Elastic Compliance Matrix: (Units=1/GPa)
#
#
# Indices 1 2 3 4 5 6 
#
# 1 0.011658 -0.003033 -0.000688 0.000000 0.000000 0.000000
# 2 -0.003033 0.013315 -0.002515 0.000000 0.000000 0.000000
# 3 -0.000688 -0.002515 0.013094 0.000000 0.000000 0.000000
# 4 0.000000 0.000000 0.000000 0.027742 0.000000 0.000000
# 5 0.000000 0.000000 0.000000 0.000000 0.040874 0.000000
# 6 0.000000 0.000000 0.000000 0.000000 0.000000 0.112982
#
#
# Mechanical properties :
#
#
# Convention : Reuss Voigt Hill
#
# Bulk Modulus (GPa) = 39.06874 39.37325 39.22099
# Shear Modulus (GPa) = 20.77546 27.65532 24.21539
#
# Velocity S-wave (km/s) = 3.08304 3.55708 3.32851
# Velocity P-wave (km/s) = 5.52704 5.90630 5.71981
#
# Compressibility (1/GPa) = 0.02559591
#
# Stress axis : x y z
#
# Youngs Moduli (GPa) = 85.78057 75.10062 76.37027
#
# Poissons Ratio (x) = 0.22776 0.05252
# Poissons Ratio (y) = 0.26015 0.19209
# Poissons Ratio (z) = 0.05899 0.18890
#
# Static dielectric constant tensor:
#      x y z
#    x 1.854270 0.000000 0.000000 
#    y 0.000000 1.827670 0.000000 
#    z 0.000000 0.000000 1.839060 
# 
# From -- ./inp_files/503.got.cif
#   From: 2010.05.17/outbox.cif.g08.bks.cpg/sg34_1_cif.got.tgz:503.got - 2010.06.03 17:23:11.
