data_PCOD9347443
_publ_section_title
;
Structure prediction by ZEFSAII (Michael W. Deem and Ramdas Pophale) SiO2 
 PCOD9347443
Probable space group: P N N 2
;
_chemical_formula_sum "Si O2"
_cell_formula_units_Z 18
_cell_length_a 8.349254
_cell_length_b 7.388179
_cell_length_c 12.150013
_cell_angle_alpha 90.000000
_cell_angle_beta 90.000000
_cell_angle_gamma 90.000000
_cell_volume 749.483066
_symmetry_space_group_name_H-M "P N N 2"
_symmetry_group_IT_number 34
_symmetry_cell_setting 'orthorhombic'
loop_
_space_group_symop_operation_xyz
x,y,z
-x,-y,z
1/2-x,1/2+y,1/2+z
1/2+x,1/2-y,1/2+z
loop_
_atom_site_type_symbol
_atom_site_label
_atom_site_fract_x
_atom_site_fract_y
_atom_site_fract_z
Si Si1 0.000000 0.500000 0.714751
Si Si2 0.681604 0.009579 0.653745
Si Si3 0.826602 0.925860 0.180406
Si Si4 0.892686 0.835744 0.844007
Si Si5 0.317870 0.475130 0.936061
O O1 0.837160 0.525403 0.646560
O O2 0.002383 0.675657 0.793840
O O3 0.706509 0.222742 0.646938
O O4 0.707288 0.936280 0.530172
O O5 0.500000 0.000000 0.692418
O O6 0.798186 0.922170 0.741417
O O7 0.825530 0.941855 0.313828
O O8 0.000000 0.000000 0.145596
O O9 0.759096 0.724924 0.913840
O O10 0.000000 0.000000 0.892077
O O11 0.500000 0.500000 0.978997
#
# Coordination Sequence:
#
# PCOD9347443 Si02
#       5
#     2   4   4   4   4
#     4  10  20  40  72  92 136 176 224 288 352 396
#     4  12  24  40  72 104 135 183 240 288 356 438
#     4  10  22  43  67  96 142 180 224 294 353 411
#     4  11  23  44  74 100 140 189 240 286 363 425
#     4  10  24  44  67 100 148 180 232 306 355 423
#
# _framework density 24.016552000000001
#
# number of rings (size 3 to 8) (size 9 to 14) (size 15 to 20)
#    0.000    1.333    2.222    4.667    6.222    0.889 
#    0.000    4.444    4.889    0.000    0.000    0.000 
#    0.000    0.000    0.000    0.000    0.000    0.000 
#
# Total GULP energy -100420.436729 kJ/mol
# GULP energy per Si atom -5578.913152 kJ/mol
# Density = 2.396189 g / cm^3
# Si number density = 24.016552 Si / 1000 Ang^3
#
#
#
# Elastic Constant Matrix: (Units=GPa)
#
#
# Indices 1 2 3 4 5 6 
#
# 1 182.1188 33.2249 16.3844 0.0000 0.0000 0.0000
# 2 33.2249 113.7034 24.0955 0.0000 0.0000 0.0000
# 3 16.3844 24.0955 113.3764 0.0000 0.0000 0.0000
# 4 0.0000 0.0000 0.0000 -27.3677 0.0000 0.0000
# 5 0.0000 0.0000 0.0000 0.0000 35.8216 0.0000
# 6 0.0000 0.0000 0.0000 0.0000 0.0000 54.0957
#
#
#
# Elastic Compliance Matrix: (Units=1/GPa)
#
#
# Indices 1 2 3 4 5 6 
#
# 1 0.005827 -0.001596 -0.000503 0.000000 0.000000 0.000000
# 2 -0.001596 0.009647 -0.001820 0.000000 0.000000 0.000000
# 3 -0.000503 -0.001820 0.009280 0.000000 0.000000 0.000000
# 4 0.000000 0.000000 0.000000 -0.036539 0.000000 0.000000
# 5 0.000000 0.000000 0.000000 0.000000 0.027916 0.000000
# 6 0.000000 0.000000 0.000000 0.000000 0.000000 0.018486
#
#
# Mechanical properties :
#
#
# Convention : Reuss Voigt Hill
#
# Bulk Modulus (GPa) = 59.11406 61.84536 60.47971
# Shear Modulus (GPa) = 103.96679 34.87618 69.42148
#
# Velocity S-wave (km/s) = 6.58662 3.81487 5.38223
# Velocity P-wave (km/s) = 9.08362 6.72394 7.99136
#
# Compressibility (1/GPa) = 0.01691645
#
# Stress axis : x y z
#
# Youngs Moduli (GPa) = 171.60397 103.66105 107.76384
#
# Poissons Ratio (x) = 0.16547 0.05419
# Poissons Ratio (y) = 0.27392 0.19608
# Poissons Ratio (z) = 0.08630 0.18861
#
# Static dielectric constant tensor:
#      x y z
#    x 1.955900 0.000000 0.000000 
#    y 0.000000 1.931290 0.000000 
#    z 0.000000 0.000000 1.922920 
# 
# From -- ./inp_files/4798.got.cif
#   From: 2010.05.17/outbox.cif.g08.bks.cpg/sg34_3_cif.got.tgz:4798.got - 2010.06.03 17:23:11.
