data_PCOD9347209
_publ_section_title
;
Structure prediction by ZEFSAII (Michael W. Deem and Ramdas Pophale) SiO2 
 PCOD9347209
Probable space group: P N N 2
;
_chemical_formula_sum "Si O2"
_cell_formula_units_Z 24
_cell_length_a 8.131011
_cell_length_b 9.419535
_cell_length_c 14.483830
_cell_angle_alpha 90.000000
_cell_angle_beta 90.000000
_cell_angle_gamma 90.000000
_cell_volume 1109.321503
_symmetry_space_group_name_H-M "P N N 2"
_symmetry_group_IT_number 34
_symmetry_cell_setting 'orthorhombic'
loop_
_space_group_symop_operation_xyz
x,y,z
-x,-y,z
1/2-x,1/2+y,1/2+z
1/2+x,1/2-y,1/2+z
loop_
_atom_site_type_symbol
_atom_site_label
_atom_site_fract_x
_atom_site_fract_y
_atom_site_fract_z
Si Si1 0.823305 0.567509 0.317960
Si Si2 0.359957 0.723318 0.290487
Si Si3 0.685918 0.747424 0.166149
Si Si4 0.682129 0.518927 0.709555
Si Si5 0.843683 0.846575 0.402567
Si Si6 0.778817 0.128610 0.462738
O O1 0.702110 0.435782 0.305917
O O2 0.825158 0.663318 0.225139
O O3 0.780319 0.686774 0.394517
O O4 0.000000 0.500000 0.337317
O O5 0.526761 0.721675 0.231059
O O6 0.351617 0.801421 0.391348
O O7 0.238510 0.822603 0.229175
O O8 0.698584 0.917193 0.153495
O O9 0.701802 0.687430 0.064506
O O10 0.500000 0.500000 0.671387
O O11 0.683553 0.433051 0.807204
O O12 0.039438 0.841611 0.419026
O O13 0.761250 0.957762 0.471722
#
# Coordination Sequence:
#
# PCOD9347209 Si02
#       6
#     4   4   4   4   4   4
#     4  11  21  40  61  94 131 184 222 281 371 416
#     4  11  21  40  64  96 138 173 230 297 349 414
#     4  11  25  38  67 102 132 179 240 290 349 429
#     4  10  18  42  67  89 128 186 219 273 361 421
#     4   9  18  37  67  84 120 179 224 268 346 425
#     4  10  20  41  66  93 132 177 236 283 348 441
#
# _framework density 21.634847000000001
#
# number of rings (size 3 to 8) (size 9 to 14) (size 15 to 20)
#    0.000    1.667    5.000    2.000    4.667    0.000 
#    6.000    6.667    3.667    0.000    0.000    0.000 
#    0.000    0.000    0.000    0.000    0.000    0.000 
#
# Total GULP energy -133691.501006 kJ/mol
# GULP energy per Si atom -5570.479209 kJ/mol
# Density = 2.158561 g / cm^3
# Si number density = 21.634847 Si / 1000 Ang^3
#
#
#
# Elastic Constant Matrix: (Units=GPa)
#
#
# Indices 1 2 3 4 5 6 
#
# 1 43.2900 39.0276 18.5774 0.0000 0.0000 0.0000
# 2 39.0276 187.5391 38.6886 0.0000 0.0000 0.0000
# 3 18.5774 38.6886 82.7482 0.0000 0.0000 0.0000
# 4 0.0000 0.0000 0.0000 18.5852 0.0000 0.0000
# 5 0.0000 0.0000 0.0000 0.0000 -1.0212 0.0000
# 6 0.0000 0.0000 0.0000 0.0000 0.0000 40.7258
#
#
#
# Elastic Compliance Matrix: (Units=1/GPa)
#
#
# Indices 1 2 3 4 5 6 
#
# 1 0.029686 -0.005316 -0.004179 0.000000 0.000000 0.000000
# 2 -0.005316 0.006853 -0.002011 0.000000 0.000000 0.000000
# 3 -0.004179 -0.002011 0.013963 0.000000 0.000000 0.000000
# 4 0.000000 0.000000 0.000000 0.053806 0.000000 0.000000
# 5 0.000000 0.000000 0.000000 0.000000 -0.979205 0.000000
# 6 0.000000 0.000000 0.000000 0.000000 0.000000 0.024554
#
#
# Mechanical properties :
#
#
# Convention : Reuss Voigt Hill
#
# Bulk Modulus (GPa) = 36.37576 56.24051 46.30813
# Shear Modulus (GPa) = -6.11122 26.14352 10.01615
#
# Velocity S-wave (km/s) = -1.68251 3.47997 2.15399
# Velocity P-wave (km/s) = 3.61601 6.49605 5.25710
#
# Compressibility (1/GPa) = 0.02749083
#
# Stress axis : x y z
#
# Youngs Moduli (GPa) = 33.68624 145.91654 71.61634
#
# Poissons Ratio (x) = 0.77562 0.29931
# Poissons Ratio (y) = 0.17906 0.14401
# Poissons Ratio (z) = 0.14079 0.29342
#
# Static dielectric constant tensor:
#      x y z
#    x 1.856050 0.000000 0.000000 
#    y 0.000000 1.864330 0.000000 
#    z 0.000000 0.000000 1.856990 
# 
# From -- ./inp_files/6383.got.cif
#   From: 2010.05.17/outbox.cif.g08.bks.cpg/sg34_4_cif.got.tgz:6383.got - 2010.06.03 17:23:11.
