data_PCOD9347120
_publ_section_title
;
Structure prediction by ZEFSAII (Michael W. Deem and Ramdas Pophale) SiO2 
 PCOD9347120
Probable space group: P N N 2
;
_chemical_formula_sum "Si O2"
_cell_formula_units_Z 20
_cell_length_a 5.293331
_cell_length_b 7.172345
_cell_length_c 24.411332
_cell_angle_alpha 90.000000
_cell_angle_beta 90.000000
_cell_angle_gamma 90.000000
_cell_volume 926.790772
_symmetry_space_group_name_H-M "P N N 2"
_symmetry_group_IT_number 34
_symmetry_cell_setting 'orthorhombic'
loop_
_space_group_symop_operation_xyz
x,y,z
-x,-y,z
1/2-x,1/2+y,1/2+z
1/2+x,1/2-y,1/2+z
loop_
_atom_site_type_symbol
_atom_site_label
_atom_site_fract_x
_atom_site_fract_y
_atom_site_fract_z
Si Si1 0.000000 0.500000 0.858630
Si Si2 0.000000 0.000000 0.431704
Si Si3 0.302784 0.199213 0.256580
Si Si4 0.009419 0.275255 0.530855
Si Si5 0.005672 0.224539 0.095603
Si Si6 0.194524 0.773830 0.215488
O O1 0.750675 0.519672 0.895000
O O2 0.925493 0.336332 0.815782
O O3 0.996920 0.176608 0.472436
O O4 0.521571 0.298010 0.222174
O O5 0.023472 0.283026 0.258165
O O6 0.247101 0.996536 0.227316
O O7 0.775842 0.220848 0.570702
O O8 0.000000 0.500000 0.525928
O O9 0.275250 0.216607 0.557155
O O10 0.929759 0.273561 0.157428
O O11 0.000000 0.000000 0.095650
#
# Coordination Sequence:
#
# PCOD9347120 Si02
#       6
#     2   2   4   4   4   4
#     4  10  20  32  54  74 110 142 180 230 274 306
#     4  12  22  40  54  72 116 146 178 240 258 290
#     4   9  16  25  43  79 108 125 175 219 261 328
#     4  10  23  35  53  78 107 139 194 212 262 322
#     4  10  17  29  49  77 110 141 167 216 265 319
#     4   9  14  23  43  70 114 127 157 220 264 305
#
# _framework density 21.579844000000001
#
# number of rings (size 3 to 8) (size 9 to 14) (size 15 to 20)
#    0.000    2.400    2.000    4.800    5.600    0.000 
#    0.000    0.000    0.000    0.000    0.000    0.000 
#  132.000    0.000    0.000    0.000    0.000    0.000 
#
# Total GULP energy -111460.265746 kJ/mol
# GULP energy per Si atom -5573.013287 kJ/mol
# Density = 2.153073 g / cm^3
# Si number density = 21.579844 Si / 1000 Ang^3
#
#
#
# Elastic Constant Matrix: (Units=GPa)
#
#
# Indices 1 2 3 4 5 6 
#
# 1 224.4102 11.7272 70.7606 0.0000 0.0000 0.0000
# 2 11.7272 87.6270 15.2437 0.0000 0.0000 0.0000
# 3 70.7606 15.2437 137.2241 0.0000 0.0000 0.0000
# 4 0.0000 0.0000 0.0000 188.7911 0.0000 0.0000
# 5 0.0000 0.0000 0.0000 0.0000 49.1197 0.0000
# 6 0.0000 0.0000 0.0000 0.0000 0.0000 -14.0281
#
#
#
# Elastic Compliance Matrix: (Units=1/GPa)
#
#
# Indices 1 2 3 4 5 6 
#
# 1 0.005326 -0.000240 -0.002720 0.000000 0.000000 0.000000
# 2 -0.000240 0.011648 -0.001170 0.000000 0.000000 0.000000
# 3 -0.002720 -0.001170 0.008820 0.000000 0.000000 0.000000
# 4 0.000000 0.000000 0.000000 0.005297 0.000000 0.000000
# 5 0.000000 0.000000 0.000000 0.000000 0.020358 0.000000
# 6 0.000000 0.000000 0.000000 0.000000 0.000000 -0.071286
#
#
# Mechanical properties :
#
#
# Convention : Reuss Voigt Hill
#
# Bulk Modulus (GPa) = 57.03182 71.63605 64.33394
# Shear Modulus (GPa) = -872.30418 68.21185 -402.04616
#
# Velocity S-wave (km/s) = -20.12708 5.62829 -13.66422
# Velocity P-wave (km/s) = 22.66377 8.68935 14.80105
#
# Compressibility (1/GPa) = 0.01753407
#
# Stress axis : x y z
#
# Youngs Moduli (GPa) = 187.74798 85.85410 113.37996
#
# Poissons Ratio (x) = 0.02058 0.30838
# Poissons Ratio (y) = 0.04500 0.13269
# Poissons Ratio (z) = 0.51066 0.10048
#
# Static dielectric constant tensor:
#      x y z
#    x 1.906510 0.000000 0.000000 
#    y 0.000000 1.879740 0.000000 
#    z 0.000000 0.000000 1.778470 
# 
# From -- ./inp_files/7124.got.cif
#   From: 2010.05.17/outbox.cif.g08.bks.cpg/sg34_4_cif.got.tgz:7124.got - 2010.06.03 17:23:11.
