data_PCOD9347328
_publ_section_title
;
Structure prediction by ZEFSAII (Michael W. Deem and Ramdas Pophale) SiO2 
 PCOD9347328
Probable space group: P N N 2
;
_chemical_formula_sum "Si O2"
_cell_formula_units_Z 28
_cell_length_a 4.814532
_cell_length_b 24.514261
_cell_length_c 12.177121
_cell_angle_alpha 90.000000
_cell_angle_beta 90.000000
_cell_angle_gamma 90.000000
_cell_volume 1437.200980
_symmetry_space_group_name_H-M "P N N 2"
_symmetry_group_IT_number 34
_symmetry_cell_setting 'orthorhombic'
loop_
_space_group_symop_operation_xyz
x,y,z
-x,-y,z
1/2-x,1/2+y,1/2+z
1/2+x,1/2-y,1/2+z
loop_
_atom_site_type_symbol
_atom_site_label
_atom_site_fract_x
_atom_site_fract_y
_atom_site_fract_z
Si Si1 0.000000 0.000000 0.132090
Si Si2 0.243234 0.388626 0.420619
Si Si3 0.233011 0.671305 0.767916
Si Si4 0.003657 0.772243 0.626803
Si Si5 0.266990 0.671306 0.336170
Si Si6 0.243236 0.888627 0.183467
Si Si7 0.000000 0.500000 0.471995
Si Si8 0.003654 0.272243 0.977283
O O1 0.121937 0.949104 0.198096
O O2 0.250000 0.019287 0.052043
O O3 0.549989 0.379567 0.376072
O O4 0.249999 0.379702 0.552043
O O5 0.049489 0.344712 0.358655
O O6 0.121937 0.449104 0.405990
O O7 0.549491 0.655287 0.745431
O O8 0.146152 0.722362 0.691735
O O9 0.049991 0.620433 0.728014
O O10 0.140802 0.687858 0.889600
O O11 0.859200 0.812141 0.714487
O O12 0.750002 0.751896 0.552043
O O13 0.250002 0.796729 0.552044
O O14 0.353849 0.722362 0.412352
#
# Coordination Sequence:
#
# PCOD9347328 Si02
#       8
#     2   4   4   4   4   4   2   4
#     4  10  20  32  50  78 108 136 166 206 260 310
#     4  11  20  34  53  78 109 137 168 210 256 312
#     4  11  22  34  54  78 102 141 176 202 260 311
#     4  11  22  36  52  76 107 136 173 217 250 300
#     4  11  22  34  54  78 102 141 176 202 260 311
#     4  11  20  34  53  78 109 137 168 210 256 312
#     4  10  20  32  50  78 108 136 166 206 260 310
#     4  11  22  36  52  76 107 136 173 217 250 300
#
# _framework density 19.482313999999999
#
# number of rings (size 3 to 8) (size 9 to 14) (size 15 to 20)
#    0.000    1.143    0.000   10.286    0.000    4.571 
#    0.000    0.000    0.000    0.000    0.000   20.000 
#    0.000    0.000    0.000    0.000    0.000    0.000 
#
# Total GULP energy -156561.589424 kJ/mol
# GULP energy per Si atom -5591.485337 kJ/mol
# Density = 1.943797 g / cm^3
# Si number density = 19.482314 Si / 1000 Ang^3
#
#
#
# Elastic Constant Matrix: (Units=GPa)
#
#
# Indices 1 2 3 4 5 6 
#
# 1 68.6236 -13.3846 10.1679 0.0000 0.0000 0.0000
# 2 -13.3846 59.2292 15.2456 0.0000 0.0000 0.0000
# 3 10.1679 15.2456 76.8561 0.0000 0.0000 0.0000
# 4 0.0000 0.0000 0.0000 15.1062 0.0000 0.0000
# 5 0.0000 0.0000 0.0000 0.0000 32.0345 0.0000
# 6 0.0000 0.0000 0.0000 0.0000 0.0000 32.2889
#
#
#
# Elastic Compliance Matrix: (Units=1/GPa)
#
#
# Indices 1 2 3 4 5 6 
#
# 1 0.015858 0.004346 -0.002960 0.000000 0.000000 0.000000
# 2 0.004346 0.018983 -0.004340 0.000000 0.000000 0.000000
# 3 -0.002960 -0.004340 0.014264 0.000000 0.000000 0.000000
# 4 0.000000 0.000000 0.000000 0.066198 0.000000 0.000000
# 5 0.000000 0.000000 0.000000 0.000000 0.031216 0.000000
# 6 0.000000 0.000000 0.000000 0.000000 0.000000 0.030970
#
#
# Mechanical properties :
#
#
# Convention : Reuss Voigt Hill
#
# Bulk Modulus (GPa) = 23.15065 25.41853 24.28459
# Shear Modulus (GPa) = 25.27827 28.73124 27.00475
#
# Velocity S-wave (km/s) = 3.60599 3.84439 3.72710
# Velocity P-wave (km/s) = 5.40798 5.72548 5.56899
#
# Compressibility (1/GPa) = 0.04319533
#
# Stress axis : x y z
#
# Youngs Moduli (GPa) = 63.05803 52.67926 70.10694
#
# Poissons Ratio (x) = -0.22892 0.20752
# Poissons Ratio (y) = -0.27402 0.30430
# Poissons Ratio (z) = 0.18665 0.22865
#
# Static dielectric constant tensor:
#      x y z
#    x 1.698810 0.000000 0.000000 
#    y 0.000000 1.703510 0.000000 
#    z 0.000000 0.000000 1.687320 
# 
# From -- ./inp_files/4543.got.cif
#   From: 2010.05.17/outbox.cif.g08.bks.cpg/sg34_3_cif.got.tgz:4543.got - 2010.06.03 17:23:11.
