data_PCOD9347834
_publ_section_title
;
Structure prediction by ZEFSAII (Michael W. Deem and Ramdas Pophale) SiO2 
 PCOD9347834
Probable space group: P N N 2
;
_chemical_formula_sum "Si O2"
_cell_formula_units_Z 28
_cell_length_a 5.214189
_cell_length_b 26.321997
_cell_length_c 8.448770
_cell_angle_alpha 90.000000
_cell_angle_beta 90.000000
_cell_angle_gamma 90.000000
_cell_volume 1159.575663
_symmetry_space_group_name_H-M "P N N 2"
_symmetry_group_IT_number 34
_symmetry_cell_setting 'orthorhombic'
loop_
_space_group_symop_operation_xyz
x,y,z
-x,-y,z
1/2-x,1/2+y,1/2+z
1/2+x,1/2-y,1/2+z
loop_
_atom_site_type_symbol
_atom_site_label
_atom_site_fract_x
_atom_site_fract_y
_atom_site_fract_z
Si Si1 0.500000 0.500000 0.707810
Si Si2 0.284170 0.270281 0.552453
Si Si3 0.712819 0.823915 0.155864
Si Si4 0.409338 0.663397 0.006614
Si Si5 0.401266 0.585960 0.464717
Si Si6 0.000000 0.500000 0.927118
Si Si7 0.720094 0.162211 0.769513
Si Si8 0.155614 0.578180 0.167671
O O1 0.525761 0.548893 0.593062
O O2 0.750631 0.495531 0.817849
O O3 0.575573 0.288299 0.571389
O O4 0.256338 0.210554 0.575236
O O5 0.193933 0.287928 0.376577
O O6 0.070514 0.299373 0.659968
O O7 0.845645 0.833821 0.323617
O O8 0.709196 0.877381 0.062565
O O9 0.674670 0.674190 0.094974
O O10 0.361089 0.605281 0.055909
O O11 0.589128 0.625110 0.371839
O O12 0.274626 0.552650 0.323186
O O13 0.019979 0.453618 0.051431
O O14 0.479299 0.126917 0.743283
#
# Coordination Sequence:
#
# PCOD9347834 Si02
#       8
#     2   4   4   4   4   2   4   4
#     4  12  30  50  78 116 142 192 248 314 374 442
#     4  11  25  44  68 102 145 189 245 295 366 444
#     4  11  25  44  68 103 140 189 239 304 360 433
#     4  11  26  41  71 102 144 190 241 309 363 435
#     4  10  25  46  74 101 147 187 249 294 373 440
#     4  12  32  48  78 110 156 184 256 312 384 436
#     4  10  24  45  69 104 143 192 244 298 366 448
#     4  11  26  47  73 105 147 198 242 306 374 446
#
# _framework density 24.146761000000001
#
# number of rings (size 3 to 8) (size 9 to 14) (size 15 to 20)
#    0.000    1.143    1.429    1.714   16.000    1.143 
#    0.000    0.000    0.000    0.000    0.000    0.000 
#    0.000    0.000    0.000    0.000    0.000    0.000 
#
# Total GULP energy -156356.526576 kJ/mol
# GULP energy per Si atom -5584.161663 kJ/mol
# Density = 2.409180 g / cm^3
# Si number density = 24.146761 Si / 1000 Ang^3
#
#
#
# Elastic Constant Matrix: (Units=GPa)
#
#
# Indices 1 2 3 4 5 6 
#
# 1 79.4526 9.1921 21.4365 0.0000 0.0000 0.0000
# 2 9.1921 72.6320 30.1525 0.0000 0.0000 0.0000
# 3 21.4365 30.1525 143.2834 0.0000 0.0000 0.0000
# 4 0.0000 0.0000 0.0000 21.4528 0.0000 0.0000
# 5 0.0000 0.0000 0.0000 0.0000 31.8829 0.0000
# 6 0.0000 0.0000 0.0000 0.0000 0.0000 25.5654
#
#
#
# Elastic Compliance Matrix: (Units=1/GPa)
#
#
# Indices 1 2 3 4 5 6 
#
# 1 0.013173 -0.000930 -0.001775 0.000000 0.000000 0.000000
# 2 -0.000930 0.015152 -0.003049 0.000000 0.000000 0.000000
# 3 -0.001775 -0.003049 0.007886 0.000000 0.000000 0.000000
# 4 0.000000 0.000000 0.000000 0.046614 0.000000 0.000000
# 5 0.000000 0.000000 0.000000 0.000000 0.031365 0.000000
# 6 0.000000 0.000000 0.000000 0.000000 0.000000 0.039115
#
#
# Mechanical properties :
#
#
# Convention : Reuss Voigt Hill
#
# Bulk Modulus (GPa) = 40.48315 46.32558 43.40437
# Shear Modulus (GPa) = 28.89374 31.41934 30.15654
#
# Velocity S-wave (km/s) = 3.46293 3.61110 3.53779
# Velocity P-wave (km/s) = 5.72634 6.05090 5.89086
#
# Compressibility (1/GPa) = 0.02470164
#
# Stress axis : x y z
#
# Youngs Moduli (GPa) = 75.91490 65.99936 126.80005
#
# Poissons Ratio (x) = 0.06139 0.22507
# Poissons Ratio (y) = 0.07062 0.38666
# Poissons Ratio (z) = 0.13475 0.20125
#
# Static dielectric constant tensor:
#      x y z
#    x 1.976910 0.000000 0.000000 
#    y 0.000000 1.968620 0.000000 
#    z 0.000000 0.000000 1.989290 
# 
# From -- ./inp_files/2176.got.cif
#   From: 2010.05.17/outbox.cif.g08.bks.cpg/sg34_2_cif.got.tgz:2176.got - 2010.06.03 17:23:11.
