data_PCOD9347407
_publ_section_title
;
Structure prediction by ZEFSAII (Michael W. Deem and Ramdas Pophale) SiO2 
 PCOD9347407
Probable space group: P N N 2
;
_chemical_formula_sum "Si O2"
_cell_formula_units_Z 24
_cell_length_a 10.978996
_cell_length_b 19.369507
_cell_length_c 4.900972
_cell_angle_alpha 90.000000
_cell_angle_beta 90.000000
_cell_angle_gamma 90.000000
_cell_volume 1042.229629
_symmetry_space_group_name_H-M "P N N 2"
_symmetry_group_IT_number 34
_symmetry_cell_setting 'orthorhombic'
loop_
_space_group_symop_operation_xyz
x,y,z
-x,-y,z
1/2-x,1/2+y,1/2+z
1/2+x,1/2-y,1/2+z
loop_
_atom_site_type_symbol
_atom_site_label
_atom_site_fract_x
_atom_site_fract_y
_atom_site_fract_z
Si Si1 0.852523 0.323191 0.015450
Si Si2 0.239575 0.818453 0.233641
Si Si3 0.500000 0.000000 0.134464
Si Si4 0.762398 0.476533 0.983957
Si Si5 0.844215 0.100006 0.751017
Si Si6 0.000000 0.000000 0.461654
Si Si7 0.497596 0.151086 0.995156
O O1 0.778763 0.259860 0.138281
O O2 0.975982 0.320087 0.196104
O O3 0.786711 0.397007 0.056924
O O4 0.892973 0.321538 0.700575
O O5 0.207924 0.843010 0.538447
O O6 0.375103 0.835924 0.137993
O O7 0.152579 0.865727 0.043340
O O8 0.620617 0.002211 0.319854
O O9 0.513776 0.930882 0.966155
O O10 0.631303 0.484699 0.827342
O O11 0.742070 0.532122 0.226149
O O12 0.970454 0.067400 0.645950
#
# Coordination Sequence:
#
# PCOD9347407 Si02
#       7
#     4   4   2   4   4   2   4
#     4  11  26  40  64  98 133 167 224 268 341 382
#     4  12  24  44  65  97 133 176 217 273 338 397
#     4  10  20  38  72  98 132 160 240 266 332 376
#     4   9  21  42  66  99 128 176 217 280 314 399
#     4  10  23  42  69  93 128 176 221 263 327 394
#     4   8  20  44  66  98 128 174 222 268 326 380
#     4  11  24  42  67  96 129 175 214 284 326 392
#
# _framework density 23.027556000000001
#
# number of rings (size 3 to 8) (size 9 to 14) (size 15 to 20)
#    1.000    0.667    1.667    2.000    4.667    4.000 
#    0.000    1.667    0.000    0.000    0.000    0.000 
#    0.000    0.000    0.000    0.000    0.000    0.000 
#
# Total GULP energy -133952.997682 kJ/mol
# GULP energy per Si atom -5581.374903 kJ/mol
# Density = 2.297514 g / cm^3
# Si number density = 23.027556 Si / 1000 Ang^3
#
#
#
# Elastic Constant Matrix: (Units=GPa)
#
#
# Indices 1 2 3 4 5 6 
#
# 1 107.8625 6.0241 9.3024 0.0000 0.0000 0.0000
# 2 6.0241 123.2924 14.1270 0.0000 0.0000 0.0000
# 3 9.3024 14.1270 70.6097 0.0000 0.0000 0.0000
# 4 0.0000 0.0000 0.0000 14.1279 0.0000 0.0000
# 5 0.0000 0.0000 0.0000 0.0000 6.8627 0.0000
# 6 0.0000 0.0000 0.0000 0.0000 0.0000 28.0299
#
#
#
# Elastic Compliance Matrix: (Units=1/GPa)
#
#
# Indices 1 2 3 4 5 6 
#
# 1 0.009390 -0.000324 -0.001172 0.000000 0.000000 0.000000
# 2 -0.000324 0.008312 -0.001620 0.000000 0.000000 0.000000
# 3 -0.001172 -0.001620 0.014641 0.000000 0.000000 0.000000
# 4 0.000000 0.000000 0.000000 0.070782 0.000000 0.000000
# 5 0.000000 0.000000 0.000000 0.000000 0.145715 0.000000
# 6 0.000000 0.000000 0.000000 0.000000 0.000000 0.035676
#
#
# Mechanical properties :
#
#
# Convention : Reuss Voigt Hill
#
# Bulk Modulus (GPa) = 38.30013 40.07461 39.18737
# Shear Modulus (GPa) = 16.69708 27.95818 22.32763
#
# Velocity S-wave (km/s) = 2.69567 3.48820 3.11723
# Velocity P-wave (km/s) = 5.13393 5.80207 5.47820
#
# Compressibility (1/GPa) = 0.02610957
#
# Stress axis : x y z
#
# Youngs Moduli (GPa) = 106.49311 120.30350 68.30153
#
# Poissons Ratio (x) = 0.03904 0.08006
# Poissons Ratio (y) = 0.03456 0.11067
# Poissons Ratio (z) = 0.12483 0.19493
#
# Static dielectric constant tensor:
#      x y z
#    x 1.912680 0.000000 0.000000 
#    y 0.000000 1.887400 0.000000 
#    z 0.000000 0.000000 1.861660 
# 
# From -- ./inp_files/951.got.cif
#   From: 2010.05.17/outbox.cif.g08.bks.cpg/sg34_1_cif.got.tgz:951.got - 2010.06.03 17:23:11.
