data_PCOD9347605
_publ_section_title
;
Structure prediction by ZEFSAII (Michael W. Deem and Ramdas Pophale) SiO2 
 PCOD9347605
Probable space group: P N N 2
;
_chemical_formula_sum "Si O2"
_cell_formula_units_Z 30
_cell_length_a 11.423720
_cell_length_b 9.938022
_cell_length_c 12.900346
_cell_angle_alpha 90.000000
_cell_angle_beta 90.000000
_cell_angle_gamma 90.000000
_cell_volume 1464.565712
_symmetry_space_group_name_H-M "P N N 2"
_symmetry_group_IT_number 34
_symmetry_cell_setting 'orthorhombic'
loop_
_space_group_symop_operation_xyz
x,y,z
-x,-y,z
1/2-x,1/2+y,1/2+z
1/2+x,1/2-y,1/2+z
loop_
_atom_site_type_symbol
_atom_site_label
_atom_site_fract_x
_atom_site_fract_y
_atom_site_fract_z
Si Si1 0.543437 0.647484 0.148340
Si Si2 0.500000 0.500000 0.741824
Si Si3 0.637613 0.991668 0.913570
Si Si4 0.999420 0.848120 0.040207
Si Si5 0.253549 0.501195 0.828437
Si Si6 0.335780 0.298903 0.359379
Si Si7 0.747151 0.726579 0.989558
Si Si8 0.893486 0.593989 0.644927
O O1 0.500000 0.500000 0.117806
O O2 0.576791 0.651044 0.269696
O O3 0.442183 0.757001 0.130609
O O4 0.656030 0.695705 0.081976
O O5 0.480151 0.375436 0.662028
O O6 0.390208 0.521035 0.813264
O O7 0.726166 0.097722 0.861287
O O8 0.500000 0.000000 0.881918
O O9 0.687274 0.839492 0.914928
O O10 0.641885 0.033534 0.034811
O O11 0.871855 0.784273 0.026353
O O12 0.100826 0.784136 0.971148
O O13 0.000000 0.000000 0.995776
O O14 0.199988 0.648589 0.829877
O O15 0.229485 0.410044 0.927494
O O16 0.206567 0.421218 0.728625
O O17 0.000000 0.500000 0.683857
#
# Coordination Sequence:
#
# PCOD9347605 Si02
#       8
#     4   2   4   4   4   4   4   4
#     4  12  27  43  69 103 141 177 231 298 342 413
#     4  10  24  46  66  94 136 186 220 266 358 422
#     4  11  23  42  71  95 136 184 225 278 348 423
#     4  10  21  43  74  93 129 182 233 274 333 423
#     4  12  27  40  71 102 137 174 233 291 342 415
#     4  12  24  43  71 101 133 183 234 279 350 412
#     4  12  25  44  66 104 138 173 232 286 348 409
#     4  11  21  46  71  92 128 184 232 271 343 420
#
# _framework density 20.483888
#
# number of rings (size 3 to 8) (size 9 to 14) (size 15 to 20)
#    0.400    0.267    5.333    3.600    6.533    0.000 
#    0.000    0.000    0.000    0.000    0.000    0.000 
#    0.000    0.000    0.000    0.000    0.000    0.000 
#
# Total GULP energy -167583.917461 kJ/mol
# GULP energy per Si atom -5586.130582 kJ/mol
# Density = 2.043727 g / cm^3
# Si number density = 20.483888 Si / 1000 Ang^3
#
#
#
# Elastic Constant Matrix: (Units=GPa)
#
#
# Indices 1 2 3 4 5 6 
#
# 1 66.3045 29.6380 -3.7856 0.0000 0.0000 0.0000
# 2 29.6380 111.8870 9.7579 0.0000 0.0000 0.0000
# 3 -3.7856 9.7579 14.2598 0.0000 0.0000 0.0000
# 4 0.0000 0.0000 0.0000 31.8720 0.0000 0.0000
# 5 0.0000 0.0000 0.0000 0.0000 19.5817 0.0000
# 6 0.0000 0.0000 0.0000 0.0000 0.0000 20.4873
#
#
#
# Elastic Compliance Matrix: (Units=1/GPa)
#
#
# Indices 1 2 3 4 5 6 
#
# 1 0.018042 -0.005527 0.008571 0.000000 0.000000 0.000000
# 2 -0.005527 0.011198 -0.009130 0.000000 0.000000 0.000000
# 3 0.008571 -0.009130 0.078650 0.000000 0.000000 0.000000
# 4 0.000000 0.000000 0.000000 0.031376 0.000000 0.000000
# 5 0.000000 0.000000 0.000000 0.000000 0.051068 0.000000
# 6 0.000000 0.000000 0.000000 0.000000 0.000000 0.048811
#
#
# Mechanical properties :
#
#
# Convention : Reuss Voigt Hill
#
# Bulk Modulus (GPa) = 10.44715 29.29687 19.87201
# Shear Modulus (GPa) = 17.65409 24.84426 21.24917
#
# Velocity S-wave (km/s) = 2.93892 3.48640 3.22430
# Velocity P-wave (km/s) = 4.07769 5.52631 4.85632
#
# Compressibility (1/GPa) = 0.09571986
#
# Stress axis : x y z
#
# Youngs Moduli (GPa) = 55.42712 89.30347 12.71452
#
# Poissons Ratio (x) = 0.49355 -0.10898
# Poissons Ratio (y) = 0.30633 0.11608
# Poissons Ratio (z) = -0.47509 0.81532
#
# Static dielectric constant tensor:
#      x y z
#    x 1.740250 0.000000 0.000000 
#    y 0.000000 1.937820 0.000000 
#    z 0.000000 0.000000 1.713790 
# 
# From -- ./inp_files/6770.got.cif
#   From: 2010.05.17/outbox.cif.g08.bks.cpg/sg34_4_cif.got.tgz:6770.got - 2010.06.03 17:23:11.
