data_PCOD9347678
_publ_section_title
;
Structure prediction by ZEFSAII (Michael W. Deem and Ramdas Pophale) SiO2 
 PCOD9347678
Probable space group: P N N 2
;
_chemical_formula_sum "Si O2"
_cell_formula_units_Z 30
_cell_length_a 12.647567
_cell_length_b 5.066813
_cell_length_c 19.756138
_cell_angle_alpha 90.000000
_cell_angle_beta 90.000000
_cell_angle_gamma 90.000000
_cell_volume 1266.029764
_symmetry_space_group_name_H-M "P N N 2"
_symmetry_group_IT_number 34
_symmetry_cell_setting 'orthorhombic'
loop_
_space_group_symop_operation_xyz
x,y,z
-x,-y,z
1/2-x,1/2+y,1/2+z
1/2+x,1/2-y,1/2+z
loop_
_atom_site_type_symbol
_atom_site_label
_atom_site_fract_x
_atom_site_fract_y
_atom_site_fract_z
Si Si1 0.619536 0.946914 0.501130
Si Si2 0.704117 0.067886 0.317640
Si Si3 0.716346 0.768418 0.084189
Si Si4 0.000000 0.500000 0.581608
Si Si5 0.375789 0.444786 0.385935
Si Si6 0.929371 0.256801 0.285311
Si Si7 0.392084 0.336358 0.639569
Si Si8 0.106536 0.123610 0.690433
O O1 0.657684 0.706322 0.454072
O O2 0.596224 0.844442 0.575812
O O3 0.500000 0.000000 0.473599
O O4 0.711790 0.149244 0.523638
O O5 0.662527 0.256887 0.376980
O O6 0.826849 0.139694 0.321146
O O7 0.658380 0.191803 0.247902
O O8 0.668908 0.764611 0.329458
O O9 0.680742 0.577119 0.147426
O O10 0.604920 0.865353 0.050662
O O11 0.789951 0.984875 0.122220
O O12 0.055829 0.292553 0.630538
O O13 0.500000 0.500000 0.383581
O O14 0.888903 0.323833 0.209494
O O15 0.000000 0.500000 0.311526
O O16 0.000000 0.000000 0.279964
O O17 0.500000 0.500000 0.641540
O O18 0.000000 0.000000 0.723331
#
# Coordination Sequence:
#
# PCOD9347678 Si02
#       8
#     4   4   4   2   4   4   4   4
#     4  12  24  43  67 101 144 183 232 298 359 429
#     4  12  26  46  71 103 143 191 235 294 358 422
#     4  11  23  41  68 103 142 188 235 293 369 428
#     4  10  22  42  64 102 138 186 232 294 354 442
#     4  12  29  46  71 104 142 186 242 292 354 428
#     4  11  25  43  71 106 144 184 235 292 359 433
#     4  11  23  38  69 105 147 182 229 292 369 437
#     4  10  24  40  68 102 143 182 235 290 356 430
#
# _framework density 23.696127000000001
#
# number of rings (size 3 to 8) (size 9 to 14) (size 15 to 20)
#    0.000    0.800    1.333    5.600   14.933    0.000 
#    0.000    0.000    1.467    4.000    0.000    0.000 
#    0.000    0.000    0.000    0.000    0.000    0.000 
#
# Total GULP energy -167353.900702 kJ/mol
# GULP energy per Si atom -5578.463357 kJ/mol
# Density = 2.364219 g / cm^3
# Si number density = 23.696127 Si / 1000 Ang^3
#
#
#
# Elastic Constant Matrix: (Units=GPa)
#
#
# Indices 1 2 3 4 5 6 
#
# 1 177.6437 40.1565 20.6419 0.0000 0.0000 0.0000
# 2 40.1565 81.0023 -7.8565 0.0000 0.0000 0.0000
# 3 20.6419 -7.8565 46.4667 0.0000 0.0000 0.0000
# 4 0.0000 0.0000 0.0000 -4.9856 0.0000 0.0000
# 5 0.0000 0.0000 0.0000 0.0000 26.9676 0.0000
# 6 0.0000 0.0000 0.0000 0.0000 0.0000 59.4641
#
#
#
# Elastic Compliance Matrix: (Units=1/GPa)
#
#
# Indices 1 2 3 4 5 6 
#
# 1 0.006917 -0.003789 -0.003714 0.000000 0.000000 0.000000
# 2 -0.003789 0.014627 0.004157 0.000000 0.000000 0.000000
# 3 -0.003714 0.004157 0.023873 0.000000 0.000000 0.000000
# 4 0.000000 0.000000 0.000000 -0.200579 0.000000 0.000000
# 5 0.000000 0.000000 0.000000 0.000000 0.037082 0.000000
# 6 0.000000 0.000000 0.000000 0.000000 0.000000 0.016817
#
#
# Mechanical properties :
#
#
# Convention : Reuss Voigt Hill
#
# Bulk Modulus (GPa) = 25.82340 45.66628 35.74484
# Shear Modulus (GPa) = -61.22801 33.10061 -14.06370
#
# Velocity S-wave (km/s) = -5.08871 3.74154 -2.43883
# Velocity P-wave (km/s) = 4.85852 6.16271 2.68084
#
# Compressibility (1/GPa) = 0.03872457
#
# Stress axis : x y z
#
# Youngs Moduli (GPa) = 144.56362 68.36643 41.88789
#
# Poissons Ratio (x) = 0.25907 0.15556
# Poissons Ratio (y) = 0.54781 -0.17411
# Poissons Ratio (z) = 0.53685 -0.28417
#
# Static dielectric constant tensor:
#      x y z
#    x 1.841120 0.000000 0.000000 
#    y 0.000000 2.070140 0.000000 
#    z 0.000000 0.000000 1.962640 
# 
# From -- ./inp_files/8154.got.cif
#   From: 2010.05.17/outbox.cif.g08.bks.cpg/sg34_5_cif.got.tgz:8154.got - 2010.06.03 17:23:11.
