data_PCOD9347892
_publ_section_title
;
Structure prediction by ZEFSAII (Michael W. Deem and Ramdas Pophale) SiO2 
 PCOD9347892
Probable space group: P N N 2
;
_chemical_formula_sum "Si O2"
_cell_formula_units_Z 32
_cell_length_a 14.335704
_cell_length_b 7.441303
_cell_length_c 12.105162
_cell_angle_alpha 90.000000
_cell_angle_beta 90.000000
_cell_angle_gamma 90.000000
_cell_volume 1291.334101
_symmetry_space_group_name_H-M "P N N 2"
_symmetry_group_IT_number 34
_symmetry_cell_setting 'orthorhombic'
loop_
_space_group_symop_operation_xyz
x,y,z
-x,-y,z
1/2-x,1/2+y,1/2+z
1/2+x,1/2-y,1/2+z
loop_
_atom_site_type_symbol
_atom_site_label
_atom_site_fract_x
_atom_site_fract_y
_atom_site_fract_z
Si Si1 0.580724 0.153757 0.870780
Si Si2 0.259562 0.775955 0.259862
Si Si3 0.156139 0.150364 0.994357
Si Si4 0.417722 0.857148 0.120234
Si Si5 0.447974 0.326912 0.280104
Si Si6 0.256728 0.889625 0.689435
Si Si7 0.441010 0.262595 0.506001
Si Si8 0.443631 0.344220 0.728907
O O1 0.666984 0.128205 0.788232
O O2 0.517509 0.311658 0.824258
O O3 0.500000 0.000000 0.866835
O O4 0.613180 0.179842 0.995782
O O5 0.295734 0.697067 0.376710
O O6 0.332233 0.905779 0.199295
O O7 0.251197 0.606077 0.176015
O O8 0.159570 0.868532 0.273609
O O9 0.212365 0.256731 0.090422
O O10 0.053614 0.233141 0.998137
O O11 0.133826 0.934905 0.007553
O O12 0.473561 0.708560 0.188721
O O13 0.500000 0.000000 0.110962
O O14 0.500000 0.500000 0.336678
O O15 0.348905 0.348080 0.223983
O O16 0.425572 0.190880 0.381625
O O17 0.433102 0.194250 0.632319
O O18 0.500000 0.500000 0.664772
#
# Coordination Sequence:
#
# PCOD9347892 Si02
#       8
#     4   4   4   4   4   4   4   4
#     4  11  25  46  66 100 147 193 233 296 374 441
#     4  12  26  46  71 108 150 186 252 308 365 443
#     4  11  22  43  74 107 136 194 238 299 366 436
#     4  11  27  47  68 106 151 193 242 305 367 444
#     4  12  22  45  77 102 141 196 234 296 371 437
#     4  12  24  42  76 107 139 192 249 295 378 436
#     4  11  19  45  75  96 142 183 243 299 360 430
#     4  12  25  43  71 104 142 186 236 304 357 441
#
# _framework density 24.780571999999999
#
# number of rings (size 3 to 8) (size 9 to 14) (size 15 to 20)
#    0.000    0.500    8.750    0.000    3.500    3.500 
#    2.250    1.250    0.000    0.000    0.000    0.000 
#    0.000    0.000    0.000    0.000    0.000    0.000 
#
# Total GULP energy -178211.536531 kJ/mol
# GULP energy per Si atom -5569.110517 kJ/mol
# Density = 2.472417 g / cm^3
# Si number density = 24.780572 Si / 1000 Ang^3
#
#
#
# Elastic Constant Matrix: (Units=GPa)
#
#
# Indices 1 2 3 4 5 6 
#
# 1 174.3191 17.7503 53.1975 0.0000 0.0000 0.0000
# 2 17.7503 43.9687 32.8549 0.0000 0.0000 0.0000
# 3 53.1975 32.8549 126.2686 0.0000 0.0000 0.0000
# 4 0.0000 0.0000 0.0000 28.3254 0.0000 0.0000
# 5 0.0000 0.0000 0.0000 0.0000 107.2400 0.0000
# 6 0.0000 0.0000 0.0000 0.0000 0.0000 29.6139
#
#
#
# Elastic Compliance Matrix: (Units=1/GPa)
#
#
# Indices 1 2 3 4 5 6 
#
# 1 0.006602 -0.000728 -0.002592 0.000000 0.000000 0.000000
# 2 -0.000728 0.028313 -0.007060 0.000000 0.000000 0.000000
# 3 -0.002592 -0.007060 0.010849 0.000000 0.000000 0.000000
# 4 0.000000 0.000000 0.000000 0.035304 0.000000 0.000000
# 5 0.000000 0.000000 0.000000 0.000000 0.009325 0.000000
# 6 0.000000 0.000000 0.000000 0.000000 0.000000 0.033768
#
#
# Mechanical properties :
#
#
# Convention : Reuss Voigt Hill
#
# Bulk Modulus (GPa) = 39.99574 61.35131 50.67353
# Shear Modulus (GPa) = 32.62535 49.08613 40.85574
#
# Velocity S-wave (km/s) = 3.63239 4.45548 4.06482
# Velocity P-wave (km/s) = 5.81097 7.16100 6.52102
#
# Compressibility (1/GPa) = 0.02500266
#
# Stress axis : x y z
#
# Youngs Moduli (GPa) = 151.47550 35.31939 92.17798
#
# Poissons Ratio (x) = 0.02573 0.23891
# Poissons Ratio (y) = 0.11034 0.65079
# Poissons Ratio (z) = 0.39259 0.24936
#
# Static dielectric constant tensor:
#      x y z
#    x 1.919050 0.000000 0.000000 
#    y 0.000000 -0.678970 0.000000 
#    z 0.000000 0.000000 2.010700 
# 
# From -- ./inp_files/5682.got.cif
#   From: 2010.05.17/outbox.cif.g08.bks.cpg/sg34_3_cif.got.tgz:5682.got - 2010.06.03 17:23:11.
