data_PCOD9347802
_publ_section_title
;
Structure prediction by ZEFSAII (Michael W. Deem and Ramdas Pophale) SiO2 
 PCOD9347802
Probable space group: P N N 2
;
_chemical_formula_sum "Si O2"
_cell_formula_units_Z 24
_cell_length_a 11.055385
_cell_length_b 8.589507
_cell_length_c 12.641771
_cell_angle_alpha 90.000000
_cell_angle_beta 90.000000
_cell_angle_gamma 90.000000
_cell_volume 1200.466453
_symmetry_space_group_name_H-M "P N N 2"
_symmetry_group_IT_number 34
_symmetry_cell_setting 'orthorhombic'
loop_
_space_group_symop_operation_xyz
x,y,z
-x,-y,z
1/2-x,1/2+y,1/2+z
1/2+x,1/2-y,1/2+z
loop_
_atom_site_type_symbol
_atom_site_label
_atom_site_fract_x
_atom_site_fract_y
_atom_site_fract_z
Si Si1 0.822855 0.248827 0.239820
Si Si2 0.500000 0.500000 0.001077
Si Si3 0.423043 0.154772 0.947221
Si Si4 0.354642 0.007276 0.315158
Si Si5 0.771713 0.476890 0.060141
Si Si6 0.000000 0.000000 0.161569
Si Si7 0.226076 0.189092 0.129960
O O1 0.856120 0.362021 0.335134
O O2 0.703716 0.153008 0.272057
O O3 0.812206 0.330056 0.127341
O O4 0.931528 0.126633 0.231052
O O5 0.487416 0.326454 0.948147
O O6 0.626123 0.484647 0.062111
O O7 0.500000 0.000000 0.965323
O O8 0.325939 0.164050 0.040552
O O9 0.500000 0.000000 0.305357
O O10 0.315800 0.024589 0.438320
O O11 0.287880 0.136383 0.240846
O O12 0.814566 0.632429 0.120301
O O13 0.890422 0.915466 0.103340
#
# Coordination Sequence:
#
# PCOD9347802 Si02
#       7
#     4   2   4   4   4   2   4
#     4  11  25  44  68 100 133 183 226 286 352 412
#     4  10  23  46  67  98 142 175 228 295 334 416
#     4  11  24  42  74 101 135 180 239 280 349 424
#     4  11  25  46  69  97 141 182 226 290 349 406
#     4  11  26  43  71  99 138 181 229 285 351 414
#     4  10  25  42  67  92 140 173 226 283 344 412
#     4  10  24  46  65 101 133 181 229 280 350 410
#
# _framework density 19.992228999999998
#
# number of rings (size 3 to 8) (size 9 to 14) (size 15 to 20)
#    0.000    1.333    3.333    1.000   16.333    0.000 
#    0.000    0.833    0.000    0.000    0.000    0.000 
#    0.000    0.000    0.000    0.000    0.000    0.000 
#
# Total GULP energy -133824.791642 kJ/mol
# GULP energy per Si atom -5576.032985 kJ/mol
# Density = 1.994673 g / cm^3
# Si number density = 19.992229 Si / 1000 Ang^3
#
#
#
# Elastic Constant Matrix: (Units=GPa)
#
#
# Indices 1 2 3 4 5 6 
#
# 1 107.1306 57.1922 30.3759 0.0000 0.0000 0.0000
# 2 57.1922 113.7894 59.0686 0.0000 0.0000 0.0000
# 3 30.3759 59.0686 99.3746 0.0000 0.0000 0.0000
# 4 0.0000 0.0000 0.0000 33.4890 0.0000 0.0000
# 5 0.0000 0.0000 0.0000 0.0000 -1.2812 0.0000
# 6 0.0000 0.0000 0.0000 0.0000 0.0000 23.6279
#
#
#
# Elastic Compliance Matrix: (Units=1/GPa)
#
#
# Indices 1 2 3 4 5 6 
#
# 1 0.012759 -0.006346 -0.000128 0.000000 0.000000 0.000000
# 2 -0.006346 0.015867 -0.007491 0.000000 0.000000 0.000000
# 3 -0.000128 -0.007491 0.014555 0.000000 0.000000 0.000000
# 4 0.000000 0.000000 0.000000 0.029861 0.000000 0.000000
# 5 0.000000 0.000000 0.000000 0.000000 -0.780547 0.000000
# 6 0.000000 0.000000 0.000000 0.000000 0.000000 0.042323
#
#
# Mechanical properties :
#
#
# Convention : Reuss Voigt Hill
#
# Bulk Modulus (GPa) = 65.57601 68.17421 66.87511
# Shear Modulus (GPa) = -7.90927 22.74435 7.41754
#
# Velocity S-wave (km/s) = -1.99117 3.37658 1.92828
# Velocity P-wave (km/s) = 5.25220 7.02681 6.20329
#
# Compressibility (1/GPa) = 0.01524948
#
# Stress axis : x y z
#
# Youngs Moduli (GPa) = 78.37808 63.02472 68.70575
#
# Poissons Ratio (x) = 0.39998 0.00877
# Poissons Ratio (y) = 0.49742 0.51470
# Poissons Ratio (z) = 0.01000 0.47214
#
# Static dielectric constant tensor:
#      x y z
#    x 1.692970 0.000000 0.000000 
#    y 0.000000 1.755400 0.000000 
#    z 0.000000 0.000000 1.685930 
# 
# From -- ./inp_files/5342.got.cif
#   From: 2010.05.17/outbox.cif.g08.bks.cpg/sg34_3_cif.got.tgz:5342.got - 2010.06.03 17:23:11.
