data_PCOD9347200
_publ_section_title
;
Structure prediction by ZEFSAII (Michael W. Deem and Ramdas Pophale) SiO2 
 PCOD9347200
Probable space group: P N N 2
;
_chemical_formula_sum "Si O2"
_cell_formula_units_Z 26
_cell_length_a 7.948433
_cell_length_b 12.084953
_cell_length_c 11.320507
_cell_angle_alpha 90.000000
_cell_angle_beta 90.000000
_cell_angle_gamma 90.000000
_cell_volume 1087.407593
_symmetry_space_group_name_H-M "P N N 2"
_symmetry_group_IT_number 34
_symmetry_cell_setting 'orthorhombic'
loop_
_space_group_symop_operation_xyz
x,y,z
-x,-y,z
1/2-x,1/2+y,1/2+z
1/2+x,1/2-y,1/2+z
loop_
_atom_site_type_symbol
_atom_site_label
_atom_site_fract_x
_atom_site_fract_y
_atom_site_fract_z
Si Si1 0.560650 0.874988 0.733510
Si Si2 0.500000 0.000000 0.377780
Si Si3 0.352564 0.219177 0.371803
Si Si4 0.731238 0.042430 0.162063
Si Si5 0.089437 0.161867 0.177779
Si Si6 0.943634 0.693006 0.492057
Si Si7 0.545972 0.369573 0.179632
O O1 0.442171 0.791308 0.659372
O O2 0.538672 0.841362 0.872872
O O3 0.753751 0.862589 0.697546
O O4 0.500000 0.000000 0.720083
O O5 0.445039 0.116089 0.432596
O O6 0.652313 0.032303 0.291549
O O7 0.195134 0.167543 0.299102
O O8 0.255220 0.297110 0.460126
O O9 0.460441 0.295375 0.283202
O O10 0.904436 0.109816 0.180787
O O11 0.794558 0.924872 0.106385
O O12 0.581218 0.101631 0.092240
O O13 0.999948 0.805639 0.557516
O O14 0.500000 0.500000 0.182104
#
# Coordination Sequence:
#
# PCOD9347200 Si02
#       7
#     4   2   4   4   4   4   4
#     4  11  24  46  72 101 146 186 236 294 361 432
#     4  10  18  38  66  90 134 172 220 298 340 410
#     4  10  22  42  66 101 131 176 237 283 352 425
#     4  10  19  38  69  95 132 172 229 286 352 403
#     4   9  19  39  66  98 129 177 219 289 353 406
#     4  11  24  45  67 104 135 185 242 286 353 431
#     4  12  25  51  67  97 148 190 226 304 366 426
#
# _framework density 23.910080000000001
#
# number of rings (size 3 to 8) (size 9 to 14) (size 15 to 20)
#    0.000    1.538    3.077    1.846    1.077    0.000 
#   31.846    0.000    0.000    0.000    0.000    0.000 
#    0.000    0.000    0.000    0.000    0.000    0.000 
#
# Total GULP energy -144982.078203 kJ/mol
# GULP energy per Si atom -5576.233777 kJ/mol
# Density = 2.385566 g / cm^3
# Si number density = 23.910080 Si / 1000 Ang^3
#
#
#
# Elastic Constant Matrix: (Units=GPa)
#
#
# Indices 1 2 3 4 5 6 
#
# 1 102.1508 31.2496 12.3350 0.0000 0.0000 0.0000
# 2 31.2496 162.3951 28.0484 0.0000 0.0000 0.0000
# 3 12.3350 28.0484 46.0298 0.0000 0.0000 0.0000
# 4 0.0000 0.0000 0.0000 24.8431 0.0000 0.0000
# 5 0.0000 0.0000 0.0000 0.0000 120.6955 0.0000
# 6 0.0000 0.0000 0.0000 0.0000 0.0000 44.7858
#
#
#
# Elastic Compliance Matrix: (Units=1/GPa)
#
#
# Indices 1 2 3 4 5 6 
#
# 1 0.010530 -0.001720 -0.001774 0.000000 0.000000 0.000000
# 2 -0.001720 0.007163 -0.003904 0.000000 0.000000 0.000000
# 3 -0.001774 -0.003904 0.024579 0.000000 0.000000 0.000000
# 4 0.000000 0.000000 0.000000 0.040253 0.000000 0.000000
# 5 0.000000 0.000000 0.000000 0.000000 0.008285 0.000000
# 6 0.000000 0.000000 0.000000 0.000000 0.000000 0.022329
#
#
# Mechanical properties :
#
#
# Convention : Reuss Voigt Hill
#
# Bulk Modulus (GPa) = 36.39410 50.42685 43.41047
# Shear Modulus (GPa) = 36.47168 53.99438 45.23303
#
# Velocity S-wave (km/s) = 3.90983 4.75724 4.35420
# Velocity P-wave (km/s) = 5.96965 7.16317 6.59347
#
# Compressibility (1/GPa) = 0.02747698
#
# Stress axis : x y z
#
# Youngs Moduli (GPa) = 94.96884 139.60522 40.68469
#
# Poissons Ratio (x) = 0.24010 0.07216
# Poissons Ratio (y) = 0.16334 0.15883
# Poissons Ratio (z) = 0.16845 0.54501
#
# Static dielectric constant tensor:
#      x y z
#    x 1.805400 0.000000 0.000000 
#    y 0.000000 2.082250 0.000000 
#    z 0.000000 0.000000 1.945720 
# 
# From -- ./inp_files/4985.got.cif
#   From: 2010.05.17/outbox.cif.g08.bks.cpg/sg34_3_cif.got.tgz:4985.got - 2010.06.03 17:23:11.
