data_PCOD9347155
_publ_section_title
;
Structure prediction by ZEFSAII (Michael W. Deem and Ramdas Pophale) SiO2 
 PCOD9347155
Probable space group: P N N 2
;
_chemical_formula_sum "Si O2"
_cell_formula_units_Z 22
_cell_length_a 7.884960
_cell_length_b 9.146867
_cell_length_c 15.775661
_cell_angle_alpha 90.000000
_cell_angle_beta 90.000000
_cell_angle_gamma 90.000000
_cell_volume 1137.782957
_symmetry_space_group_name_H-M "P N N 2"
_symmetry_group_IT_number 34
_symmetry_cell_setting 'orthorhombic'
loop_
_space_group_symop_operation_xyz
x,y,z
-x,-y,z
1/2-x,1/2+y,1/2+z
1/2+x,1/2-y,1/2+z
loop_
_atom_site_type_symbol
_atom_site_label
_atom_site_fract_x
_atom_site_fract_y
_atom_site_fract_z
Si Si1 0.135808 0.180207 0.415400
Si Si2 0.252491 0.410326 0.210079
Si Si3 0.921860 0.288485 0.259162
Si Si4 0.500000 0.500000 0.064359
Si Si5 0.043203 0.835372 0.874402
Si Si6 0.826690 0.579361 0.815794
O O1 0.299628 0.279750 0.429072
O O2 0.005916 0.259255 0.351454
O O3 0.053955 0.129693 0.502064
O O4 0.213148 0.036920 0.367233
O O5 0.181950 0.560897 0.251551
O O6 0.347512 0.450235 0.124713
O O7 0.383289 0.341966 0.277550
O O8 0.087548 0.307983 0.200617
O O9 0.792873 0.155038 0.246067
O O10 0.894242 0.715538 0.872939
O O11 0.000000 0.000000 0.897347
O O12 0.000000 0.500000 0.787138
#
# Coordination Sequence:
#
# PCOD9347155 Si02
#       6
#     4   4   4   2   4   4
#     4  10  22  34  61  94 124 157 208 264 311 364
#     4  10  21  33  64  89 122 157 212 259 313 375
#     4  10  18  38  55  94 115 166 208 252 296 397
#     4  12  20  40  54 100 126 162 202 286 322 368
#     4  10  18  36  60  91 116 167 211 249 291 396
#     4  10  18  32  57  95 118 152 207 261 302 366
#
# _framework density 19.335850000000001
#
# number of rings (size 3 to 8) (size 9 to 14) (size 15 to 20)
#    0.000    1.818    4.545    0.000    0.000    0.000 
#    9.818    0.000    0.000    4.364  160.727    0.000 
#    0.000    0.000    0.000    0.000    0.000    0.000 
#
# Total GULP energy -122684.708147 kJ/mol
# GULP energy per Si atom -5576.577643 kJ/mol
# Density = 1.929184 g / cm^3
# Si number density = 19.335850 Si / 1000 Ang^3
#
#
#
# Elastic Constant Matrix: (Units=GPa)
#
#
# Indices 1 2 3 4 5 6 
#
# 1 125.1675 57.9236 48.6157 0.0000 0.0000 0.0000
# 2 57.9236 115.5944 28.0129 0.0000 0.0000 0.0000
# 3 48.6157 28.0129 77.9047 0.0000 0.0000 0.0000
# 4 0.0000 0.0000 0.0000 17.9798 0.0000 0.0000
# 5 0.0000 0.0000 0.0000 0.0000 19.5421 0.0000
# 6 0.0000 0.0000 0.0000 0.0000 0.0000 58.3450
#
#
#
# Elastic Compliance Matrix: (Units=1/GPa)
#
#
# Indices 1 2 3 4 5 6 
#
# 1 0.012606 -0.004831 -0.006129 0.000000 0.000000 0.000000
# 2 -0.004831 0.011328 -0.001059 0.000000 0.000000 0.000000
# 3 -0.006129 -0.001059 0.017042 0.000000 0.000000 0.000000
# 4 0.000000 0.000000 0.000000 0.055618 0.000000 0.000000
# 5 0.000000 0.000000 0.000000 0.000000 0.051171 0.000000
# 6 0.000000 0.000000 0.000000 0.000000 0.000000 0.017139
#
#
# Mechanical properties :
#
#
# Convention : Reuss Voigt Hill
#
# Bulk Modulus (GPa) = 59.03996 65.30792 62.17394
# Shear Modulus (GPa) = 25.69523 31.44768 28.57146
#
# Velocity S-wave (km/s) = 3.64935 4.03723 3.84818
# Velocity P-wave (km/s) = 6.95394 7.45528 7.20897
#
# Compressibility (1/GPa) = 0.01693768
#
# Stress axis : x y z
#
# Youngs Moduli (GPa) = 79.32921 88.27384 58.67948
#
# Poissons Ratio (x) = 0.42648 0.35966
# Poissons Ratio (y) = 0.38326 0.06211
# Poissons Ratio (z) = 0.48623 0.09344
#
# Static dielectric constant tensor:
#      x y z
#    x 1.748980 0.000000 0.000000 
#    y 0.000000 1.726560 0.000000 
#    z 0.000000 0.000000 1.621100 
# 
# From -- ./inp_files/6338.got.cif
#   From: 2010.05.17/outbox.cif.g08.bks.cpg/sg34_4_cif.got.tgz:6338.got - 2010.06.03 17:23:11.
