data_PCOD9347587
_publ_section_title
;
Structure prediction by ZEFSAII (Michael W. Deem and Ramdas Pophale) SiO2 
 PCOD9347587
Probable space group: P N N 2
;
_chemical_formula_sum "Si O2"
_cell_formula_units_Z 30
_cell_length_a 6.019339
_cell_length_b 21.106105
_cell_length_c 11.394349
_cell_angle_alpha 90.000000
_cell_angle_beta 90.000000
_cell_angle_gamma 90.000000
_cell_volume 1447.592801
_symmetry_space_group_name_H-M "P N N 2"
_symmetry_group_IT_number 34
_symmetry_cell_setting 'orthorhombic'
loop_
_space_group_symop_operation_xyz
x,y,z
-x,-y,z
1/2-x,1/2+y,1/2+z
1/2+x,1/2-y,1/2+z
loop_
_atom_site_type_symbol
_atom_site_label
_atom_site_fract_x
_atom_site_fract_y
_atom_site_fract_z
Si Si1 0.302088 0.842472 0.561920
Si Si2 0.500000 0.500000 0.695751
Si Si3 0.253147 0.879974 0.942646
Si Si4 0.496970 0.570627 0.228211
Si Si5 0.878800 0.407640 0.614664
Si Si6 0.349870 0.704889 0.476587
Si Si7 0.375594 0.934755 0.345058
Si Si8 0.624699 0.842629 0.763725
O O1 0.121654 0.878186 0.644741
O O2 0.257763 0.773383 0.510245
O O3 0.345341 0.890340 0.455864
O O4 0.520585 0.826817 0.639774
O O5 0.678023 0.458436 0.622139
O O6 0.353242 0.454377 0.779978
O O7 0.108037 0.924593 0.857163
O O8 0.423879 0.847372 0.853716
O O9 0.099222 0.823428 0.993381
O O10 0.400822 0.919108 0.035353
O O11 0.500000 0.500000 0.179524
O O12 0.243128 0.590317 0.245761
O O13 0.784213 0.344579 0.556799
O O14 0.969556 0.402360 0.746460
O O15 0.304513 0.697494 0.336261
O O16 0.500000 0.000000 0.378137
#
# Coordination Sequence:
#
# PCOD9347587 Si02
#       8
#     4   2   4   4   4   4   4   4
#     4  11  25  40  71  94 129 183 220 281 333 400
#     4  10  22  42  62  98 136 174 220 276 336 398
#     4   9  20  42  62  94 132 171 213 271 330 399
#     4  10  23  42  64  99 130 174 224 278 339 400
#     4  10  21  42  64  95 136 173 219 277 331 406
#     4  10  22  42  64  98 131 171 225 275 334 398
#     4  10  24  41  61  94 131 175 223 272 336 401
#     4   9  22  42  61  93 133 166 219 270 328 392
#
# _framework density 20.724060999999999
#
# number of rings (size 3 to 8) (size 9 to 14) (size 15 to 20)
#    0.000    2.133    0.000    0.800    2.800   10.133 
#   36.000    0.000    0.000    0.000    0.000    0.000 
#    0.000    0.000    0.000    0.000    0.000    0.000 
#
# Total GULP energy -167138.691288 kJ/mol
# GULP energy per Si atom -5571.289710 kJ/mol
# Density = 2.067689 g / cm^3
# Si number density = 20.724061 Si / 1000 Ang^3
#
#
#
# Elastic Constant Matrix: (Units=GPa)
#
#
# Indices 1 2 3 4 5 6 
#
# 1 72.0834 28.6940 20.9768 0.0000 0.0000 0.0000
# 2 28.6940 118.9522 55.1703 0.0000 0.0000 0.0000
# 3 20.9768 55.1703 105.3207 0.0000 0.0000 0.0000
# 4 0.0000 0.0000 0.0000 8.7540 0.0000 0.0000
# 5 0.0000 0.0000 0.0000 0.0000 19.5794 0.0000
# 6 0.0000 0.0000 0.0000 0.0000 0.0000 12.4039
#
#
#
# Elastic Compliance Matrix: (Units=1/GPa)
#
#
# Indices 1 2 3 4 5 6 
#
# 1 0.015522 -0.003052 -0.001493 0.000000 0.000000 0.000000
# 2 -0.003052 0.011705 -0.005523 0.000000 0.000000 0.000000
# 3 -0.001493 -0.005523 0.012686 0.000000 0.000000 0.000000
# 4 0.000000 0.000000 0.000000 0.114233 0.000000 0.000000
# 5 0.000000 0.000000 0.000000 0.000000 0.051074 0.000000
# 6 0.000000 0.000000 0.000000 0.000000 0.000000 0.080620
#
#
# Mechanical properties :
#
#
# Convention : Reuss Voigt Hill
#
# Bulk Modulus (GPa) = 50.56658 56.22648 53.39653
# Shear Modulus (GPa) = 15.99654 20.91514 18.45584
#
# Velocity S-wave (km/s) = 2.78129 3.18027 2.98745
# Velocity P-wave (km/s) = 5.89636 6.37773 6.14176
#
# Compressibility (1/GPa) = 0.01977591
#
# Stress axis : x y z
#
# Youngs Moduli (GPa) = 64.42419 85.43561 78.83006
#
# Poissons Ratio (x) = 0.26074 0.11768
# Poissons Ratio (y) = 0.19662 0.43541
# Poissons Ratio (z) = 0.09618 0.47190
#
# Static dielectric constant tensor:
#      x y z
#    x 1.804640 0.000000 0.000000 
#    y 0.000000 1.754190 0.000000 
#    z 0.000000 0.000000 1.764610 
# 
# From -- ./inp_files/4525.got.cif
#   From: 2010.05.17/outbox.cif.g08.bks.cpg/sg34_3_cif.got.tgz:4525.got - 2010.06.03 17:23:11.
