data_PCOD9347182
_publ_section_title
;
Structure prediction by ZEFSAII (Michael W. Deem and Ramdas Pophale) SiO2 
 PCOD9347182
Probable space group: P N N 2
;
_chemical_formula_sum "Si O2"
_cell_formula_units_Z 26
_cell_length_a 9.408910
_cell_length_b 5.016537
_cell_length_c 27.047597
_cell_angle_alpha 90.000000
_cell_angle_beta 90.000000
_cell_angle_gamma 90.000000
_cell_volume 1276.650504
_symmetry_space_group_name_H-M "P N N 2"
_symmetry_group_IT_number 34
_symmetry_cell_setting 'orthorhombic'
loop_
_space_group_symop_operation_xyz
x,y,z
-x,-y,z
1/2-x,1/2+y,1/2+z
1/2+x,1/2-y,1/2+z
loop_
_atom_site_type_symbol
_atom_site_label
_atom_site_fract_x
_atom_site_fract_y
_atom_site_fract_z
Si Si1 0.160725 0.039463 0.246670
Si Si2 0.900757 0.757158 0.935120
Si Si3 0.342778 0.882361 0.334057
Si Si4 0.168578 0.007239 0.039940
Si Si5 0.229184 0.002437 0.694756
Si Si6 0.168408 0.003498 0.580271
Si Si7 0.000000 0.000000 0.764960
O O1 0.246457 0.060835 0.298684
O O2 0.226785 0.784172 0.218376
O O3 0.153706 0.284318 0.208052
O O4 0.000000 0.000000 0.262540
O O5 0.797232 0.679886 0.889866
O O6 0.000000 0.500000 0.948423
O O7 0.829855 0.881385 0.983727
O O8 0.000000 0.000000 0.915991
O O9 0.384724 0.630696 0.300559
O O10 0.500000 0.000000 0.341178
O O11 0.258218 0.220164 0.070653
O O12 0.243968 0.724070 0.049083
O O13 0.000000 0.000000 0.053241
O O14 0.189453 0.053058 0.638588
O O15 0.098897 0.854036 0.724500
O O16 0.000000 0.000000 0.568663
#
# Coordination Sequence:
#
# PCOD9347182 Si02
#       7
#     4   4   4   4   4   4   2
#     4  11  24  38  58  92 133 165 200 254 319 394
#     4  10  20  37  64  96 122 161 219 274 324 382
#     4  10  19  35  63  89 124 159 210 258 315 375
#     4  11  24  43  66  94 130 170 221 278 333 394
#     4  11  23  39  62  85 127 164 212 251 314 382
#     4  12  25  43  67  95 128 173 224 277 330 384
#     4  10  18  36  58  94 114 154 200 262 296 368
#
# _framework density 20.365791000000002
#
# number of rings (size 3 to 8) (size 9 to 14) (size 15 to 20)
#    0.000    1.231    3.077    4.154    0.000    3.692 
#    0.000    0.769    0.000    7.385    0.000    0.000 
#    0.000    0.000    0.000    0.000    0.000    0.000 
#
# Total GULP energy -144767.124177 kJ/mol
# GULP energy per Si atom -5567.966314 kJ/mol
# Density = 2.031944 g / cm^3
# Si number density = 20.365791 Si / 1000 Ang^3
#
#
#
# Elastic Constant Matrix: (Units=GPa)
#
#
# Indices 1 2 3 4 5 6 
#
# 1 73.9220 -1.0548 22.2368 0.0000 0.0000 0.0000
# 2 -1.0548 84.0997 2.7771 0.0000 0.0000 0.0000
# 3 22.2368 2.7771 101.1939 0.0000 0.0000 0.0000
# 4 0.0000 0.0000 0.0000 36.9492 0.0000 0.0000
# 5 0.0000 0.0000 0.0000 0.0000 12.6912 0.0000
# 6 0.0000 0.0000 0.0000 0.0000 0.0000 20.3108
#
#
#
# Elastic Compliance Matrix: (Units=1/GPa)
#
#
# Indices 1 2 3 4 5 6 
#
# 1 0.014492 0.000287 -0.003192 0.000000 0.000000 0.000000
# 2 0.000287 0.011907 -0.000390 0.000000 0.000000 0.000000
# 3 -0.003192 -0.000390 0.010594 0.000000 0.000000 0.000000
# 4 0.000000 0.000000 0.000000 0.027064 0.000000 0.000000
# 5 0.000000 0.000000 0.000000 0.000000 0.078795 0.000000
# 6 0.000000 0.000000 0.000000 0.000000 0.000000 0.049235
#
#
# Mechanical properties :
#
#
# Convention : Reuss Voigt Hill
#
# Bulk Modulus (GPa) = 32.89120 34.12597 33.50859
# Shear Modulus (GPa) = 23.94492 29.67399 26.80945
#
# Velocity S-wave (km/s) = 3.43263 3.82127 3.63215
# Velocity P-wave (km/s) = 5.64764 6.02183 5.83773
#
# Compressibility (1/GPa) = 0.03040327
#
# Stress axis : x y z
#
# Youngs Moduli (GPa) = 69.00259 83.98331 94.39082
#
# Poissons Ratio (x) = -0.02412 0.30134
# Poissons Ratio (y) = -0.01982 0.03680
# Poissons Ratio (z) = 0.22029 0.03274
#
# Static dielectric constant tensor:
#      x y z
#    x 1.024870 0.000000 0.000000 
#    y 0.000000 1.737990 0.000000 
#    z 0.000000 0.000000 1.795640 
# 
# From -- ./inp_files/8600.got.cif
#   From: 2010.05.17/outbox.cif.g08.bks.cpg/sg34_5_cif.got.tgz:8600.got - 2010.06.03 17:23:11.
