data_PCOD9347508
_publ_section_title
;
Structure prediction by ZEFSAII (Michael W. Deem and Ramdas Pophale) SiO2 
 PCOD9347508
Probable space group: P N N 2
;
_chemical_formula_sum "Si O2"
_cell_formula_units_Z 24
_cell_length_a 8.724621
_cell_length_b 12.294715
_cell_length_c 9.136207
_cell_angle_alpha 90.000000
_cell_angle_beta 90.000000
_cell_angle_gamma 90.000000
_cell_volume 980.011037
_symmetry_space_group_name_H-M "P N N 2"
_symmetry_group_IT_number 34
_symmetry_cell_setting 'orthorhombic'
loop_
_space_group_symop_operation_xyz
x,y,z
-x,-y,z
1/2-x,1/2+y,1/2+z
1/2+x,1/2-y,1/2+z
loop_
_atom_site_type_symbol
_atom_site_label
_atom_site_fract_x
_atom_site_fract_y
_atom_site_fract_z
Si Si1 0.731541 0.327125 0.052840
Si Si2 0.826943 0.289069 0.749399
Si Si3 0.345951 0.875786 0.245621
Si Si4 0.588974 0.666350 0.971816
Si Si5 0.831229 0.954483 0.059429
Si Si6 0.612412 0.899936 0.815877
O O1 0.681287 0.242830 0.176708
O O2 0.857216 0.394110 0.142021
O O3 0.795585 0.260285 0.915609
O O4 0.579680 0.385803 0.989728
O O5 0.860476 0.192557 0.637557
O O6 0.689328 0.352365 0.668322
O O7 0.971648 0.372238 0.765293
O O8 0.229316 0.885879 0.382419
O O9 0.285597 0.958293 0.125373
O O10 0.560210 0.785191 0.891052
O O11 0.771779 0.923325 0.899841
O O12 0.000000 0.000000 0.061720
O O13 0.500000 0.000000 0.846739
#
# Coordination Sequence:
#
# PCOD9347508 Si02
#       6
#     4   4   4   4   4   4
#     4  10  21  37  59  86 116 151 199 245 290 351
#     4  10  21  38  59  86 118 151 192 242 297 357
#     4  10  21  38  61  85 115 156 196 241 297 356
#     4   9  20  38  60  86 116 153 198 245 291 351
#     4  11  22  38  60  84 116 155 196 245 301 357
#     4  10  21  39  59  85 120 160 200 244 301 356
#
# _framework density 24.489519000000001
#
# number of rings (size 3 to 8) (size 9 to 14) (size 15 to 20)
#    0.000    2.000    0.000    4.500    0.000    9.333 
#    0.000    5.833    0.000    0.000    0.000    0.000 
#    0.000    0.000    0.000    0.000    0.000    0.000 
#
# Total GULP energy -134067.664962 kJ/mol
# GULP energy per Si atom -5586.152707 kJ/mol
# Density = 2.443378 g / cm^3
# Si number density = 24.489519 Si / 1000 Ang^3
#
#
#
# Elastic Constant Matrix: (Units=GPa)
#
#
# Indices 1 2 3 4 5 6 
#
# 1 81.0563 2.2845 36.5004 0.0000 0.0000 0.0000
# 2 2.2845 26.8247 -0.7998 0.0000 0.0000 0.0000
# 3 36.5004 -0.7998 166.6932 0.0000 0.0000 0.0000
# 4 0.0000 0.0000 0.0000 18.2805 0.0000 0.0000
# 5 0.0000 0.0000 0.0000 0.0000 28.7819 0.0000
# 6 0.0000 0.0000 0.0000 0.0000 0.0000 33.9359
#
#
#
# Elastic Compliance Matrix: (Units=1/GPa)
#
#
# Indices 1 2 3 4 5 6 
#
# 1 0.013729 -0.001259 -0.003012 0.000000 0.000000 0.000000
# 2 -0.001259 0.037400 0.000455 0.000000 0.000000 0.000000
# 3 -0.003012 0.000455 0.006661 0.000000 0.000000 0.000000
# 4 0.000000 0.000000 0.000000 0.054703 0.000000 0.000000
# 5 0.000000 0.000000 0.000000 0.000000 0.034744 0.000000
# 6 0.000000 0.000000 0.000000 0.000000 0.000000 0.029467
#
#
# Mechanical properties :
#
#
# Convention : Reuss Voigt Hill
#
# Bulk Modulus (GPa) = 19.93724 38.94937 29.44330
# Shear Modulus (GPa) = 24.86874 31.97226 28.42050
#
# Velocity S-wave (km/s) = 3.19012 3.61716 3.41033
# Velocity P-wave (km/s) = 4.66133 5.77790 5.24939
#
# Compressibility (1/GPa) = 0.05015740
#
# Stress axis : x y z
#
# Youngs Moduli (GPa) = 72.83833 26.73806 150.13181
#
# Poissons Ratio (x) = 0.03366 0.45223
# Poissons Ratio (y) = 0.09171 -0.06833
# Poissons Ratio (z) = 0.21941 -0.01217
#
# Static dielectric constant tensor:
#      x y z
#    x 2.007790 0.000000 0.000000 
#    y 0.000000 1.994390 0.000000 
#    z 0.000000 0.000000 1.904450 
# 
# From -- ./inp_files/2594.got.cif
#   From: 2010.05.17/outbox.cif.g08.bks.cpg/sg34_2_cif.got.tgz:2594.got - 2010.06.03 17:23:11.
