data_PCOD9347013
_publ_section_title
;
Structure prediction by ZEFSAII (Michael W. Deem and Ramdas Pophale) SiO2 
 PCOD9347013
Probable space group: P N A 21
;
_chemical_formula_sum "Si O2"
_cell_formula_units_Z 16
_cell_length_a 8.946463
_cell_length_b 7.221353
_cell_length_c 9.412753
_cell_angle_alpha 90.000000
_cell_angle_beta 90.000000
_cell_angle_gamma 90.000000
_cell_volume 608.116249
_symmetry_space_group_name_H-M "P N A 21"
_symmetry_group_IT_number 33
_symmetry_cell_setting 'orthorhombic'
loop_
_space_group_symop_operation_xyz
x,y,z
-x,-y,1/2+z
1/2-x,1/2+y,1/2+z
1/2+x,1/2-y,z
loop_
_atom_site_type_symbol
_atom_site_label
_atom_site_fract_x
_atom_site_fract_y
_atom_site_fract_z
Si Si1 0.408021 0.860293 0.871910
Si Si2 0.296467 0.013210 0.290445
Si Si3 0.351191 0.651652 0.402871
Si Si4 0.962564 0.115759 0.615747
O O1 0.681904 0.132238 0.918858
O O2 0.036386 0.581647 0.760886
O O3 0.300724 0.032897 0.902401
O O4 0.497847 0.779017 0.007351
O O5 0.205518 0.889163 0.177758
O O6 0.195644 0.191281 0.320757
O O7 0.432304 0.617921 0.252022
O O8 0.461713 0.568867 0.520472
#
# Coordination Sequence:
#
# PCOD9347013 Si02
#       4
#     4   4   4   4
#     4  12  27  54  80 123 170 211 280 347 407 508
#     4  12  27  52  83 117 166 220 270 342 420 493
#     4  12  28  52  85 119 168 222 274 349 423 493
#     4  12  26  56  78 123 162 213 286 336 414 508
#
# _framework density 26.310756999999999
#
# number of rings (size 3 to 8) (size 9 to 14) (size 15 to 20)
#    0.000    0.000    5.000    3.000    0.000    4.000 
#    9.000    0.000    0.000    0.000    0.000    0.000 
#    0.000    0.000    0.000    0.000    0.000    0.000 
#
# Total GULP energy -89682.565235 kJ/mol
# GULP energy per Si atom -5605.160327 kJ/mol
# Density = 2.625087 g / cm^3
# Si number density = 26.310757 Si / 1000 Ang^3
#
#
#
# Elastic Constant Matrix: (Units=GPa)
#
#
# Indices 1 2 3 4 5 6 
#
# 1 170.7392 51.5956 29.5436 0.0000 0.0000 0.0000
# 2 51.5956 154.7224 2.0341 0.0000 0.0000 0.0000
# 3 29.5436 2.0341 80.4931 0.0000 0.0000 0.0000
# 4 0.0000 0.0000 0.0000 42.5135 0.0000 0.0000
# 5 0.0000 0.0000 0.0000 0.0000 43.0117 0.0000
# 6 0.0000 0.0000 0.0000 0.0000 0.0000 64.0960
#
#
#
# Elastic Compliance Matrix: (Units=1/GPa)
#
#
# Indices 1 2 3 4 5 6 
#
# 1 0.006984 -0.002296 -0.002505 0.000000 0.000000 0.000000
# 2 -0.002296 0.007220 0.000660 0.000000 0.000000 0.000000
# 3 -0.002505 0.000660 0.013326 0.000000 0.000000 0.000000
# 4 0.000000 0.000000 0.000000 0.023522 0.000000 0.000000
# 5 0.000000 0.000000 0.000000 0.000000 0.023249 0.000000
# 6 0.000000 0.000000 0.000000 0.000000 0.000000 0.015602
#
#
# Mechanical properties :
#
#
# Convention : Reuss Voigt Hill
#
# Bulk Modulus (GPa) = 51.95273 63.58904 57.77088
# Shear Modulus (GPa) = 47.80004 51.44301 49.62153
#
# Velocity S-wave (km/s) = 4.26696 4.42657 4.34750
# Velocity P-wave (km/s) = 6.63812 7.09556 6.87065
#
# Compressibility (1/GPa) = 0.01924827
#
# Stress axis : x y z
#
# Youngs Moduli (GPa) = 143.17878 138.50036 75.03948
#
# Poissons Ratio (x) = 0.31801 0.18801
# Poissons Ratio (y) = 0.32876 -0.04955
# Poissons Ratio (z) = 0.35873 -0.09145
#
# Static dielectric constant tensor:
#      x y z
#    x 2.037440 0.000000 0.000000 
#    y 0.000000 2.037780 0.000000 
#    z 0.000000 0.000000 2.165720 
# 
# From -- ./inp_files/5676.got.cif
#   From: 2010.05.17/outbox.cif.g08.bks.cpg/sg33_3_cif.got.tgz:5676.got - 2010.06.03 17:15:25.
