data_PCOD9347123
_publ_section_title
;
Structure prediction by ZEFSAII (Michael W. Deem and Ramdas Pophale) SiO2 
 PCOD9347123
Probable space group: P N N 2
;
_chemical_formula_sum "Si O2"
_cell_formula_units_Z 32
_cell_length_a 7.255799
_cell_length_b 16.479089
_cell_length_c 10.071959
_cell_angle_alpha 90.000000
_cell_angle_beta 90.000000
_cell_angle_gamma 90.000000
_cell_volume 1204.293637
_symmetry_space_group_name_H-M "P N N 2"
_symmetry_group_IT_number 34
_symmetry_cell_setting 'orthorhombic'
loop_
_space_group_symop_operation_xyz
x,y,z
-x,-y,z
1/2-x,1/2+y,1/2+z
1/2+x,1/2-y,1/2+z
loop_
_atom_site_type_symbol
_atom_site_label
_atom_site_fract_x
_atom_site_fract_y
_atom_site_fract_z
Si Si1 0.757362 0.354377 0.641210
Si Si2 0.703081 0.021813 0.529208
Si Si3 0.527851 0.097681 0.909440
Si Si4 0.086275 0.761777 0.345828
Si Si5 0.359135 0.807495 0.562540
Si Si6 0.753595 0.854585 0.450614
Si Si7 0.588136 0.575291 0.475736
Si Si8 0.831757 0.061953 0.254886
O O1 0.701695 0.260366 0.665936
O O2 0.785245 0.380249 0.795360
O O3 0.586109 0.383745 0.547000
O O4 0.933909 0.376568 0.550972
O O5 0.811302 0.937523 0.527552
O O6 0.500000 0.000000 0.576713
O O7 0.743685 0.107879 0.593582
O O8 0.692820 0.049259 0.374067
O O9 0.746024 0.117138 0.902594
O O10 0.500000 0.000000 0.885964
O O11 0.438431 0.166458 0.811966
O O12 0.271480 0.767414 0.431080
O O13 0.115457 0.842406 0.255820
O O14 0.919719 0.791221 0.442421
O O15 0.571775 0.820877 0.522328
O O16 0.500000 0.500000 0.397942
O O17 0.706349 0.540758 0.603446
O O18 0.000000 0.000000 0.287101
#
# Coordination Sequence:
#
# PCOD9347123 Si02
#       8
#     4   4   4   4   4   4   4   4
#     4  11  22  36  54  88 116 148 199 245 302 372
#     4   9  18  29  51  80 108 146 176 229 298 354
#     4  11  24  35  54  79 114 151 192 238 294 348
#     4  10  20  36  51  79 110 150 184 230 290 345
#     4   9  22  34  49  84 125 143 185 245 298 359
#     4  11  19  35  61  81 111 156 190 237 309 360
#     4  11  20  33  54  80 114 142 183 249 294 342
#     4  10  17  30  51  80 107 130 178 231 283 350
#
# _framework density 26.571594000000001
#
# number of rings (size 3 to 8) (size 9 to 14) (size 15 to 20)
#    0.000    1.750    3.750    1.500    5.250    0.000 
#    0.000    0.000    0.000    2.250    0.000    7.000 
#    0.000    0.000    0.000    0.000    0.000    0.000 
#
# Total GULP energy -178255.812373 kJ/mol
# GULP energy per Si atom -5570.494137 kJ/mol
# Density = 2.651112 g / cm^3
# Si number density = 26.571594 Si / 1000 Ang^3
#
#
#
# Elastic Constant Matrix: (Units=GPa)
#
#
# Indices 1 2 3 4 5 6 
#
# 1 108.0564 32.8822 23.3622 0.0000 0.0000 0.0000
# 2 32.8822 226.4511 24.1425 0.0000 0.0000 0.0000
# 3 23.3622 24.1425 75.2760 0.0000 0.0000 0.0000
# 4 0.0000 0.0000 0.0000 38.3469 0.0000 0.0000
# 5 0.0000 0.0000 0.0000 0.0000 11.1112 0.0000
# 6 0.0000 0.0000 0.0000 0.0000 0.0000 46.7748
#
#
#
# Elastic Compliance Matrix: (Units=1/GPa)
#
#
# Indices 1 2 3 4 5 6 
#
# 1 0.010219 -0.001186 -0.002791 0.000000 0.000000 0.000000
# 2 -0.001186 0.004710 -0.001142 0.000000 0.000000 0.000000
# 3 -0.002791 -0.001142 0.014517 0.000000 0.000000 0.000000
# 4 0.000000 0.000000 0.000000 0.026078 0.000000 0.000000
# 5 0.000000 0.000000 0.000000 0.000000 0.089999 0.000000
# 6 0.000000 0.000000 0.000000 0.000000 0.000000 0.021379
#
#
# Mechanical properties :
#
#
# Convention : Reuss Voigt Hill
#
# Bulk Modulus (GPa) = 52.06572 63.39524 57.73048
# Shear Modulus (GPa) = 27.24148 41.20636 34.22392
#
# Velocity S-wave (km/s) = 3.20536 3.94225 3.59275
# Velocity P-wave (km/s) = 5.77375 6.68071 6.24372
#
# Compressibility (1/GPa) = 0.01920649
#
# Stress axis : x y z
#
# Youngs Moduli (GPa) = 97.85846 212.31343 68.88458
#
# Poissons Ratio (x) = 0.25187 0.19226
# Poissons Ratio (y) = 0.11609 0.07870
# Poissons Ratio (z) = 0.27312 0.24255
#
# Static dielectric constant tensor:
#      x y z
#    x 2.136630 0.000000 0.000000 
#    y 0.000000 2.269600 0.000000 
#    z 0.000000 0.000000 2.165200 
# 
# From -- ./inp_files/6623.got.cif
#   From: 2010.05.17/outbox.cif.g08.bks.cpg/sg34_4_cif.got.tgz:6623.got - 2010.06.03 17:23:11.
