data_PCOD9347564
_publ_section_title
;
Structure prediction by ZEFSAII (Michael W. Deem and Ramdas Pophale) SiO2 
 PCOD9347564
Probable space group: P N N 2
;
_chemical_formula_sum "Si O2"
_cell_formula_units_Z 18
_cell_length_a 24.690141
_cell_length_b 5.441757
_cell_length_c 4.931777
_cell_angle_alpha 90.000000
_cell_angle_beta 90.000000
_cell_angle_gamma 90.000000
_cell_volume 662.622449
_symmetry_space_group_name_H-M "P N N 2"
_symmetry_group_IT_number 34
_symmetry_cell_setting 'orthorhombic'
loop_
_space_group_symop_operation_xyz
x,y,z
-x,-y,z
1/2-x,1/2+y,1/2+z
1/2+x,1/2-y,1/2+z
loop_
_atom_site_type_symbol
_atom_site_label
_atom_site_fract_x
_atom_site_fract_y
_atom_site_fract_z
Si Si1 0.926683 0.846630 0.678610
Si Si2 0.682960 0.221971 0.045539
Si Si3 0.500000 0.000000 0.865170
Si Si4 0.201391 0.974100 0.042761
Si Si5 0.407515 0.312761 0.676926
O O1 0.876815 0.652259 0.644957
O O2 0.979105 0.715357 0.561494
O O3 0.911004 0.062234 0.469998
O O4 0.927797 0.976900 0.967572
O O5 0.735785 0.063460 0.104359
O O6 0.695178 0.462802 0.228964
O O7 0.683351 0.298965 0.732411
O O8 0.550166 0.908951 0.682668
O O9 0.156103 0.769904 0.114494
#
# Coordination Sequence:
#
# PCOD9347564 Si02
#       5
#     4   4   2   4   4
#     4  10  25  46  67 104 140 175 235 292 338 411
#     4  10  21  40  66  97 135 169 215 285 341 404
#     4  12  26  46  80  92 140 202 234 278 366 424
#     4  10  21  40  66  97 135 169 215 285 341 404
#     4  10  25  46  67 104 140 175 235 292 338 411
#
# _framework density 27.164791999999998
#
# number of rings (size 3 to 8) (size 9 to 14) (size 15 to 20)
#    0.000    1.778    0.000    2.000    3.111    7.111 
#    0.000    0.000    0.000    0.000    0.000    0.000 
#    0.000    0.000    0.000    0.000    0.000    0.000 
#
# Total GULP energy -100843.407337 kJ/mol
# GULP energy per Si atom -5602.411519 kJ/mol
# Density = 2.710296 g / cm^3
# Si number density = 27.164792 Si / 1000 Ang^3
#
#
#
# Elastic Constant Matrix: (Units=GPa)
#
#
# Indices 1 2 3 4 5 6 
#
# 1 141.6804 21.5136 20.9205 0.0000 0.0000 0.0000
# 2 21.5136 65.9702 25.7395 0.0000 0.0000 0.0000
# 3 20.9205 25.7395 104.5799 0.0000 0.0000 0.0000
# 4 0.0000 0.0000 0.0000 18.6052 0.0000 0.0000
# 5 0.0000 0.0000 0.0000 0.0000 40.9248 0.0000
# 6 0.0000 0.0000 0.0000 0.0000 0.0000 45.1408
#
#
#
# Elastic Compliance Matrix: (Units=1/GPa)
#
#
# Indices 1 2 3 4 5 6 
#
# 1 0.007519 -0.002063 -0.000996 0.000000 0.000000 0.000000
# 2 -0.002063 0.017335 -0.003854 0.000000 0.000000 0.000000
# 3 -0.000996 -0.003854 0.010710 0.000000 0.000000 0.000000
# 4 0.000000 0.000000 0.000000 0.053749 0.000000 0.000000
# 5 0.000000 0.000000 0.000000 0.000000 0.024435 0.000000
# 6 0.000000 0.000000 0.000000 0.000000 0.000000 0.022153
#
#
# Mechanical properties :
#
#
# Convention : Reuss Voigt Hill
#
# Bulk Modulus (GPa) = 46.00487 49.84198 47.92342
# Shear Modulus (GPa) = 31.85289 37.20461 34.52875
#
# Velocity S-wave (km/s) = 3.42801 3.70481 3.56910
# Velocity P-wave (km/s) = 5.71319 6.05712 5.88767
#
# Compressibility (1/GPa) = 0.02173683
#
# Stress axis : x y z
#
# Youngs Moduli (GPa) = 133.00476 57.68743 93.37194
#
# Poissons Ratio (x) = 0.11902 0.09302
# Poissons Ratio (y) = 0.27441 0.35983
# Poissons Ratio (z) = 0.13250 0.22231
#
# Static dielectric constant tensor:
#      x y z
#    x 2.213050 0.000000 0.000000 
#    y 0.000000 2.135100 0.000000 
#    z 0.000000 0.000000 2.011980 
# 
# From -- ./inp_files/136.got.cif
#   From: 2010.05.17/outbox.cif.g08.bks.cpg/sg34_1_cif.got.tgz:136.got - 2010.06.03 17:23:11.
