data_PCOD9347137
_publ_section_title
;
Structure prediction by ZEFSAII (Michael W. Deem and Ramdas Pophale) SiO2 
 PCOD9347137
Probable space group: P N N 2
;
_chemical_formula_sum "Si O2"
_cell_formula_units_Z 32
_cell_length_a 11.170437
_cell_length_b 12.580045
_cell_length_c 8.570721
_cell_angle_alpha 90.000000
_cell_angle_beta 90.000000
_cell_angle_gamma 90.000000
_cell_volume 1204.397141
_symmetry_space_group_name_H-M "P N N 2"
_symmetry_group_IT_number 34
_symmetry_cell_setting 'orthorhombic'
loop_
_space_group_symop_operation_xyz
x,y,z
-x,-y,z
1/2-x,1/2+y,1/2+z
1/2+x,1/2-y,1/2+z
loop_
_atom_site_type_symbol
_atom_site_label
_atom_site_fract_x
_atom_site_fract_y
_atom_site_fract_z
Si Si1 0.477088 0.662450 0.077480
Si Si2 0.790717 0.709873 0.387300
Si Si3 0.542523 0.865038 0.207265
Si Si4 0.254332 0.646316 0.291682
Si Si5 0.107010 0.200000 0.093922
Si Si6 0.193524 0.473281 0.590327
Si Si7 0.093754 0.642867 0.033613
Si Si8 0.382611 0.376650 0.794160
O O1 0.542588 0.738140 0.201932
O O2 0.362847 0.618676 0.169083
O O3 0.416933 0.745674 0.954798
O O4 0.568893 0.599376 0.968256
O O5 0.795245 0.757462 0.215982
O O6 0.780580 0.585788 0.427170
O O7 0.688638 0.763690 0.492015
O O8 0.408073 0.900922 0.174089
O O9 0.592744 0.914506 0.367513
O O10 0.622857 0.917116 0.072700
O O11 0.330846 0.637504 0.452754
O O12 0.198069 0.768054 0.307008
O O13 0.141428 0.594656 0.194976
O O14 0.998880 0.140195 0.183613
O O15 0.037526 0.306852 0.041223
O O16 0.304323 0.465986 0.707710
#
# Coordination Sequence:
#
# PCOD9347137 Si02
#       8
#     4   4   4   4   4   4   4   4
#     4   9  17  31  51  84 107 140 189 229 278 332
#     4   9  18  32  51  85 109 143 195 230 275 341
#     4  10  19  32  59  86 119 148 177 235 302 345
#     4  10  18  31  50  85 112 134 197 240 270 332
#     4  10  18  29  54  82 111 144 187 243 285 316
#     4  10  18  36  56  88 119 145 186 235 292 362
#     4  10  18  33  51  87 114 145 195 234 276 357
#     4  10  18  32  53  80 109 143 190 234 278 343
#
# _framework density 26.569310000000002
#
# number of rings (size 3 to 8) (size 9 to 14) (size 15 to 20)
#    0.000    2.250    6.250    0.000    1.750    0.000 
#    0.000    0.000    0.000   29.250    3.250    0.000 
#    0.000    0.000    0.000    0.000    0.000    0.000 
#
# Total GULP energy -178361.427698 kJ/mol
# GULP energy per Si atom -5573.794616 kJ/mol
# Density = 2.650884 g / cm^3
# Si number density = 26.569310 Si / 1000 Ang^3
#
#
#
# Elastic Constant Matrix: (Units=GPa)
#
#
# Indices 1 2 3 4 5 6 
#
# 1 127.4149 6.0623 27.6243 0.0000 0.0000 0.0000
# 2 6.0623 31.8671 4.5142 0.0000 0.0000 0.0000
# 3 27.6243 4.5142 137.4669 0.0000 0.0000 0.0000
# 4 0.0000 0.0000 0.0000 33.4466 0.0000 0.0000
# 5 0.0000 0.0000 0.0000 0.0000 53.9035 0.0000
# 6 0.0000 0.0000 0.0000 0.0000 0.0000 36.5420
#
#
#
# Elastic Compliance Matrix: (Units=1/GPa)
#
#
# Indices 1 2 3 4 5 6 
#
# 1 0.008263 -0.001343 -0.001616 0.000000 0.000000 0.000000
# 2 -0.001343 0.031745 -0.000773 0.000000 0.000000 0.000000
# 3 -0.001616 -0.000773 0.007625 0.000000 0.000000 0.000000
# 4 0.000000 0.000000 0.000000 0.029898 0.000000 0.000000
# 5 0.000000 0.000000 0.000000 0.000000 0.018552 0.000000
# 6 0.000000 0.000000 0.000000 0.000000 0.000000 0.027366
#
#
# Mechanical properties :
#
#
# Convention : Reuss Voigt Hill
#
# Bulk Modulus (GPa) = 24.89488 41.46120 33.17804
# Shear Modulus (GPa) = 34.64962 42.01495 38.33229
#
# Velocity S-wave (km/s) = 3.61518 3.98091 3.80245
# Velocity P-wave (km/s) = 5.17843 6.06375 5.63849
#
# Compressibility (1/GPa) = 0.04016890
#
# Stress axis : x y z
#
# Youngs Moduli (GPa) = 121.02592 31.50080 131.15359
#
# Poissons Ratio (x) = 0.04230 0.21198
# Poissons Ratio (y) = 0.16253 0.10133
# Poissons Ratio (z) = 0.19562 0.02434
#
# Static dielectric constant tensor:
#      x y z
#    x 2.074980 0.000000 0.000000 
#    y 0.000000 2.283540 0.000000 
#    z 0.000000 0.000000 2.234720 
# 
# From -- ./inp_files/3431.got.cif
#   From: 2010.05.17/outbox.cif.g08.bks.cpg/sg34_2_cif.got.tgz:3431.got - 2010.06.03 17:23:11.
