data_PCOD9347260
_publ_section_title
;
Structure prediction by ZEFSAII (Michael W. Deem and Ramdas Pophale) SiO2 
 PCOD9347260
Probable space group: P N N 2
;
_chemical_formula_sum "Si O2"
_cell_formula_units_Z 28
_cell_length_a 12.200216
_cell_length_b 12.547524
_cell_length_c 7.330260
_cell_angle_alpha 90.000000
_cell_angle_beta 90.000000
_cell_angle_gamma 90.000000
_cell_volume 1122.134549
_symmetry_space_group_name_H-M "P N N 2"
_symmetry_group_IT_number 34
_symmetry_cell_setting 'orthorhombic'
loop_
_space_group_symop_operation_xyz
x,y,z
-x,-y,z
1/2-x,1/2+y,1/2+z
1/2+x,1/2-y,1/2+z
loop_
_atom_site_type_symbol
_atom_site_label
_atom_site_fract_x
_atom_site_fract_y
_atom_site_fract_z
Si Si1 0.523558 0.345326 0.569330
Si Si2 0.264104 0.848971 0.249026
Si Si3 0.466367 0.391293 0.950029
Si Si4 0.740489 0.382913 0.337300
Si Si5 0.381223 0.202857 0.155351
Si Si6 0.705032 0.609077 0.366384
Si Si7 0.481951 0.886043 0.475382
O O1 0.541558 0.389624 0.770788
O O2 0.627522 0.368633 0.447405
O O3 0.416665 0.387383 0.460345
O O4 0.506186 0.218839 0.596498
O O5 0.154564 0.885106 0.357066
O O6 0.252056 0.721530 0.213534
O O7 0.277878 0.895106 0.047796
O O8 0.365241 0.875932 0.376906
O O9 0.500000 0.500000 0.049899
O O10 0.470620 0.287763 0.077753
O O11 0.833643 0.363523 0.489014
O O12 0.734117 0.501480 0.258344
O O13 0.292135 0.284986 0.243757
O O14 0.430019 0.130433 0.313142
O O15 0.500000 0.000000 0.565242
#
# Coordination Sequence:
#
# PCOD9347260 Si02
#       7
#     4   4   4   4   4   4   4
#     4   9  19  35  58  82 107 146 194 231 282 349
#     4   9  20  36  55  83 113 149 194 232 283 351
#     4  10  20  37  57  84 116 144 188 245 289 333
#     4  10  19  36  57  82 116 146 187 242 285 335
#     4  10  23  36  55  88 114 146 197 235 283 352
#     4  10  19  37  59  80 110 150 187 232 289 339
#     4  10  20  37  56  79 117 155 187 233 287 343
#
# _framework density 24.952444
#
# number of rings (size 3 to 8) (size 9 to 14) (size 15 to 20)
#    0.000    2.286    0.000    3.000    0.000    4.571 
#    0.000   25.000    0.000    0.000    0.000    0.000 
#    0.000    0.000    0.000    0.000    0.000    0.000 
#
# Total GULP energy -156591.323802 kJ/mol
# GULP energy per Si atom -5592.547279 kJ/mol
# Density = 2.489565 g / cm^3
# Si number density = 24.952444 Si / 1000 Ang^3
#
#
#
# Elastic Constant Matrix: (Units=GPa)
#
#
# Indices 1 2 3 4 5 6 
#
# 1 47.7618 13.0526 -6.9201 0.0000 0.0000 0.0000
# 2 13.0526 144.4300 -3.6879 0.0000 0.0000 0.0000
# 3 -6.9201 -3.6879 51.7014 0.0000 0.0000 0.0000
# 4 0.0000 0.0000 0.0000 16.7042 0.0000 0.0000
# 5 0.0000 0.0000 0.0000 0.0000 25.0537 0.0000
# 6 0.0000 0.0000 0.0000 0.0000 0.0000 19.0679
#
#
#
# Elastic Compliance Matrix: (Units=1/GPa)
#
#
# Indices 1 2 3 4 5 6 
#
# 1 0.021862 -0.001904 0.002790 0.000000 0.000000 0.000000
# 2 -0.001904 0.007102 0.000252 0.000000 0.000000 0.000000
# 3 0.002790 0.000252 0.019733 0.000000 0.000000 0.000000
# 4 0.000000 0.000000 0.000000 0.059865 0.000000 0.000000
# 5 0.000000 0.000000 0.000000 0.000000 0.039914 0.000000
# 6 0.000000 0.000000 0.000000 0.000000 0.000000 0.052444
#
#
# Mechanical properties :
#
#
# Convention : Reuss Voigt Hill
#
# Bulk Modulus (GPa) = 19.61839 27.64252 23.63045
# Shear Modulus (GPa) = 23.18712 28.26173 25.72443
#
# Velocity S-wave (km/s) = 3.05167 3.36910 3.21431
# Velocity P-wave (km/s) = 4.50514 5.12216 4.82353
#
# Compressibility (1/GPa) = 0.05097259
#
# Stress axis : x y z
#
# Youngs Moduli (GPa) = 45.74152 140.79926 50.67582
#
# Poissons Ratio (x) = 0.26815 -0.14140
# Poissons Ratio (y) = 0.08711 -0.01275
# Poissons Ratio (z) = -0.12763 -0.03544
#
# Static dielectric constant tensor:
#      x y z
#    x 1.984980 0.000000 0.000000 
#    y 0.000000 2.003630 0.000000 
#    z 0.000000 0.000000 1.917370 
# 
# From -- ./inp_files/5421.got.cif
#   From: 2010.05.17/outbox.cif.g08.bks.cpg/sg34_3_cif.got.tgz:5421.got - 2010.06.03 17:23:11.
