data_PCOD9347488
_publ_section_title
;
Structure prediction by ZEFSAII (Michael W. Deem and Ramdas Pophale) SiO2 
 PCOD9347488
Probable space group: P N N 2
;
_chemical_formula_sum "Si O2"
_cell_formula_units_Z 24
_cell_length_a 12.432495
_cell_length_b 11.503479
_cell_length_c 6.564658
_cell_angle_alpha 90.000000
_cell_angle_beta 90.000000
_cell_angle_gamma 90.000000
_cell_volume 938.857333
_symmetry_space_group_name_H-M "P N N 2"
_symmetry_group_IT_number 34
_symmetry_cell_setting 'orthorhombic'
loop_
_space_group_symop_operation_xyz
x,y,z
-x,-y,z
1/2-x,1/2+y,1/2+z
1/2+x,1/2-y,1/2+z
loop_
_atom_site_type_symbol
_atom_site_label
_atom_site_fract_x
_atom_site_fract_y
_atom_site_fract_z
Si Si1 0.456242 0.256322 0.581330
Si Si2 0.621473 0.722672 0.113904
Si Si3 0.000000 0.000000 0.938387
Si Si4 0.500000 0.000000 0.516676
Si Si5 0.610870 0.363241 0.105479
Si Si6 0.214989 0.562630 0.767956
Si Si7 0.249320 0.824739 0.291829
O O1 0.404803 0.268503 0.354045
O O2 0.507358 0.385635 0.581722
O O3 0.512916 0.130831 0.612173
O O4 0.354737 0.252427 0.728016
O O5 0.507453 0.676332 0.028429
O O6 0.673603 0.850932 0.096688
O O7 0.719813 0.647538 0.025372
O O8 0.092593 0.032603 0.768371
O O9 0.391607 0.018083 0.386477
O O10 0.649845 0.251666 0.236236
O O11 0.696268 0.386705 0.925635
O O12 0.258752 0.444405 0.671298
#
# Coordination Sequence:
#
# PCOD9347488 Si02
#       7
#     4   4   2   2   4   4   4
#     4  10  22  44  68 103 143 182 243 293 356 430
#     4  10  24  46  65 105 143 184 241 307 352 439
#     4  10  22  40  72 102 142 192 238 304 354 434
#     4  10  20  46  66  96 148 184 222 310 344 424
#     4  11  23  46  72 102 150 186 244 305 367 432
#     4  11  22  43  74 100 147 195 239 300 371 430
#     4  12  24  43  74 104 139 198 241 295 373 431
#
# _framework density 25.562989999999999
#
# number of rings (size 3 to 8) (size 9 to 14) (size 15 to 20)
#    0.000    1.333    3.333    5.000    2.333    1.333 
#    6.000    5.000    0.000    0.000    0.000    0.000 
#    0.000    0.000    0.000    0.000    0.000    0.000 
#
# Total GULP energy -133631.129796 kJ/mol
# GULP energy per Si atom -5567.963742 kJ/mol
# Density = 2.550481 g / cm^3
# Si number density = 25.562990 Si / 1000 Ang^3
#
#
#
# Elastic Constant Matrix: (Units=GPa)
#
#
# Indices 1 2 3 4 5 6 
#
# 1 125.1925 35.9605 52.9732 0.0000 0.0000 0.0000
# 2 35.9605 183.2552 52.1982 0.0000 0.0000 0.0000
# 3 52.9732 52.1982 66.2295 0.0000 0.0000 0.0000
# 4 0.0000 0.0000 0.0000 29.0529 0.0000 0.0000
# 5 0.0000 0.0000 0.0000 0.0000 45.1648 0.0000
# 6 0.0000 0.0000 0.0000 0.0000 0.0000 54.2853
#
#
#
# Elastic Compliance Matrix: (Units=1/GPa)
#
#
# Indices 1 2 3 4 5 6 
#
# 1 0.012109 0.000493 -0.010074 0.000000 0.000000 0.000000
# 2 0.000493 0.007057 -0.005956 0.000000 0.000000 0.000000
# 3 -0.010074 -0.005956 0.027851 0.000000 0.000000 0.000000
# 4 0.000000 0.000000 0.000000 0.034420 0.000000 0.000000
# 5 0.000000 0.000000 0.000000 0.000000 0.022141 0.000000
# 6 0.000000 0.000000 0.000000 0.000000 0.000000 0.018421
#
#
# Mechanical properties :
#
#
# Convention : Reuss Voigt Hill
#
# Bulk Modulus (GPa) = 62.72473 72.99345 67.85909
# Shear Modulus (GPa) = 31.56853 41.27029 36.41941
#
# Velocity S-wave (km/s) = 3.51797 4.02239 3.77861
# Velocity P-wave (km/s) = 6.41031 7.08443 6.75578
#
# Compressibility (1/GPa) = 0.01594267
#
# Stress axis : x y z
#
# Youngs Moduli (GPa) = 82.58636 141.71097 35.90573
#
# Poissons Ratio (x) = -0.06991 0.36170
# Poissons Ratio (y) = -0.04074 0.21386
# Poissons Ratio (z) = 0.83195 0.84406
#
# Static dielectric constant tensor:
#      x y z
#    x 2.124850 0.000000 0.000000 
#    y 0.000000 2.240530 0.000000 
#    z 0.000000 0.000000 2.163380 
# 
# From -- ./inp_files/3185.got.cif
#   From: 2010.05.17/outbox.cif.g08.bks.cpg/sg34_2_cif.got.tgz:3185.got - 2010.06.03 17:23:11.
