data_PCOD9347838
_publ_section_title
;
Structure prediction by ZEFSAII (Michael W. Deem and Ramdas Pophale) SiO2 
 PCOD9347838
Probable space group: P N N 2
;
_chemical_formula_sum "Si O2"
_cell_formula_units_Z 18
_cell_length_a 4.897361
_cell_length_b 15.165078
_cell_length_c 10.589514
_cell_angle_alpha 90.000000
_cell_angle_beta 90.000000
_cell_angle_gamma 90.000000
_cell_volume 786.471149
_symmetry_space_group_name_H-M "P N N 2"
_symmetry_group_IT_number 34
_symmetry_cell_setting 'orthorhombic'
loop_
_space_group_symop_operation_xyz
x,y,z
-x,-y,z
1/2-x,1/2+y,1/2+z
1/2+x,1/2-y,1/2+z
loop_
_atom_site_type_symbol
_atom_site_label
_atom_site_fract_x
_atom_site_fract_y
_atom_site_fract_z
Si Si1 0.929670 0.682941 0.321410
Si Si2 0.864842 0.129073 0.248921
Si Si3 0.388524 0.099846 0.085813
Si Si4 0.919776 0.903866 0.702457
Si Si5 0.500000 0.500000 0.951649
O O1 0.624242 0.661383 0.275511
O O2 0.004463 0.785089 0.311792
O O3 0.035210 0.645826 0.454716
O O4 0.115136 0.627413 0.224573
O O5 0.576226 0.149119 0.187604
O O6 0.079211 0.103110 0.137032
O O7 0.813705 0.051485 0.350559
O O8 0.500000 0.000000 0.079756
O O9 0.935540 0.922557 0.552238
O O10 0.000000 0.000000 0.758429
#
# Coordination Sequence:
#
# PCOD9347838 Si02
#       5
#     4   4   4   4   2
#     4  12  26  45  71 104 134 175 234 279 331 399
#     4  12  27  45  69 103 136 182 222 283 337 396
#     4  12  25  47  69  98 140 180 222 279 346 399
#     4  10  24  45  75  94 135 177 230 271 334 397
#     4  10  26  48  68 100 136 186 222 274 334 426
#
# _framework density 22.887042999999998
#
# number of rings (size 3 to 8) (size 9 to 14) (size 15 to 20)
#    0.667    0.000    2.222    4.667    6.222    3.556 
#    0.000    0.000    0.000    0.000    0.000    0.000 
#    0.000    0.000    0.000    0.000    0.000    0.000 
#
# Total GULP energy -100408.066987 kJ/mol
# GULP energy per Si atom -5578.225944 kJ/mol
# Density = 2.283495 g / cm^3
# Si number density = 22.887043 Si / 1000 Ang^3
#
#
#
# Elastic Constant Matrix: (Units=GPa)
#
#
# Indices 1 2 3 4 5 6 
#
# 1 65.7571 4.5190 6.9013 0.0000 0.0000 0.0000
# 2 4.5190 95.1436 10.3787 0.0000 0.0000 0.0000
# 3 6.9013 10.3787 132.2721 0.0000 0.0000 0.0000
# 4 0.0000 0.0000 0.0000 37.0049 0.0000 0.0000
# 5 0.0000 0.0000 0.0000 0.0000 -8.8456 0.0000
# 6 0.0000 0.0000 0.0000 0.0000 0.0000 31.9809
#
#
#
# Elastic Compliance Matrix: (Units=1/GPa)
#
#
# Indices 1 2 3 4 5 6 
#
# 1 0.015331 -0.000646 -0.000749 0.000000 0.000000 0.000000
# 2 -0.000646 0.010628 -0.000800 0.000000 0.000000 0.000000
# 3 -0.000749 -0.000800 0.007662 0.000000 0.000000 0.000000
# 4 0.000000 0.000000 0.000000 0.027023 0.000000 0.000000
# 5 0.000000 0.000000 0.000000 0.000000 -0.113051 0.000000
# 6 0.000000 0.000000 0.000000 0.000000 0.000000 0.031269
#
#
# Mechanical properties :
#
#
# Convention : Reuss Voigt Hill
#
# Bulk Modulus (GPa) = 34.21213 37.41897 35.81555
# Shear Modulus (GPa) = -713.95488 30.11963 -341.91762
#
# Velocity S-wave (km/s) = -17.68119 3.63162 -12.23592
# Velocity P-wave (km/s) = 20.04624 5.82836 13.56248
#
# Compressibility (1/GPa) = 0.02922940
#
# Stress axis : x y z
#
# Youngs Moduli (GPa) = 65.22931 94.08731 130.51340
#
# Poissons Ratio (x) = 0.06082 0.09777
# Poissons Ratio (y) = 0.04217 0.10444
# Poissons Ratio (z) = 0.04887 0.07529
#
# Static dielectric constant tensor:
#      x y z
#    x 1.835810 0.000000 0.000000 
#    y 0.000000 1.922790 0.000000 
#    z 0.000000 0.000000 1.843560 
# 
# From -- ./inp_files/4344.got.cif
#   From: 2010.05.17/outbox.cif.g08.bks.cpg/sg34_3_cif.got.tgz:4344.got - 2010.06.03 17:23:11.
