data_PCOD9347071
_publ_section_title
;
Structure prediction by ZEFSAII (Michael W. Deem and Ramdas Pophale) SiO2 
 PCOD9347071
Probable space group: P N A 21
;
_chemical_formula_sum "Si O2"
_cell_formula_units_Z 32
_cell_length_a 15.000000
_cell_length_b 12.000000
_cell_length_c 9.000000
_cell_angle_alpha 90.000000
_cell_angle_beta 90.000000
_cell_angle_gamma 90.000000
_cell_volume 1620.000000
_symmetry_space_group_name_H-M "P N A 21"
_symmetry_group_IT_number 33
_symmetry_cell_setting 'orthorhombic'
loop_
_space_group_symop_operation_xyz
x,y,z
-x,-y,1/2+z
1/2-x,1/2+y,1/2+z
1/2+x,1/2-y,z
loop_
_atom_site_type_symbol
_atom_site_label
_atom_site_fract_x
_atom_site_fract_y
_atom_site_fract_z
Si Si1 0.242106 0.653638 0.712850
Si Si2 0.666758 0.252324 0.483201
Si Si3 0.492199 0.887141 0.114546
Si Si4 0.616802 0.998072 0.882803
Si Si5 0.188698 0.946701 0.014124
Si Si6 0.431808 0.330182 0.740000
Si Si7 0.860022 0.877265 0.278046
Si Si8 0.741970 0.687216 0.443960
O O1 0.320609 0.693119 0.822572
O O2 0.161061 0.614611 0.818072
O O3 0.267599 0.544027 0.616654
O O4 0.221970 0.755431 0.602029
O O5 0.576371 0.183414 0.512633
O O6 0.745469 0.159960 0.503807
O O7 0.665834 0.350362 0.607321
O O8 0.434692 0.943522 0.245564
O O9 0.558621 0.797779 0.188021
O O10 0.547522 0.971768 0.013536
O O11 0.696694 0.077126 0.940828
O O12 0.168273 0.007394 0.857187
O O13 0.100760 0.904415 0.100464
O O14 0.532188 0.362956 0.791560
O O15 0.350708 0.335552 0.857891
O O16 0.805035 0.779194 0.361923
#
# Coordination Sequence:
#
# PCOD9347071 Si02
#       8
#     4   4   4   4   4   4   4   4
#     4  11  25  41  70  97 135 182 226 280 345 419
#     4  11  22  48  64 100 140 176 233 291 338 410
#     4  11  26  41  71 100 139 179 238 289 344 420
#     4  12  24  45  67 106 136 186 232 283 356 413
#     4  11  22  45  67  95 135 181 226 279 348 410
#     4  11  21  45  69  94 140 178 226 295 339 415
#     4  10  23  41  72  94 133 182 226 280 353 405
#     4  11  23  46  68  98 138 180 231 289 343 412
#
# _framework density 19.753086
#
# number of rings (size 3 to 8) (size 9 to 14) (size 15 to 20)
#    0.000    1.000    6.250    0.750    3.500    3.000 
#    4.500    0.000    0.000    0.000    0.000    0.000 
#    0.000    0.000    0.000    0.000    0.000    0.000 
#
# Total GULP energy -178801.342785 kJ/mol
# GULP energy per Si atom -5587.541962 kJ/mol
# Density = 1.970813 g / cm^3
# Si number density = 19.753086 Si / 1000 Ang^3
#
#
#
# Elastic Constant Matrix: (Units=GPa)
#
#
# Indices 1 2 3 4 5 6 
#
# 1 97.8847 37.3357 27.4242 0.0000 0.0000 0.0000
# 2 37.3357 77.8374 51.2939 0.0000 0.0000 0.0000
# 3 27.4242 51.2939 75.2667 0.0000 0.0000 0.0000
# 4 0.0000 0.0000 0.0000 46.4906 0.0000 0.0000
# 5 0.0000 0.0000 0.0000 0.0000 31.6283 0.0000
# 6 0.0000 0.0000 0.0000 0.0000 0.0000 36.6935
#
#
#
# Elastic Compliance Matrix: (Units=1/GPa)
#
#
# Indices 1 2 3 4 5 6 
#
# 1 0.012534 -0.005450 -0.000853 0.000000 0.000000 0.000000
# 2 -0.005450 0.025690 -0.015522 0.000000 0.000000 0.000000
# 3 -0.000853 -0.015522 0.024175 0.000000 0.000000 0.000000
# 4 0.000000 0.000000 0.000000 0.021510 0.000000 0.000000
# 5 0.000000 0.000000 0.000000 0.000000 0.031617 0.000000
# 6 0.000000 0.000000 0.000000 0.000000 0.000000 0.027253
#
#
# Mechanical properties :
#
#
# Convention : Reuss Voigt Hill
#
# Bulk Modulus (GPa) = 53.33460 53.67739 53.50599
# Shear Modulus (GPa) = 25.94998 31.95812 28.95405
#
# Velocity S-wave (km/s) = 3.62846 4.02665 3.83273
# Velocity P-wave (km/s) = 6.67934 6.98940 6.83613
#
# Compressibility (1/GPa) = 0.01874956
#
# Stress axis : x y z
#
# Youngs Moduli (GPa) = 79.78425 38.92504 41.36520
#
# Poissons Ratio (x) = 0.21215 0.03527
# Poissons Ratio (y) = 0.43484 0.64207
# Poissons Ratio (z) = 0.06802 0.60420
#
# Static dielectric constant tensor:
#      x y z
#    x 1.681420 0.000000 0.000000 
#    y 0.000000 1.693000 0.000000 
#    z 0.000000 0.000000 1.718270 
# 
# From -- ./inp_files/4389.got.cif
#   From: 2010.05.17/outbox.ucp.g08.bks.cvg/sg33_3_cif.got.tgz:4389.got - 2010.06.11 10:35:07.
