data_PCOD9347220
_publ_section_title
;
Structure prediction by ZEFSAII (Michael W. Deem and Ramdas Pophale) SiO2 
 PCOD9347220
Probable space group: P N N 2
;
_chemical_formula_sum "Si O2"
_cell_formula_units_Z 24
_cell_length_a 7.931576
_cell_length_b 14.539829
_cell_length_c 7.443986
_cell_angle_alpha 90.000000
_cell_angle_beta 90.000000
_cell_angle_gamma 90.000000
_cell_volume 858.468446
_symmetry_space_group_name_H-M "P N N 2"
_symmetry_group_IT_number 34
_symmetry_cell_setting 'orthorhombic'
loop_
_space_group_symop_operation_xyz
x,y,z
-x,-y,z
1/2-x,1/2+y,1/2+z
1/2+x,1/2-y,1/2+z
loop_
_atom_site_type_symbol
_atom_site_label
_atom_site_fract_x
_atom_site_fract_y
_atom_site_fract_z
Si Si1 0.622058 0.103596 0.345760
Si Si2 0.163834 0.058293 0.770418
Si Si3 0.554706 0.722407 0.342665
Si Si4 0.836166 0.941707 0.335867
Si Si5 0.554705 0.722407 0.763623
Si Si6 0.622057 0.103595 0.760529
O O1 0.490375 0.176999 0.267052
O O2 0.571993 0.091763 0.553144
O O3 0.797343 0.162165 0.348321
O O4 0.678394 0.003783 0.273402
O O5 0.115409 0.160622 0.827228
O O6 0.169698 0.058128 0.553143
O O7 0.321607 0.996218 0.832884
O O8 0.000000 0.000000 0.829170
O O9 0.596435 0.731408 0.553144
O O10 0.702658 0.662165 0.257968
O O11 0.884590 0.839378 0.279057
O O12 0.000000 0.000000 0.277115
O O13 0.509624 0.823001 0.839236
#
# Coordination Sequence:
#
# PCOD9347220 Si02
#       6
#     4   4   4   4   4   4
#     4   9  19  34  49  69  98 127 155 190 235 284
#     4   8  15  30  49  66  91 127 158 187 230 281
#     4  10  19  31  50  74  95 120 159 199 231 272
#     4   8  15  30  49  66  91 127 158 187 230 281
#     4  10  19  31  50  74  95 120 159 199 231 272
#     4   9  19  34  49  69  98 127 155 190 235 284
#
# _framework density 27.956765000000001
#
# number of rings (size 3 to 8) (size 9 to 14) (size 15 to 20)
#    0.000    3.000    0.000    3.000    0.000    8.667 
#    0.000    1.667    0.000   10.000    0.000    0.000 
#    0.000    0.000    0.000    0.000    0.000    0.000 
#
# Total GULP energy -134237.029818 kJ/mol
# GULP energy per Si atom -5593.209576 kJ/mol
# Density = 2.789313 g / cm^3
# Si number density = 27.956765 Si / 1000 Ang^3
#
#
#
# Elastic Constant Matrix: (Units=GPa)
#
#
# Indices 1 2 3 4 5 6 
#
# 1 129.4418 26.1725 -8.0238 0.0000 0.0000 0.0000
# 2 26.1725 237.1245 1.0042 0.0000 0.0000 0.0000
# 3 -8.0238 1.0042 102.3637 0.0000 0.0000 0.0000
# 4 0.0000 0.0000 0.0000 23.0898 0.0000 0.0000
# 5 0.0000 0.0000 0.0000 0.0000 7.2042 0.0000
# 6 0.0000 0.0000 0.0000 0.0000 0.0000 64.1433
#
#
#
# Elastic Compliance Matrix: (Units=1/GPa)
#
#
# Indices 1 2 3 4 5 6 
#
# 1 0.007942 -0.000879 0.000631 0.000000 0.000000 0.000000
# 2 -0.000879 0.004315 -0.000111 0.000000 0.000000 0.000000
# 3 0.000631 -0.000111 0.009820 0.000000 0.000000 0.000000
# 4 0.000000 0.000000 0.000000 0.043309 0.000000 0.000000
# 5 0.000000 0.000000 0.000000 0.000000 0.138808 0.000000
# 6 0.000000 0.000000 0.000000 0.000000 0.000000 0.015590
#
#
# Mechanical properties :
#
#
# Convention : Reuss Voigt Hill
#
# Bulk Modulus (GPa) = 46.82079 56.35953 51.59016
# Shear Modulus (GPa) = 21.96622 48.87260 35.41941
#
# Velocity S-wave (km/s) = 2.80611 4.18562 3.56326
# Velocity P-wave (km/s) = 5.22331 6.60019 5.95170
#
# Compressibility (1/GPa) = 0.02135803
#
# Stress axis : x y z
#
# Youngs Moduli (GPa) = 125.90652 231.76488 101.83655
#
# Poissons Ratio (x) = 0.20379 -0.06428
# Poissons Ratio (y) = 0.11071 0.01133
# Poissons Ratio (z) = -0.07947 0.02578
#
# Static dielectric constant tensor:
#      x y z
#    x 2.285700 0.000000 0.000000 
#    y 0.000000 2.202270 0.000000 
#    z 0.000000 0.000000 2.002730 
# 
# From -- ./inp_files/2715.got.cif
#   From: 2010.05.17/outbox.cif.g08.bks.cpg/sg34_2_cif.got.tgz:2715.got - 2010.06.03 17:23:11.
