data_PCOD9347251
_publ_section_title
;
Structure prediction by ZEFSAII (Michael W. Deem and Ramdas Pophale) SiO2 
 PCOD9347251
Probable space group: P N N 2
;
_chemical_formula_sum "Si O2"
_cell_formula_units_Z 32
_cell_length_a 28.406698
_cell_length_b 8.303380
_cell_length_c 6.602890
_cell_angle_alpha 90.000000
_cell_angle_beta 90.000000
_cell_angle_gamma 90.000000
_cell_volume 1557.434282
_symmetry_space_group_name_H-M "P N N 2"
_symmetry_group_IT_number 34
_symmetry_cell_setting 'orthorhombic'
loop_
_space_group_symop_operation_xyz
x,y,z
-x,-y,z
1/2-x,1/2+y,1/2+z
1/2+x,1/2-y,1/2+z
loop_
_atom_site_type_symbol
_atom_site_label
_atom_site_fract_x
_atom_site_fract_y
_atom_site_fract_z
Si Si1 0.949337 0.649591 0.021710
Si Si2 0.642288 0.343692 0.400045
Si Si3 0.040641 0.687570 0.244823
Si Si4 0.383949 0.293580 0.479460
Si Si5 0.291635 0.103076 0.390952
Si Si6 0.716310 0.176894 0.676305
Si Si7 0.345300 0.897059 0.056073
Si Si8 0.561337 0.924860 0.159895
O O1 0.946076 0.490031 0.159353
O O2 0.994089 0.738805 0.119489
O O3 0.901693 0.749648 0.004283
O O4 0.957623 0.572141 0.798916
O O5 0.631647 0.531044 0.409914
O O6 0.689507 0.296496 0.521594
O O7 0.646242 0.270477 0.174743
O O8 0.032326 0.661317 0.482332
O O9 0.084991 0.796647 0.183819
O O10 0.337360 0.184057 0.493989
O O11 0.417785 0.207987 0.314084
O O12 0.257293 0.235510 0.298880
O O13 0.268188 0.979569 0.548804
O O14 0.311209 0.997532 0.204730
O O15 0.677847 0.124384 0.840657
O O16 0.393479 0.995830 0.050770
#
# Coordination Sequence:
#
# PCOD9347251 Si02
#       8
#     4   4   4   4   4   4   4   4
#     4   9  20  36  61  88 118 153 204 253 296 362
#     4  10  22  40  59  89 124 160 199 254 307 362
#     4  10  19  35  62  88 114 158 202 246 303 366
#     4  10  22  38  57  87 123 155 197 252 303 359
#     4  10  24  39  59  89 119 156 201 251 298 368
#     4  11  23  40  63  87 120 160 204 248 307 365
#     4   9  20  39  61  84 118 155 197 245 296 359
#     4   9  18  38  60  86 114 154 199 241 301 355
#
# _framework density 20.546613000000001
#
# number of rings (size 3 to 8) (size 9 to 14) (size 15 to 20)
#    0.000    2.250    0.000    3.750    3.500    6.500 
#    2.250    0.000    0.000    4.500    0.000    0.000 
#    0.000    0.000    0.000    0.000    0.000    0.000 
#
# Total GULP energy -178602.416086 kJ/mol
# GULP energy per Si atom -5581.325503 kJ/mol
# Density = 2.049985 g / cm^3
# Si number density = 20.546613 Si / 1000 Ang^3
#
#
#
# Elastic Constant Matrix: (Units=GPa)
#
#
# Indices 1 2 3 4 5 6 
#
# 1 71.8658 7.2814 28.7232 0.0000 0.0000 0.0000
# 2 7.2814 58.8755 6.1299 0.0000 0.0000 0.0000
# 3 28.7232 6.1299 90.3098 0.0000 0.0000 0.0000
# 4 0.0000 0.0000 0.0000 15.0494 0.0000 0.0000
# 5 0.0000 0.0000 0.0000 0.0000 24.8133 0.0000
# 6 0.0000 0.0000 0.0000 0.0000 0.0000 17.3985
#
#
#
# Elastic Compliance Matrix: (Units=1/GPa)
#
#
# Indices 1 2 3 4 5 6 
#
# 1 0.016066 -0.001465 -0.005010 0.000000 0.000000 0.000000
# 2 -0.001465 0.017240 -0.000704 0.000000 0.000000 0.000000
# 3 -0.005010 -0.000704 0.012714 0.000000 0.000000 0.000000
# 4 0.000000 0.000000 0.000000 0.066448 0.000000 0.000000
# 5 0.000000 0.000000 0.000000 0.000000 0.040301 0.000000
# 6 0.000000 0.000000 0.000000 0.000000 0.000000 0.057476
#
#
# Mechanical properties :
#
#
# Convention : Reuss Voigt Hill
#
# Bulk Modulus (GPa) = 31.58534 33.92445 32.75490
# Shear Modulus (GPa) = 21.26236 23.38002 22.32119
#
# Velocity S-wave (km/s) = 3.22038 3.37694 3.29959
# Velocity P-wave (km/s) = 5.40682 5.63487 5.52202
#
# Compressibility (1/GPa) = 0.03166026
#
# Stress axis : x y z
#
# Youngs Moduli (GPa) = 62.24407 58.00621 78.65141
#
# Poissons Ratio (x) = 0.08499 0.39407
# Poissons Ratio (y) = 0.09120 0.05538
# Poissons Ratio (z) = 0.31186 0.04084
#
# Static dielectric constant tensor:
#      x y z
#    x 1.795070 0.000000 0.000000 
#    y 0.000000 1.708960 0.000000 
#    z 0.000000 0.000000 1.751850 
# 
# From -- ./inp_files/1835.got.cif
#   From: 2010.05.17/outbox.cif.g08.bks.cpg/sg34_1_cif.got.tgz:1835.got - 2010.06.03 17:23:11.
