data_PCOD9347673
_publ_section_title
;
Structure prediction by ZEFSAII (Michael W. Deem and Ramdas Pophale) SiO2 
 PCOD9347673
Probable space group: P N N 2
;
_chemical_formula_sum "Si O2"
_cell_formula_units_Z 24
_cell_length_a 16.455229
_cell_length_b 11.648508
_cell_length_c 4.877466
_cell_angle_alpha 90.000000
_cell_angle_beta 90.000000
_cell_angle_gamma 90.000000
_cell_volume 934.907155
_symmetry_space_group_name_H-M "P N N 2"
_symmetry_group_IT_number 34
_symmetry_cell_setting 'orthorhombic'
loop_
_space_group_symop_operation_xyz
x,y,z
-x,-y,z
1/2-x,1/2+y,1/2+z
1/2+x,1/2-y,1/2+z
loop_
_atom_site_type_symbol
_atom_site_label
_atom_site_fract_x
_atom_site_fract_y
_atom_site_fract_z
Si Si1 0.937734 0.891228 0.994130
Si Si2 0.330349 0.557073 0.989328
Si Si3 0.998900 0.639384 0.793190
Si Si4 0.758896 0.662482 0.866721
Si Si5 0.179815 0.630697 0.659255
Si Si6 0.860639 0.605206 0.375724
O O1 0.863221 0.924290 0.791993
O O2 0.967515 0.761375 0.926361
O O3 0.000000 0.000000 0.971195
O O4 0.899684 0.890061 0.296441
O O5 0.242036 0.600400 0.899735
O O6 0.315862 0.424564 0.907643
O O7 0.295014 0.828451 0.064521
O O8 0.000000 0.500000 0.894793
O O9 0.093354 0.667561 0.768898
O O10 0.948886 0.630947 0.504419
O O11 0.725131 0.778288 0.978774
O O12 0.834818 0.623517 0.062568
O O13 0.159601 0.522973 0.467672
#
# Coordination Sequence:
#
# PCOD9347673 Si02
#       6
#     4   4   4   4   4   4
#     4  12  25  46  72 103 139 182 234 294 352 412
#     4  11  24  44  70 103 138 180 233 294 351 411
#     4  10  23  45  67  99 140 183 227 280 347 417
#     4  11  22  42  67  96 129 174 227 282 340 406
#     4  10  22  41  68  97 133 180 230 280 342 416
#     4  10  23  42  64  96 134 175 222 280 342 406
#
# _framework density 25.670998999999998
#
# number of rings (size 3 to 8) (size 9 to 14) (size 15 to 20)
#    0.000    1.333    0.000    5.500    0.000    2.667 
#    0.000   30.000    0.000    0.000    0.000    0.000 
#    0.000    0.000    0.000    0.000    0.000    0.000 
#
# Total GULP energy -134264.438957 kJ/mol
# GULP energy per Si atom -5594.351623 kJ/mol
# Density = 2.561257 g / cm^3
# Si number density = 25.670999 Si / 1000 Ang^3
#
#
#
# Elastic Constant Matrix: (Units=GPa)
#
#
# Indices 1 2 3 4 5 6 
#
# 1 115.2337 75.7341 -4.3825 0.0000 0.0000 0.0000
# 2 75.7341 114.4941 32.5707 0.0000 0.0000 0.0000
# 3 -4.3825 32.5707 73.0591 0.0000 0.0000 0.0000
# 4 0.0000 0.0000 0.0000 36.9236 0.0000 0.0000
# 5 0.0000 0.0000 0.0000 0.0000 5.3789 0.0000
# 6 0.0000 0.0000 0.0000 0.0000 0.0000 45.9878
#
#
#
# Elastic Compliance Matrix: (Units=1/GPa)
#
#
# Indices 1 2 3 4 5 6 
#
# 1 0.018315 -0.014232 0.007443 0.000000 0.000000 0.000000
# 2 -0.014232 0.021062 -0.010243 0.000000 0.000000 0.000000
# 3 0.007443 -0.010243 0.018701 0.000000 0.000000 0.000000
# 4 0.000000 0.000000 0.000000 0.027083 0.000000 0.000000
# 5 0.000000 0.000000 0.000000 0.000000 0.185912 0.000000
# 6 0.000000 0.000000 0.000000 0.000000 0.000000 0.021745
#
#
# Mechanical properties :
#
#
# Convention : Reuss Voigt Hill
#
# Bulk Modulus (GPa) = 41.64343 56.73682 49.19012
# Shear Modulus (GPa) = 14.93046 30.91571 22.92308
#
# Velocity S-wave (km/s) = 2.41427 3.47407 2.99148
# Velocity P-wave (km/s) = 4.90192 6.18399 5.57990
#
# Compressibility (1/GPa) = 0.02401339
#
# Stress axis : x y z
#
# Youngs Moduli (GPa) = 54.60091 47.47857 53.47383
#
# Poissons Ratio (x) = 0.67572 -0.39803
# Poissons Ratio (y) = 0.77708 0.54776
# Poissons Ratio (z) = -0.40642 0.48635
#
# Static dielectric constant tensor:
#      x y z
#    x 2.074340 0.000000 0.000000 
#    y 0.000000 2.139500 0.000000 
#    z 0.000000 0.000000 1.992460 
# 
# From -- ./inp_files/3366.got.cif
#   From: 2010.05.17/outbox.cif.g08.bks.cpg/sg34_2_cif.got.tgz:3366.got - 2010.06.03 17:23:11.
