data_PCOD9347204
_publ_section_title
;
Structure prediction by ZEFSAII (Michael W. Deem and Ramdas Pophale) SiO2 
 PCOD9347204
Probable space group: P N N 2
;
_chemical_formula_sum "Si O2"
_cell_formula_units_Z 22
_cell_length_a 8.842933
_cell_length_b 7.895927
_cell_length_c 16.136849
_cell_angle_alpha 90.000000
_cell_angle_beta 90.000000
_cell_angle_gamma 90.000000
_cell_volume 1126.725684
_symmetry_space_group_name_H-M "P N N 2"
_symmetry_group_IT_number 34
_symmetry_cell_setting 'orthorhombic'
loop_
_space_group_symop_operation_xyz
x,y,z
-x,-y,z
1/2-x,1/2+y,1/2+z
1/2+x,1/2-y,1/2+z
loop_
_atom_site_type_symbol
_atom_site_label
_atom_site_fract_x
_atom_site_fract_y
_atom_site_fract_z
Si Si1 0.389700 0.149435 0.103990
Si Si2 0.869768 0.360447 0.890211
Si Si3 0.678340 0.520774 0.035481
Si Si4 0.000000 0.000000 0.851607
Si Si5 0.178688 0.006434 0.239964
Si Si6 0.341940 0.664021 0.205020
O O1 0.315130 0.276175 0.038374
O O2 0.502611 0.251923 0.167254
O O3 0.500000 0.000000 0.071396
O O4 0.251293 0.079677 0.156457
O O5 0.753120 0.386508 0.814457
O O6 0.000000 0.500000 0.874030
O O7 0.781791 0.421436 0.971816
O O8 0.940734 0.171461 0.895905
O O9 0.500000 0.500000 0.017024
O O10 0.712714 0.446711 0.127149
O O11 0.871760 0.944475 0.786294
O O12 0.237880 0.814722 0.236038
O O13 0.000000 0.000000 0.244191
#
# Coordination Sequence:
#
# PCOD9347204 Si02
#       6
#     4   4   4   2   4   4
#     4   9  17  36  63  88 120 175 219 259 322 405
#     4  12  24  42  64  93 132 174 217 276 341 384
#     4  10  21  40  63  94 131 167 216 278 331 389
#     4  12  20  44  74  88 122 186 230 248 320 426
#     4  11  21  37  64  97 128 164 226 274 319 393
#     4  10  18  39  68  88 122 179 220 253 324 404
#
# _framework density 19.525603
#
# number of rings (size 3 to 8) (size 9 to 14) (size 15 to 20)
#    0.000    1.455    6.364    1.091    0.000    1.455 
#   11.455    2.727    0.000    0.000    0.000    0.000 
#    0.000    0.000    0.000    0.000    0.000    0.000 
#
# Total GULP energy -122610.390963 kJ/mol
# GULP energy per Si atom -5573.199589 kJ/mol
# Density = 1.948116 g / cm^3
# Si number density = 19.525603 Si / 1000 Ang^3
#
#
#
# Elastic Constant Matrix: (Units=GPa)
#
#
# Indices 1 2 3 4 5 6 
#
# 1 88.6101 46.6109 34.4768 0.0000 0.0000 0.0000
# 2 46.6109 154.6960 52.4010 0.0000 0.0000 0.0000
# 3 34.4768 52.4010 66.3803 0.0000 0.0000 0.0000
# 4 0.0000 0.0000 0.0000 8.5545 0.0000 0.0000
# 5 0.0000 0.0000 0.0000 0.0000 9.2316 0.0000
# 6 0.0000 0.0000 0.0000 0.0000 0.0000 15.3674
#
#
#
# Elastic Compliance Matrix: (Units=1/GPa)
#
#
# Indices 1 2 3 4 5 6 
#
# 1 0.014840 -0.002540 -0.005703 0.000000 0.000000 0.000000
# 2 -0.002540 0.009258 -0.005990 0.000000 0.000000 0.000000
# 3 -0.005703 -0.005990 0.022755 0.000000 0.000000 0.000000
# 4 0.000000 0.000000 0.000000 0.116898 0.000000 0.000000
# 5 0.000000 0.000000 0.000000 0.000000 0.108323 0.000000
# 6 0.000000 0.000000 0.000000 0.000000 0.000000 0.065073
#
#
# Mechanical properties :
#
#
# Convention : Reuss Voigt Hill
#
# Bulk Modulus (GPa) = 54.37974 64.07376 59.22675
# Shear Modulus (GPa) = 13.45020 18.37721 15.91371
#
# Velocity S-wave (km/s) = 2.62744 3.07120 2.85795
# Velocity P-wave (km/s) = 6.09225 6.74262 6.42567
#
# Compressibility (1/GPa) = 0.01838920
#
# Stress axis : x y z
#
# Youngs Moduli (GPa) = 67.38431 108.01013 43.94656
#
# Poissons Ratio (x) = 0.27431 0.25062
# Poissons Ratio (y) = 0.17113 0.26322
# Poissons Ratio (z) = 0.38429 0.64693
#
# Static dielectric constant tensor:
#      x y z
#    x 1.683000 0.000000 0.000000 
#    y 0.000000 1.824870 0.000000 
#    z 0.000000 0.000000 1.699820 
# 
# From -- ./inp_files/6415.got.cif
#   From: 2010.05.17/outbox.cif.g08.bks.cpg/sg34_4_cif.got.tgz:6415.got - 2010.06.03 17:23:11.
