data_PCOD9347717
_publ_section_title
;
Structure prediction by ZEFSAII (Michael W. Deem and Ramdas Pophale) SiO2 
 PCOD9347717
Probable space group: P N N 2
;
_chemical_formula_sum "Si O2"
_cell_formula_units_Z 26
_cell_length_a 17.377027
_cell_length_b 11.029692
_cell_length_c 6.162261
_cell_angle_alpha 90.000000
_cell_angle_beta 90.000000
_cell_angle_gamma 90.000000
_cell_volume 1181.079006
_symmetry_space_group_name_H-M "P N N 2"
_symmetry_group_IT_number 34
_symmetry_cell_setting 'orthorhombic'
loop_
_space_group_symop_operation_xyz
x,y,z
-x,-y,z
1/2-x,1/2+y,1/2+z
1/2+x,1/2-y,1/2+z
loop_
_atom_site_type_symbol
_atom_site_label
_atom_site_fract_x
_atom_site_fract_y
_atom_site_fract_z
Si Si1 0.375056 0.562054 0.815530
Si Si2 0.721849 0.619956 0.567276
Si Si3 0.384192 0.360468 0.169229
Si Si4 0.000000 0.500000 0.398442
Si Si5 0.103636 0.696812 0.281952
Si Si6 0.522427 0.323573 0.488503
Si Si7 0.606435 0.198773 0.109485
O O1 0.301248 0.500199 0.702992
O O2 0.431235 0.574271 0.612591
O O3 0.396797 0.463061 0.991798
O O4 0.379846 0.688639 0.943194
O O5 0.689302 0.613287 0.321346
O O6 0.675812 0.739964 0.658847
O O7 0.811676 0.634364 0.598719
O O8 0.459641 0.359509 0.313439
O O9 0.380919 0.236696 0.030384
O O10 0.073779 0.558376 0.273132
O O11 0.038449 0.391396 0.535189
O O12 0.029022 0.759589 0.172638
O O13 0.583741 0.245541 0.349595
#
# Coordination Sequence:
#
# PCOD9347717 Si02
#       7
#     4   4   4   2   4   4   4
#     4  11  24  43  70 103 138 180 238 300 353 442
#     4  10  26  45  71 101 142 188 239 302 371 425
#     4  10  22  44  71 104 135 182 237 298 352 437
#     4  12  24  48  68  98 150 190 244 292 362 434
#     4  10  23  45  68 105 137 188 236 293 356 440
#     4  11  22  43  71 105 139 178 239 293 363 422
#     4  12  27  46  68 108 141 193 239 302 362 438
#
# _framework density 22.013770999999998
#
# number of rings (size 3 to 8) (size 9 to 14) (size 15 to 20)
#    0.000    1.231    3.077    0.923    0.000   21.538 
#    2.769    0.000    0.000    0.000    0.000    0.000 
#    0.000    0.000    0.000    0.000    0.000    0.000 
#
# Total GULP energy -145047.021818 kJ/mol
# GULP energy per Si atom -5578.731608 kJ/mol
# Density = 2.196367 g / cm^3
# Si number density = 22.013771 Si / 1000 Ang^3
#
#
#
# Elastic Constant Matrix: (Units=GPa)
#
#
# Indices 1 2 3 4 5 6 
#
# 1 104.5469 14.4945 30.0701 0.0000 0.0000 0.0000
# 2 14.4945 68.0120 13.6813 0.0000 0.0000 0.0000
# 3 30.0701 13.6813 101.3918 0.0000 0.0000 0.0000
# 4 0.0000 0.0000 0.0000 24.4965 0.0000 0.0000
# 5 0.0000 0.0000 0.0000 0.0000 17.8641 0.0000
# 6 0.0000 0.0000 0.0000 0.0000 0.0000 18.1810
#
#
#
# Elastic Compliance Matrix: (Units=1/GPa)
#
#
# Indices 1 2 3 4 5 6 
#
# 1 0.010640 -0.001678 -0.002929 0.000000 0.000000 0.000000
# 2 -0.001678 0.015378 -0.001577 0.000000 0.000000 0.000000
# 3 -0.002929 -0.001577 0.010944 0.000000 0.000000 0.000000
# 4 0.000000 0.000000 0.000000 0.040822 0.000000 0.000000
# 5 0.000000 0.000000 0.000000 0.000000 0.055978 0.000000
# 6 0.000000 0.000000 0.000000 0.000000 0.000000 0.055003
#
#
# Mechanical properties :
#
#
# Convention : Reuss Voigt Hill
#
# Bulk Modulus (GPa) = 40.66177 43.38251 42.02214
# Shear Modulus (GPa) = 23.88538 26.48863 25.18701
#
# Velocity S-wave (km/s) = 3.29754 3.47259 3.38619
# Velocity P-wave (km/s) = 5.74539 5.98567 5.86676
#
# Compressibility (1/GPa) = 0.02459313
#
# Stress axis : x y z
#
# Youngs Moduli (GPa) = 93.98254 65.02677 91.37201
#
# Poissons Ratio (x) = 0.10914 0.26764
# Poissons Ratio (y) = 0.15774 0.14412
# Poissons Ratio (z) = 0.27529 0.10257
#
# Static dielectric constant tensor:
#      x y z
#    x 1.785910 0.000000 0.000000 
#    y 0.000000 1.894320 0.000000 
#    z 0.000000 0.000000 1.858630 
# 
# From -- ./inp_files/1439.got.cif
#   From: 2010.05.17/outbox.cif.g08.bks.cpg/sg34_1_cif.got.tgz:1439.got - 2010.06.03 17:23:11.
