data_PCOD9347410
_publ_section_title
;
Structure prediction by ZEFSAII (Michael W. Deem and Ramdas Pophale) SiO2 
 PCOD9347410
Probable space group: P N N 2
;
_chemical_formula_sum "Si O2"
_cell_formula_units_Z 24
_cell_length_a 11.674153
_cell_length_b 12.148631
_cell_length_c 7.065554
_cell_angle_alpha 90.000000
_cell_angle_beta 90.000000
_cell_angle_gamma 90.000000
_cell_volume 1002.072034
_symmetry_space_group_name_H-M "P N N 2"
_symmetry_group_IT_number 34
_symmetry_cell_setting 'orthorhombic'
loop_
_space_group_symop_operation_xyz
x,y,z
-x,-y,z
1/2-x,1/2+y,1/2+z
1/2+x,1/2-y,1/2+z
loop_
_atom_site_type_symbol
_atom_site_label
_atom_site_fract_x
_atom_site_fract_y
_atom_site_fract_z
Si Si1 0.767635 0.045995 0.830990
Si Si2 0.500000 0.500000 0.380469
Si Si3 0.810286 0.320708 0.440429
Si Si4 0.968225 0.657472 0.264087
Si Si5 0.131340 0.116488 0.217473
Si Si6 0.500000 0.000000 0.438468
Si Si7 0.742426 0.082267 0.280400
O O1 0.899082 0.063950 0.772443
O O2 0.747648 0.915379 0.811847
O O3 0.656800 0.103568 0.747878
O O4 0.757872 0.080456 0.052872
O O5 0.563584 0.419897 0.528427
O O6 0.752240 0.334377 0.644110
O O7 0.778214 0.200742 0.361559
O O8 0.941856 0.361083 0.432818
O O9 0.944266 0.785687 0.291637
O O10 0.026663 0.605285 0.076928
O O11 0.165614 0.011708 0.341241
O O12 0.385982 0.959126 0.328782
#
# Coordination Sequence:
#
# PCOD9347410 Si02
#       7
#     4   2   4   4   4   2   4
#     4  10  22  39  66  92 127 172 212 268 339 393
#     4   8  18  40  60  86 120 170 208 260 322 400
#     4  10  20  39  62  90 128 161 217 269 324 397
#     4  12  22  41  65  94 128 172 215 274 335 392
#     4  10  22  39  64  93 127 167 214 272 335 398
#     4  12  24  38  68  92 138 166 226 274 322 406
#     4  10  23  40  63  94 124 171 218 270 333 391
#
# _framework density 23.950375999999999
#
# number of rings (size 3 to 8) (size 9 to 14) (size 15 to 20)
#    0.000    2.000    3.333    2.000    4.667    2.667 
#    0.000    0.000    0.000    0.000    0.000    0.000 
#    0.000    0.000    0.000    0.000    0.000    0.000 
#
# Total GULP energy -133646.587950 kJ/mol
# GULP energy per Si atom -5568.607831 kJ/mol
# Density = 2.389586 g / cm^3
# Si number density = 23.950376 Si / 1000 Ang^3
#
#
#
# Elastic Constant Matrix: (Units=GPa)
#
#
# Indices 1 2 3 4 5 6 
#
# 1 159.7414 22.3895 18.9300 0.0000 0.0000 0.0000
# 2 22.3895 139.6132 2.2935 0.0000 0.0000 0.0000
# 3 18.9300 2.2935 45.1869 0.0000 0.0000 0.0000
# 4 0.0000 0.0000 0.0000 21.9255 0.0000 0.0000
# 5 0.0000 0.0000 0.0000 0.0000 26.6358 0.0000
# 6 0.0000 0.0000 0.0000 0.0000 0.0000 36.2882
#
#
#
# Elastic Compliance Matrix: (Units=1/GPa)
#
#
# Indices 1 2 3 4 5 6 
#
# 1 0.006733 -0.001034 -0.002768 0.000000 0.000000 0.000000
# 2 -0.001034 0.007328 0.000061 0.000000 0.000000 0.000000
# 3 -0.002768 0.000061 0.023287 0.000000 0.000000 0.000000
# 4 0.000000 0.000000 0.000000 0.045609 0.000000 0.000000
# 5 0.000000 0.000000 0.000000 0.000000 0.037543 0.000000
# 6 0.000000 0.000000 0.000000 0.000000 0.000000 0.027557
#
#
# Mechanical properties :
#
#
# Convention : Reuss Voigt Hill
#
# Bulk Modulus (GPa) = 33.48372 47.97417 40.72894
# Shear Modulus (GPa) = 30.21251 37.03181 33.62216
#
# Velocity S-wave (km/s) = 3.55556 3.93643 3.75083
# Velocity P-wave (km/s) = 5.55579 6.38238 5.98338
#
# Compressibility (1/GPa) = 0.02986526
#
# Stress axis : x y z
#
# Youngs Moduli (GPa) = 148.51940 136.47206 42.94270
#
# Poissons Ratio (x) = 0.14115 0.11887
# Poissons Ratio (y) = 0.15361 -0.00264
# Poissons Ratio (z) = 0.41113 -0.00838
#
# Static dielectric constant tensor:
#      x y z
#    x 2.049140 0.000000 0.000000 
#    y 0.000000 1.993940 0.000000 
#    z 0.000000 0.000000 1.949550 
# 
# From -- ./inp_files/3199.got.cif
#   From: 2010.05.17/outbox.cif.g08.bks.cpg/sg34_2_cif.got.tgz:3199.got - 2010.06.03 17:23:11.
