data_PCOD9347146
_publ_section_title
;
Structure prediction by ZEFSAII (Michael W. Deem and Ramdas Pophale) SiO2 
 PCOD9347146
Probable space group: P N N 2
;
_chemical_formula_sum "Si O2"
_cell_formula_units_Z 26
_cell_length_a 9.539556
_cell_length_b 9.360949
_cell_length_c 16.084580
_cell_angle_alpha 90.000000
_cell_angle_beta 90.000000
_cell_angle_gamma 90.000000
_cell_volume 1436.341690
_symmetry_space_group_name_H-M "P N N 2"
_symmetry_group_IT_number 34
_symmetry_cell_setting 'orthorhombic'
loop_
_space_group_symop_operation_xyz
x,y,z
-x,-y,z
1/2-x,1/2+y,1/2+z
1/2+x,1/2-y,1/2+z
loop_
_atom_site_type_symbol
_atom_site_label
_atom_site_fract_x
_atom_site_fract_y
_atom_site_fract_z
Si Si1 0.188008 0.750307 0.442870
Si Si2 0.992906 0.331277 0.606916
Si Si3 0.342901 0.957965 0.854253
Si Si4 0.496488 0.834822 0.424014
Si Si5 0.500000 0.500000 0.931706
Si Si6 0.583401 0.647313 0.264666
Si Si7 0.211293 0.224228 0.498694
O O1 0.102951 0.708274 0.526440
O O2 0.212890 0.606909 0.390742
O O3 0.342711 0.808349 0.460596
O O4 0.091017 0.867982 0.394283
O O5 0.935480 0.247026 0.685403
O O6 0.000000 0.500000 0.618945
O O7 0.151006 0.281602 0.584854
O O8 0.243825 0.894919 0.783627
O O9 0.334948 0.841927 0.929120
O O10 0.500000 0.000000 0.829749
O O11 0.526143 0.732636 0.345262
O O12 0.624909 0.803964 0.486893
O O13 0.500000 0.000000 0.397192
O O14 0.377720 0.580973 0.981660
O O15 0.500000 0.500000 0.253829
#
# Coordination Sequence:
#
# PCOD9347146 Si02
#       7
#     4   4   4   4   2   4   4
#     4  11  20  37  64  90 121 159 217 255 307 369
#     4  11  22  42  61  88 123 169 205 259 313 381
#     4  11  19  40  63  89 117 167 212 256 304 379
#     4  11  22  37  59  94 124 159 205 268 306 371
#     4  10  18  30  56  96 112 148 198 260 290 358
#     4  11  25  37  60  92 128 163 206 259 326 374
#     4  10  20  34  62  90 114 159 214 249 301 371
#
# _framework density 18.101541999999998
#
# number of rings (size 3 to 8) (size 9 to 14) (size 15 to 20)
#    0.000    1.231    7.692    0.462    4.308    0.000 
#    0.000    2.308    0.000    0.000    0.000    0.000 
#    0.000    0.000    0.000    0.000    0.000    0.000 
#
# Total GULP energy -144861.890756 kJ/mol
# GULP energy per Si atom -5571.611183 kJ/mol
# Density = 1.806034 g / cm^3
# Si number density = 18.101542 Si / 1000 Ang^3
#
#
#
# Elastic Constant Matrix: (Units=GPa)
#
#
# Indices 1 2 3 4 5 6 
#
# 1 152.3209 41.7164 33.7707 0.0000 0.0000 0.0000
# 2 41.7164 127.9891 23.9962 0.0000 0.0000 0.0000
# 3 33.7707 23.9962 55.8162 0.0000 0.0000 0.0000
# 4 0.0000 0.0000 0.0000 12.9696 0.0000 0.0000
# 5 0.0000 0.0000 0.0000 0.0000 14.5555 0.0000
# 6 0.0000 0.0000 0.0000 0.0000 0.0000 32.2943
#
#
#
# Elastic Compliance Matrix: (Units=1/GPa)
#
#
# Indices 1 2 3 4 5 6 
#
# 1 0.007962 -0.001840 -0.004026 0.000000 0.000000 0.000000
# 2 -0.001840 0.008923 -0.002723 0.000000 0.000000 0.000000
# 3 -0.004026 -0.002723 0.021522 0.000000 0.000000 0.000000
# 4 0.000000 0.000000 0.000000 0.077104 0.000000 0.000000
# 5 0.000000 0.000000 0.000000 0.000000 0.068703 0.000000
# 6 0.000000 0.000000 0.000000 0.000000 0.000000 0.030965
#
#
# Mechanical properties :
#
#
# Convention : Reuss Voigt Hill
#
# Bulk Modulus (GPa) = 47.10456 59.45474 53.27965
# Shear Modulus (GPa) = 20.88262 27.74007 24.31134
#
# Velocity S-wave (km/s) = 3.40021 3.91892 3.66875
# Velocity P-wave (km/s) = 6.44159 7.30710 6.88795
#
# Compressibility (1/GPa) = 0.02122937
#
# Stress axis : x y z
#
# Youngs Moduli (GPa) = 125.60217 112.06409 46.46318
#
# Poissons Ratio (x) = 0.20622 0.18706
# Poissons Ratio (y) = 0.23113 0.12652
# Poissons Ratio (z) = 0.50567 0.30515
#
# Static dielectric constant tensor:
#      x y z
#    x 1.651420 0.000000 0.000000 
#    y 0.000000 1.654070 0.000000 
#    z 0.000000 0.000000 1.595350 
# 
# From -- ./inp_files/7519.got.cif
#   From: 2010.05.17/outbox.cif.g08.bks.cpg/sg34_4_cif.got.tgz:7519.got - 2010.06.03 17:23:11.
