data_PCOD9347534
_publ_section_title
;
Structure prediction by ZEFSAII (Michael W. Deem and Ramdas Pophale) SiO2 
 PCOD9347534
Probable space group: P N N 2
;
_chemical_formula_sum "Si O2"
_cell_formula_units_Z 30
_cell_length_a 11.491236
_cell_length_b 5.800041
_cell_length_c 17.449889
_cell_angle_alpha 90.000000
_cell_angle_beta 90.000000
_cell_angle_gamma 90.000000
_cell_volume 1163.028819
_symmetry_space_group_name_H-M "P N N 2"
_symmetry_group_IT_number 34
_symmetry_cell_setting 'orthorhombic'
loop_
_space_group_symop_operation_xyz
x,y,z
-x,-y,z
1/2-x,1/2+y,1/2+z
1/2+x,1/2-y,1/2+z
loop_
_atom_site_type_symbol
_atom_site_label
_atom_site_fract_x
_atom_site_fract_y
_atom_site_fract_z
Si Si1 0.000000 0.500000 0.505491
Si Si2 0.320568 0.331945 0.048646
Si Si3 0.887043 0.913740 0.174239
Si Si4 0.671313 0.873716 0.273202
Si Si5 0.326790 0.094072 0.660505
Si Si6 0.187636 0.180266 0.426740
Si Si7 0.157125 0.126229 0.797617
Si Si8 0.863351 0.988898 0.975204
O O1 0.069001 0.672633 0.561281
O O2 0.093769 0.372573 0.450802
O O3 0.286418 0.526523 0.109209
O O4 0.351003 0.448924 0.967376
O O5 0.207105 0.174067 0.032748
O O6 0.879588 0.163958 0.130266
O O7 0.752598 0.896072 0.199825
O O8 0.902839 0.640097 0.158932
O O9 0.000000 0.000000 0.224527
O O10 0.770624 0.852433 0.340409
O O11 0.607635 0.627629 0.275925
O O12 0.609396 0.118168 0.282137
O O13 0.277945 0.126418 0.747748
O O14 0.306802 0.259815 0.468741
O O15 0.162073 0.111854 0.889728
O O16 0.000000 0.000000 0.987357
#
# Coordination Sequence:
#
# PCOD9347534 Si02
#       8
#     2   4   4   4   4   4   4   4
#     4  10  24  40  64  90 126 168 228 280 348 392
#     4  11  23  42  64  93 131 175 223 287 338 413
#     4  10  21  39  59  94 127 169 215 270 327 408
#     4   9  18  36  63  87 126 162 207 262 328 382
#     4  10  23  39  65  86 131 175 220 275 339 399
#     4  10  21  41  62  96 128 167 215 279 334 405
#     4   9  18  40  61  89 124 170 215 270 319 399
#     4  10  22  40  65  95 136 177 226 274 341 410
#
# _framework density 25.794719000000001
#
# number of rings (size 3 to 8) (size 9 to 14) (size 15 to 20)
#    0.000    2.133    1.333    0.800    3.733    2.133 
#    9.600    1.333    0.000    0.000    0.000    0.000 
#    0.000    0.000    0.000    0.000    0.000    0.000 
#
# Total GULP energy -167125.932457 kJ/mol
# GULP energy per Si atom -5570.864415 kJ/mol
# Density = 2.573601 g / cm^3
# Si number density = 25.794719 Si / 1000 Ang^3
#
#
#
# Elastic Constant Matrix: (Units=GPa)
#
#
# Indices 1 2 3 4 5 6 
#
# 1 112.1499 57.0899 18.1044 0.0000 0.0000 0.0000
# 2 57.0899 237.3065 17.6914 0.0000 0.0000 0.0000
# 3 18.1044 17.6914 78.1683 0.0000 0.0000 0.0000
# 4 0.0000 0.0000 0.0000 37.1956 0.0000 0.0000
# 5 0.0000 0.0000 0.0000 0.0000 -10.1954 0.0000
# 6 0.0000 0.0000 0.0000 0.0000 0.0000 41.1702
#
#
#
# Elastic Compliance Matrix: (Units=1/GPa)
#
#
# Indices 1 2 3 4 5 6 
#
# 1 0.010425 -0.002368 -0.001879 0.000000 0.000000 0.000000
# 2 -0.002368 0.004824 -0.000543 0.000000 0.000000 0.000000
# 3 -0.001879 -0.000543 0.013351 0.000000 0.000000 0.000000
# 4 0.000000 0.000000 0.000000 0.026885 0.000000 0.000000
# 5 0.000000 0.000000 0.000000 0.000000 -0.098084 0.000000
# 6 0.000000 0.000000 0.000000 0.000000 0.000000 0.024289
#
#
# Mechanical properties :
#
#
# Convention : Reuss Voigt Hill
#
# Bulk Modulus (GPa) = 52.57511 68.15514 60.36513
# Shear Modulus (GPa) = -2093.31670 35.95002 -1028.68334
#
# Velocity S-wave (km/s) = -28.51826 3.73728 -19.99154
# Velocity P-wave (km/s) = 32.61842 6.71584 22.57055
#
# Compressibility (1/GPa) = 0.01902041
#
# Stress axis : x y z
#
# Youngs Moduli (GPa) = 95.92011 207.29032 74.90079
#
# Poissons Ratio (x) = 0.49087 0.14071
# Poissons Ratio (y) = 0.22714 0.04070
# Poissons Ratio (z) = 0.18020 0.11264
#
# Static dielectric constant tensor:
#      x y z
#    x 2.035630 0.000000 0.000000 
#    y 0.000000 2.076280 0.000000 
#    z 0.000000 0.000000 2.119400 
# 
# From -- ./inp_files/8153.got.cif
#   From: 2010.05.17/outbox.cif.g08.bks.cpg/sg34_5_cif.got.tgz:8153.got - 2010.06.03 17:23:11.
