data_PCOD9347271
_publ_section_title
;
Structure prediction by ZEFSAII (Michael W. Deem and Ramdas Pophale) SiO2 
 PCOD9347271
Probable space group: P N N 2
;
_chemical_formula_sum "Si O2"
_cell_formula_units_Z 32
_cell_length_a 14.956160
_cell_length_b 9.802118
_cell_length_c 11.077000
_cell_angle_alpha 90.000000
_cell_angle_beta 90.000000
_cell_angle_gamma 90.000000
_cell_volume 1623.910854
_symmetry_space_group_name_H-M "P N N 2"
_symmetry_group_IT_number 34
_symmetry_cell_setting 'orthorhombic'
loop_
_space_group_symop_operation_xyz
x,y,z
-x,-y,z
1/2-x,1/2+y,1/2+z
1/2+x,1/2-y,1/2+z
loop_
_atom_site_type_symbol
_atom_site_label
_atom_site_fract_x
_atom_site_fract_y
_atom_site_fract_z
Si Si1 0.975096 0.198817 0.708000
Si Si2 0.284183 0.204715 0.870906
Si Si3 0.333628 0.753951 0.911073
Si Si4 0.478718 0.155848 0.951068
Si Si5 0.804478 0.050853 0.782127
Si Si6 0.662834 0.182856 0.186054
Si Si7 0.758923 0.014375 0.507374
Si Si8 0.093027 0.550335 0.859844
O O1 0.963948 0.246644 0.568208
O O2 0.909251 0.078519 0.750876
O O3 0.933323 0.313468 0.793314
O O4 0.082525 0.211074 0.718378
O O5 0.385936 0.158303 0.880134
O O6 0.255266 0.273884 0.745645
O O7 0.220925 0.070720 0.875118
O O8 0.267277 0.328227 0.965064
O O9 0.327136 0.823436 0.043687
O O10 0.325470 0.591812 0.939291
O O11 0.435434 0.791290 0.876020
O O12 0.255308 0.818842 0.828644
O O13 0.500000 0.000000 0.990630
O O14 0.767877 0.010615 0.650154
O O15 0.630029 0.047213 0.253089
O O16 0.665404 0.953278 0.463375
O O17 0.000000 0.500000 0.912414
#
# Coordination Sequence:
#
# PCOD9347271 Si02
#       8
#     4   4   4   4   4   4   4   4
#     4  10  19  36  64  92 120 163 216 257 312 383
#     4  11  23  40  60  93 133 159 210 271 318 375
#     4  11  22  40  64  93 126 168 216 261 322 382
#     4  11  21  38  65  98 127 167 218 268 321 387
#     4  12  23  39  64  96 127 169 210 267 326 377
#     4   9  20  37  63  92 123 161 211 267 319 372
#     4  11  23  41  60  94 128 168 212 265 323 386
#     4   9  18  36  62  89 118 162 209 261 312 377
#
# _framework density 19.705514999999998
#
# number of rings (size 3 to 8) (size 9 to 14) (size 15 to 20)
#    0.000    1.500    5.000    1.875    0.000    1.000 
#    2.250    0.000    0.000    0.000    0.000    0.000 
#    0.000    0.000    0.000    0.000    0.000    0.000 
#
# Total GULP energy -178173.654659 kJ/mol
# GULP energy per Si atom -5567.926708 kJ/mol
# Density = 1.966066 g / cm^3
# Si number density = 19.705515 Si / 1000 Ang^3
#
#
#
# Elastic Constant Matrix: (Units=GPa)
#
#
# Indices 1 2 3 4 5 6 
#
# 1 91.1001 -6.4240 29.2621 0.0000 0.0000 0.0000
# 2 -6.4240 85.3831 16.5156 0.0000 0.0000 0.0000
# 3 29.2621 16.5156 46.9243 0.0000 0.0000 0.0000
# 4 0.0000 0.0000 0.0000 25.5352 0.0000 0.0000
# 5 0.0000 0.0000 0.0000 0.0000 40.7961 0.0000
# 6 0.0000 0.0000 0.0000 0.0000 0.0000 31.8272
#
#
#
# Elastic Compliance Matrix: (Units=1/GPa)
#
#
# Indices 1 2 3 4 5 6 
#
# 1 0.014422 0.003031 -0.010061 0.000000 0.000000 0.000000
# 2 0.003031 0.013205 -0.006538 0.000000 0.000000 0.000000
# 3 -0.010061 -0.006538 0.029886 0.000000 0.000000 0.000000
# 4 0.000000 0.000000 0.000000 0.039162 0.000000 0.000000
# 5 0.000000 0.000000 0.000000 0.000000 0.024512 0.000000
# 6 0.000000 0.000000 0.000000 0.000000 0.000000 0.031420
#
#
# Mechanical properties :
#
#
# Convention : Reuss Voigt Hill
#
# Bulk Modulus (GPa) = 32.91840 33.56834 33.24337
# Shear Modulus (GPa) = 26.33433 31.90195 29.11814
#
# Velocity S-wave (km/s) = 3.65964 4.02796 3.84821
# Velocity P-wave (km/s) = 5.88207 6.22131 6.05406
#
# Compressibility (1/GPa) = 0.03037815
#
# Stress axis : x y z
#
# Youngs Moduli (GPa) = 69.33757 75.73143 33.46082
#
# Poissons Ratio (x) = -0.22955 0.33663
# Poissons Ratio (y) = -0.21017 0.21876
# Poissons Ratio (z) = 0.69757 0.49511
#
# Static dielectric constant tensor:
#      x y z
#    x 1.722180 0.000000 0.000000 
#    y 0.000000 1.828140 0.000000 
#    z 0.000000 0.000000 1.656190 
# 
# From -- ./inp_files/5697.got.cif
#   From: 2010.05.17/outbox.cif.g08.bks.cpg/sg34_3_cif.got.tgz:5697.got - 2010.06.03 17:23:11.
