data_PCOD9347663
_publ_section_title
;
Structure prediction by ZEFSAII (Michael W. Deem and Ramdas Pophale) SiO2 
 PCOD9347663
Probable space group: P N N 2
;
_chemical_formula_sum "Si O2"
_cell_formula_units_Z 28
_cell_length_a 8.844486
_cell_length_b 24.823302
_cell_length_c 5.434505
_cell_angle_alpha 90.000000
_cell_angle_beta 90.000000
_cell_angle_gamma 90.000000
_cell_volume 1193.142024
_symmetry_space_group_name_H-M "P N N 2"
_symmetry_group_IT_number 34
_symmetry_cell_setting 'orthorhombic'
loop_
_space_group_symop_operation_xyz
x,y,z
-x,-y,z
1/2-x,1/2+y,1/2+z
1/2+x,1/2-y,1/2+z
loop_
_atom_site_type_symbol
_atom_site_label
_atom_site_fract_x
_atom_site_fract_y
_atom_site_fract_z
Si Si1 0.952079 0.152250 0.409500
Si Si2 0.542978 0.739248 0.283667
Si Si3 0.904810 0.445207 0.902752
Si Si4 0.973642 0.379368 0.393351
Si Si5 0.209175 0.308875 0.576933
Si Si6 0.916448 0.944593 0.662334
Si Si7 0.170149 0.148554 0.011610
O O1 0.823377 0.150139 0.206557
O O2 0.917192 0.210264 0.527448
O O3 0.958941 0.097696 0.561710
O O4 0.121150 0.152255 0.293471
O O5 0.692413 0.738841 0.452026
O O6 0.427429 0.787847 0.248134
O O7 0.440285 0.691356 0.392377
O O8 0.956844 0.411415 0.141418
O O9 0.725401 0.453873 0.973027
O O10 0.000000 0.500000 0.899240
O O11 0.946449 0.415049 0.644075
O O12 0.837377 0.337029 0.432015
O O13 0.125763 0.345446 0.377801
O O14 0.855733 0.911050 0.898734
O O15 0.000000 0.000000 0.720410
#
# Coordination Sequence:
#
# PCOD9347663 Si02
#       7
#     4   4   4   4   4   4   4
#     4  10  22  44  64  97 136 175 237 287 360 424
#     4  10  25  43  65 102 134 183 238 294 366 437
#     4  11  25  45  69 106 145 191 240 299 363 435
#     4  11  25  45  71 102 145 187 238 298 364 424
#     4  11  27  41  72 100 139 187 238 302 364 444
#     4  10  22  40  69  99 138 184 235 295 353 435
#     4   9  21  44  64  96 137 181 229 295 349 431
#
# _framework density 23.467448000000001
#
# number of rings (size 3 to 8) (size 9 to 14) (size 15 to 20)
#    0.000    1.714    1.429    0.429    8.000    4.000 
#    0.000    0.000    0.000    0.000    0.000    0.000 
#    0.000    0.000    0.000    0.000    0.000    0.000 
#
# Total GULP energy -156124.144628 kJ/mol
# GULP energy per Si atom -5575.862308 kJ/mol
# Density = 2.341403 g / cm^3
# Si number density = 23.467448 Si / 1000 Ang^3
#
#
#
# Elastic Constant Matrix: (Units=GPa)
#
#
# Indices 1 2 3 4 5 6 
#
# 1 109.7879 37.8203 19.3538 0.0000 0.0000 0.0000
# 2 37.8203 86.3605 16.3225 0.0000 0.0000 0.0000
# 3 19.3538 16.3225 77.9721 0.0000 0.0000 0.0000
# 4 0.0000 0.0000 0.0000 8.0691 0.0000 0.0000
# 5 0.0000 0.0000 0.0000 0.0000 20.6783 0.0000
# 6 0.0000 0.0000 0.0000 0.0000 0.0000 38.8608
#
#
#
# Elastic Compliance Matrix: (Units=1/GPa)
#
#
# Indices 1 2 3 4 5 6 
#
# 1 0.010961 -0.004462 -0.001786 0.000000 0.000000 0.000000
# 2 -0.004462 0.013873 -0.001797 0.000000 0.000000 0.000000
# 3 -0.001786 -0.001797 0.013645 0.000000 0.000000 0.000000
# 4 0.000000 0.000000 0.000000 0.123929 0.000000 0.000000
# 5 0.000000 0.000000 0.000000 0.000000 0.048360 0.000000
# 6 0.000000 0.000000 0.000000 0.000000 0.000000 0.025733
#
#
# Mechanical properties :
#
#
# Convention : Reuss Voigt Hill
#
# Bulk Modulus (GPa) = 44.66752 46.79041 45.72897
# Shear Modulus (GPa) = 19.22680 26.89657 23.06169
#
# Velocity S-wave (km/s) = 2.86544 3.38912 3.13822
# Velocity P-wave (km/s) = 5.47931 5.94109 5.71486
#
# Compressibility (1/GPa) = 0.02238763
#
# Stress axis : x y z
#
# Youngs Moduli (GPa) = 91.23574 72.08159 73.28907
#
# Poissons Ratio (x) = 0.32166 0.13093
# Poissons Ratio (y) = 0.40713 0.13167
# Poissons Ratio (z) = 0.16299 0.12950
#
# Static dielectric constant tensor:
#      x y z
#    x 1.962220 0.000000 0.000000 
#    y 0.000000 1.868590 0.000000 
#    z 0.000000 0.000000 2.262750 
# 
# From -- ./inp_files/584.got.cif
#   From: 2010.05.17/outbox.cif.g08.bks.cpg/sg34_1_cif.got.tgz:584.got - 2010.06.03 17:23:11.
