data_PCOD9347742
_publ_section_title
;
Structure prediction by ZEFSAII (Michael W. Deem and Ramdas Pophale) SiO2 
 PCOD9347742
Probable space group: P N N 2
;
_chemical_formula_sum "Si O2"
_cell_formula_units_Z 20
_cell_length_a 9.527825
_cell_length_b 17.687709
_cell_length_c 5.006639
_cell_angle_alpha 90.000000
_cell_angle_beta 90.000000
_cell_angle_gamma 90.000000
_cell_volume 843.745820
_symmetry_space_group_name_H-M "P N N 2"
_symmetry_group_IT_number 34
_symmetry_cell_setting 'orthorhombic'
loop_
_space_group_symop_operation_xyz
x,y,z
-x,-y,z
1/2-x,1/2+y,1/2+z
1/2+x,1/2-y,1/2+z
loop_
_atom_site_type_symbol
_atom_site_label
_atom_site_fract_x
_atom_site_fract_y
_atom_site_fract_z
Si Si1 0.811736 0.638954 0.887200
Si Si2 0.138089 0.885899 0.866616
Si Si3 0.259462 0.602551 0.772958
Si Si4 0.000000 0.000000 0.490541
Si Si5 0.161307 0.191972 0.787843
Si Si6 0.000000 0.500000 0.821326
O O1 0.699934 0.609611 0.663626
O O2 0.858850 0.718664 0.765119
O O3 0.924346 0.573412 0.946583
O O4 0.745502 0.656733 0.172809
O O5 0.991562 0.843423 0.837115
O O6 0.110959 0.962714 0.698330
O O7 0.257012 0.665747 0.548646
O O8 0.135999 0.543299 0.701853
O O9 0.406222 0.555927 0.809417
O O10 0.258707 0.649855 0.047854
#
# Coordination Sequence:
#
# PCOD9347742 Si02
#       6
#     4   4   4   2   4   2
#     4  12  28  46  73 105 149 189 244 309 369 431
#     4  11  25  46  74 104 139 194 245 301 348 452
#     4  11  26  48  75 107 146 191 241 308 360 446
#     4  10  22  48  76 104 140 190 254 290 368 436
#     4  11  27  47  76 101 146 198 248 293 367 445
#     4  12  30  48  72 118 148 190 238 322 374 422
#
# _framework density 23.703818999999999
#
# number of rings (size 3 to 8) (size 9 to 14) (size 15 to 20)
#    0.000    0.800    2.000    3.600   11.200    4.800 
#    0.000    0.000    0.000    0.000    0.000    0.000 
#    0.000    0.000    0.000    0.000    0.000    0.000 
#
# Total GULP energy -111575.832631 kJ/mol
# GULP energy per Si atom -5578.791632 kJ/mol
# Density = 2.364987 g / cm^3
# Si number density = 23.703819 Si / 1000 Ang^3
#
#
#
# Elastic Constant Matrix: (Units=GPa)
#
#
# Indices 1 2 3 4 5 6 
#
# 1 81.9237 25.0174 17.4678 0.0000 0.0000 0.0000
# 2 25.0174 140.4967 21.0331 0.0000 0.0000 0.0000
# 3 17.4678 21.0331 125.9997 0.0000 0.0000 0.0000
# 4 0.0000 0.0000 0.0000 23.4765 0.0000 0.0000
# 5 0.0000 0.0000 0.0000 0.0000 1.1294 0.0000
# 6 0.0000 0.0000 0.0000 0.0000 0.0000 19.1402
#
#
#
# Elastic Compliance Matrix: (Units=1/GPa)
#
#
# Indices 1 2 3 4 5 6 
#
# 1 0.013169 -0.002125 -0.001471 0.000000 0.000000 0.000000
# 2 -0.002125 0.007643 -0.000981 0.000000 0.000000 0.000000
# 3 -0.001471 -0.000981 0.008304 0.000000 0.000000 0.000000
# 4 0.000000 0.000000 0.000000 0.042596 0.000000 0.000000
# 5 0.000000 0.000000 0.000000 0.000000 0.885430 0.000000
# 6 0.000000 0.000000 0.000000 0.000000 0.000000 0.052246
#
#
# Mechanical properties :
#
#
# Convention : Reuss Voigt Hill
#
# Bulk Modulus (GPa) = 50.09479 52.82852 51.46166
# Shear Modulus (GPa) = 4.87712 27.74268 16.30990
#
# Velocity S-wave (km/s) = 1.43596 3.42481 2.62596
# Velocity P-wave (km/s) = 4.89171 6.16233 5.56342
#
# Compressibility (1/GPa) = 0.01996215
#
# Stress axis : x y z
#
# Youngs Moduli (GPa) = 75.93616 130.84150 120.42012
#
# Poissons Ratio (x) = 0.27800 0.17714
# Poissons Ratio (y) = 0.16134 0.11816
# Poissons Ratio (z) = 0.11170 0.12839
#
# Static dielectric constant tensor:
#      x y z
#    x 1.960610 0.000000 0.000000 
#    y 0.000000 1.963530 0.000000 
#    z 0.000000 0.000000 1.869380 
# 
# From -- ./inp_files/397.got.cif
#   From: 2010.05.17/outbox.cif.g08.bks.cpg/sg34_1_cif.got.tgz:397.got - 2010.06.03 17:23:11.
