data_PCOD9347887
_publ_section_title
;
Structure prediction by ZEFSAII (Michael W. Deem and Ramdas Pophale) SiO2 
 PCOD9347887
Probable space group: P N N 2
;
_chemical_formula_sum "Si O2"
_cell_formula_units_Z 20
_cell_length_a 5.145593
_cell_length_b 16.227880
_cell_length_c 8.573901
_cell_angle_alpha 90.000000
_cell_angle_beta 90.000000
_cell_angle_gamma 90.000000
_cell_volume 715.938445
_symmetry_space_group_name_H-M "P N N 2"
_symmetry_group_IT_number 34
_symmetry_cell_setting 'orthorhombic'
loop_
_space_group_symop_operation_xyz
x,y,z
-x,-y,z
1/2-x,1/2+y,1/2+z
1/2+x,1/2-y,1/2+z
loop_
_atom_site_type_symbol
_atom_site_label
_atom_site_fract_x
_atom_site_fract_y
_atom_site_fract_z
Si Si1 0.332796 0.146454 0.232250
Si Si2 0.500000 0.000000 0.410884
Si Si3 0.250000 0.267136 0.513426
Si Si4 0.500000 0.500000 0.614450
Si Si5 0.500000 0.000000 0.912401
Si Si6 0.667204 0.353546 0.294601
Si Si7 0.000000 0.000000 0.615967
O O1 0.536702 0.084229 0.315220
O O2 0.215510 0.209361 0.359910
O O3 0.494300 0.185506 0.085648
O O4 0.106176 0.080585 0.198673
O O5 0.250000 0.013257 0.513426
O O6 0.505700 0.314494 0.441203
O O7 0.284490 0.209361 0.666941
O O8 0.250000 0.477111 0.513426
O O9 0.893824 0.419415 0.328179
O O10 0.463298 0.415771 0.211631
#
# Coordination Sequence:
#
# PCOD9347887 Si02
#       7
#     4   2   4   2   2   4   2
#     4  11  26  55  93 134 191 235 320 373 477 548
#     4  12  26  50  92 128 176 248 308 370 450 574
#     4  10  26  56  94 138 188 240 300 404 472 540
#     4  12  30  56  96 134 176 248 312 370 454 580
#     4  12  30  56  96 134 176 248 312 370 454 580
#     4  11  26  55  93 134 191 235 320 373 477 548
#     4  12  26  50  92 128 176 248 308 370 450 574
#
# _framework density 27.935365000000001
#
# number of rings (size 3 to 8) (size 9 to 14) (size 15 to 20)
#    0.000    0.800    2.000    2.400    8.400    0.000 
#    0.000   14.000    0.000    0.000    0.000    0.000 
#    0.000    0.000    0.000    0.000    0.000    0.000 
#
# Total GULP energy -111824.703677 kJ/mol
# GULP energy per Si atom -5591.235184 kJ/mol
# Density = 2.787178 g / cm^3
# Si number density = 27.935365 Si / 1000 Ang^3
#
#
#
# Elastic Constant Matrix: (Units=GPa)
#
#
# Indices 1 2 3 4 5 6 
#
# 1 218.0890 111.8113 127.8795 0.0000 0.0000 0.0000
# 2 111.8113 193.0949 123.2696 0.0000 0.0000 0.0000
# 3 127.8795 123.2696 201.3417 0.0000 0.0000 0.0000
# 4 0.0000 0.0000 0.0000 111.4789 0.0000 0.0000
# 5 0.0000 0.0000 0.0000 0.0000 77.0447 0.0000
# 6 0.0000 0.0000 0.0000 0.0000 0.0000 63.4428
#
#
#
# Elastic Compliance Matrix: (Units=1/GPa)
#
#
# Indices 1 2 3 4 5 6 
#
# 1 0.007854 -0.002238 -0.003618 0.000000 0.000000 0.000000
# 2 -0.002238 0.009139 -0.004174 0.000000 0.000000 0.000000
# 3 -0.003618 -0.004174 0.009820 0.000000 0.000000 0.000000
# 4 0.000000 0.000000 0.000000 0.008970 0.000000 0.000000
# 5 0.000000 0.000000 0.000000 0.000000 0.012979 0.000000
# 6 0.000000 0.000000 0.000000 0.000000 0.000000 0.015762
#
#
# Mechanical properties :
#
#
# Convention : Reuss Voigt Hill
#
# Bulk Modulus (GPa) = 148.07866 148.71628 148.39747
# Shear Modulus (GPa) = 57.57831 67.03096 62.30463
#
# Velocity S-wave (km/s) = 4.54489 4.90379 4.72774
# Velocity P-wave (km/s) = 8.98131 9.24198 9.11258
#
# Compressibility (1/GPa) = 0.00675317
#
# Stress axis : x y z
#
# Youngs Moduli (GPa) = 127.31661 109.41576 101.82995
#
# Poissons Ratio (x) = 0.24489 0.36845
# Poissons Ratio (y) = 0.28496 0.42504
# Poissons Ratio (z) = 0.46067 0.45670
#
# Static dielectric constant tensor:
#      x y z
#    x 2.175180 0.000000 0.000000 
#    y 0.000000 2.240640 0.000000 
#    z 0.000000 0.000000 2.363930 
# 
# From -- ./inp_files/2061.got.cif
#   From: 2010.05.17/outbox.cif.g08.bks.cpg/sg34_2_cif.got.tgz:2061.got - 2010.06.03 17:23:11.
