data_PCOD9347744
_publ_section_title
;
Structure prediction by ZEFSAII (Michael W. Deem and Ramdas Pophale) SiO2 
 PCOD9347744
Probable space group: P N N 2
;
_chemical_formula_sum "Si O2"
_cell_formula_units_Z 28
_cell_length_a 5.472523
_cell_length_b 21.606464
_cell_length_c 12.313739
_cell_angle_alpha 90.000000
_cell_angle_beta 90.000000
_cell_angle_gamma 90.000000
_cell_volume 1455.999541
_symmetry_space_group_name_H-M "P N N 2"
_symmetry_group_IT_number 34
_symmetry_cell_setting 'orthorhombic'
loop_
_space_group_symop_operation_xyz
x,y,z
-x,-y,z
1/2-x,1/2+y,1/2+z
1/2+x,1/2-y,1/2+z
loop_
_atom_site_type_symbol
_atom_site_label
_atom_site_fract_x
_atom_site_fract_y
_atom_site_fract_z
Si Si1 0.346890 0.174520 0.257770
Si Si2 0.937591 0.739466 0.957086
Si Si3 0.208587 0.340713 0.558169
Si Si4 0.382470 0.063251 0.939948
Si Si5 0.403441 0.564821 0.662050
Si Si6 0.823159 0.699873 0.187445
Si Si7 0.812720 0.841705 0.792790
O O1 0.471710 0.189150 0.371267
O O2 0.525290 0.179979 0.153281
O O3 0.239355 0.106289 0.248333
O O4 0.158045 0.230687 0.237897
O O5 0.788751 0.788956 0.885927
O O6 0.804316 0.709028 0.058494
O O7 0.154600 0.782078 0.007190
O O8 0.394296 0.388421 0.615077
O O9 0.075200 0.382132 0.466963
O O10 0.194633 0.093268 0.855693
O O11 0.500000 0.000000 0.899728
O O12 0.260930 0.049511 0.056652
O O13 0.500000 0.500000 0.704994
O O14 0.572670 0.671334 0.235384
O O15 0.073451 0.664807 0.217572
#
# Coordination Sequence:
#
# PCOD9347744 Si02
#       7
#     4   4   4   4   4   4   4
#     4  10  23  35  58  90 123 168 202 256 323 379
#     4  11  20  39  60  85 129 164 204 250 323 387
#     4  11  20  39  56  91 127 155 208 257 311 384
#     4  11  21  35  60  88 123 166 202 258 326 380
#     4  11  21  36  57  90 127 160 207 265 315 381
#     4  11  23  39  57  89 127 160 203 257 310 376
#     4  11  24  38  59  92 126 158 204 258 312 378
#
# _framework density 19.230777
#
# number of rings (size 3 to 8) (size 9 to 14) (size 15 to 20)
#    0.000    1.143    4.286    4.286    0.000    2.286 
#    0.000    0.000    0.000    0.000    3.714    1.000 
#    0.000    0.000    0.000    0.000    0.000    0.000 
#
# Total GULP energy -156416.639551 kJ/mol
# GULP energy per Si atom -5586.308555 kJ/mol
# Density = 1.918701 g / cm^3
# Si number density = 19.230777 Si / 1000 Ang^3
#
#
#
# Elastic Constant Matrix: (Units=GPa)
#
#
# Indices 1 2 3 4 5 6 
#
# 1 79.0089 47.2198 31.3660 0.0000 0.0000 0.0000
# 2 47.2198 123.8530 53.8691 0.0000 0.0000 0.0000
# 3 31.3660 53.8691 96.9543 0.0000 0.0000 0.0000
# 4 0.0000 0.0000 0.0000 18.2399 0.0000 0.0000
# 5 0.0000 0.0000 0.0000 0.0000 14.3165 0.0000
# 6 0.0000 0.0000 0.0000 0.0000 0.0000 36.4798
#
#
#
# Elastic Compliance Matrix: (Units=1/GPa)
#
#
# Indices 1 2 3 4 5 6 
#
# 1 0.016832 -0.005339 -0.002479 0.000000 0.000000 0.000000
# 2 -0.005339 0.012341 -0.005129 0.000000 0.000000 0.000000
# 3 -0.002479 -0.005129 0.013966 0.000000 0.000000 0.000000
# 4 0.000000 0.000000 0.000000 0.054825 0.000000 0.000000
# 5 0.000000 0.000000 0.000000 0.000000 0.069849 0.000000
# 6 0.000000 0.000000 0.000000 0.000000 0.000000 0.027412
#
#
# Mechanical properties :
#
#
# Convention : Reuss Voigt Hill
#
# Bulk Modulus (GPa) = 57.99158 62.74734 60.36946
# Shear Modulus (GPa) = 22.03930 24.96467 23.50199
#
# Velocity S-wave (km/s) = 3.38900 3.60691 3.49965
# Velocity P-wave (km/s) = 6.74795 7.07431 6.91306
#
# Compressibility (1/GPa) = 0.01724388
#
# Stress axis : x y z
#
# Youngs Moduli (GPa) = 59.41135 81.03309 71.60232
#
# Poissons Ratio (x) = 0.43264 0.17749
# Poissons Ratio (y) = 0.31720 0.36727
# Poissons Ratio (z) = 0.14727 0.41565
#
# Static dielectric constant tensor:
#      x y z
#    x 1.768510 0.000000 0.000000 
#    y 0.000000 1.683230 0.000000 
#    z 0.000000 0.000000 1.673610 
# 
# From -- ./inp_files/4496.got.cif
#   From: 2010.05.17/outbox.cif.g08.bks.cpg/sg34_3_cif.got.tgz:4496.got - 2010.06.03 17:23:11.
