data_PCOD9347273
_publ_section_title
;
Structure prediction by ZEFSAII (Michael W. Deem and Ramdas Pophale) SiO2 
 PCOD9347273
Probable space group: P N N 2
;
_chemical_formula_sum "Si O2"
_cell_formula_units_Z 26
_cell_length_a 23.384166
_cell_length_b 8.737034
_cell_length_c 5.399747
_cell_angle_alpha 90.000000
_cell_angle_beta 90.000000
_cell_angle_gamma 90.000000
_cell_volume 1103.212878
_symmetry_space_group_name_H-M "P N N 2"
_symmetry_group_IT_number 34
_symmetry_cell_setting 'orthorhombic'
loop_
_space_group_symop_operation_xyz
x,y,z
-x,-y,z
1/2-x,1/2+y,1/2+z
1/2+x,1/2-y,1/2+z
loop_
_atom_site_type_symbol
_atom_site_label
_atom_site_fract_x
_atom_site_fract_y
_atom_site_fract_z
Si Si1 0.544023 0.737186 0.180360
Si Si2 0.914529 0.428421 0.288239
Si Si3 0.750740 0.598999 0.250602
Si Si4 0.359407 0.333387 0.526415
Si Si5 0.500000 0.500000 0.801303
Si Si6 0.723563 0.440011 0.741301
Si Si7 0.034950 0.295155 0.069531
O O1 0.579472 0.657170 0.397399
O O2 0.482113 0.791496 0.280007
O O3 0.578457 0.883665 0.075623
O O4 0.537789 0.607836 0.975917
O O5 0.864463 0.324962 0.176316
O O6 0.915720 0.598809 0.180814
O O7 0.975741 0.363520 0.185567
O O8 0.686705 0.664443 0.305881
O O9 0.760104 0.497182 0.499571
O O10 0.785130 0.757879 0.238083
O O11 0.749697 0.501478 0.999208
O O12 0.335700 0.467665 0.699365
O O13 0.462234 0.620723 0.651776
#
# Coordination Sequence:
#
# PCOD9347273 Si02
#       7
#     4   4   4   4   2   4   4
#     4  10  19  37  57  81 120 159 201 254 300 364
#     4   9  18  34  55  82 111 153 206 246 295 359
#     4  10  21  39  68  92 127 160 210 257 321 383
#     4   9  21  33  65  83 125 151 211 246 328 358
#     4  10  20  32  56  80 122 160 202 246 310 362
#     4  10  21  39  67  95 123 166 208 260 322 380
#     4   9  19  32  54  81 109 159 199 245 293 364
#
# _framework density 23.567526999999998
#
# number of rings (size 3 to 8) (size 9 to 14) (size 15 to 20)
#    0.923    1.538    0.000    2.308    0.000    9.846 
#    0.000    0.000   23.692    0.000    0.000    0.000 
#    0.000    0.000    0.000    0.000    0.000    0.000 
#
# Total GULP energy -144810.573101 kJ/mol
# GULP energy per Si atom -5569.637427 kJ/mol
# Density = 2.351389 g / cm^3
# Si number density = 23.567527 Si / 1000 Ang^3
#
#
#
# Elastic Constant Matrix: (Units=GPa)
#
#
# Indices 1 2 3 4 5 6 
#
# 1 39.3317 23.2789 9.6927 0.0000 0.0000 0.0000
# 2 23.2789 108.8256 49.7685 0.0000 0.0000 0.0000
# 3 9.6927 49.7685 134.6885 0.0000 0.0000 0.0000
# 4 0.0000 0.0000 0.0000 26.5142 0.0000 0.0000
# 5 0.0000 0.0000 0.0000 0.0000 20.6611 0.0000
# 6 0.0000 0.0000 0.0000 0.0000 0.0000 36.2697
#
#
#
# Elastic Compliance Matrix: (Units=1/GPa)
#
#
# Indices 1 2 3 4 5 6 
#
# 1 0.029117 -0.006342 0.000248 0.000000 0.000000 0.000000
# 2 -0.006342 0.012439 -0.004140 0.000000 0.000000 0.000000
# 3 0.000248 -0.004140 0.008936 0.000000 0.000000 0.000000
# 4 0.000000 0.000000 0.000000 0.037716 0.000000 0.000000
# 5 0.000000 0.000000 0.000000 0.000000 0.048400 0.000000
# 6 0.000000 0.000000 0.000000 0.000000 0.000000 0.027571
#
#
# Mechanical properties :
#
#
# Convention : Reuss Voigt Hill
#
# Bulk Modulus (GPa) = 33.30566 49.81401 41.55983
# Shear Modulus (GPa) = 25.68645 30.02939 27.85792
#
# Velocity S-wave (km/s) = 3.30496 3.57345 3.44182
# Velocity P-wave (km/s) = 5.35970 6.18131 5.78511
#
# Compressibility (1/GPa) = 0.03002492
#
# Stress axis : x y z
#
# Youngs Moduli (GPa) = 34.34401 80.39314 111.90177
#
# Poissons Ratio (x) = 0.50984 -0.02775
# Poissons Ratio (y) = 0.21781 0.46326
# Poissons Ratio (z) = -0.00852 0.33282
#
# Static dielectric constant tensor:
#      x y z
#    x 1.993120 0.000000 0.000000 
#    y 0.000000 1.955550 0.000000 
#    z 0.000000 0.000000 2.052160 
# 
# From -- ./inp_files/1809.got.cif
#   From: 2010.05.17/outbox.cif.g08.bks.cpg/sg34_1_cif.got.tgz:1809.got - 2010.06.03 17:23:11.
