data_PCOD9347570
_publ_section_title
;
Structure prediction by ZEFSAII (Michael W. Deem and Ramdas Pophale) SiO2 
 PCOD9347570
Probable space group: P N N 2
;
_chemical_formula_sum "Si O2"
_cell_formula_units_Z 18
_cell_length_a 5.029529
_cell_length_b 5.125181
_cell_length_c 27.662050
_cell_angle_alpha 90.000000
_cell_angle_beta 90.000000
_cell_angle_gamma 90.000000
_cell_volume 713.051481
_symmetry_space_group_name_H-M "P N N 2"
_symmetry_group_IT_number 34
_symmetry_cell_setting 'orthorhombic'
loop_
_space_group_symop_operation_xyz
x,y,z
-x,-y,z
1/2-x,1/2+y,1/2+z
1/2+x,1/2-y,1/2+z
loop_
_atom_site_type_symbol
_atom_site_label
_atom_site_fract_x
_atom_site_fract_y
_atom_site_fract_z
Si Si1 0.315847 0.247624 0.459190
Si Si2 0.000000 0.500000 0.607355
Si Si3 0.808827 0.247200 0.751789
Si Si4 0.500000 0.500000 0.671706
Si Si5 0.000000 0.000000 0.545880
Si Si6 0.191478 0.750266 0.856420
O O1 0.500000 0.500000 0.465201
O O2 0.158487 0.259236 0.408012
O O3 0.166006 0.177181 0.507995
O O4 0.500000 0.000000 0.452463
O O5 0.251891 0.413259 0.639185
O O6 0.897216 0.239158 0.579085
O O7 0.607347 0.279361 0.708010
O O8 0.667433 0.244922 0.804565
O O9 0.000000 0.500000 0.749795
O O10 0.000000 0.000000 0.747774
O O11 0.000000 0.500000 0.854843
O O12 0.000000 0.000000 0.857619
#
# Coordination Sequence:
#
# PCOD9347570 Si02
#       6
#     4   2   4   2   2   4
#     4  10  21  40  70 102 145 186 233 299 369 453
#     4  12  32  48  76 104 144 192 260 328 376 442
#     4  10  22  42  72 107 148 191 239 299 372 454
#     4  12  28  53  74 108 144 197 256 318 386 442
#     4  12  28  47  70 104 138 195 256 314 386 440
#     4   8  16  34  62 104 144 181 229 287 360 448
#
# _framework density 25.243617
#
# number of rings (size 3 to 8) (size 9 to 14) (size 15 to 20)
#    0.000    1.778    1.111    1.333    6.222    3.556 
#    0.000    0.000    0.000   16.000    0.000    0.000 
#    0.000    0.000    0.000    0.000    0.000    0.000 
#
# Total GULP energy -100593.918232 kJ/mol
# GULP energy per Si atom -5588.551013 kJ/mol
# Density = 2.518616 g / cm^3
# Si number density = 25.243617 Si / 1000 Ang^3
#
#
#
# Elastic Constant Matrix: (Units=GPa)
#
#
# Indices 1 2 3 4 5 6 
#
# 1 79.7208 44.9684 55.7230 0.0000 0.0000 0.0000
# 2 44.9684 228.2799 45.9960 0.0000 0.0000 0.0000
# 3 55.7230 45.9960 182.3534 0.0000 0.0000 0.0000
# 4 0.0000 0.0000 0.0000 33.5032 0.0000 0.0000
# 5 0.0000 0.0000 0.0000 0.0000 28.4351 0.0000
# 6 0.0000 0.0000 0.0000 0.0000 0.0000 58.2486
#
#
#
# Elastic Compliance Matrix: (Units=1/GPa)
#
#
# Indices 1 2 3 4 5 6 
#
# 1 0.017158 -0.002448 -0.004626 0.000000 0.000000 0.000000
# 2 -0.002448 0.004964 -0.000504 0.000000 0.000000 0.000000
# 3 -0.004626 -0.000504 0.007024 0.000000 0.000000 0.000000
# 4 0.000000 0.000000 0.000000 0.029848 0.000000 0.000000
# 5 0.000000 0.000000 0.000000 0.000000 0.035168 0.000000
# 6 0.000000 0.000000 0.000000 0.000000 0.000000 0.017168
#
#
# Mechanical properties :
#
#
# Convention : Reuss Voigt Hill
#
# Bulk Modulus (GPa) = 71.47264 87.08099 79.27681
# Shear Modulus (GPa) = 38.12455 46.94849 42.53652
#
# Velocity S-wave (km/s) = 3.89043 4.31724 4.10938
# Velocity P-wave (km/s) = 6.96816 7.70860 7.34771
#
# Compressibility (1/GPa) = 0.01399137
#
# Stress axis : x y z
#
# Youngs Moduli (GPa) = 58.28285 201.43527 142.35904
#
# Poissons Ratio (x) = 0.49309 0.65849
# Poissons Ratio (y) = 0.14267 0.07177
# Poissons Ratio (z) = 0.26959 0.10156
#
# Static dielectric constant tensor:
#      x y z
#    x 2.081550 0.000000 0.000000 
#    y 0.000000 1.961210 0.000000 
#    z 0.000000 0.000000 2.135650 
# 
# From -- ./inp_files/8497.got.cif
#   From: 2010.05.17/outbox.cif.g08.bks.cpg/sg34_5_cif.got.tgz:8497.got - 2010.06.03 17:23:11.
