data_PCOD9347202
_publ_section_title
;
Structure prediction by ZEFSAII (Michael W. Deem and Ramdas Pophale) SiO2 
 PCOD9347202
Probable space group: P N N 2
;
_chemical_formula_sum "Si O2"
_cell_formula_units_Z 32
_cell_length_a 12.714797
_cell_length_b 8.520247
_cell_length_c 11.601925
_cell_angle_alpha 90.000000
_cell_angle_beta 90.000000
_cell_angle_gamma 90.000000
_cell_volume 1256.873789
_symmetry_space_group_name_H-M "P N N 2"
_symmetry_group_IT_number 34
_symmetry_cell_setting 'orthorhombic'
loop_
_space_group_symop_operation_xyz
x,y,z
-x,-y,z
1/2-x,1/2+y,1/2+z
1/2+x,1/2-y,1/2+z
loop_
_atom_site_type_symbol
_atom_site_label
_atom_site_fract_x
_atom_site_fract_y
_atom_site_fract_z
Si Si1 0.798626 0.509465 0.625000
Si Si2 0.924729 0.738629 0.799966
Si Si3 0.734423 0.027559 0.607423
Si Si4 0.731539 0.924368 0.870090
Si Si5 0.988941 0.311101 0.372485
Si Si6 0.401269 0.674437 0.652248
Si Si7 0.062675 0.805402 0.602756
Si Si8 0.554206 0.843630 0.516554
O O1 0.854782 0.629040 0.713547
O O2 0.788595 0.529049 0.484538
O O3 0.679683 0.468017 0.662516
O O4 0.871033 0.352980 0.631368
O O5 0.843821 0.841069 0.873588
O O6 0.995094 0.837343 0.713915
O O7 0.008597 0.663022 0.888133
O O8 0.731331 0.004052 0.745162
O O9 0.853233 0.061965 0.572081
O O10 0.675287 0.886828 0.540685
O O11 0.670887 0.189659 0.593759
O O12 0.637712 0.796781 0.861783
O O13 0.057263 0.227996 0.276672
O O14 0.011002 0.242300 0.497272
O O15 0.000000 0.500000 0.366434
O O16 0.508478 0.689169 0.577802
O O17 0.500000 0.000000 0.573129
#
# Coordination Sequence:
#
# PCOD9347202 Si02
#       8
#     4   4   4   4   4   4   4   4
#     4  10  22  42  67 104 141 186 244 301 358 438
#     4  12  24  42  67 106 143 189 237 302 368 435
#     4  10  21  40  67 102 133 181 237 296 362 439
#     4  11  22  40  70  98 144 189 239 300 365 444
#     4  11  19  39  73  97 131 188 237 292 364 439
#     4  10  18  38  69 100 129 178 242 291 350 425
#     4  10  23  40  65 102 140 174 235 298 361 435
#     4  10  19  37  67  99 131 178 231 290 356 423
#
# _framework density 25.459993999999998
#
# number of rings (size 3 to 8) (size 9 to 14) (size 15 to 20)
#    0.000    1.500    3.750    3.000    1.750    0.500 
#    2.250    3.125    8.250    0.000    0.000    0.000 
#    0.000    0.000    0.000    0.000    0.000    0.000 
#
# Total GULP energy -178785.660992 kJ/mol
# GULP energy per Si atom -5587.051906 kJ/mol
# Density = 2.540205 g / cm^3
# Si number density = 25.459994 Si / 1000 Ang^3
#
#
#
# Elastic Constant Matrix: (Units=GPa)
#
#
# Indices 1 2 3 4 5 6 
#
# 1 135.3700 58.8763 78.1686 0.0000 0.0000 0.0000
# 2 58.8763 60.2797 42.7032 0.0000 0.0000 0.0000
# 3 78.1686 42.7032 168.8385 0.0000 0.0000 0.0000
# 4 0.0000 0.0000 0.0000 9.5066 0.0000 0.0000
# 5 0.0000 0.0000 0.0000 0.0000 39.6844 0.0000
# 6 0.0000 0.0000 0.0000 0.0000 0.0000 45.5315
#
#
#
# Elastic Compliance Matrix: (Units=1/GPa)
#
#
# Indices 1 2 3 4 5 6 
#
# 1 0.014647 -0.011576 -0.003853 0.000000 0.000000 0.000000
# 2 -0.011576 0.029360 -0.002066 0.000000 0.000000 0.000000
# 3 -0.003853 -0.002066 0.008229 0.000000 0.000000 0.000000
# 4 0.000000 0.000000 0.000000 0.105190 0.000000 0.000000
# 5 0.000000 0.000000 0.000000 0.000000 0.025199 0.000000
# 6 0.000000 0.000000 0.000000 0.000000 0.000000 0.021963
#
#
# Mechanical properties :
#
#
# Convention : Reuss Voigt Hill
#
# Bulk Modulus (GPa) = 57.98905 80.44271 69.21588
# Shear Modulus (GPa) = 20.38087 31.26051 25.82069
#
# Velocity S-wave (km/s) = 2.83239 3.50784 3.18805
# Velocity P-wave (km/s) = 5.78987 6.93332 6.38723
#
# Compressibility (1/GPa) = 0.01724463
#
# Stress axis : x y z
#
# Youngs Moduli (GPa) = 68.27247 34.06002 121.51477
#
# Poissons Ratio (x) = 0.39429 0.46825
# Poissons Ratio (y) = 0.79035 0.25107
# Poissons Ratio (z) = 0.26308 0.07037
#
# Static dielectric constant tensor:
#      x y z
#    x 2.107500 0.000000 0.000000 
#    y 0.000000 2.072410 0.000000 
#    z 0.000000 0.000000 2.030840 
# 
# From -- ./inp_files/5462.got.cif
#   From: 2010.05.17/outbox.cif.g08.bks.cpg/sg34_3_cif.got.tgz:5462.got - 2010.06.03 17:23:11.
