data_PCOD9347009
_publ_section_title
;
Structure prediction by ZEFSAII (Michael W. Deem and Ramdas Pophale) SiO2 
 PCOD9347009
Probable space group: P N A 21
;
_chemical_formula_sum "Si O2"
_cell_formula_units_Z 16
_cell_length_a 5.125287
_cell_length_b 16.918692
_cell_length_c 7.597969
_cell_angle_alpha 90.000000
_cell_angle_beta 90.000000
_cell_angle_gamma 90.000000
_cell_volume 658.843842
_symmetry_space_group_name_H-M "P N A 21"
_symmetry_group_IT_number 33
_symmetry_cell_setting 'orthorhombic'
loop_
_space_group_symop_operation_xyz
x,y,z
-x,-y,1/2+z
1/2-x,1/2+y,1/2+z
1/2+x,1/2-y,z
loop_
_atom_site_type_symbol
_atom_site_label
_atom_site_fract_x
_atom_site_fract_y
_atom_site_fract_z
Si Si1 0.371371 0.903385 0.071910
Si Si2 0.457443 0.306495 0.352029
Si Si3 0.318115 0.079501 0.202584
Si Si4 0.039705 0.694154 0.395438
O O1 0.531397 0.853003 0.212648
O O2 0.303395 0.988847 0.147330
O O3 0.111558 0.852497 0.031248
O O4 0.529873 0.912913 0.888732
O O5 0.706012 0.249384 0.334280
O O6 0.535541 0.378884 0.225036
O O7 0.456994 0.129782 0.050622
O O8 0.789508 0.750028 0.409329
#
# Coordination Sequence:
#
# PCOD9347009 Si02
#       4
#     4   4   4   4
#     4  12  28  53  84 119 171 219 275 347 426 497
#     4  12  26  50  82 114 158 216 268 336 408 488
#     4  12  28  53  84 119 171 219 275 347 426 497
#     4  12  30  50  82 122 158 214 282 338 414 508
#
# _framework density 24.284965
#
# number of rings (size 3 to 8) (size 9 to 14) (size 15 to 20)
#    0.000    0.000    5.000    3.000    7.000    4.000 
#    0.000    0.000    0.000    0.000    0.000    0.000 
#    0.000    0.000    0.000    0.000    0.000    0.000 
#
# Total GULP energy -89674.150233 kJ/mol
# GULP energy per Si atom -5604.634390 kJ/mol
# Density = 2.422969 g / cm^3
# Si number density = 24.284965 Si / 1000 Ang^3
#
#
#
# Elastic Constant Matrix: (Units=GPa)
#
#
# Indices 1 2 3 4 5 6 
#
# 1 145.4030 33.9072 41.8202 0.0000 0.0000 0.0000
# 2 33.9072 143.9638 55.0711 0.0000 0.0000 0.0000
# 3 41.8202 55.0711 159.4586 0.0000 0.0000 0.0000
# 4 0.0000 0.0000 0.0000 55.1551 0.0000 0.0000
# 5 0.0000 0.0000 0.0000 0.0000 19.6738 0.0000
# 6 0.0000 0.0000 0.0000 0.0000 0.0000 14.3228
#
#
#
# Elastic Compliance Matrix: (Units=1/GPa)
#
#
# Indices 1 2 3 4 5 6 
#
# 1 0.007610 -0.001186 -0.001586 0.000000 0.000000 0.000000
# 2 -0.001186 0.008188 -0.002517 0.000000 0.000000 0.000000
# 3 -0.001586 -0.002517 0.007557 0.000000 0.000000 0.000000
# 4 0.000000 0.000000 0.000000 0.018131 0.000000 0.000000
# 5 0.000000 0.000000 0.000000 0.000000 0.050829 0.000000
# 6 0.000000 0.000000 0.000000 0.000000 0.000000 0.069819
#
#
# Mechanical properties :
#
#
# Convention : Reuss Voigt Hill
#
# Bulk Modulus (GPa) = 78.26519 78.93581 78.60050
# Shear Modulus (GPa) = 28.25331 39.03212 33.64272
#
# Velocity S-wave (km/s) = 3.41458 4.01341 3.72604
# Velocity P-wave (km/s) = 6.91690 7.35195 7.13774
#
# Compressibility (1/GPa) = 0.01277707
#
# Stress axis : x y z
#
# Youngs Moduli (GPa) = 131.40291 122.12624 132.33529
#
# Poissons Ratio (x) = 0.14478 0.20994
# Poissons Ratio (y) = 0.15578 0.33309
# Poissons Ratio (z) = 0.20846 0.30739
#
# Static dielectric constant tensor:
#      x y z
#    x 1.996580 0.000000 0.000000 
#    y 0.000000 1.888060 0.000000 
#    z 0.000000 0.000000 2.005710 
# 
# From -- ./inp_files/2595.got.cif
#   From: 2010.05.17/outbox.cif.g08.bks.cpg/sg33_2_cif.got.tgz:2595.got - 2010.06.03 17:15:25.
