data_PCOD9347594
_publ_section_title
;
Structure prediction by ZEFSAII (Michael W. Deem and Ramdas Pophale) SiO2 
 PCOD9347594
Probable space group: P N N 2
;
_chemical_formula_sum "Si O2"
_cell_formula_units_Z 32
_cell_length_a 15.028701
_cell_length_b 7.843957
_cell_length_c 12.146337
_cell_angle_alpha 90.000000
_cell_angle_beta 90.000000
_cell_angle_gamma 90.000000
_cell_volume 1431.864675
_symmetry_space_group_name_H-M "P N N 2"
_symmetry_group_IT_number 34
_symmetry_cell_setting 'orthorhombic'
loop_
_space_group_symop_operation_xyz
x,y,z
-x,-y,z
1/2-x,1/2+y,1/2+z
1/2+x,1/2-y,1/2+z
loop_
_atom_site_type_symbol
_atom_site_label
_atom_site_fract_x
_atom_site_fract_y
_atom_site_fract_z
Si Si1 0.483738 0.721872 0.523700
Si Si2 0.932625 0.854154 0.608598
Si Si3 0.860619 0.454345 0.093834
Si Si4 0.226264 0.165103 0.758660
Si Si5 0.189597 0.060871 0.996860
Si Si6 0.039501 0.676701 0.792428
Si Si7 0.765426 0.429714 0.725567
Si Si8 0.284021 0.706210 0.942682
O O1 0.571015 0.794610 0.585379
O O2 0.413531 0.565849 0.535996
O O3 0.515174 0.708011 0.396023
O O4 0.414512 0.877848 0.557880
O O5 0.858552 0.917301 0.696660
O O6 0.875884 0.780283 0.508957
O O7 0.989332 0.723786 0.680917
O O8 0.000000 0.000000 0.572719
O O9 0.811777 0.437045 0.212530
O O10 0.780669 0.426294 0.006442
O O11 0.233276 0.363765 0.723047
O O12 0.205314 0.169387 0.887148
O O13 0.243856 0.124579 0.102336
O O14 0.229944 0.881037 0.957234
O O15 0.141515 0.646722 0.766174
O O16 0.000000 0.500000 0.833586
O O17 0.700172 0.358426 0.819321
#
# Coordination Sequence:
#
# PCOD9347594 Si02
#       8
#     4   4   4   4   4   4   4   4
#     4  11  22  39  70 108 133 184 238 291 361 412
#     4  11  25  43  67 103 141 177 239 294 348 425
#     4  10  21  42  69  99 143 179 227 295 349 430
#     4  11  24  46  65 103 145 181 240 292 359 431
#     4  12  25  43  72 106 140 185 241 290 362 442
#     4  12  19  39  68 103 136 176 238 293 343 420
#     4  12  25  45  71 100 144 191 228 300 360 428
#     4  11  24  45  68 101 142 182 231 291 362 422
#
# _framework density 22.348479999999999
#
# number of rings (size 3 to 8) (size 9 to 14) (size 15 to 20)
#    0.000    0.750    7.500    0.750    3.500    2.500 
#    0.000    2.500    2.750    0.000    0.000    0.000 
#    0.000    0.000    0.000    0.000    0.000    0.000 
#
# Total GULP energy -178703.432612 kJ/mol
# GULP energy per Si atom -5584.482269 kJ/mol
# Density = 2.229761 g / cm^3
# Si number density = 22.348480 Si / 1000 Ang^3
#
#
#
# Elastic Constant Matrix: (Units=GPa)
#
#
# Indices 1 2 3 4 5 6 
#
# 1 91.5910 10.0261 30.6317 0.0000 0.0000 0.0000
# 2 10.0261 47.6254 -9.4858 0.0000 0.0000 0.0000
# 3 30.6317 -9.4858 104.8788 0.0000 0.0000 0.0000
# 4 0.0000 0.0000 0.0000 -0.2855 0.0000 0.0000
# 5 0.0000 0.0000 0.0000 0.0000 60.2544 0.0000
# 6 0.0000 0.0000 0.0000 0.0000 0.0000 27.9172
#
#
#
# Elastic Compliance Matrix: (Units=1/GPa)
#
#
# Indices 1 2 3 4 5 6 
#
# 1 0.012635 -0.003457 -0.004003 0.000000 0.000000 0.000000
# 2 -0.003457 0.022328 0.003029 0.000000 0.000000 0.000000
# 3 -0.004003 0.003029 0.010978 0.000000 0.000000 0.000000
# 4 0.000000 0.000000 0.000000 -3.502172 0.000000 0.000000
# 5 0.000000 0.000000 0.000000 0.000000 0.016596 0.000000
# 6 0.000000 0.000000 0.000000 0.000000 0.000000 0.035820
#
#
# Mechanical properties :
#
#
# Convention : Reuss Voigt Hill
#
# Bulk Modulus (GPa) = 26.96909 34.04880 30.50895
# Shear Modulus (GPa) = -1.47816 31.77208 15.14696
#
# Velocity S-wave (km/s) = -0.81416 3.77459 2.60621
# Velocity P-wave (km/s) = 3.34812 5.85365 4.76839
#
# Compressibility (1/GPa) = 0.03707948
#
# Stress axis : x y z
#
# Youngs Moduli (GPa) = 79.14295 44.78599 91.09146
#
# Poissons Ratio (x) = 0.15484 0.36465
# Poissons Ratio (y) = 0.27362 -0.27594
# Poissons Ratio (z) = 0.31682 -0.13567
#
# Static dielectric constant tensor:
#      x y z
#    x 1.828260 0.000000 0.000000 
#    y 0.000000 2.057720 0.000000 
#    z 0.000000 0.000000 1.811320 
# 
# From -- ./inp_files/5685.got.cif
#   From: 2010.05.17/outbox.cif.g08.bks.cpg/sg34_3_cif.got.tgz:5685.got - 2010.06.03 17:23:11.
