data_PCOD9347331
_publ_section_title
;
Structure prediction by ZEFSAII (Michael W. Deem and Ramdas Pophale) SiO2 
 PCOD9347331
Probable space group: P N N 2
;
_chemical_formula_sum "Si O2"
_cell_formula_units_Z 30
_cell_length_a 22.264388
_cell_length_b 13.192265
_cell_length_c 5.121851
_cell_angle_alpha 90.000000
_cell_angle_beta 90.000000
_cell_angle_gamma 90.000000
_cell_volume 1504.378329
_symmetry_space_group_name_H-M "P N N 2"
_symmetry_group_IT_number 34
_symmetry_cell_setting 'orthorhombic'
loop_
_space_group_symop_operation_xyz
x,y,z
-x,-y,z
1/2-x,1/2+y,1/2+z
1/2+x,1/2-y,1/2+z
loop_
_atom_site_type_symbol
_atom_site_label
_atom_site_fract_x
_atom_site_fract_y
_atom_site_fract_z
Si Si1 0.000000 0.500000 0.545450
Si Si2 0.355905 0.758356 0.305396
Si Si3 0.094480 0.347031 0.311910
Si Si4 0.767057 0.111455 0.310600
Si Si5 0.597435 0.882133 0.368792
Si Si6 0.188730 0.782455 0.817569
Si Si7 0.657424 0.960220 0.872389
Si Si8 0.768543 0.892552 0.568119
O O1 0.960105 0.574162 0.361656
O O2 0.963603 0.424278 0.741725
O O3 0.394489 0.775205 0.566661
O O4 0.299864 0.838716 0.307047
O O5 0.325817 0.652753 0.218182
O O6 0.400850 0.785213 0.074304
O O7 0.151892 0.422386 0.307659
O O8 0.801075 0.177508 0.529224
O O9 0.772733 0.995360 0.402140
O O10 0.797833 0.131633 0.031698
O O11 0.622842 0.768648 0.339104
O O12 0.609958 0.908791 0.670127
O O13 0.642338 0.943128 0.173132
O O14 0.238407 0.696420 0.892967
O O15 0.720190 0.915642 0.792441
#
# Coordination Sequence:
#
# PCOD9347331 Si02
#       8
#     2   4   4   4   4   4   4   4
#     4  10  24  36  62  82 112 160 200 244 336 352
#     4  11  22  36  52  82 118 153 201 239 284 354
#     4  11  22  37  52  81 115 151 195 247 289 366
#     4  11  22  36  55  82 117 166 197 233 286 361
#     4  10  20  36  53  81 109 148 193 245 290 361
#     4  10  22  36  53  82 117 154 204 235 285 356
#     4  10  20  33  55  73 114 152 190 230 288 342
#     4  10  22  34  57  81 117 164 199 235 287 353
#
# _framework density 19.941790000000001
#
# number of rings (size 3 to 8) (size 9 to 14) (size 15 to 20)
#    0.000    1.600    1.333    5.600    3.733    9.067 
#    0.000    0.000    0.000    0.000    0.000    0.933 
#    0.000   12.800    0.000    0.000    0.000    0.000 
#
# Total GULP energy -167305.033629 kJ/mol
# GULP energy per Si atom -5576.834454 kJ/mol
# Density = 1.989640 g / cm^3
# Si number density = 19.941790 Si / 1000 Ang^3
#
#
#
# Elastic Constant Matrix: (Units=GPa)
#
#
# Indices 1 2 3 4 5 6 
#
# 1 74.1075 25.5327 22.9996 0.0000 0.0000 0.0000
# 2 25.5327 81.9272 11.4370 0.0000 0.0000 0.0000
# 3 22.9996 11.4370 74.7119 0.0000 0.0000 0.0000
# 4 0.0000 0.0000 0.0000 37.5214 0.0000 0.0000
# 5 0.0000 0.0000 0.0000 0.0000 25.3249 0.0000
# 6 0.0000 0.0000 0.0000 0.0000 0.0000 39.3750
#
#
#
# Elastic Compliance Matrix: (Units=1/GPa)
#
#
# Indices 1 2 3 4 5 6 
#
# 1 0.016398 -0.004502 -0.004359 0.000000 0.000000 0.000000
# 2 -0.004502 0.013708 -0.000713 0.000000 0.000000 0.000000
# 3 -0.004359 -0.000713 0.014836 0.000000 0.000000 0.000000
# 4 0.000000 0.000000 0.000000 0.026651 0.000000 0.000000
# 5 0.000000 0.000000 0.000000 0.000000 0.039487 0.000000
# 6 0.000000 0.000000 0.000000 0.000000 0.000000 0.025397
#
#
# Mechanical properties :
#
#
# Convention : Reuss Voigt Hill
#
# Bulk Modulus (GPa) = 38.76684 38.96503 38.86594
# Shear Modulus (GPa) = 30.44657 31.82940 31.13799
#
# Velocity S-wave (km/s) = 3.91163 3.99948 3.95580
# Velocity P-wave (km/s) = 6.31533 6.39606 6.35582
#
# Compressibility (1/GPa) = 0.02579524
#
# Stress axis : x y z
#
# Youngs Moduli (GPa) = 60.98397 72.94763 67.40508
#
# Poissons Ratio (x) = 0.32840 0.29380
# Poissons Ratio (y) = 0.27454 0.04804
# Poissons Ratio (z) = 0.26582 0.05199
#
# Static dielectric constant tensor:
#      x y z
#    x 1.763820 0.000000 0.000000 
#    y 0.000000 1.793260 0.000000 
#    z 0.000000 0.000000 1.749780 
# 
# From -- ./inp_files/1622.got.cif
#   From: 2010.05.17/outbox.cif.g08.bks.cpg/sg34_1_cif.got.tgz:1622.got - 2010.06.03 17:23:11.
