data_PCOD9347996
_publ_section_title
;
Structure prediction by ZEFSAII (Michael W. Deem and Ramdas Pophale) SiO2 
 PCOD9347996
Probable space group: P N N 2
;
_chemical_formula_sum "Si O2"
_cell_formula_units_Z 32
_cell_length_a 13.259805
_cell_length_b 20.100163
_cell_length_c 5.038359
_cell_angle_alpha 90.000000
_cell_angle_beta 90.000000
_cell_angle_gamma 90.000000
_cell_volume 1342.844813
_symmetry_space_group_name_H-M "P N N 2"
_symmetry_group_IT_number 34
_symmetry_cell_setting 'orthorhombic'
loop_
_space_group_symop_operation_xyz
x,y,z
-x,-y,z
1/2-x,1/2+y,1/2+z
1/2+x,1/2-y,1/2+z
loop_
_atom_site_type_symbol
_atom_site_label
_atom_site_fract_x
_atom_site_fract_y
_atom_site_fract_z
Si Si1 0.777973 0.458386 0.317200
Si Si2 0.980854 0.128154 0.405242
Si Si3 0.998972 0.237297 0.787164
Si Si4 0.116501 0.495388 0.814193
Si Si5 0.661668 0.348627 0.616648
Si Si6 0.735091 0.724641 0.378897
Si Si7 0.838353 0.658972 0.878417
Si Si8 0.910807 0.052075 0.927447
O O1 0.867132 0.478048 0.517969
O O2 0.731619 0.389589 0.420206
O O3 0.690855 0.512854 0.369804
O O4 0.816278 0.461818 0.018176
O O5 0.991525 0.205928 0.488993
O O6 0.724189 0.199211 0.157717
O O7 0.093271 0.107157 0.314002
O O8 0.907615 0.102855 0.173465
O O9 0.076655 0.189063 0.942300
O O10 0.049937 0.308582 0.838785
O O11 0.884696 0.232221 0.881417
O O12 0.000000 0.500000 0.889774
O O13 0.153322 0.419273 0.834859
O O14 0.721553 0.295669 0.789120
O O15 0.782949 0.675183 0.156469
O O16 0.555680 0.591462 0.167014
O O17 0.000000 0.000000 0.984688
#
# Coordination Sequence:
#
# PCOD9347996 Si02
#       8
#     4   4   4   4   4   4   4   4
#     4  12  28  48  78 108 154 202 253 318 383 462
#     4  12  23  40  68 103 155 179 241 296 370 454
#     4  11  26  47  77 107 149 191 243 321 377 446
#     4  12  30  53  76 108 149 211 264 312 376 459
#     4  11  26  49  72 116 149 193 264 304 375 472
#     4  11  27  45  80 107 145 200 240 322 393 427
#     4  11  27  50  72 110 149 188 263 310 368 468
#     4  12  25  39  67 109 151 192 228 296 382 447
#
# _framework density 23.830003999999999
#
# number of rings (size 3 to 8) (size 9 to 14) (size 15 to 20)
#    0.000    0.500    3.750    2.250   12.250    0.000 
#    0.000    0.000    0.000    0.000    0.000    0.000 
#    0.000    0.000    0.000    0.000    0.000    0.000 
#
# Total GULP energy -179318.133397 kJ/mol
# GULP energy per Si atom -5603.691669 kJ/mol
# Density = 2.377577 g / cm^3
# Si number density = 23.830004 Si / 1000 Ang^3
#
#
#
# Elastic Constant Matrix: (Units=GPa)
#
#
# Indices 1 2 3 4 5 6 
#
# 1 125.7162 15.8613 -4.0190 0.0000 0.0000 0.0000
# 2 15.8613 58.3368 0.1211 0.0000 0.0000 0.0000
# 3 -4.0190 0.1211 80.5311 0.0000 0.0000 0.0000
# 4 0.0000 0.0000 0.0000 23.8102 0.0000 0.0000
# 5 0.0000 0.0000 0.0000 0.0000 34.7156 0.0000
# 6 0.0000 0.0000 0.0000 0.0000 0.0000 33.3465
#
#
#
# Elastic Compliance Matrix: (Units=1/GPa)
#
#
# Indices 1 2 3 4 5 6 
#
# 1 0.008251 -0.002244 0.000415 0.000000 0.000000 0.000000
# 2 -0.002244 0.017752 -0.000139 0.000000 0.000000 0.000000
# 3 0.000415 -0.000139 0.012438 0.000000 0.000000 0.000000
# 4 0.000000 0.000000 0.000000 0.041999 0.000000 0.000000
# 5 0.000000 0.000000 0.000000 0.000000 0.028806 0.000000
# 6 0.000000 0.000000 0.000000 0.000000 0.000000 0.029988
#
#
# Mechanical properties :
#
#
# Convention : Reuss Voigt Hill
#
# Bulk Modulus (GPa) = 28.98036 32.05677 30.51857
# Shear Modulus (GPa) = 32.32654 35.21583 33.77119
#
# Velocity S-wave (km/s) = 3.68713 3.84838 3.76862
# Velocity P-wave (km/s) = 5.50584 5.76439 5.63660
#
# Compressibility (1/GPa) = 0.03450612
#
# Stress axis : x y z
#
# Youngs Moduli (GPa) = 121.19971 56.33068 80.39565
#
# Poissons Ratio (x) = 0.12642 -0.03338
# Poissons Ratio (y) = 0.27200 0.01115
# Poissons Ratio (z) = -0.05032 0.00781
#
# Static dielectric constant tensor:
#      x y z
#    x 1.914020 0.000000 0.000000 
#    y 0.000000 1.944350 0.000000 
#    z 0.000000 0.000000 1.912920 
# 
# From -- ./inp_files/1095.got.cif
#   From: 2010.05.17/outbox.cif.g08.bks.cpg/sg34_1_cif.got.tgz:1095.got - 2010.06.03 17:23:11.
