data_PCOD9347743
_publ_section_title
;
Structure prediction by ZEFSAII (Michael W. Deem and Ramdas Pophale) SiO2 
 PCOD9347743
Probable space group: P N N 2
;
_chemical_formula_sum "Si O2"
_cell_formula_units_Z 18
_cell_length_a 12.525156
_cell_length_b 6.508012
_cell_length_c 8.505434
_cell_angle_alpha 90.000000
_cell_angle_beta 90.000000
_cell_angle_gamma 90.000000
_cell_volume 693.310804
_symmetry_space_group_name_H-M "P N N 2"
_symmetry_group_IT_number 34
_symmetry_cell_setting 'orthorhombic'
loop_
_space_group_symop_operation_xyz
x,y,z
-x,-y,z
1/2-x,1/2+y,1/2+z
1/2+x,1/2-y,1/2+z
loop_
_atom_site_type_symbol
_atom_site_label
_atom_site_fract_x
_atom_site_fract_y
_atom_site_fract_z
Si Si1 0.395826 0.372003 0.546530
Si Si2 0.788254 0.328581 0.544907
Si Si3 0.027052 0.235912 0.496998
Si Si4 0.000000 0.500000 0.210687
Si Si5 0.685454 0.448345 0.238021
O O1 0.500000 0.500000 0.588964
O O2 0.289952 0.491851 0.607387
O O3 0.425298 0.145507 0.604706
O O4 0.380928 0.403583 0.358631
O O5 0.761511 0.110890 0.621263
O O6 0.759638 0.329144 0.360153
O O7 0.916512 0.340427 0.555473
O O8 0.059362 0.348109 0.335569
O O9 0.112200 0.201600 0.634851
O O10 0.000000 0.000000 0.454823
#
# Coordination Sequence:
#
# PCOD9347743 Si02
#       5
#     4   4   4   2   4
#     4  10  23  44  77 115 164 212 278 341 428 507
#     4   9  21  43  81 116 160 218 280 343 427 513
#     4  10  22  48  79 119 161 216 284 352 419 514
#     4  12  26  46  78 116 162 216 270 360 426 496
#     4   9  21  46  83 118 163 222 288 346 421 516
#
# _framework density 25.962384
#
# number of rings (size 3 to 8) (size 9 to 14) (size 15 to 20)
#    1.333    0.889    0.000    2.667    3.111    0.000 
#    4.000   12.222    9.778    0.000    0.000    0.000 
#    0.000    0.000    0.000    0.000    0.000    0.000 
#
# Total GULP energy -100526.549114 kJ/mol
# GULP energy per Si atom -5584.808284 kJ/mol
# Density = 2.590329 g / cm^3
# Si number density = 25.962384 Si / 1000 Ang^3
#
#
#
# Elastic Constant Matrix: (Units=GPa)
#
#
# Indices 1 2 3 4 5 6 
#
# 1 192.4375 122.0233 84.4013 0.0000 0.0000 0.0000
# 2 122.0233 171.2546 91.4449 0.0000 0.0000 0.0000
# 3 84.4013 91.4449 142.2464 0.0000 0.0000 0.0000
# 4 0.0000 0.0000 0.0000 73.4491 0.0000 0.0000
# 5 0.0000 0.0000 0.0000 0.0000 48.4861 0.0000
# 6 0.0000 0.0000 0.0000 0.0000 0.0000 72.8719
#
#
#
# Elastic Compliance Matrix: (Units=1/GPa)
#
#
# Indices 1 2 3 4 5 6 
#
# 1 0.009849 -0.005935 -0.002029 0.000000 0.000000 0.000000
# 2 -0.005935 0.012467 -0.004493 0.000000 0.000000 0.000000
# 3 -0.002029 -0.004493 0.011123 0.000000 0.000000 0.000000
# 4 0.000000 0.000000 0.000000 0.013615 0.000000 0.000000
# 5 0.000000 0.000000 0.000000 0.000000 0.020624 0.000000
# 6 0.000000 0.000000 0.000000 0.000000 0.000000 0.013723
#
#
# Mechanical properties :
#
#
# Convention : Reuss Voigt Hill
#
# Bulk Modulus (GPa) = 117.29906 122.40861 119.85383
# Shear Modulus (GPa) = 45.80559 52.83267 49.31913
#
# Velocity S-wave (km/s) = 4.20492 4.51596 4.36321
# Velocity P-wave (km/s) = 8.29781 8.62801 8.46452
#
# Compressibility (1/GPa) = 0.00852522
#
# Stress axis : x y z
#
# Youngs Moduli (GPa) = 101.52835 80.21103 89.90687
#
# Poissons Ratio (x) = 0.47602 0.18243
# Poissons Ratio (y) = 0.60252 0.40399
# Poissons Ratio (z) = 0.20601 0.36042
#
# Static dielectric constant tensor:
#      x y z
#    x 2.140900 0.000000 0.000000 
#    y 0.000000 2.130690 0.000000 
#    z 0.000000 0.000000 2.022170 
# 
# From -- ./inp_files/1378.got.cif
#   From: 2010.05.17/outbox.cif.g08.bks.cpg/sg34_1_cif.got.tgz:1378.got - 2010.06.03 17:23:11.
