data_PCOD9347420
_publ_section_title
;
Structure prediction by ZEFSAII (Michael W. Deem and Ramdas Pophale) SiO2 
 PCOD9347420
Probable space group: P N N 2
;
_chemical_formula_sum "Si O2"
_cell_formula_units_Z 24
_cell_length_a 9.717938
_cell_length_b 12.601546
_cell_length_c 7.386140
_cell_angle_alpha 90.000000
_cell_angle_beta 90.000000
_cell_angle_gamma 90.000000
_cell_volume 904.514406
_symmetry_space_group_name_H-M "P N N 2"
_symmetry_group_IT_number 34
_symmetry_cell_setting 'orthorhombic'
loop_
_space_group_symop_operation_xyz
x,y,z
-x,-y,z
1/2-x,1/2+y,1/2+z
1/2+x,1/2-y,1/2+z
loop_
_atom_site_type_symbol
_atom_site_label
_atom_site_fract_x
_atom_site_fract_y
_atom_site_fract_z
Si Si1 0.368887 0.435145 0.826610
Si Si2 0.207223 0.620127 0.699555
Si Si3 0.828997 0.300443 0.332310
Si Si4 0.128373 0.335376 0.201206
Si Si5 0.386110 0.416370 0.389882
Si Si6 0.938349 0.712856 0.796732
O O1 0.500000 0.500000 0.891838
O O2 0.245756 0.520972 0.823580
O O3 0.373302 0.317036 0.908864
O O4 0.378714 0.419845 0.607980
O O5 0.235898 0.622224 0.483168
O O6 0.307251 0.719154 0.752002
O O7 0.042114 0.635322 0.696923
O O8 0.699067 0.263296 0.208694
O O9 0.970497 0.346665 0.261160
O O10 0.239602 0.414994 0.287219
O O11 0.113396 0.337416 0.984477
O O12 0.500000 0.500000 0.327520
O O13 0.457846 0.305052 0.348645
#
# Coordination Sequence:
#
# PCOD9347420 Si02
#       6
#     4   4   4   4   4   4
#     4  11  20  41  70  96 132 180 245 292 359 439
#     4  10  23  40  67  96 136 182 231 291 366 422
#     4  11  21  38  67 100 125 179 238 281 357 442
#     4  10  20  40  67  95 126 180 230 284 354 435
#     4  10  20  39  69  94 129 179 229 294 357 430
#     4  10  22  41  62  95 140 169 224 291 365 411
#
# _framework density 26.533573000000001
#
# number of rings (size 3 to 8) (size 9 to 14) (size 15 to 20)
#    0.000    1.667    3.333    3.000    2.333    0.667 
#    0.000   10.000   25.667    0.000    0.000    0.000 
#    0.000    0.000    0.000    0.000    0.000    0.000 
#
# Total GULP energy -133958.198579 kJ/mol
# GULP energy per Si atom -5581.591607 kJ/mol
# Density = 2.647318 g / cm^3
# Si number density = 26.533573 Si / 1000 Ang^3
#
#
#
# Elastic Constant Matrix: (Units=GPa)
#
#
# Indices 1 2 3 4 5 6 
#
# 1 194.0674 -11.4405 11.5227 0.0000 0.0000 0.0000
# 2 -11.4405 64.6100 6.5628 0.0000 0.0000 0.0000
# 3 11.5227 6.5628 69.5377 0.0000 0.0000 0.0000
# 4 0.0000 0.0000 0.0000 23.9157 0.0000 0.0000
# 5 0.0000 0.0000 0.0000 0.0000 34.8363 0.0000
# 6 0.0000 0.0000 0.0000 0.0000 0.0000 46.1838
#
#
#
# Elastic Compliance Matrix: (Units=1/GPa)
#
#
# Indices 1 2 3 4 5 6 
#
# 1 0.005271 0.001032 -0.000971 0.000000 0.000000 0.000000
# 2 0.001032 0.015829 -0.001665 0.000000 0.000000 0.000000
# 3 -0.000971 -0.001665 0.014699 0.000000 0.000000 0.000000
# 4 0.000000 0.000000 0.000000 0.041814 0.000000 0.000000
# 5 0.000000 0.000000 0.000000 0.000000 0.028706 0.000000
# 6 0.000000 0.000000 0.000000 0.000000 0.000000 0.021653
#
#
# Mechanical properties :
#
#
# Convention : Reuss Voigt Hill
#
# Bulk Modulus (GPa) = 30.68262 37.94501 34.31382
# Shear Modulus (GPa) = 35.20064 42.42515 38.81290
#
# Velocity S-wave (km/s) = 3.64627 4.00299 3.82879
# Velocity P-wave (km/s) = 5.41441 5.97470 5.70144
#
# Compressibility (1/GPa) = 0.03259174
#
# Stress axis : x y z
#
# Youngs Moduli (GPa) = 189.70534 63.17381 68.03323
#
# Poissons Ratio (x) = -0.06520 0.06605
# Poissons Ratio (y) = -0.19578 0.11327
# Poissons Ratio (z) = 0.18418 0.10518
#
# Static dielectric constant tensor:
#      x y z
#    x 2.192030 0.000000 0.000000 
#    y 0.000000 2.165860 0.000000 
#    z 0.000000 0.000000 2.103460 
# 
# From -- ./inp_files/2615.got.cif
#   From: 2010.05.17/outbox.cif.g08.bks.cpg/sg34_2_cif.got.tgz:2615.got - 2010.06.03 17:23:11.
