data_PCOD9347158
_publ_section_title
;
Structure prediction by ZEFSAII (Michael W. Deem and Ramdas Pophale) SiO2 
 PCOD9347158
Probable space group: P N N 2
;
_chemical_formula_sum "Si O2"
_cell_formula_units_Z 24
_cell_length_a 16.224190
_cell_length_b 8.124013
_cell_length_c 7.284719
_cell_angle_alpha 90.000000
_cell_angle_beta 90.000000
_cell_angle_gamma 90.000000
_cell_volume 960.166252
_symmetry_space_group_name_H-M "P N N 2"
_symmetry_group_IT_number 34
_symmetry_cell_setting 'orthorhombic'
loop_
_space_group_symop_operation_xyz
x,y,z
-x,-y,z
1/2-x,1/2+y,1/2+z
1/2+x,1/2-y,1/2+z
loop_
_atom_site_type_symbol
_atom_site_label
_atom_site_fract_x
_atom_site_fract_y
_atom_site_fract_z
Si Si1 0.637859 0.903515 0.434720
Si Si2 0.154909 0.575415 0.346484
Si Si3 0.494529 0.330264 0.435103
Si Si4 0.685409 0.245566 0.436103
Si Si5 0.418784 0.416274 0.840140
Si Si6 0.301835 0.732715 0.856732
O O1 0.617160 0.951169 0.643676
O O2 0.558233 0.817502 0.351326
O O3 0.713346 0.777743 0.450242
O O4 0.677799 0.065425 0.345834
O O5 0.252167 0.628074 0.340025
O O6 0.111485 0.741415 0.419187
O O7 0.149606 0.392830 0.429814
O O8 0.500000 0.500000 0.326463
O O9 0.589828 0.290303 0.461840
O O10 0.445748 0.372691 0.627208
O O11 0.718906 0.233843 0.643198
O O12 0.500000 0.500000 0.919163
O O13 0.351075 0.560683 0.860210
#
# Coordination Sequence:
#
# PCOD9347158 Si02
#       6
#     4   4   4   4   4   4
#     4  10  22  36  58  88 118 156 195 242 295 353
#     4  10  23  35  59  90 118 154 196 243 295 350
#     4  10  18  33  58  85 114 153 193 244 282 345
#     4  11  20  37  60  87 117 155 201 241 293 347
#     4  10  19  37  58  85 117 151 192 242 286 345
#     4  11  21  36  60  88 117 154 198 239 295 347
#
# _framework density 24.995668999999999
#
# number of rings (size 3 to 8) (size 9 to 14) (size 15 to 20)
#    0.000    1.667    5.000    1.500    2.333    0.667 
#    0.000    0.000    3.667    0.000    0.000    0.000 
#    0.000    0.000    0.000    0.000    0.000    0.000 
#
# Total GULP energy -133809.892719 kJ/mol
# GULP energy per Si atom -5575.412197 kJ/mol
# Density = 2.493878 g / cm^3
# Si number density = 24.995669 Si / 1000 Ang^3
#
#
#
# Elastic Constant Matrix: (Units=GPa)
#
#
# Indices 1 2 3 4 5 6 
#
# 1 116.5771 27.7880 -0.8694 0.0000 0.0000 0.0000
# 2 27.7880 140.4077 -3.9010 0.0000 0.0000 0.0000
# 3 -0.8694 -3.9010 72.1924 0.0000 0.0000 0.0000
# 4 0.0000 0.0000 0.0000 7.0782 0.0000 0.0000
# 5 0.0000 0.0000 0.0000 0.0000 4.7326 0.0000
# 6 0.0000 0.0000 0.0000 0.0000 0.0000 51.3523
#
#
#
# Elastic Compliance Matrix: (Units=1/GPa)
#
#
# Indices 1 2 3 4 5 6 
#
# 1 0.009003 -0.001781 0.000012 0.000000 0.000000 0.000000
# 2 -0.001781 0.007485 0.000383 0.000000 0.000000 0.000000
# 3 0.000012 0.000383 0.013873 0.000000 0.000000 0.000000
# 4 0.000000 0.000000 0.000000 0.141278 0.000000 0.000000
# 5 0.000000 0.000000 0.000000 0.000000 0.211301 0.000000
# 6 0.000000 0.000000 0.000000 0.000000 0.000000 0.019473
#
#
# Mechanical properties :
#
#
# Convention : Reuss Voigt Hill
#
# Bulk Modulus (GPa) = 36.24718 41.69027 38.96873
# Shear Modulus (GPa) = 12.06617 33.04326 22.55471
#
# Velocity S-wave (km/s) = 2.19950 3.63982 3.00716
# Velocity P-wave (km/s) = 4.58075 5.86341 5.26131
#
# Compressibility (1/GPa) = 0.02758835
#
# Stress axis : x y z
#
# Youngs Moduli (GPa) = 111.07748 133.59494 72.08392
#
# Poissons Ratio (x) = 0.23798 -0.00088
# Poissons Ratio (y) = 0.19787 -0.02761
# Poissons Ratio (z) = -0.00135 -0.05117
#
# Static dielectric constant tensor:
#      x y z
#    x 1.978920 0.000000 0.000000 
#    y 0.000000 2.088100 0.000000 
#    z 0.000000 0.000000 1.960320 
# 
# From -- ./inp_files/3538.got.cif
#   From: 2010.05.17/outbox.cif.g08.bks.cpg/sg34_2_cif.got.tgz:3538.got - 2010.06.03 17:23:11.
