data_PCOD9347061
_publ_section_title
;
Structure prediction by ZEFSAII (Michael W. Deem and Ramdas Pophale) SiO2 
 PCOD9347061
Probable space group: P N A 21
;
_chemical_formula_sum "Si O2"
_cell_formula_units_Z 24
_cell_length_a 9.000000
_cell_length_b 15.000000
_cell_length_c 9.000000
_cell_angle_alpha 90.000000
_cell_angle_beta 90.000000
_cell_angle_gamma 90.000000
_cell_volume 1215.000000
_symmetry_space_group_name_H-M "P N A 21"
_symmetry_group_IT_number 33
_symmetry_cell_setting 'orthorhombic'
loop_
_space_group_symop_operation_xyz
x,y,z
-x,-y,1/2+z
1/2-x,1/2+y,1/2+z
1/2+x,1/2-y,z
loop_
_atom_site_type_symbol
_atom_site_label
_atom_site_fract_x
_atom_site_fract_y
_atom_site_fract_z
Si Si1 0.218776 0.713256 0.480260
Si Si2 0.500252 0.874041 0.996717
Si Si3 0.599325 0.533307 0.230728
Si Si4 0.534722 0.620234 0.545699
Si Si5 0.702157 0.720936 0.131105
Si Si6 0.922130 0.445971 0.167776
O O1 0.383585 0.678260 0.521287
O O2 0.216737 0.739083 0.302131
O O3 0.113145 0.632375 0.544676
O O4 0.164343 0.805288 0.559022
O O5 0.507825 0.903415 0.820636
O O6 0.630682 0.802613 0.037214
O O7 0.353068 0.819071 0.055102
O O8 0.505286 0.968453 0.090462
O O9 0.563308 0.562343 0.397691
O O10 0.490830 0.455101 0.171236
O O11 0.602440 0.629736 0.145436
O O12 0.763135 0.489491 0.214922
#
# Coordination Sequence:
#
# PCOD9347061 Si02
#       6
#     4   4   4   4   4   4
#     4  10  21  40  62  88 124 165 210 260 314 378
#     4  11  23  41  64  93 127 166 212 265 324 389
#     4   9  21  39  60  89 123 161 207 257 314 377
#     4  10  21  39  62  88 120 158 203 254 311 372
#     4  10  21  39  62  90 125 166 211 263 320 379
#     4  10  23  40  62  94 129 168 215 263 321 389
#
# _framework density 19.753086
#
# number of rings (size 3 to 8) (size 9 to 14) (size 15 to 20)
#    0.000    2.000    0.000    3.000    0.000    9.333 
#    0.000    3.333    0.000    0.000    0.000    0.000 
#    0.000    0.000    0.000    0.000    0.000    0.000 
#
# Total GULP energy -133869.154196 kJ/mol
# GULP energy per Si atom -5577.881425 kJ/mol
# Density = 1.970813 g / cm^3
# Si number density = 19.753086 Si / 1000 Ang^3
#
#
#
# Elastic Constant Matrix: (Units=GPa)
#
#
# Indices 1 2 3 4 5 6 
#
# 1 41.9983 35.0199 22.3811 0.0000 0.0000 0.0000
# 2 35.0199 173.0520 57.4861 0.0000 0.0000 0.0000
# 3 22.3811 57.4861 93.5417 0.0000 0.0000 0.0000
# 4 0.0000 0.0000 0.0000 58.9676 0.0000 0.0000
# 5 0.0000 0.0000 0.0000 0.0000 29.8479 0.0000
# 6 0.0000 0.0000 0.0000 0.0000 0.0000 46.7359
#
#
#
# Elastic Compliance Matrix: (Units=1/GPa)
#
#
# Indices 1 2 3 4 5 6 
#
# 1 0.029976 -0.004629 -0.004328 0.000000 0.000000 0.000000
# 2 -0.004629 0.007976 -0.003794 0.000000 0.000000 0.000000
# 3 -0.004328 -0.003794 0.014057 0.000000 0.000000 0.000000
# 4 0.000000 0.000000 0.000000 0.016958 0.000000 0.000000
# 5 0.000000 0.000000 0.000000 0.000000 0.033503 0.000000
# 6 0.000000 0.000000 0.000000 0.000000 0.000000 0.021397
#
#
# Mechanical properties :
#
#
# Convention : Reuss Voigt Hill
#
# Bulk Modulus (GPa) = 37.72330 59.81848 48.77089
# Shear Modulus (GPa) = 31.60465 40.02395 35.81430
#
# Velocity S-wave (km/s) = 4.00432 4.50623 4.26267
# Velocity P-wave (km/s) = 6.36540 7.57784 6.99793
#
# Compressibility (1/GPa) = 0.02650881
#
# Stress axis : x y z
#
# Youngs Moduli (GPa) = 33.35970 125.38257 71.13660
#
# Poissons Ratio (x) = 0.58034 0.30786
# Poissons Ratio (y) = 0.15441 0.26989
# Poissons Ratio (z) = 0.14437 0.47570
#
# Static dielectric constant tensor:
#      x y z
#    x 1.741750 0.000000 0.000000 
#    y 0.000000 1.684150 0.000000 
#    z 0.000000 0.000000 1.705850 
# 
# From -- ./inp_files/3067.got.cif
#   From: 2010.05.17/outbox.ucp.g08.bks.cvg/sg33_2_cif.got.tgz:3067.got - 2010.06.11 10:35:07.
