data_PCOD9347815
_publ_section_title
;
Structure prediction by ZEFSAII (Michael W. Deem and Ramdas Pophale) SiO2 
 PCOD9347815
Probable space group: P N N 2
;
_chemical_formula_sum "Si O2"
_cell_formula_units_Z 30
_cell_length_a 11.527204
_cell_length_b 8.918740
_cell_length_c 13.963856
_cell_angle_alpha 90.000000
_cell_angle_beta 90.000000
_cell_angle_gamma 90.000000
_cell_volume 1435.597998
_symmetry_space_group_name_H-M "P N N 2"
_symmetry_group_IT_number 34
_symmetry_cell_setting 'orthorhombic'
loop_
_space_group_symop_operation_xyz
x,y,z
-x,-y,z
1/2-x,1/2+y,1/2+z
1/2+x,1/2-y,1/2+z
loop_
_atom_site_type_symbol
_atom_site_label
_atom_site_fract_x
_atom_site_fract_y
_atom_site_fract_z
Si Si1 0.422475 0.802758 0.704520
Si Si2 0.236444 0.027930 0.173501
Si Si3 0.711587 0.069111 0.522517
Si Si4 0.409292 0.213149 0.036923
Si Si5 0.573995 0.349967 0.179888
Si Si6 0.000000 0.500000 0.373682
Si Si7 0.323174 0.211273 0.613205
Si Si8 0.600468 0.119500 0.332026
O O1 0.366460 0.637164 0.708468
O O2 0.348522 0.882134 0.621231
O O3 0.555154 0.804130 0.667789
O O4 0.422892 0.895723 0.803155
O O5 0.195767 0.889095 0.107714
O O6 0.300350 0.952538 0.264070
O O7 0.328597 0.123582 0.112118
O O8 0.842804 0.129389 0.519046
O O9 0.650461 0.152981 0.435515
O O10 0.685409 0.891164 0.517997
O O11 0.528797 0.248887 0.091343
O O12 0.430459 0.113268 0.943363
O O13 0.500000 0.500000 0.178949
O O14 0.712429 0.358203 0.169898
O O15 0.551180 0.262212 0.277312
O O16 0.500000 0.000000 0.341402
#
# Coordination Sequence:
#
# PCOD9347815 Si02
#       8
#     4   4   4   4   4   2   4   4
#     4  11  24  45  66 101 140 190 221 289 358 417
#     4  10  24  42  70  95 144 178 232 288 350 419
#     4  11  24  43  69  97 140 174 233 287 351 418
#     4  11  24  46  64 103 132 184 233 286 348 418
#     4  11  23  43  72  99 136 181 233 295 348 416
#     4  12  24  40  72  96 144 182 240 284 350 428
#     4  11  21  41  69  96 137 183 223 286 354 412
#     4  11  22  40  67 102 134 179 229 289 351 425
#
# _framework density 20.897214999999999
#
# number of rings (size 3 to 8) (size 9 to 14) (size 15 to 20)
#    0.000    1.067    4.000    2.800    3.733    2.133 
#    0.000    5.333    0.000    0.000    0.000    0.000 
#    0.000    0.000    0.000    0.000    0.000    0.000 
#
# Total GULP energy -167485.280631 kJ/mol
# GULP energy per Si atom -5582.842688 kJ/mol
# Density = 2.084965 g / cm^3
# Si number density = 20.897215 Si / 1000 Ang^3
#
#
#
# Elastic Constant Matrix: (Units=GPa)
#
#
# Indices 1 2 3 4 5 6 
#
# 1 107.4764 38.4580 31.3892 0.0000 0.0000 0.0000
# 2 38.4580 113.9698 37.1691 0.0000 0.0000 0.0000
# 3 31.3892 37.1691 104.0669 0.0000 0.0000 0.0000
# 4 0.0000 0.0000 0.0000 18.4565 0.0000 0.0000
# 5 0.0000 0.0000 0.0000 0.0000 12.4765 0.0000
# 6 0.0000 0.0000 0.0000 0.0000 0.0000 37.1436
#
#
#
# Elastic Compliance Matrix: (Units=1/GPa)
#
#
# Indices 1 2 3 4 5 6 
#
# 1 0.011033 -0.002985 -0.002262 0.000000 0.000000 0.000000
# 2 -0.002985 0.010739 -0.002935 0.000000 0.000000 0.000000
# 3 -0.002262 -0.002935 0.011340 0.000000 0.000000 0.000000
# 4 0.000000 0.000000 0.000000 0.054181 0.000000 0.000000
# 5 0.000000 0.000000 0.000000 0.000000 0.080151 0.000000
# 6 0.000000 0.000000 0.000000 0.000000 0.000000 0.026923
#
#
# Mechanical properties :
#
#
# Convention : Reuss Voigt Hill
#
# Bulk Modulus (GPa) = 59.71045 59.94953 59.82999
# Shear Modulus (GPa) = 23.11462 28.18175 25.64819
#
# Velocity S-wave (km/s) = 3.32943 3.67630 3.50716
# Velocity P-wave (km/s) = 6.58905 6.83888 6.71513
#
# Compressibility (1/GPa) = 0.01674749
#
# Stress axis : x y z
#
# Youngs Moduli (GPa) = 90.63585 93.11952 88.18604
#
# Poissons Ratio (x) = 0.27800 0.19944
# Poissons Ratio (y) = 0.27059 0.25883
# Poissons Ratio (z) = 0.20498 0.27331
#
# Static dielectric constant tensor:
#      x y z
#    x 1.761380 0.000000 0.000000 
#    y 0.000000 1.843890 0.000000 
#    z 0.000000 0.000000 1.785950 
# 
# From -- ./inp_files/6796.got.cif
#   From: 2010.05.17/outbox.cif.g08.bks.cpg/sg34_4_cif.got.tgz:6796.got - 2010.06.03 17:23:11.
