data_PCOD9347523
_publ_section_title
;
Structure prediction by ZEFSAII (Michael W. Deem and Ramdas Pophale) SiO2 
 PCOD9347523
Probable space group: P N N 2
;
_chemical_formula_sum "Si O2"
_cell_formula_units_Z 24
_cell_length_a 14.942489
_cell_length_b 12.593300
_cell_length_c 6.136877
_cell_angle_alpha 90.000000
_cell_angle_beta 90.000000
_cell_angle_gamma 90.000000
_cell_volume 1154.808344
_symmetry_space_group_name_H-M "P N N 2"
_symmetry_group_IT_number 34
_symmetry_cell_setting 'orthorhombic'
loop_
_space_group_symop_operation_xyz
x,y,z
-x,-y,z
1/2-x,1/2+y,1/2+z
1/2+x,1/2-y,1/2+z
loop_
_atom_site_type_symbol
_atom_site_label
_atom_site_fract_x
_atom_site_fract_y
_atom_site_fract_z
Si Si1 0.244210 0.967548 0.475240
Si Si2 0.050307 0.237140 0.047038
Si Si3 0.586543 0.065338 0.241342
Si Si4 0.140760 0.849665 0.092986
Si Si5 0.689250 0.187677 0.859467
Si Si6 0.406725 0.538950 0.250857
O O1 0.332002 0.003505 0.343760
O O2 0.185307 0.896214 0.310295
O O3 0.280190 0.894274 0.671210
O O4 0.175293 0.047621 0.585697
O O5 0.124123 0.231785 0.236692
O O6 0.950734 0.213067 0.130574
O O7 0.056265 0.349744 0.924461
O O8 0.075134 0.148458 0.870603
O O9 0.500000 0.000000 0.174266
O O10 0.630250 0.127609 0.040162
O O11 0.217871 0.780776 0.974446
O O12 0.117023 0.949271 0.933380
O O13 0.500000 0.500000 0.144080
#
# Coordination Sequence:
#
# PCOD9347523 Si02
#       6
#     4   4   4   4   4   4
#     4   9  19  39  62  84 120 156 197 249 301 359
#     4  10  21  38  62  90 120 159 203 249 305 362
#     4  10  22  42  60  83 121 165 206 248 295 358
#     4   9  19  38  59  89 123 157 195 247 307 365
#     4   9  20  38  58  83 124 154 205 250 296 358
#     4   9  19  35  61  93 121 151 195 246 311 362
#
# _framework density 20.782668999999999
#
# number of rings (size 3 to 8) (size 9 to 14) (size 15 to 20)
#    0.000    2.667    0.000    0.000    0.000   10.000 
#   18.000    0.000    0.000    0.000    0.000    0.000 
#    0.000    0.000    0.000    0.000    0.000    0.000 
#
# Total GULP energy -133927.543053 kJ/mol
# GULP energy per Si atom -5580.314294 kJ/mol
# Density = 2.073537 g / cm^3
# Si number density = 20.782669 Si / 1000 Ang^3
#
#
#
# Elastic Constant Matrix: (Units=GPa)
#
#
# Indices 1 2 3 4 5 6 
#
# 1 166.4142 28.1891 25.1172 0.0000 0.0000 0.0000
# 2 28.1891 29.0085 -10.0445 0.0000 0.0000 0.0000
# 3 25.1172 -10.0445 40.7169 0.0000 0.0000 0.0000
# 4 0.0000 0.0000 0.0000 13.4690 0.0000 0.0000
# 5 0.0000 0.0000 0.0000 0.0000 18.9723 0.0000
# 6 0.0000 0.0000 0.0000 0.0000 0.0000 30.1039
#
#
#
# Elastic Compliance Matrix: (Units=1/GPa)
#
#
# Indices 1 2 3 4 5 6 
#
# 1 0.009403 -0.012186 -0.008806 0.000000 0.000000 0.000000
# 2 -0.012186 0.053487 0.020712 0.000000 0.000000 0.000000
# 3 -0.008806 0.020712 0.035102 0.000000 0.000000 0.000000
# 4 0.000000 0.000000 0.000000 0.074244 0.000000 0.000000
# 5 0.000000 0.000000 0.000000 0.000000 0.052708 0.000000
# 6 0.000000 0.000000 0.000000 0.000000 0.000000 0.033218
#
#
# Mechanical properties :
#
#
# Convention : Reuss Voigt Hill
#
# Bulk Modulus (GPa) = 10.26381 35.85147 23.05764
# Shear Modulus (GPa) = 17.17034 25.36755 21.26895
#
# Velocity S-wave (km/s) = 2.87746 3.49751 3.20253
# Velocity P-wave (km/s) = 3.99864 5.79640 4.97932
#
# Compressibility (1/GPa) = 0.09742971
#
# Stress axis : x y z
#
# Youngs Moduli (GPa) = 106.35441 18.69629 28.48853
#
# Poissons Ratio (x) = 0.22784 0.25088
# Poissons Ratio (y) = 1.29606 -0.59006
# Poissons Ratio (z) = 0.93660 -0.38724
#
# Static dielectric constant tensor:
#      x y z
#    x 1.757680 0.000000 0.000000 
#    y 0.000000 1.744340 0.000000 
#    z 0.000000 0.000000 1.724760 
# 
# From -- ./inp_files/1244.got.cif
#   From: 2010.05.17/outbox.cif.g08.bks.cpg/sg34_1_cif.got.tgz:1244.got - 2010.06.03 17:23:11.
