data_PCOD9347944
_publ_section_title
;
Structure prediction by ZEFSAII (Michael W. Deem and Ramdas Pophale) SiO2 
 PCOD9347944
Probable space group: P N N 2
;
_chemical_formula_sum "Si O2"
_cell_formula_units_Z 28
_cell_length_a 10.950391
_cell_length_b 9.861077
_cell_length_c 9.649948
_cell_angle_alpha 90.000000
_cell_angle_beta 90.000000
_cell_angle_gamma 90.000000
_cell_volume 1042.026946
_symmetry_space_group_name_H-M "P N N 2"
_symmetry_group_IT_number 34
_symmetry_cell_setting 'orthorhombic'
loop_
_space_group_symop_operation_xyz
x,y,z
-x,-y,z
1/2-x,1/2+y,1/2+z
1/2+x,1/2-y,1/2+z
loop_
_atom_site_type_symbol
_atom_site_label
_atom_site_fract_x
_atom_site_fract_y
_atom_site_fract_z
Si Si1 0.369144 0.113341 0.958120
Si Si2 0.307060 0.589285 0.083797
Si Si3 0.757636 0.700593 0.130506
Si Si4 0.414418 0.277290 0.586292
Si Si5 0.000000 0.500000 0.707018
Si Si6 0.452417 0.666356 0.835492
Si Si7 0.000190 0.201304 0.791050
Si Si8 0.500000 0.000000 0.712365
O O1 0.386557 0.019319 0.824341
O O2 0.480103 0.218935 0.928917
O O3 0.253251 0.205781 0.992741
O O4 0.391151 0.029640 0.097793
O O5 0.393980 0.617718 0.215071
O O6 0.222534 0.722847 0.069686
O O7 0.389733 0.572104 0.947983
O O8 0.841385 0.775123 0.242744
O O9 0.622389 0.691796 0.198356
O O10 0.775551 0.544715 0.088828
O O11 0.443268 0.367135 0.721299
O O12 0.464443 0.338873 0.445954
O O13 0.486099 0.136439 0.623901
O O14 0.026271 0.363534 0.789940
#
# Coordination Sequence:
#
# PCOD9347944 Si02
#       8
#     4   4   4   4   2   4   4   2
#     4   9  19  38  67 101 135 180 238 284 352 421
#     4  12  24  45  75 101 150 195 231 302 372 433
#     4  11  23  42  75 104 145 191 234 298 374 433
#     4  11  24  43  70 107 139 182 253 296 347 430
#     4   9  17  34  64  98 134 186 236 282 330 432
#     4  11  23  44  72 105 139 190 251 291 356 441
#     4  11  23  42  70 104 144 190 237 292 367 428
#     4   9  19  40  70  94 138 174 234 300 334 410
#
# _framework density 26.870706999999999
#
# number of rings (size 3 to 8) (size 9 to 14) (size 15 to 20)
#    0.000    1.429    4.286    2.571    0.000    2.286 
#    0.000    0.000   18.857    0.000    0.000    0.000 
#    0.000    0.000    0.000    0.000    0.000    0.000 
#
# Total GULP energy -156566.580045 kJ/mol
# GULP energy per Si atom -5591.663573 kJ/mol
# Density = 2.680955 g / cm^3
# Si number density = 26.870707 Si / 1000 Ang^3
#
#
#
# Elastic Constant Matrix: (Units=GPa)
#
#
# Indices 1 2 3 4 5 6 
#
# 1 100.4610 0.7675 33.7747 0.0000 0.0000 0.0000
# 2 0.7675 77.6136 16.1326 0.0000 0.0000 0.0000
# 3 33.7747 16.1326 179.5689 0.0000 0.0000 0.0000
# 4 0.0000 0.0000 0.0000 25.7490 0.0000 0.0000
# 5 0.0000 0.0000 0.0000 0.0000 45.2928 0.0000
# 6 0.0000 0.0000 0.0000 0.0000 0.0000 43.4720
#
#
#
# Elastic Compliance Matrix: (Units=1/GPa)
#
#
# Indices 1 2 3 4 5 6 
#
# 1 0.010634 0.000316 -0.002028 0.000000 0.000000 0.000000
# 2 0.000316 0.013139 -0.001240 0.000000 0.000000 0.000000
# 3 -0.002028 -0.001240 0.006062 0.000000 0.000000 0.000000
# 4 0.000000 0.000000 0.000000 0.038836 0.000000 0.000000
# 5 0.000000 0.000000 0.000000 0.000000 0.022079 0.000000
# 6 0.000000 0.000000 0.000000 0.000000 0.000000 0.023003
#
#
# Mechanical properties :
#
#
# Convention : Reuss Voigt Hill
#
# Bulk Modulus (GPa) = 41.78760 50.99923 46.39342
# Shear Modulus (GPa) = 39.17468 43.36734 41.27101
#
# Velocity S-wave (km/s) = 3.82238 4.02173 3.92332
# Velocity P-wave (km/s) = 5.92165 6.37075 6.15030
#
# Compressibility (1/GPa) = 0.02393054
#
# Stress axis : x y z
#
# Youngs Moduli (GPa) = 94.04088 76.10960 164.96679
#
# Poissons Ratio (x) = -0.02409 0.33463
# Poissons Ratio (y) = -0.02976 0.20455
# Poissons Ratio (z) = 0.19076 0.09437
#
# Static dielectric constant tensor:
#      x y z
#    x 2.242660 0.000000 0.000000 
#    y 0.000000 2.295130 0.000000 
#    z 0.000000 0.000000 2.055040 
# 
# From -- ./inp_files/3418.got.cif
#   From: 2010.05.17/outbox.cif.g08.bks.cpg/sg34_2_cif.got.tgz:3418.got - 2010.06.03 17:23:11.
