data_PCOD9347698
_publ_section_title
;
Structure prediction by ZEFSAII (Michael W. Deem and Ramdas Pophale) SiO2 
 PCOD9347698
Probable space group: P N N 2
;
_chemical_formula_sum "Si O2"
_cell_formula_units_Z 26
_cell_length_a 12.297344
_cell_length_b 10.157101
_cell_length_c 8.275627
_cell_angle_alpha 90.000000
_cell_angle_beta 90.000000
_cell_angle_gamma 90.000000
_cell_volume 1033.670211
_symmetry_space_group_name_H-M "P N N 2"
_symmetry_group_IT_number 34
_symmetry_cell_setting 'orthorhombic'
loop_
_space_group_symop_operation_xyz
x,y,z
-x,-y,z
1/2-x,1/2+y,1/2+z
1/2+x,1/2-y,1/2+z
loop_
_atom_site_type_symbol
_atom_site_label
_atom_site_fract_x
_atom_site_fract_y
_atom_site_fract_z
Si Si1 0.403908 0.404315 0.748820
Si Si2 0.500000 0.000000 0.196222
Si Si3 0.738028 0.091291 0.765301
Si Si4 0.670499 0.317622 0.297966
Si Si5 0.562598 0.244644 0.976608
Si Si6 0.948673 0.144317 0.906034
Si Si7 0.788165 0.541959 0.894422
O O1 0.500000 0.500000 0.683431
O O2 0.466951 0.319816 0.884122
O O3 0.386055 0.334217 0.574430
O O4 0.321513 0.515554 0.820605
O O5 0.605892 0.989465 0.308844
O O6 0.513191 0.125596 0.082543
O O7 0.646683 0.173546 0.855386
O O8 0.854471 0.165163 0.773793
O O9 0.704883 0.054881 0.584154
O O10 0.767644 0.949806 0.848483
O O11 0.561867 0.277760 0.398923
O O12 0.743304 0.188541 0.321946
O O13 0.627592 0.327108 0.114460
O O14 0.000000 0.000000 0.864785
#
# Coordination Sequence:
#
# PCOD9347698 Si02
#       7
#     4   2   4   4   4   4   4
#     4  11  23  44  71 102 138 183 235 287 354 419
#     4  10  26  48  66 102 138 184 236 294 348 416
#     4  11  23  43  72 101 140 188 229 287 352 417
#     4  10  22  43  65 102 141 180 233 287 346 415
#     4  11  24  44  69 103 142 184 237 289 352 418
#     4   9  19  39  67  97 136 180 232 282 344 416
#     4  11  24  46  67  98 138 180 229 289 350 412
#
# _framework density 25.153089000000001
#
# number of rings (size 3 to 8) (size 9 to 14) (size 15 to 20)
#    0.000    1.538    0.000    4.615    2.154    1.846 
#   22.154    0.000    0.000    0.000    0.000    0.000 
#    0.000    0.000    0.000    0.000    0.000    0.000 
#
# Total GULP energy -145232.695645 kJ/mol
# GULP energy per Si atom -5585.872909 kJ/mol
# Density = 2.509584 g / cm^3
# Si number density = 25.153089 Si / 1000 Ang^3
#
#
#
# Elastic Constant Matrix: (Units=GPa)
#
#
# Indices 1 2 3 4 5 6 
#
# 1 120.5925 -6.2170 55.8061 0.0000 0.0000 0.0000
# 2 -6.2170 53.7648 3.8407 0.0000 0.0000 0.0000
# 3 55.8061 3.8407 117.9405 0.0000 0.0000 0.0000
# 4 0.0000 0.0000 0.0000 28.4406 0.0000 0.0000
# 5 0.0000 0.0000 0.0000 0.0000 52.1059 0.0000
# 6 0.0000 0.0000 0.0000 0.0000 0.0000 26.5029
#
#
#
# Elastic Compliance Matrix: (Units=1/GPa)
#
#
# Indices 1 2 3 4 5 6 
#
# 1 0.010755 0.001611 -0.005141 0.000000 0.000000 0.000000
# 2 0.001611 0.018884 -0.001377 0.000000 0.000000 0.000000
# 3 -0.005141 -0.001377 0.010956 0.000000 0.000000 0.000000
# 4 0.000000 0.000000 0.000000 0.035161 0.000000 0.000000
# 5 0.000000 0.000000 0.000000 0.000000 0.019192 0.000000
# 6 0.000000 0.000000 0.000000 0.000000 0.000000 0.037732
#
#
# Mechanical properties :
#
#
# Convention : Reuss Voigt Hill
#
# Bulk Modulus (GPa) = 32.48852 44.35081 38.41967
# Shear Modulus (GPa) = 32.73221 37.33442 35.03331
#
# Velocity S-wave (km/s) = 3.61129 3.85682 3.73608
# Velocity P-wave (km/s) = 5.50754 6.12406 5.82396
#
# Compressibility (1/GPa) = 0.03078010
#
# Stress axis : x y z
#
# Youngs Moduli (GPa) = 92.98321 52.95436 91.27099
#
# Poissons Ratio (x) = -0.08530 0.46925
# Poissons Ratio (y) = -0.14978 0.12570
# Poissons Ratio (z) = 0.47805 0.07293
#
# Static dielectric constant tensor:
#      x y z
#    x 1.122330 0.000000 0.000000 
#    y 0.000000 2.107790 0.000000 
#    z 0.000000 0.000000 1.957180 
# 
# From -- ./inp_files/3183.got.cif
#   From: 2010.05.17/outbox.cif.g08.bks.cpg/sg34_2_cif.got.tgz:3183.got - 2010.06.03 17:23:11.
