data_PCOD9347312
_publ_section_title
;
Structure prediction by ZEFSAII (Michael W. Deem and Ramdas Pophale) SiO2 
 PCOD9347312
Probable space group: P N N 2
;
_chemical_formula_sum "Si O2"
_cell_formula_units_Z 18
_cell_length_a 5.925732
_cell_length_b 5.167913
_cell_length_c 24.979869
_cell_angle_alpha 90.000000
_cell_angle_beta 90.000000
_cell_angle_gamma 90.000000
_cell_volume 764.975201
_symmetry_space_group_name_H-M "P N N 2"
_symmetry_group_IT_number 34
_symmetry_cell_setting 'orthorhombic'
loop_
_space_group_symop_operation_xyz
x,y,z
-x,-y,z
1/2-x,1/2+y,1/2+z
1/2+x,1/2-y,1/2+z
loop_
_atom_site_type_symbol
_atom_site_label
_atom_site_fract_x
_atom_site_fract_y
_atom_site_fract_z
Si Si1 0.162026 0.250770 0.231010
Si Si2 0.661258 0.250986 0.847859
Si Si3 0.500000 0.500000 0.148850
Si Si4 0.858084 0.247413 0.078666
Si Si5 0.338569 0.750722 0.963185
O O1 0.278291 0.235732 0.290073
O O2 0.343250 0.322291 0.186434
O O3 0.000000 0.500000 0.232088
O O4 0.000000 0.000000 0.223256
O O5 0.500000 0.500000 0.849005
O O6 0.784741 0.250954 0.905263
O O7 0.500000 0.000000 0.847906
O O8 0.630398 0.299696 0.110587
O O9 0.000000 0.500000 0.091268
O O10 0.815517 0.238964 0.015181
O O11 0.000000 0.000000 0.095176
O O12 0.500000 0.500000 0.967143
O O13 0.500000 0.000000 0.965049
#
# Coordination Sequence:
#
# PCOD9347312 Si02
#       5
#     4   4   2   4   4
#     4  10  23  45  70 102 136 181 232 283 350 413
#     4   8  16  34  67  98 132 171 216 282 344 406
#     4  12  28  48  72  98 146 188 242 290 348 422
#     4  12  28  46  68 103 138 183 235 286 346 410
#     4  10  19  40  70  99 135 178 219 280 352 408
#
# _framework density 23.530173999999999
#
# number of rings (size 3 to 8) (size 9 to 14) (size 15 to 20)
#    0.000    1.778    1.111    2.000    0.000    6.222 
#    2.000    0.000    0.000    0.000    0.000    0.000 
#    0.000    0.000    0.000    0.000    0.000    0.000 
#
# Total GULP energy -100683.544749 kJ/mol
# GULP energy per Si atom -5593.530264 kJ/mol
# Density = 2.347662 g / cm^3
# Si number density = 23.530174 Si / 1000 Ang^3
#
#
#
# Elastic Constant Matrix: (Units=GPa)
#
#
# Indices 1 2 3 4 5 6 
#
# 1 57.8322 41.1546 59.9786 0.0000 0.0000 0.0000
# 2 41.1546 206.7594 29.0799 0.0000 0.0000 0.0000
# 3 59.9786 29.0799 217.7909 0.0000 0.0000 0.0000
# 4 0.0000 0.0000 0.0000 40.2219 0.0000 0.0000
# 5 0.0000 0.0000 0.0000 0.0000 -108.1710 0.0000
# 6 0.0000 0.0000 0.0000 0.0000 0.0000 35.1996
#
#
#
# Elastic Compliance Matrix: (Units=1/GPa)
#
#
# Indices 1 2 3 4 5 6 
#
# 1 0.027856 -0.004551 -0.007064 0.000000 0.000000 0.000000
# 2 -0.004551 0.005673 0.000496 0.000000 0.000000 0.000000
# 3 -0.007064 0.000496 0.006471 0.000000 0.000000 0.000000
# 4 0.000000 0.000000 0.000000 0.024862 0.000000 0.000000
# 5 0.000000 0.000000 0.000000 0.000000 -0.009245 0.000000
# 6 0.000000 0.000000 0.000000 0.000000 0.000000 0.028409
#
#
# Mechanical properties :
#
#
# Convention : Reuss Voigt Hill
#
# Bulk Modulus (GPa) = 56.30169 82.53431 69.41800
# Shear Modulus (GPa) = 44.56943 16.92806 30.74874
#
# Velocity S-wave (km/s) = 4.35689 2.68511 3.61886
# Velocity P-wave (km/s) = 7.02064 6.69068 6.85764
#
# Compressibility (1/GPa) = 0.01776146
#
# Stress axis : x y z
#
# Youngs Moduli (GPa) = 35.89894 176.28385 154.54371
#
# Poissons Ratio (x) = 0.80229 1.09166
# Poissons Ratio (y) = 0.16338 -0.07664
# Poissons Ratio (z) = 0.25358 -0.08742
#
# Static dielectric constant tensor:
#      x y z
#    x 1.881380 0.000000 0.000000 
#    y 0.000000 1.828290 0.000000 
#    z 0.000000 0.000000 1.973020 
# 
# From -- ./inp_files/8212.got.cif
#   From: 2010.05.17/outbox.cif.g08.bks.cpg/sg34_5_cif.got.tgz:8212.got - 2010.06.03 17:23:11.
