data_PCOD9347869
_publ_section_title
;
Structure prediction by ZEFSAII (Michael W. Deem and Ramdas Pophale) SiO2 
 PCOD9347869
Probable space group: P N N 2
;
_chemical_formula_sum "Si O2"
_cell_formula_units_Z 20
_cell_length_a 11.146030
_cell_length_b 14.459308
_cell_length_c 4.801905
_cell_angle_alpha 90.000000
_cell_angle_beta 90.000000
_cell_angle_gamma 90.000000
_cell_volume 773.893645
_symmetry_space_group_name_H-M "P N N 2"
_symmetry_group_IT_number 34
_symmetry_cell_setting 'orthorhombic'
loop_
_space_group_symop_operation_xyz
x,y,z
-x,-y,z
1/2-x,1/2+y,1/2+z
1/2+x,1/2-y,1/2+z
loop_
_atom_site_type_symbol
_atom_site_label
_atom_site_fract_x
_atom_site_fract_y
_atom_site_fract_z
Si Si1 0.664260 0.448547 0.505440
Si Si2 0.044621 0.814828 0.971495
Si Si3 0.097889 0.642343 0.317582
Si Si4 0.548374 0.127367 0.330948
Si Si5 0.809120 0.074711 0.513864
O O1 0.549814 0.388984 0.584746
O O2 0.667205 0.540211 0.697469
O O3 0.786228 0.389377 0.487880
O O4 0.656749 0.483024 0.187832
O O5 0.127201 0.850622 0.717862
O O6 0.956071 0.738427 0.838697
O O7 0.105991 0.750225 0.211399
O O8 0.985989 0.611425 0.512362
O O9 0.064543 0.596019 0.022025
O O10 0.669974 0.098400 0.476537
#
# Coordination Sequence:
#
# PCOD9347869 Si02
#       5
#     4   4   4   4   4
#     4  12  28  47  79 117 162 205 270 349 417 478
#     4  10  29  49  79 106 163 215 274 319 416 505
#     4  10  25  48  80 108 154 215 272 328 402 505
#     4  10  25  47  80 105 153 211 277 322 405 503
#     4  12  28  47  77 118 159 207 269 348 419 479
#
# _framework density 25.843343999999998
#
# number of rings (size 3 to 8) (size 9 to 14) (size 15 to 20)
#    1.200    0.000    0.000    3.000    8.400    8.000 
#    0.000    0.000    0.000    0.000    0.000    0.000 
#    0.000    0.000    0.000    0.000    0.000    0.000 
#
# Total GULP energy -111432.681098 kJ/mol
# GULP energy per Si atom -5571.634055 kJ/mol
# Density = 2.578452 g / cm^3
# Si number density = 25.843344 Si / 1000 Ang^3
#
#
#
# Elastic Constant Matrix: (Units=GPa)
#
#
# Indices 1 2 3 4 5 6 
#
# 1 161.6355 67.3384 46.9811 0.0000 0.0000 0.0000
# 2 67.3384 87.6740 22.8204 0.0000 0.0000 0.0000
# 3 46.9811 22.8204 162.8916 0.0000 0.0000 0.0000
# 4 0.0000 0.0000 0.0000 -31.8774 0.0000 0.0000
# 5 0.0000 0.0000 0.0000 0.0000 36.5450 0.0000
# 6 0.0000 0.0000 0.0000 0.0000 0.0000 32.2829
#
#
#
# Elastic Compliance Matrix: (Units=1/GPa)
#
#
# Indices 1 2 3 4 5 6 
#
# 1 0.009580 -0.006890 -0.001798 0.000000 0.000000 0.000000
# 2 -0.006890 0.016793 -0.000365 0.000000 0.000000 0.000000
# 3 -0.001798 -0.000365 0.006709 0.000000 0.000000 0.000000
# 4 0.000000 0.000000 0.000000 -0.031370 0.000000 0.000000
# 5 0.000000 0.000000 0.000000 0.000000 0.027364 0.000000
# 6 0.000000 0.000000 0.000000 0.000000 0.000000 0.030976
#
#
# Mechanical properties :
#
#
# Convention : Reuss Voigt Hill
#
# Bulk Modulus (GPa) = 66.77689 76.27565 71.52627
# Shear Modulus (GPa) = 60.13373 25.72752 42.93063
#
# Velocity S-wave (km/s) = 4.82898 3.15861 4.08019
# Velocity P-wave (km/s) = 7.54899 6.54837 7.06641
#
# Compressibility (1/GPa) = 0.01497524
#
# Stress axis : x y z
#
# Youngs Moduli (GPa) = 104.38863 59.54976 149.05909
#
# Poissons Ratio (x) = 0.41028 0.26797
# Poissons Ratio (y) = 0.71921 0.05447
# Poissons Ratio (z) = 0.18766 0.02176
#
# Static dielectric constant tensor:
#      x y z
#    x 2.017360 0.000000 0.000000 
#    y 0.000000 2.190740 0.000000 
#    z 0.000000 0.000000 1.986540 
# 
# From -- ./inp_files/866.got.cif
#   From: 2010.05.17/outbox.cif.g08.bks.cpg/sg34_1_cif.got.tgz:866.got - 2010.06.03 17:23:11.
