data_PCOD9347571
_publ_section_title
;
Structure prediction by ZEFSAII (Michael W. Deem and Ramdas Pophale) SiO2 
 PCOD9347571
Probable space group: P N N 2
;
_chemical_formula_sum "Si O2"
_cell_formula_units_Z 28
_cell_length_a 21.365399
_cell_length_b 5.557320
_cell_length_c 11.399649
_cell_angle_alpha 90.000000
_cell_angle_beta 90.000000
_cell_angle_gamma 90.000000
_cell_volume 1353.530019
_symmetry_space_group_name_H-M "P N N 2"
_symmetry_group_IT_number 34
_symmetry_cell_setting 'orthorhombic'
loop_
_space_group_symop_operation_xyz
x,y,z
-x,-y,z
1/2-x,1/2+y,1/2+z
1/2+x,1/2-y,1/2+z
loop_
_atom_site_type_symbol
_atom_site_label
_atom_site_fract_x
_atom_site_fract_y
_atom_site_fract_z
Si Si1 0.439864 0.636322 0.061660
Si Si2 0.936576 0.597229 0.326710
Si Si3 0.841702 0.255935 0.470145
Si Si4 0.297062 0.919609 0.441299
Si Si5 0.661955 0.320694 0.665949
Si Si6 0.274922 0.169403 0.666719
Si Si7 0.347181 0.919449 0.196923
O O1 0.500000 0.500000 0.108105
O O2 0.383318 0.468446 0.014270
O O3 0.413649 0.817063 0.158854
O O4 0.460281 0.770175 0.943536
O O5 0.886030 0.405722 0.380229
O O6 0.901735 0.771535 0.235597
O O7 0.000000 0.500000 0.269377
O O8 0.772654 0.191566 0.421295
O O9 0.829335 0.406359 0.589617
O O10 0.335833 0.736566 0.526254
O O11 0.335339 0.005409 0.328418
O O12 0.283264 0.142039 0.526660
O O13 0.688017 0.584058 0.693314
O O14 0.704189 0.094169 0.711034
O O15 0.202924 0.204243 0.694227
#
# Coordination Sequence:
#
# PCOD9347571 Si02
#       7
#     4   4   4   4   4   4   4
#     4  11  23  39  63  95 130 174 230 275 334 398
#     4  11  24  39  67  94 133 179 225 284 335 402
#     4  11  22  39  61 100 127 171 221 274 337 408
#     4  10  23  39  64  96 136 167 219 277 345 405
#     4  10  23  40  64  95 136 166 220 268 337 396
#     4  10  21  41  58 101 129 169 211 278 326 407
#     4  11  22  38  64  94 133 175 214 277 342 399
#
# _framework density 20.686648999999999
#
# number of rings (size 3 to 8) (size 9 to 14) (size 15 to 20)
#    0.857    0.571    4.286    0.857    4.000    1.143 
#    0.000    0.000    3.143    0.857    0.000    0.000 
#    0.000    0.000    0.000    0.000    0.000    0.000 
#
# Total GULP energy -155985.104035 kJ/mol
# GULP energy per Si atom -5570.896573 kJ/mol
# Density = 2.063956 g / cm^3
# Si number density = 20.686649 Si / 1000 Ang^3
#
#
#
# Elastic Constant Matrix: (Units=GPa)
#
#
# Indices 1 2 3 4 5 6 
#
# 1 75.5823 10.0602 29.0795 0.0000 0.0000 0.0000
# 2 10.0602 63.8955 1.9729 0.0000 0.0000 0.0000
# 3 29.0795 1.9729 79.8304 0.0000 0.0000 0.0000
# 4 0.0000 0.0000 0.0000 19.0666 0.0000 0.0000
# 5 0.0000 0.0000 0.0000 0.0000 10.3077 0.0000
# 6 0.0000 0.0000 0.0000 0.0000 0.0000 31.5244
#
#
#
# Elastic Compliance Matrix: (Units=1/GPa)
#
#
# Indices 1 2 3 4 5 6 
#
# 1 0.015718 -0.002300 -0.005669 0.000000 0.000000 0.000000
# 2 -0.002300 0.015999 0.000442 0.000000 0.000000 0.000000
# 3 -0.005669 0.000442 0.014580 0.000000 0.000000 0.000000
# 4 0.000000 0.000000 0.000000 0.052448 0.000000 0.000000
# 5 0.000000 0.000000 0.000000 0.000000 0.097015 0.000000
# 6 0.000000 0.000000 0.000000 0.000000 0.000000 0.031721
#
#
# Mechanical properties :
#
#
# Convention : Reuss Voigt Hill
#
# Bulk Modulus (GPa) = 32.00489 33.50370 32.75430
# Shear Modulus (GPa) = 19.76691 24.05945 21.91318
#
# Velocity S-wave (km/s) = 3.09453 3.41404 3.25821
# Velocity P-wave (km/s) = 5.31724 5.63665 5.47928
#
# Compressibility (1/GPa) = 0.03124522
#
# Stress axis : x y z
#
# Youngs Moduli (GPa) = 63.62289 62.50398 68.58484
#
# Poissons Ratio (x) = 0.14374 0.38878
# Poissons Ratio (y) = 0.14631 -0.03034
# Poissons Ratio (z) = 0.36065 -0.02765
#
# Static dielectric constant tensor:
#      x y z
#    x 1.760200 0.000000 0.000000 
#    y 0.000000 1.811600 0.000000 
#    z 0.000000 0.000000 1.804800 
# 
# From -- ./inp_files/5843.got.cif
#   From: 2010.05.17/outbox.cif.g08.bks.cpg/sg34_3_cif.got.tgz:5843.got - 2010.06.03 17:23:11.
