data_PCOD9347221
_publ_section_title
;
Structure prediction by ZEFSAII (Michael W. Deem and Ramdas Pophale) SiO2 
 PCOD9347221
Probable space group: P N N 2
;
_chemical_formula_sum "Si O2"
_cell_formula_units_Z 16
_cell_length_a 5.184462
_cell_length_b 6.916175
_cell_length_c 19.169102
_cell_angle_alpha 90.000000
_cell_angle_beta 90.000000
_cell_angle_gamma 90.000000
_cell_volume 687.339714
_symmetry_space_group_name_H-M "P N N 2"
_symmetry_group_IT_number 34
_symmetry_cell_setting 'orthorhombic'
loop_
_space_group_symop_operation_xyz
x,y,z
-x,-y,z
1/2-x,1/2+y,1/2+z
1/2+x,1/2-y,1/2+z
loop_
_atom_site_type_symbol
_atom_site_label
_atom_site_fract_x
_atom_site_fract_y
_atom_site_fract_z
Si Si1 0.434872 0.280566 0.515120
Si Si2 0.751019 0.863246 0.221098
Si Si3 0.065369 0.731902 0.577754
Si Si4 0.251385 0.636220 0.874062
O O1 0.500000 0.500000 0.535320
O O2 0.724506 0.199475 0.520865
O O3 0.302970 0.273825 0.439438
O O4 0.221950 0.189946 0.566391
O O5 0.694085 0.736647 0.153044
O O6 0.777631 0.767819 0.297409
O O7 0.500000 0.000000 0.225404
O O8 0.000000 0.000000 0.209919
O O9 0.000000 0.500000 0.571334
O O10 0.500000 0.500000 0.882981
O O11 0.000000 0.500000 0.873094
#
# Coordination Sequence:
#
# PCOD9347221 Si02
#       4
#     4   4   4   4
#     4  10  19  31  50  74  99 127 162 206 251 296
#     4   9  16  28  47  71  96 123 162 206 243 285
#     4   9  16  28  47  72  96 122 162 208 246 283
#     4  10  20  33  50  73 102 134 165 204 254 306
#
# _framework density 23.278155999999999
#
# number of rings (size 3 to 8) (size 9 to 14) (size 15 to 20)
#    0.000    2.500    0.000    5.250    0.000    0.000 
#    0.000    0.000    0.000    4.500    0.000    0.000 
#    0.000    0.000    0.000    0.000    0.000    0.000 
#
# Total GULP energy -89170.380295 kJ/mol
# GULP energy per Si atom -5573.148768 kJ/mol
# Density = 2.322517 g / cm^3
# Si number density = 23.278156 Si / 1000 Ang^3
#
#
#
# Elastic Constant Matrix: (Units=GPa)
#
#
# Indices 1 2 3 4 5 6 
#
# 1 202.9973 19.4481 60.7152 0.0000 0.0000 0.0000
# 2 19.4481 35.1236 -6.9994 0.0000 0.0000 0.0000
# 3 60.7152 -6.9994 176.1054 0.0000 0.0000 0.0000
# 4 0.0000 0.0000 0.0000 22.6818 0.0000 0.0000
# 5 0.0000 0.0000 0.0000 0.0000 35.5708 0.0000
# 6 0.0000 0.0000 0.0000 0.0000 0.0000 4.6550
#
#
#
# Elastic Compliance Matrix: (Units=1/GPa)
#
#
# Indices 1 2 3 4 5 6 
#
# 1 0.005940 -0.003727 -0.002196 0.000000 0.000000 0.000000
# 2 -0.003727 0.031036 0.002518 0.000000 0.000000 0.000000
# 3 -0.002196 0.002518 0.006536 0.000000 0.000000 0.000000
# 4 0.000000 0.000000 0.000000 0.044088 0.000000 0.000000
# 5 0.000000 0.000000 0.000000 0.000000 0.028113 0.000000
# 6 0.000000 0.000000 0.000000 0.000000 0.000000 0.214822
#
#
# Mechanical properties :
#
#
# Convention : Reuss Voigt Hill
#
# Bulk Modulus (GPa) = 27.24553 62.28379 44.76466
# Shear Modulus (GPa) = 14.30295 35.31902 24.81098
#
# Velocity S-wave (km/s) = 2.48147 3.89943 3.26827
# Velocity P-wave (km/s) = 4.46542 6.86210 5.78915
#
# Compressibility (1/GPa) = 0.03670327
#
# Stress axis : x y z
#
# Youngs Moduli (GPa) = 168.34944 32.22040 153.00743
#
# Poissons Ratio (x) = 0.12007 0.33601
# Poissons Ratio (y) = 0.62738 -0.38533
# Poissons Ratio (z) = 0.36970 -0.08114
#
# Static dielectric constant tensor:
#      x y z
#    x 1.897750 0.000000 0.000000 
#    y 0.000000 1.918010 0.000000 
#    z 0.000000 0.000000 1.982180 
# 
# From -- ./inp_files/5968.got.cif
#   From: 2010.05.17/outbox.cif.g08.bks.cpg/sg34_3_cif.got.tgz:5968.got - 2010.06.03 17:23:11.
