data_PCOD9347371
_publ_section_title
;
Structure prediction by ZEFSAII (Michael W. Deem and Ramdas Pophale) SiO2 
 PCOD9347371
Probable space group: P N N 2
;
_chemical_formula_sum "Si O2"
_cell_formula_units_Z 32
_cell_length_a 16.755164
_cell_length_b 13.214767
_cell_length_c 7.024005
_cell_angle_alpha 90.000000
_cell_angle_beta 90.000000
_cell_angle_gamma 90.000000
_cell_volume 1555.224199
_symmetry_space_group_name_H-M "P N N 2"
_symmetry_group_IT_number 34
_symmetry_cell_setting 'orthorhombic'
loop_
_space_group_symop_operation_xyz
x,y,z
-x,-y,z
1/2-x,1/2+y,1/2+z
1/2+x,1/2-y,1/2+z
loop_
_atom_site_type_symbol
_atom_site_label
_atom_site_fract_x
_atom_site_fract_y
_atom_site_fract_z
Si Si1 0.294516 0.422759 0.485970
Si Si2 0.709188 0.341693 0.572803
Si Si3 0.664976 0.688050 0.117251
Si Si4 0.486163 0.722889 0.250738
Si Si5 0.077707 0.246409 0.342802
Si Si6 0.710848 0.149861 0.330947
Si Si7 0.525235 0.609494 0.602640
Si Si8 0.942263 0.595261 0.026490
O O1 0.290585 0.543157 0.510899
O O2 0.291846 0.381355 0.274044
O O3 0.225550 0.372006 0.612073
O O4 0.382288 0.388331 0.553805
O O5 0.796325 0.299884 0.627988
O O6 0.650369 0.316651 0.748137
O O7 0.686303 0.262549 0.402946
O O8 0.572468 0.698393 0.159124
O O9 0.700663 0.640664 0.924205
O O10 0.476061 0.633316 0.406882
O O11 0.484040 0.822108 0.385773
O O12 0.429046 0.740449 0.069629
O O13 0.075841 0.353857 0.232550
O O14 0.999642 0.191116 0.256969
O O15 0.643808 0.078768 0.425232
O O16 0.500000 0.500000 0.673450
O O17 0.000000 0.500000 0.043193
#
# Coordination Sequence:
#
# PCOD9347371 Si02
#       8
#     4   4   4   4   4   4   4   4
#     4  11  20  40  64  80 124 162 188 259 316 342
#     4   9  21  40  58  90 119 156 209 241 299 379
#     4   9  22  42  56  92 123 148 215 247 291 385
#     4  10  22  38  62  87 120 157 202 254 305 355
#     4  10  20  41  61  86 123 157 197 255 305 362
#     4   9  22  40  57  87 122 154 210 248 291 378
#     4  10  20  37  59  90 119 148 196 252 305 373
#     4  10  23  39  59  89 123 161 211 251 300 362
#
# _framework density 20.575810000000001
#
# number of rings (size 3 to 8) (size 9 to 14) (size 15 to 20)
#    0.750    1.500    1.250    0.750    3.500    1.000 
#    9.000    0.000    0.000    0.000    0.000    0.000 
#    0.000    0.000    0.000    0.000    0.000    0.000 
#
# Total GULP energy -178265.604312 kJ/mol
# GULP energy per Si atom -5570.800135 kJ/mol
# Density = 2.052898 g / cm^3
# Si number density = 20.575810 Si / 1000 Ang^3
#
#
#
# Elastic Constant Matrix: (Units=GPa)
#
#
# Indices 1 2 3 4 5 6 
#
# 1 46.7538 0.1067 9.9152 0.0000 0.0000 0.0000
# 2 0.1067 54.3171 26.1399 0.0000 0.0000 0.0000
# 3 9.9152 26.1399 115.3048 0.0000 0.0000 0.0000
# 4 0.0000 0.0000 0.0000 10.7566 0.0000 0.0000
# 5 0.0000 0.0000 0.0000 0.0000 31.0210 0.0000
# 6 0.0000 0.0000 0.0000 0.0000 0.0000 29.9197
#
#
#
# Elastic Compliance Matrix: (Units=1/GPa)
#
#
# Indices 1 2 3 4 5 6 
#
# 1 0.021831 0.000966 -0.002096 0.000000 0.000000 0.000000
# 2 0.000966 0.020708 -0.004778 0.000000 0.000000 0.000000
# 3 -0.002096 -0.004778 0.009936 0.000000 0.000000 0.000000
# 4 0.000000 0.000000 0.000000 0.092966 0.000000 0.000000
# 5 0.000000 0.000000 0.000000 0.000000 0.032236 0.000000
# 6 0.000000 0.000000 0.000000 0.000000 0.000000 0.033423
#
#
# Mechanical properties :
#
#
# Convention : Reuss Voigt Hill
#
# Bulk Modulus (GPa) = 24.59486 32.07769 28.33627
# Shear Modulus (GPa) = 21.14449 26.35374 23.74912
#
# Velocity S-wave (km/s) = 3.20916 3.58273 3.40107
# Velocity P-wave (km/s) = 5.07058 5.72175 5.40598
#
# Compressibility (1/GPa) = 0.04065891
#
# Stress axis : x y z
#
# Youngs Moduli (GPa) = 45.80647 48.29131 100.64411
#
# Poissons Ratio (x) = -0.04664 0.21097
# Poissons Ratio (y) = -0.04424 0.48083
# Poissons Ratio (z) = 0.09602 0.23071
#
# Static dielectric constant tensor:
#      x y z
#    x 1.802400 0.000000 0.000000 
#    y 0.000000 1.701270 0.000000 
#    z 0.000000 0.000000 1.736010 
# 
# From -- ./inp_files/1498.got.cif
#   From: 2010.05.17/outbox.cif.g08.bks.cpg/sg34_1_cif.got.tgz:1498.got - 2010.06.03 17:23:11.
