data_PCOD9347081
_publ_section_title
;
Structure prediction by ZEFSAII (Michael W. Deem and Ramdas Pophale) SiO2 
 PCOD9347081
Probable space group: P N A 21
;
_chemical_formula_sum "Si O2"
_cell_formula_units_Z 20
_cell_length_a 9.000000
_cell_length_b 9.000000
_cell_length_c 12.000000
_cell_angle_alpha 90.000000
_cell_angle_beta 90.000000
_cell_angle_gamma 90.000000
_cell_volume 972.000000
_symmetry_space_group_name_H-M "P N A 21"
_symmetry_group_IT_number 33
_symmetry_cell_setting 'orthorhombic'
loop_
_space_group_symop_operation_xyz
x,y,z
-x,-y,1/2+z
1/2-x,1/2+y,1/2+z
1/2+x,1/2-y,z
loop_
_atom_site_type_symbol
_atom_site_label
_atom_site_fract_x
_atom_site_fract_y
_atom_site_fract_z
Si Si1 0.509507 0.628270 0.992760
Si Si2 0.236590 0.075580 0.100785
Si Si3 0.725568 0.252261 0.336041
Si Si4 0.622687 0.216737 0.714008
Si Si5 0.643694 0.910459 0.356269
O O1 0.370338 0.628273 0.907496
O O2 0.631177 0.715514 0.915284
O O3 0.582085 0.474881 0.038909
O O4 0.458731 0.710611 0.106342
O O5 0.238746 0.189936 0.206870
O O6 0.290919 0.922346 0.158939
O O7 0.334236 0.115917 0.990060
O O8 0.649344 0.088639 0.335942
O O9 0.506769 0.154603 0.804611
O O10 0.727934 0.331845 0.780882
#
# Coordination Sequence:
#
# PCOD9347081 Si02
#       5
#     4   4   4   4   4
#     4  11  22  46  70  96 141 184 225 286 350 407
#     4  11  26  44  72 105 137 187 233 288 358 414
#     4  11  25  47  70 101 142 183 235 286 351 420
#     4  12  23  47  69  99 140 182 231 292 347 416
#     4  11  26  46  69 103 140 182 238 288 352 419
#
# _framework density 20.576132000000001
#
# number of rings (size 3 to 8) (size 9 to 14) (size 15 to 20)
#    0.000    0.800    6.000    1.200    5.600    3.200 
#    7.200    0.000    0.000    0.000    0.000    0.000 
#    0.000    0.000    0.000    0.000    0.000    0.000 
#
# Total GULP energy -111617.244191 kJ/mol
# GULP energy per Si atom -5580.862210 kJ/mol
# Density = 2.052930 g / cm^3
# Si number density = 20.576132 Si / 1000 Ang^3
#
#
#
# Elastic Constant Matrix: (Units=GPa)
#
#
# Indices 1 2 3 4 5 6 
#
# 1 50.1464 5.9553 19.0481 0.0000 0.0000 0.0000
# 2 5.9553 60.3080 32.0892 0.0000 0.0000 0.0000
# 3 19.0481 32.0892 200.2719 0.0000 0.0000 0.0000
# 4 0.0000 0.0000 0.0000 56.2627 0.0000 0.0000
# 5 0.0000 0.0000 0.0000 0.0000 35.5981 0.0000
# 6 0.0000 0.0000 0.0000 0.0000 0.0000 27.0490
#
#
#
# Elastic Compliance Matrix: (Units=1/GPa)
#
#
# Indices 1 2 3 4 5 6 
#
# 1 0.020755 -0.001092 -0.001799 0.000000 0.000000 0.000000
# 2 -0.001092 0.018184 -0.002810 0.000000 0.000000 0.000000
# 3 -0.001799 -0.002810 0.005615 0.000000 0.000000 0.000000
# 4 0.000000 0.000000 0.000000 0.017774 0.000000 0.000000
# 5 0.000000 0.000000 0.000000 0.000000 0.028091 0.000000
# 6 0.000000 0.000000 0.000000 0.000000 0.000000 0.036970
#
#
# Mechanical properties :
#
#
# Convention : Reuss Voigt Hill
#
# Bulk Modulus (GPa) = 30.16447 47.21241 38.68844
# Shear Modulus (GPa) = 33.36861 40.69086 37.02974
#
# Velocity S-wave (km/s) = 4.03142 4.45182 4.24682
# Velocity P-wave (km/s) = 6.03005 7.02993 6.54910
#
# Compressibility (1/GPa) = 0.03315159
#
# Stress axis : x y z
#
# Youngs Moduli (GPa) = 48.18187 54.99205 178.10948
#
# Poissons Ratio (x) = 0.06007 0.32042
# Poissons Ratio (y) = 0.05263 0.50045
# Poissons Ratio (z) = 0.08668 0.15452
#
# Static dielectric constant tensor:
#      x y z
#    x 1.821510 0.000000 0.000000 
#    y 0.000000 1.731630 0.000000 
#    z 0.000000 0.000000 1.692020 
# 
# From -- ./inp_files/2940.got.cif
#   From: 2010.05.17/outbox.ucp.g08.bks.cvg/sg33_2_cif.got.tgz:2940.got - 2010.06.11 10:35:07.
