data_PCOD9347668
_publ_section_title
;
Structure prediction by ZEFSAII (Michael W. Deem and Ramdas Pophale) SiO2 
 PCOD9347668
Probable space group: P N N 2
;
_chemical_formula_sum "Si O2"
_cell_formula_units_Z 32
_cell_length_a 8.270473
_cell_length_b 11.924321
_cell_length_c 15.702325
_cell_angle_alpha 90.000000
_cell_angle_beta 90.000000
_cell_angle_gamma 90.000000
_cell_volume 1548.559756
_symmetry_space_group_name_H-M "P N N 2"
_symmetry_group_IT_number 34
_symmetry_cell_setting 'orthorhombic'
loop_
_space_group_symop_operation_xyz
x,y,z
-x,-y,z
1/2-x,1/2+y,1/2+z
1/2+x,1/2-y,1/2+z
loop_
_atom_site_type_symbol
_atom_site_label
_atom_site_fract_x
_atom_site_fract_y
_atom_site_fract_z
Si Si1 0.321342 0.040961 0.394290
Si Si2 0.710594 0.106365 0.984603
Si Si3 0.808051 0.246455 0.145397
Si Si4 0.350513 0.317245 0.834967
Si Si5 0.821896 0.953142 0.568536
Si Si6 0.772040 0.748856 0.318413
Si Si7 0.675253 0.847043 0.987463
Si Si8 0.320774 0.817177 0.629823
O O1 0.243950 0.092800 0.479197
O O2 0.333290 0.139093 0.325595
O O3 0.500000 0.000000 0.413940
O O4 0.206410 0.938302 0.367661
O O5 0.786546 0.158585 0.069393
O O6 0.763724 0.164545 0.896089
O O7 0.518555 0.134269 0.991973
O O8 0.741857 0.973284 0.982847
O O9 0.788124 0.197147 0.239147
O O10 0.687210 0.350425 0.132792
O O11 0.988348 0.295584 0.135530
O O12 0.543568 0.295660 0.829602
O O13 0.288535 0.225059 0.902557
O O14 0.714940 0.059072 0.595451
O O15 0.000000 0.000000 0.557499
O O16 0.756771 0.694222 0.226145
O O17 0.740062 0.774124 0.066778
#
# Coordination Sequence:
#
# PCOD9347668 Si02
#       8
#     4   4   4   4   4   4   4   4
#     4  12  24  40  66  95 124 161 214 267 309 371
#     4  10  22  41  64  89 124 170 209 252 311 376
#     4  11  24  41  65  95 125 164 212 261 311 372
#     4  10  23  42  65  91 126 168 207 254 316 374
#     4  12  24  42  66  91 126 167 208 263 325 373
#     4  10  23  42  65  91 126 168 207 254 316 374
#     4  10  22  41  64  89 124 170 209 252 311 376
#     4  11  24  41  65  95 125 164 212 261 311 372
#
# _framework density 20.664361
#
# number of rings (size 3 to 8) (size 9 to 14) (size 15 to 20)
#    0.000    1.250    2.500    3.000    3.500    2.500 
#    0.000    0.000    0.000    0.000    0.000    0.000 
#    0.000    0.000    0.000    0.000    0.000    0.000 
#
# Total GULP energy -178925.935792 kJ/mol
# GULP energy per Si atom -5591.435494 kJ/mol
# Density = 2.061733 g / cm^3
# Si number density = 20.664361 Si / 1000 Ang^3
#
#
#
# Elastic Constant Matrix: (Units=GPa)
#
#
# Indices 1 2 3 4 5 6 
#
# 1 18.5237 -13.1960 8.5792 0.0000 0.0000 0.0000
# 2 -13.1960 92.5903 39.0047 0.0000 0.0000 0.0000
# 3 8.5792 39.0047 141.8926 0.0000 0.0000 0.0000
# 4 0.0000 0.0000 0.0000 -55.6833 0.0000 0.0000
# 5 0.0000 0.0000 0.0000 0.0000 31.3403 0.0000
# 6 0.0000 0.0000 0.0000 0.0000 0.0000 23.3447
#
#
#
# Elastic Compliance Matrix: (Units=1/GPa)
#
#
# Indices 1 2 3 4 5 6 
#
# 1 0.066446 0.012624 -0.007488 0.000000 0.000000 0.000000
# 2 0.012624 0.014613 -0.004780 0.000000 0.000000 0.000000
# 3 -0.007488 -0.004780 0.008814 0.000000 0.000000 0.000000
# 4 0.000000 0.000000 0.000000 -0.017959 0.000000 0.000000
# 5 0.000000 0.000000 0.000000 0.000000 0.031908 0.000000
# 6 0.000000 0.000000 0.000000 0.000000 0.000000 0.042836
#
#
# Mechanical properties :
#
#
# Convention : Reuss Voigt Hill
#
# Bulk Modulus (GPa) = 11.03922 35.75359 23.39640
# Shear Modulus (GPa) = 28.38616 14.37494 21.38055
#
# Velocity S-wave (km/s) = 3.71034 2.64036 3.22010
# Velocity P-wave (km/s) = 4.86921 5.16090 5.01718
#
# Compressibility (1/GPa) = 0.09058614
#
# Stress axis : x y z
#
# Youngs Moduli (GPa) = 15.04976 68.43114 113.45121
#
# Poissons Ratio (x) = -0.86389 0.84949
# Poissons Ratio (y) = -0.18999 0.54233
# Poissons Ratio (z) = 0.11269 0.32712
#
# Static dielectric constant tensor:
#      x y z
#    x 1.754130 0.000000 0.000000 
#    y 0.000000 1.697530 0.000000 
#    z 0.000000 0.000000 1.721720 
# 
# From -- ./inp_files/6559.got.cif
#   From: 2010.05.17/outbox.cif.g08.bks.cpg/sg34_4_cif.got.tgz:6559.got - 2010.06.03 17:23:11.
