data_PCOD9347435
_publ_section_title
;
Structure prediction by ZEFSAII (Michael W. Deem and Ramdas Pophale) SiO2 
 PCOD9347435
Probable space group: P N N 2
;
_chemical_formula_sum "Si O2"
_cell_formula_units_Z 28
_cell_length_a 6.806894
_cell_length_b 23.371362
_cell_length_c 7.886776
_cell_angle_alpha 90.000000
_cell_angle_beta 90.000000
_cell_angle_gamma 90.000000
_cell_volume 1254.678673
_symmetry_space_group_name_H-M "P N N 2"
_symmetry_group_IT_number 34
_symmetry_cell_setting 'orthorhombic'
loop_
_space_group_symop_operation_xyz
x,y,z
-x,-y,z
1/2-x,1/2+y,1/2+z
1/2+x,1/2-y,1/2+z
loop_
_atom_site_type_symbol
_atom_site_label
_atom_site_fract_x
_atom_site_fract_y
_atom_site_fract_z
Si Si1 0.832425 0.623787 0.356380
Si Si2 0.177260 0.778729 0.408873
Si Si3 0.649251 0.845259 0.093758
Si Si4 0.639421 0.951707 0.636172
Si Si5 0.825533 0.855281 0.459576
Si Si6 0.486741 0.212881 0.633141
Si Si7 0.066355 0.058642 0.931506
O O1 0.853157 0.685209 0.261680
O O2 0.622483 0.594631 0.369364
O O3 0.935116 0.630376 0.540864
O O4 0.977473 0.586235 0.238092
O O5 0.045384 0.831849 0.469548
O O6 0.100799 0.769405 0.217741
O O7 0.147814 0.717355 0.504078
O O8 0.403228 0.787061 0.454159
O O9 0.724602 0.838477 0.283540
O O10 0.799453 0.893161 0.020492
O O11 0.769406 0.920381 0.494742
O O12 0.798318 0.966516 0.780071
O O13 0.500000 0.000000 0.560789
O O14 0.707910 0.824474 0.611256
O O15 0.000000 0.000000 0.026849
#
# Coordination Sequence:
#
# PCOD9347435 Si02
#       7
#     4   4   4   4   4   4   4
#     4   9  20  40  64  93 123 167 216 273 322 401
#     4  11  22  42  62  95 129 175 219 270 335 415
#     4  10  24  40  61 100 129 168 222 273 337 404
#     4  10  20  40  65  95 124 168 225 268 326 397
#     4  11  24  42  63  95 136 169 217 279 342 398
#     4  10  23  37  66  90 126 174 216 266 338 401
#     4  11  21  40  71  90 126 173 221 274 329 398
#
# _framework density 22.316471
#
# number of rings (size 3 to 8) (size 9 to 14) (size 15 to 20)
#    0.000    1.714    2.857    1.714    2.000    3.429 
#    2.571    0.714    0.000    0.000    0.000    0.000 
#    0.000    0.000    0.000    0.000    0.000    0.000 
#
# Total GULP energy -155888.244303 kJ/mol
# GULP energy per Si atom -5567.437297 kJ/mol
# Density = 2.226568 g / cm^3
# Si number density = 22.316471 Si / 1000 Ang^3
#
#
#
# Elastic Constant Matrix: (Units=GPa)
#
#
# Indices 1 2 3 4 5 6 
#
# 1 97.3862 21.8166 17.9172 0.0000 0.0000 0.0000
# 2 21.8166 66.2447 1.2659 0.0000 0.0000 0.0000
# 3 17.9172 1.2659 46.1113 0.0000 0.0000 0.0000
# 4 0.0000 0.0000 0.0000 19.5822 0.0000 0.0000
# 5 0.0000 0.0000 0.0000 0.0000 18.0217 0.0000
# 6 0.0000 0.0000 0.0000 0.0000 0.0000 30.9214
#
#
#
# Elastic Compliance Matrix: (Units=1/GPa)
#
#
# Indices 1 2 3 4 5 6 
#
# 1 0.011968 -0.003855 -0.004545 0.000000 0.000000 0.000000
# 2 -0.003855 0.016345 0.001049 0.000000 0.000000 0.000000
# 3 -0.004545 0.001049 0.023424 0.000000 0.000000 0.000000
# 4 0.000000 0.000000 0.000000 0.051067 0.000000 0.000000
# 5 0.000000 0.000000 0.000000 0.000000 0.055489 0.000000
# 6 0.000000 0.000000 0.000000 0.000000 0.000000 0.032340
#
#
# Mechanical properties :
#
#
# Convention : Reuss Voigt Hill
#
# Bulk Modulus (GPa) = 27.00039 32.41571 29.70805
# Shear Modulus (GPa) = 22.96971 24.95455 23.96213
#
# Velocity S-wave (km/s) = 3.21171 3.34760 3.28036
# Velocity P-wave (km/s) = 5.08710 5.43129 5.26201
#
# Compressibility (1/GPa) = 0.03703650
#
# Stress axis : x y z
#
# Youngs Moduli (GPa) = 83.55599 61.18091 42.69184
#
# Poissons Ratio (x) = 0.23583 0.19401
# Poissons Ratio (y) = 0.32208 -0.04479
# Poissons Ratio (z) = 0.37972 -0.06418
#
# Static dielectric constant tensor:
#      x y z
#    x 1.817230 0.000000 0.000000 
#    y 0.000000 1.975850 0.000000 
#    z 0.000000 0.000000 1.880780 
# 
# From -- ./inp_files/2164.got.cif
#   From: 2010.05.17/outbox.cif.g08.bks.cpg/sg34_2_cif.got.tgz:2164.got - 2010.06.03 17:23:11.
