data_PCOD9347395
_publ_section_title
;
Structure prediction by ZEFSAII (Michael W. Deem and Ramdas Pophale) SiO2 
 PCOD9347395
Probable space group: P N N 2
;
_chemical_formula_sum "Si O2"
_cell_formula_units_Z 30
_cell_length_a 5.884500
_cell_length_b 27.074116
_cell_length_c 9.326593
_cell_angle_alpha 90.000000
_cell_angle_beta 90.000000
_cell_angle_gamma 90.000000
_cell_volume 1485.890745
_symmetry_space_group_name_H-M "P N N 2"
_symmetry_group_IT_number 34
_symmetry_cell_setting 'orthorhombic'
loop_
_space_group_symop_operation_xyz
x,y,z
-x,-y,z
1/2-x,1/2+y,1/2+z
1/2+x,1/2-y,1/2+z
loop_
_atom_site_type_symbol
_atom_site_label
_atom_site_fract_x
_atom_site_fract_y
_atom_site_fract_z
Si Si1 0.803192 0.296323 0.633710
Si Si2 0.189884 0.357644 0.496098
Si Si3 0.031019 0.339935 0.999837
Si Si4 0.344401 0.575173 0.999832
Si Si5 0.740618 0.590828 0.208883
Si Si6 0.500000 0.000000 0.569367
Si Si7 0.917816 0.139375 0.279823
Si Si8 0.456965 0.259459 0.407386
O O1 0.610461 0.320422 0.737860
O O2 0.693260 0.273001 0.489313
O O3 0.956353 0.340322 0.569705
O O4 0.933177 0.257918 0.740819
O O5 0.207288 0.397524 0.372102
O O6 0.336735 0.377863 0.626270
O O7 0.299887 0.306554 0.437039
O O8 0.183354 0.358128 0.131155
O O9 0.206965 0.337089 0.867219
O O10 0.896382 0.288862 0.002415
O O11 0.848259 0.383025 0.987839
O O12 0.510725 0.592644 0.874796
O O13 0.488066 0.579107 0.148066
O O14 0.212415 0.523797 0.985583
O O15 0.895618 0.545088 0.159160
#
# Coordination Sequence:
#
# PCOD9347395 Si02
#       8
#     4   4   4   4   4   2   4   4
#     4  11  24  39  59  88 133 178 227 276 324 392
#     4  11  24  39  61  92 134 174 220 272 335 384
#     4  10  20  38  63  88 128 170 216 267 328 385
#     4  10  20  40  69  94 125 163 216 276 336 401
#     4  10  23  40  64  97 126 171 217 279 343 407
#     4  10  22  40  70  96 122 162 220 280 344 410
#     4  10  20  39  62  90 125 177 209 266 329 393
#     4  11  23  36  59  92 130 181 227 267 321 394
#
# _framework density 20.189910999999999
#
# number of rings (size 3 to 8) (size 9 to 14) (size 15 to 20)
#    0.000    1.600    2.667    1.200    1.867    6.400 
#    0.000    0.000    0.000   32.800    0.000    0.000 
#    0.000    0.000    0.000    0.000    0.000    0.000 
#
# Total GULP energy -167036.522533 kJ/mol
# GULP energy per Si atom -5567.884084 kJ/mol
# Density = 2.014396 g / cm^3
# Si number density = 20.189911 Si / 1000 Ang^3
#
#
#
# Elastic Constant Matrix: (Units=GPa)
#
#
# Indices 1 2 3 4 5 6 
#
# 1 77.8945 22.8919 42.0738 0.0000 0.0000 0.0000
# 2 22.8919 85.4863 20.9697 0.0000 0.0000 0.0000
# 3 42.0738 20.9697 91.8804 0.0000 0.0000 0.0000
# 4 0.0000 0.0000 0.0000 28.5394 0.0000 0.0000
# 5 0.0000 0.0000 0.0000 0.0000 17.5647 0.0000
# 6 0.0000 0.0000 0.0000 0.0000 0.0000 31.6603
#
#
#
# Elastic Compliance Matrix: (Units=1/GPa)
#
#
# Indices 1 2 3 4 5 6 
#
# 1 0.017718 -0.002918 -0.007448 0.000000 0.000000 0.000000
# 2 -0.002918 0.012872 -0.001602 0.000000 0.000000 0.000000
# 3 -0.007448 -0.001602 0.014660 0.000000 0.000000 0.000000
# 4 0.000000 0.000000 0.000000 0.035039 0.000000 0.000000
# 5 0.000000 0.000000 0.000000 0.000000 0.056932 0.000000
# 6 0.000000 0.000000 0.000000 0.000000 0.000000 0.031585
#
#
# Mechanical properties :
#
#
# Convention : Reuss Voigt Hill
#
# Bulk Modulus (GPa) = 46.91356 47.45912 47.18634
# Shear Modulus (GPa) = 25.01934 26.84130 25.93032
#
# Velocity S-wave (km/s) = 3.52405 3.65011 3.58763
# Velocity P-wave (km/s) = 6.31230 6.42820 6.37051
#
# Compressibility (1/GPa) = 0.02131580
#
# Stress axis : x y z
#
# Youngs Moduli (GPa) = 56.43970 77.68807 68.21466
#
# Poissons Ratio (x) = 0.22667 0.50803
# Poissons Ratio (y) = 0.16468 0.10926
# Poissons Ratio (z) = 0.42033 0.12443
#
# Static dielectric constant tensor:
#      x y z
#    x 1.813470 0.000000 0.000000 
#    y 0.000000 1.759070 0.000000 
#    z 0.000000 0.000000 1.734050 
# 
# From -- ./inp_files/2203.got.cif
#   From: 2010.05.17/outbox.cif.g08.bks.cpg/sg34_2_cif.got.tgz:2203.got - 2010.06.03 17:23:11.
