data_PCOD9347472
_publ_section_title
;
Structure prediction by ZEFSAII (Michael W. Deem and Ramdas Pophale) SiO2 
 PCOD9347472
Probable space group: P N N 2
;
_chemical_formula_sum "Si O2"
_cell_formula_units_Z 20
_cell_length_a 7.291066
_cell_length_b 17.004128
_cell_length_c 8.086133
_cell_angle_alpha 90.000000
_cell_angle_beta 90.000000
_cell_angle_gamma 90.000000
_cell_volume 1002.504372
_symmetry_space_group_name_H-M "P N N 2"
_symmetry_group_IT_number 34
_symmetry_cell_setting 'orthorhombic'
loop_
_space_group_symop_operation_xyz
x,y,z
-x,-y,z
1/2-x,1/2+y,1/2+z
1/2+x,1/2-y,1/2+z
loop_
_atom_site_type_symbol
_atom_site_label
_atom_site_fract_x
_atom_site_fract_y
_atom_site_fract_z
Si Si1 0.439619 0.765758 0.594540
Si Si2 0.293860 0.469663 0.616315
Si Si3 0.331425 0.133697 0.096544
Si Si4 0.201794 0.306138 0.731227
Si Si5 0.045902 0.416874 0.305461
O O1 0.335968 0.687029 0.651120
O O2 0.653211 0.746643 0.629953
O O3 0.361184 0.776189 0.410021
O O4 0.392819 0.845062 0.693104
O O5 0.500000 0.500000 0.585561
O O6 0.185117 0.547338 0.676471
O O7 0.282845 0.395092 0.736930
O O8 0.194811 0.438435 0.448256
O O9 0.511007 0.183432 0.136440
O O10 0.362795 0.111821 0.903938
O O11 0.000000 0.500000 0.219780
#
# Coordination Sequence:
#
# PCOD9347472 Si02
#       5
#     4   4   4   4   4
#     4  12  23  41  65  98 128 170 224 275 335 399
#     4  10  20  42  68  91 129 179 217 268 346 412
#     4  10  22  40  66  92 127 170 222 269 334 408
#     4  11  25  38  66  95 131 173 217 280 335 402
#     4   9  21  40  62  93 129 169 212 271 332 404
#
# _framework density 19.950036000000001
#
# number of rings (size 3 to 8) (size 9 to 14) (size 15 to 20)
#    0.000    1.600    4.000    1.800    5.600    1.600 
#    0.000    1.000    0.000    0.000    0.000    0.000 
#    0.000    0.000    0.000    0.000    0.000    0.000 
#
# Total GULP energy -111335.657756 kJ/mol
# GULP energy per Si atom -5566.782888 kJ/mol
# Density = 1.990463 g / cm^3
# Si number density = 19.950036 Si / 1000 Ang^3
#
#
#
# Elastic Constant Matrix: (Units=GPa)
#
#
# Indices 1 2 3 4 5 6 
#
# 1 106.9699 33.6290 23.7021 0.0000 0.0000 0.0000
# 2 33.6290 134.8746 44.7508 0.0000 0.0000 0.0000
# 3 23.7021 44.7508 41.0821 0.0000 0.0000 0.0000
# 4 0.0000 0.0000 0.0000 19.2713 0.0000 0.0000
# 5 0.0000 0.0000 0.0000 0.0000 17.7459 0.0000
# 6 0.0000 0.0000 0.0000 0.0000 0.0000 38.5733
#
#
#
# Elastic Compliance Matrix: (Units=1/GPa)
#
#
# Indices 1 2 3 4 5 6 
#
# 1 0.010801 -0.000979 -0.005164 0.000000 0.000000 0.000000
# 2 -0.000979 0.011700 -0.012179 0.000000 0.000000 0.000000
# 3 -0.005164 -0.012179 0.040588 0.000000 0.000000 0.000000
# 4 0.000000 0.000000 0.000000 0.051891 0.000000 0.000000
# 5 0.000000 0.000000 0.000000 0.000000 0.056351 0.000000
# 6 0.000000 0.000000 0.000000 0.000000 0.000000 0.025925
#
#
# Mechanical properties :
#
#
# Convention : Reuss Voigt Hill
#
# Bulk Modulus (GPa) = 37.81885 54.12118 45.97001
# Shear Modulus (GPa) = 20.60034 27.17443 23.88738
#
# Velocity S-wave (km/s) = 3.21689 3.69470 3.46404
# Velocity P-wave (km/s) = 5.72676 6.73709 6.25236
#
# Compressibility (1/GPa) = 0.02644184
#
# Stress axis : x y z
#
# Youngs Moduli (GPa) = 92.58680 85.47366 24.63787
#
# Poissons Ratio (x) = 0.08372 0.12724
# Poissons Ratio (y) = 0.09068 0.30007
# Poissons Ratio (z) = 0.47816 1.04100
#
# Static dielectric constant tensor:
#      x y z
#    x 1.760680 0.000000 0.000000 
#    y 0.000000 1.799400 0.000000 
#    z 0.000000 0.000000 1.746870 
# 
# From -- ./inp_files/2547.got.cif
#   From: 2010.05.17/outbox.cif.g08.bks.cpg/sg34_2_cif.got.tgz:2547.got - 2010.06.03 17:23:11.
