data_PCOD9347651
_publ_section_title
;
Structure prediction by ZEFSAII (Michael W. Deem and Ramdas Pophale) SiO2 
 PCOD9347651
Probable space group: P N N 2
;
_chemical_formula_sum "Si O2"
_cell_formula_units_Z 30
_cell_length_a 12.215854
_cell_length_b 5.438417
_cell_length_c 22.064907
_cell_angle_alpha 90.000000
_cell_angle_beta 90.000000
_cell_angle_gamma 90.000000
_cell_volume 1465.880068
_symmetry_space_group_name_H-M "P N N 2"
_symmetry_group_IT_number 34
_symmetry_cell_setting 'orthorhombic'
loop_
_space_group_symop_operation_xyz
x,y,z
-x,-y,z
1/2-x,1/2+y,1/2+z
1/2+x,1/2-y,1/2+z
loop_
_atom_site_type_symbol
_atom_site_label
_atom_site_fract_x
_atom_site_fract_y
_atom_site_fract_z
Si Si1 0.627091 0.929349 0.511840
Si Si2 0.723068 0.408352 0.317559
Si Si3 0.702403 0.705693 0.082924
Si Si4 0.000000 0.500000 0.608621
Si Si5 0.374450 0.078619 0.370768
Si Si6 0.931246 0.256156 0.252015
Si Si7 0.373975 0.419904 0.624014
Si Si8 0.115491 0.135632 0.686786
O O1 0.628469 0.854715 0.441929
O O2 0.650054 0.729566 0.563176
O O3 0.500000 0.000000 0.523892
O O4 0.724640 0.123622 0.525285
O O5 0.680879 0.681498 0.338192
O O6 0.851018 0.352040 0.304986
O O7 0.669739 0.366258 0.251623
O O8 0.685750 0.181222 0.359541
O O9 0.583339 0.830254 0.069929
O O10 0.673962 0.494445 0.130583
O O11 0.790212 0.860320 0.120836
O O12 0.914009 0.607915 0.656773
O O13 0.500000 0.000000 0.353497
O O14 0.866046 0.203163 0.189659
O O15 0.000000 0.500000 0.237403
O O16 0.000000 0.000000 0.264500
O O17 0.500000 0.500000 0.619908
O O18 0.000000 0.000000 0.694801
#
# Coordination Sequence:
#
# PCOD9347651 Si02
#       8
#     4   4   4   2   4   4   4   4
#     4  11  23  41  63  96 136 174 221 280 334 405
#     4  12  25  44  69  96 136 181 223 284 337 404
#     4  11  22  39  64  99 132 175 216 274 341 407
#     4  10  22  40  62  98 132 176 214 274 338 412
#     4  11  27  43  68  98 133 179 233 276 337 402
#     4  11  25  42  68 102 136 174 225 280 345 414
#     4  11  23  37  69 100 141 172 218 272 354 411
#     4  10  23  38  66  96 135 169 221 272 341 404
#
# _framework density 20.465520999999999
#
# number of rings (size 3 to 8) (size 9 to 14) (size 15 to 20)
#    0.000    1.067    1.333    4.800   14.000    0.000 
#    0.000    0.000    1.467    4.000    0.000    0.000 
#    0.000    0.000    0.000    0.000    0.000    0.000 
#
# Total GULP energy -167027.505230 kJ/mol
# GULP energy per Si atom -5567.583508 kJ/mol
# Density = 2.041894 g / cm^3
# Si number density = 20.465521 Si / 1000 Ang^3
#
#
#
# Elastic Constant Matrix: (Units=GPa)
#
#
# Indices 1 2 3 4 5 6 
#
# 1 64.2751 18.1982 24.6490 0.0000 0.0000 0.0000
# 2 18.1982 86.6204 23.9446 0.0000 0.0000 0.0000
# 3 24.6490 23.9446 55.7727 0.0000 0.0000 0.0000
# 4 0.0000 0.0000 0.0000 55.4876 0.0000 0.0000
# 5 0.0000 0.0000 0.0000 0.0000 89.4427 0.0000
# 6 0.0000 0.0000 0.0000 0.0000 0.0000 41.9050
#
#
#
# Elastic Compliance Matrix: (Units=1/GPa)
#
#
# Indices 1 2 3 4 5 6 
#
# 1 0.019004 -0.001896 -0.007585 0.000000 0.000000 0.000000
# 2 -0.001896 0.013288 -0.004867 0.000000 0.000000 0.000000
# 3 -0.007585 -0.004867 0.023372 0.000000 0.000000 0.000000
# 4 0.000000 0.000000 0.000000 0.018022 0.000000 0.000000
# 5 0.000000 0.000000 0.000000 0.000000 0.011180 0.000000
# 6 0.000000 0.000000 0.000000 0.000000 0.000000 0.023864
#
#
# Mechanical properties :
#
#
# Convention : Reuss Voigt Hill
#
# Bulk Modulus (GPa) = 37.08091 37.80574 37.44333
# Shear Modulus (GPa) = 34.14964 46.69215 40.42089
#
# Velocity S-wave (km/s) = 4.08933 4.78169 4.44900
# Velocity P-wave (km/s) = 6.36042 6.99993 6.68782
#
# Compressibility (1/GPa) = 0.02696806
#
# Stress axis : x y z
#
# Youngs Moduli (GPa) = 52.62159 75.25387 42.78688
#
# Poissons Ratio (x) = 0.14267 0.32453
# Poissons Ratio (y) = 0.09976 0.20825
# Poissons Ratio (z) = 0.39912 0.36627
#
# Static dielectric constant tensor:
#      x y z
#    x 1.583410 0.000000 0.000000 
#    y 0.000000 1.697220 0.000000 
#    z 0.000000 0.000000 1.683790 
# 
# From -- ./inp_files/7964.got.cif
#   From: 2010.05.17/outbox.cif.g08.bks.cpg/sg34_4_cif.got.tgz:7964.got - 2010.06.03 17:23:11.
