data_PCOD9347895
_publ_section_title
;
Structure prediction by ZEFSAII (Michael W. Deem and Ramdas Pophale) SiO2 
 PCOD9347895
Probable space group: P N N 2
;
_chemical_formula_sum "Si O2"
_cell_formula_units_Z 32
_cell_length_a 15.019105
_cell_length_b 15.315502
_cell_length_c 6.253563
_cell_angle_alpha 90.000000
_cell_angle_beta 90.000000
_cell_angle_gamma 90.000000
_cell_volume 1438.476659
_symmetry_space_group_name_H-M "P N N 2"
_symmetry_group_IT_number 34
_symmetry_cell_setting 'orthorhombic'
loop_
_space_group_symop_operation_xyz
x,y,z
-x,-y,z
1/2-x,1/2+y,1/2+z
1/2+x,1/2-y,1/2+z
loop_
_atom_site_type_symbol
_atom_site_label
_atom_site_fract_x
_atom_site_fract_y
_atom_site_fract_z
Si Si1 0.062882 0.243194 0.170130
Si Si2 0.197194 0.951008 0.630091
Si Si3 0.084239 0.816463 0.870866
Si Si4 0.171116 0.506583 0.517818
Si Si5 0.923267 0.320250 0.499364
Si Si6 0.704422 0.393000 0.847912
Si Si7 0.840792 0.644440 0.843188
Si Si8 0.718993 0.768723 0.664536
O O1 0.143135 0.184339 0.258535
O O2 0.003884 0.282675 0.360004
O O3 0.092648 0.325882 0.027245
O O4 0.002387 0.181339 0.018844
O O5 0.115295 0.897257 0.728480
O O6 0.252752 0.891597 0.463295
O O7 0.160467 0.033725 0.498184
O O8 0.272416 0.977319 0.808500
O O9 0.074932 0.729765 0.724348
O O10 0.166745 0.803897 0.032146
O O11 0.090651 0.575730 0.492294
O O12 0.244052 0.558604 0.659577
O O13 0.136811 0.426050 0.662661
O O14 0.834349 0.289221 0.376614
O O15 0.775574 0.350447 0.009118
O O16 0.815257 0.733871 0.724190
#
# Coordination Sequence:
#
# PCOD9347895 Si02
#       8
#     4   4   4   4   4   4   4   4
#     4  11  28  42  68 101 146 188 228 277 368 430
#     4  11  23  43  75 102 133 174 241 294 337 405
#     4  11  23  44  68  99 137 187 222 287 352 419
#     4  11  23  43  75 102 133 174 241 294 337 405
#     4  11  23  44  68  99 137 187 222 287 352 419
#     4  11  24  42  72 104 129 181 239 290 336 415
#     4  11  24  42  72 104 129 181 239 290 336 415
#     4  11  20  40  76  93 126 178 246 269 332 422
#
# _framework density 22.245754000000002
#
# number of rings (size 3 to 8) (size 9 to 14) (size 15 to 20)
#    0.000    1.000    5.000    1.500    1.750    0.000 
#    0.000    7.500    0.000    0.000    0.000    0.000 
#    0.000    0.000    0.000    0.000    0.000    0.000 
#
# Total GULP energy -178791.621260 kJ/mol
# GULP energy per Si atom -5587.238164 kJ/mol
# Density = 2.219512 g / cm^3
# Si number density = 22.245754 Si / 1000 Ang^3
#
#
#
# Elastic Constant Matrix: (Units=GPa)
#
#
# Indices 1 2 3 4 5 6 
#
# 1 46.3402 13.4609 14.4188 0.0000 0.0000 0.0000
# 2 13.4609 69.1621 24.3859 0.0000 0.0000 0.0000
# 3 14.4188 24.3859 86.8268 0.0000 0.0000 0.0000
# 4 0.0000 0.0000 0.0000 45.6595 0.0000 0.0000
# 5 0.0000 0.0000 0.0000 0.0000 30.8262 0.0000
# 6 0.0000 0.0000 0.0000 0.0000 0.0000 22.4651
#
#
#
# Elastic Compliance Matrix: (Units=1/GPa)
#
#
# Indices 1 2 3 4 5 6 
#
# 1 0.023516 -0.003552 -0.002908 0.000000 0.000000 0.000000
# 2 -0.003552 0.016584 -0.004068 0.000000 0.000000 0.000000
# 3 -0.002908 -0.004068 0.013143 0.000000 0.000000 0.000000
# 4 0.000000 0.000000 0.000000 0.021901 0.000000 0.000000
# 5 0.000000 0.000000 0.000000 0.000000 0.032440 0.000000
# 6 0.000000 0.000000 0.000000 0.000000 0.000000 0.044514
#
#
# Mechanical properties :
#
#
# Convention : Reuss Voigt Hill
#
# Bulk Modulus (GPa) = 31.06728 34.09561 32.58144
# Shear Modulus (GPa) = 27.19139 29.79438 28.49289
#
# Velocity S-wave (km/s) = 3.49996 3.66365 3.58274
# Velocity P-wave (km/s) = 5.50716 5.76685 5.63850
#
# Compressibility (1/GPa) = 0.03218821
#
# Stress axis : x y z
#
# Youngs Moduli (GPa) = 42.52434 60.29762 76.08864
#
# Poissons Ratio (x) = 0.21416 0.22124
# Poissons Ratio (y) = 0.15103 0.30953
# Poissons Ratio (z) = 0.12365 0.24529
#
# Static dielectric constant tensor:
#      x y z
#    x 1.794020 0.000000 0.000000 
#    y 0.000000 1.852610 0.000000 
#    z 0.000000 0.000000 1.805290 
# 
# From -- ./inp_files/1500.got.cif
#   From: 2010.05.17/outbox.cif.g08.bks.cpg/sg34_1_cif.got.tgz:1500.got - 2010.06.03 17:23:11.
