data_PCOD9347664
_publ_section_title
;
Structure prediction by ZEFSAII (Michael W. Deem and Ramdas Pophale) SiO2 
 PCOD9347664
Probable space group: P N N 2
;
_chemical_formula_sum "Si O2"
_cell_formula_units_Z 24
_cell_length_a 8.179455
_cell_length_b 11.175670
_cell_length_c 12.396263
_cell_angle_alpha 90.000000
_cell_angle_beta 90.000000
_cell_angle_gamma 90.000000
_cell_volume 1133.153432
_symmetry_space_group_name_H-M "P N N 2"
_symmetry_group_IT_number 34
_symmetry_cell_setting 'orthorhombic'
loop_
_space_group_symop_operation_xyz
x,y,z
-x,-y,z
1/2-x,1/2+y,1/2+z
1/2+x,1/2-y,1/2+z
loop_
_atom_site_type_symbol
_atom_site_label
_atom_site_fract_x
_atom_site_fract_y
_atom_site_fract_z
Si Si1 0.308736 0.796661 0.691860
Si Si2 0.987359 0.640627 0.742304
Si Si3 0.657498 0.451350 0.251024
Si Si4 0.509407 0.854775 0.488009
Si Si5 0.047472 0.641818 0.379161
Si Si6 0.637713 0.272557 0.063894
O O1 0.156976 0.707232 0.709057
O O2 0.396118 0.791584 0.576584
O O3 0.442773 0.791251 0.786383
O O4 0.252289 0.933589 0.708432
O O5 0.957401 0.673196 0.866426
O O6 0.000000 0.500000 0.739668
O O7 0.847164 0.672586 0.656567
O O8 0.500000 0.500000 0.313196
O O9 0.774348 0.374422 0.327022
O O10 0.597367 0.382332 0.143991
O O11 0.695211 0.808483 0.505111
O O12 0.500000 0.000000 0.503621
O O13 0.000000 0.500000 0.398820
O O14 0.999909 0.720770 0.483463
#
# Coordination Sequence:
#
# PCOD9347664 Si02
#       6
#     4   4   4   4   4   4
#     4  11  20  42  70 100 135 185 239 285 340 420
#     4  11  26  43  65 102 144 185 232 293 366 422
#     4  11  22  41  69 104 134 182 246 280 342 424
#     4  11  22  43  73 100 139 185 237 298 354 419
#     4  10  22  40  70  99 140 185 226 291 350 413
#     4  12  22  42  70 102 141 181 233 295 354 419
#
# _framework density 21.179832000000001
#
# number of rings (size 3 to 8) (size 9 to 14) (size 15 to 20)
#    0.000    1.000    6.667    1.000    0.000    1.333 
#    0.000    0.833    0.000    0.000    0.000    0.000 
#    0.000    0.000    0.000    0.000    0.000    0.000 
#
# Total GULP energy -133810.201122 kJ/mol
# GULP energy per Si atom -5575.425047 kJ/mol
# Density = 2.113163 g / cm^3
# Si number density = 21.179832 Si / 1000 Ang^3
#
#
#
# Elastic Constant Matrix: (Units=GPa)
#
#
# Indices 1 2 3 4 5 6 
#
# 1 93.7655 56.8735 48.7680 0.0000 0.0000 0.0000
# 2 56.8735 102.7164 54.7311 0.0000 0.0000 0.0000
# 3 48.7680 54.7311 152.8010 0.0000 0.0000 0.0000
# 4 0.0000 0.0000 0.0000 29.2359 0.0000 0.0000
# 5 0.0000 0.0000 0.0000 0.0000 6.4096 0.0000
# 6 0.0000 0.0000 0.0000 0.0000 0.0000 35.6948
#
#
#
# Elastic Compliance Matrix: (Units=1/GPa)
#
#
# Indices 1 2 3 4 5 6 
#
# 1 0.016802 -0.007966 -0.002509 0.000000 0.000000 0.000000
# 2 -0.007966 0.015809 -0.003120 0.000000 0.000000 0.000000
# 3 -0.002509 -0.003120 0.008463 0.000000 0.000000 0.000000
# 4 0.000000 0.000000 0.000000 0.034204 0.000000 0.000000
# 5 0.000000 0.000000 0.000000 0.000000 0.156016 0.000000
# 6 0.000000 0.000000 0.000000 0.000000 0.000000 0.028015
#
#
# Mechanical properties :
#
#
# Convention : Reuss Voigt Hill
#
# Bulk Modulus (GPa) = 72.03101 74.44756 73.23928
# Shear Modulus (GPa) = 17.17461 26.86210 22.01836
#
# Velocity S-wave (km/s) = 2.85071 3.56517 3.22777
# Velocity P-wave (km/s) = 6.70212 7.22314 6.96750
#
# Compressibility (1/GPa) = 0.01388291
#
# Stress axis : x y z
#
# Youngs Moduli (GPa) = 59.51770 63.25609 118.16406
#
# Poissons Ratio (x) = 0.50390 0.29649
# Poissons Ratio (y) = 0.47412 0.36867
# Poissons Ratio (z) = 0.14934 0.19736
#
# Static dielectric constant tensor:
#      x y z
#    x 1.843890 0.000000 0.000000 
#    y 0.000000 1.809730 0.000000 
#    z 0.000000 0.000000 1.770970 
# 
# From -- ./inp_files/4934.got.cif
#   From: 2010.05.17/outbox.cif.g08.bks.cpg/sg34_3_cif.got.tgz:4934.got - 2010.06.03 17:23:11.
