data_PCOD9347103
_publ_section_title
;
Structure prediction by ZEFSAII (Michael W. Deem and Ramdas Pophale) SiO2 
 PCOD9347103
Probable space group: P N N 2
;
_chemical_formula_sum "Si O2"
_cell_formula_units_Z 24
_cell_length_a 5.297664
_cell_length_b 7.116279
_cell_length_c 25.717487
_cell_angle_alpha 90.000000
_cell_angle_beta 90.000000
_cell_angle_gamma 90.000000
_cell_volume 969.540389
_symmetry_space_group_name_H-M "P N N 2"
_symmetry_group_IT_number 34
_symmetry_cell_setting 'orthorhombic'
loop_
_space_group_symop_operation_xyz
x,y,z
-x,-y,z
1/2-x,1/2+y,1/2+z
1/2+x,1/2-y,1/2+z
loop_
_atom_site_type_symbol
_atom_site_label
_atom_site_fract_x
_atom_site_fract_y
_atom_site_fract_z
Si Si1 0.991646 0.726905 0.446750
Si Si2 0.707895 0.229041 0.832162
Si Si3 0.505467 0.227824 0.179800
Si Si4 0.992080 0.771092 0.003419
Si Si5 0.709631 0.301892 0.292349
Si Si6 0.495114 0.727620 0.621498
O O1 0.905639 0.770340 0.388399
O O2 0.768466 0.789846 0.484983
O O3 0.000000 0.500000 0.448872
O O4 0.267883 0.788941 0.464902
O O5 0.486912 0.288250 0.792673
O O6 0.991443 0.298948 0.825169
O O7 0.747863 0.005765 0.819157
O O8 0.595817 0.305923 0.234962
O O9 0.228991 0.286958 0.160243
O O10 0.724855 0.282121 0.139283
O O11 0.500000 0.000000 0.184204
O O12 0.937531 0.714935 0.062547
O O13 0.000000 0.000000 0.002358
O O14 0.500000 0.500000 0.621975
#
# Coordination Sequence:
#
# PCOD9347103 Si02
#       6
#     4   4   4   4   4   4
#     4  10  16  25  40  62  88 124 143 175 232 287
#     4  10  19  30  45  65  99 124 154 190 237 283
#     4  10  19  31  48  63  90 130 163 192 236 268
#     4   9  17  24  40  61  87 120 150 175 224 288
#     4  10  19  30  45  65  90 133 157 191 231 283
#     4   9  17  30  42  62  89 122 156 191 227 277
#
# _framework density 24.753996000000001
#
# number of rings (size 3 to 8) (size 9 to 14) (size 15 to 20)
#    0.000    2.333    1.667    3.000    4.667    4.000 
#    0.000    0.000    0.000    0.000    0.000    0.000 
#    0.000    0.000  198.333    5.000    0.000    0.000 
#
# Total GULP energy -134161.225021 kJ/mol
# GULP energy per Si atom -5590.051043 kJ/mol
# Density = 2.469766 g / cm^3
# Si number density = 24.753996 Si / 1000 Ang^3
#
#
#
# Elastic Constant Matrix: (Units=GPa)
#
#
# Indices 1 2 3 4 5 6 
#
# 1 196.2747 -7.6673 48.9380 0.0000 0.0000 0.0000
# 2 -7.6673 117.9254 -11.5249 0.0000 0.0000 0.0000
# 3 48.9380 -11.5249 143.2377 0.0000 0.0000 0.0000
# 4 0.0000 0.0000 0.0000 -0.0685 0.0000 0.0000
# 5 0.0000 0.0000 0.0000 0.0000 55.1188 0.0000
# 6 0.0000 0.0000 0.0000 0.0000 0.0000 -20.7147
#
#
#
# Elastic Compliance Matrix: (Units=1/GPa)
#
#
# Indices 1 2 3 4 5 6 
#
# 1 0.005573 0.000178 -0.001890 0.000000 0.000000 0.000000
# 2 0.000178 0.008553 0.000627 0.000000 0.000000 0.000000
# 3 -0.001890 0.000627 0.007678 0.000000 0.000000 0.000000
# 4 0.000000 0.000000 0.000000-14.603996 0.000000 0.000000
# 5 0.000000 0.000000 0.000000 0.000000 0.018143 0.000000
# 6 0.000000 0.000000 0.000000 0.000000 0.000000 -0.048275
#
#
# Mechanical properties :
#
#
# Convention : Reuss Voigt Hill
#
# Bulk Modulus (GPa) = 50.93181 57.43658 54.18420
# Shear Modulus (GPa) = -0.34238 35.37993 17.51878
#
# Velocity S-wave (km/s) = -0.37231 3.78466 2.66318
# Velocity P-wave (km/s) = 4.52051 6.50780 5.60297
#
# Compressibility (1/GPa) = 0.01963410
#
# Stress axis : x y z
#
# Youngs Moduli (GPa) = 179.43585 116.92059 130.25010
#
# Poissons Ratio (x) = -0.02077 0.24614
# Poissons Ratio (y) = -0.03188 -0.08173
# Poissons Ratio (z) = 0.33909 -0.07336
#
# Static dielectric constant tensor:
#      x y z
#    x 1.453650 0.000000 0.000000 
#    y 0.000000 0.898770 0.000000 
#    z 0.000000 0.000000 1.908140 
# 
# From -- ./inp_files/7913.got.cif
#   From: 2010.05.17/outbox.cif.g08.bks.cpg/sg34_4_cif.got.tgz:7913.got - 2010.06.03 17:23:11.
