data_PCOD9347291
_publ_section_title
;
Structure prediction by ZEFSAII (Michael W. Deem and Ramdas Pophale) SiO2 
 PCOD9347291
Probable space group: P N N 2
;
_chemical_formula_sum "Si O2"
_cell_formula_units_Z 30
_cell_length_a 12.311366
_cell_length_b 5.544622
_cell_length_c 22.244092
_cell_angle_alpha 90.000000
_cell_angle_beta 90.000000
_cell_angle_gamma 90.000000
_cell_volume 1518.423334
_symmetry_space_group_name_H-M "P N N 2"
_symmetry_group_IT_number 34
_symmetry_cell_setting 'orthorhombic'
loop_
_space_group_symop_operation_xyz
x,y,z
-x,-y,z
1/2-x,1/2+y,1/2+z
1/2+x,1/2-y,1/2+z
loop_
_atom_site_type_symbol
_atom_site_label
_atom_site_fract_x
_atom_site_fract_y
_atom_site_fract_z
Si Si1 0.107431 0.659550 0.058840
Si Si2 0.876439 0.752256 0.871150
Si Si3 0.625182 0.747170 0.419253
Si Si4 0.886758 0.422564 0.637778
Si Si5 0.684851 0.352290 0.729001
Si Si6 0.764181 0.851167 0.754117
Si Si7 0.326560 0.578309 0.114197
Si Si8 0.500000 0.500000 0.650922
O O1 0.213420 0.521743 0.081395
O O2 0.084343 0.865664 0.107646
O O3 0.000000 0.500000 0.059288
O O4 0.121290 0.748088 0.991086
O O5 0.827916 0.498204 0.893701
O O6 0.860506 0.789034 0.800212
O O7 0.001672 0.751977 0.892785
O O8 0.824808 0.993504 0.899335
O O9 0.787367 0.380907 0.683440
O O10 0.861523 0.651505 0.595049
O O11 0.000000 0.500000 0.668424
O O12 0.898771 0.160048 0.607634
O O13 0.685018 0.618832 0.758509
O O14 0.573265 0.326936 0.692101
O O15 0.709592 0.111550 0.766592
O O16 0.805874 0.879565 0.685668
#
# Coordination Sequence:
#
# PCOD9347291 Si02
#       8
#     4   4   4   4   4   4   4   2
#     4  12  22  36  62  87 141 164 204 265 310 416
#     4  10  19  38  53  77 126 153 212 248 294 394
#     4  10  22  36  53  92 115 167 210 240 335 366
#     4  10  19  38  53  76 126 150 211 244 294 392
#     4  10  22  36  53  92 114 168 210 242 333 365
#     4  10  19  38  53  77 126 151 214 248 293 391
#     4  10  22  36  53  92 113 167 208 240 333 361
#     4  12  22  36  62  86 142 166 206 264 318 420
#
# _framework density 19.757334
#
# number of rings (size 3 to 8) (size 9 to 14) (size 15 to 20)
#    0.000    1.600    4.000    3.600    0.000    0.000 
#   28.800    0.000    0.000    0.000    0.000    0.000 
#   40.000    0.000    0.000    0.000    0.000    0.000 
#
# Total GULP energy -167072.929398 kJ/mol
# GULP energy per Si atom -5569.097647 kJ/mol
# Density = 1.971237 g / cm^3
# Si number density = 19.757334 Si / 1000 Ang^3
#
#
#
# Elastic Constant Matrix: (Units=GPa)
#
#
# Indices 1 2 3 4 5 6 
#
# 1 6.2600 32.6398 102.2472 0.0000 0.0000 0.0000
# 2 32.6398 187.7944 -8.2691 0.0000 0.0000 0.0000
# 3 102.2472 -8.2691 -11.6022 0.0000 0.0000 0.0000
# 4 0.0000 0.0000 0.0000 20.9875 0.0000 0.0000
# 5 0.0000 0.0000 0.0000 0.0000 12.8999 0.0000
# 6 0.0000 0.0000 0.0000 0.0000 0.0000 -14.1743
#
#
#
# Elastic Compliance Matrix: (Units=1/GPa)
#
#
# Indices 1 2 3 4 5 6 
#
# 1 0.001112 0.000231 0.009638 0.000000 0.000000 0.000000
# 2 0.000231 0.005211 -0.001678 0.000000 0.000000 0.000000
# 3 0.009638 -0.001678 -0.000055 0.000000 0.000000 0.000000
# 4 0.000000 0.000000 0.000000 0.047648 0.000000 0.000000
# 5 0.000000 0.000000 0.000000 0.000000 0.077520 0.000000
# 6 0.000000 0.000000 0.000000 0.000000 0.000000 -0.070550
#
#
# Mechanical properties :
#
#
# Convention : Reuss Voigt Hill
#
# Bulk Modulus (GPa) = 44.14548 48.40976 46.27762
# Shear Modulus (GPa) = 96.05510 7.66489 51.85999
#
# Velocity S-wave (km/s) = 6.98019 1.97179 5.12888
# Velocity P-wave (km/s) = 9.34646 5.45337 7.65165
#
# Compressibility (1/GPa) = 0.02265237
#
# Stress axis : x y z
#
# Youngs Moduli (GPa) = 898.98024 191.90385 -18324.69494
#
# Poissons Ratio (x) = -0.04434 176.61989
# Poissons Ratio (y) = -0.20772 -30.74160
# Poissons Ratio (z) = -8.66469 0.32194
#
# Static dielectric constant tensor:
#      x y z
#    x 1.708690 0.000000 0.000000 
#    y 0.000000 1.889230 0.000000 
#    z 0.000000 0.000000 1.705320 
# 
# From -- ./inp_files/8155.got.cif
#   From: 2010.05.17/outbox.cif.g08.bks.cpg/sg34_5_cif.got.tgz:8155.got - 2010.06.03 17:23:11.
