data_PCOD9347960
_publ_section_title
;
Structure prediction by ZEFSAII (Michael W. Deem and Ramdas Pophale) SiO2 
 PCOD9347960
Probable space group: P N N 2
;
_chemical_formula_sum "Si O2"
_cell_formula_units_Z 26
_cell_length_a 14.404350
_cell_length_b 14.911852
_cell_length_c 5.138528
_cell_angle_alpha 90.000000
_cell_angle_beta 90.000000
_cell_angle_gamma 90.000000
_cell_volume 1103.732873
_symmetry_space_group_name_H-M "P N N 2"
_symmetry_group_IT_number 34
_symmetry_cell_setting 'orthorhombic'
loop_
_space_group_symop_operation_xyz
x,y,z
-x,-y,z
1/2-x,1/2+y,1/2+z
1/2+x,1/2-y,1/2+z
loop_
_atom_site_type_symbol
_atom_site_label
_atom_site_fract_x
_atom_site_fract_y
_atom_site_fract_z
Si Si1 0.464884 0.366427 0.738120
Si Si2 0.044959 0.660602 0.254298
Si Si3 0.500000 0.000000 0.130718
Si Si4 0.228773 0.950918 0.135394
Si Si5 0.919804 0.843699 0.723963
Si Si6 0.887778 0.649317 0.851445
Si Si7 0.270891 0.064698 0.629456
O O1 0.430747 0.264276 0.793620
O O2 0.379112 0.424890 0.638479
O O3 0.537674 0.364583 0.503430
O O4 0.519151 0.390810 0.001614
O O5 0.132497 0.618112 0.099793
O O6 0.038010 0.584722 0.473942
O O7 0.941894 0.662606 0.123437
O O8 0.422488 0.951134 0.293691
O O9 0.282193 0.864884 0.262980
O O10 0.241519 0.027440 0.350257
O O11 0.267811 0.985380 0.854060
O O12 0.924136 0.735448 0.693317
O O13 0.812920 0.871117 0.716912
#
# Coordination Sequence:
#
# PCOD9347960 Si02
#       7
#     4   4   2   4   4   4   4
#     4  11  25  46  69  99 136 181 227 281 336 398
#     4  11  24  42  67 101 134 174 221 282 345 402
#     4  12  18  40  68  90 136 164 214 276 338 388
#     4  12  26  44  70 100 137 181 228 277 336 405
#     4  11  25  46  69  99 136 181 227 281 336 398
#     4  11  24  42  67 101 134 174 221 282 345 402
#     4  12  26  44  70 100 137 181 228 277 336 405
#
# _framework density 23.556422000000001
#
# number of rings (size 3 to 8) (size 9 to 14) (size 15 to 20)
#    0.000    0.615    3.077    5.077    0.000    3.692 
#    0.000    7.692    0.000    0.000    0.000    0.000 
#    0.000    0.000    0.000    0.000    0.000    0.000 
#
# Total GULP energy -145035.042094 kJ/mol
# GULP energy per Si atom -5578.270850 kJ/mol
# Density = 2.350281 g / cm^3
# Si number density = 23.556422 Si / 1000 Ang^3
#
#
#
# Elastic Constant Matrix: (Units=GPa)
#
#
# Indices 1 2 3 4 5 6 
#
# 1 49.4655 7.4274 -9.2401 0.0000 0.0000 0.0000
# 2 7.4274 77.5774 5.0824 0.0000 0.0000 0.0000
# 3 -9.2401 5.0824 73.4819 0.0000 0.0000 0.0000
# 4 0.0000 0.0000 0.0000 15.7309 0.0000 0.0000
# 5 0.0000 0.0000 0.0000 0.0000 17.2079 0.0000
# 6 0.0000 0.0000 0.0000 0.0000 0.0000 42.7573
#
#
#
# Elastic Compliance Matrix: (Units=1/GPa)
#
#
# Indices 1 2 3 4 5 6 
#
# 1 0.021070 -0.002201 0.002802 0.000000 0.000000 0.000000
# 2 -0.002201 0.013179 -0.001188 0.000000 0.000000 0.000000
# 3 0.002802 -0.001188 0.014043 0.000000 0.000000 0.000000
# 4 0.000000 0.000000 0.000000 0.063569 0.000000 0.000000
# 5 0.000000 0.000000 0.000000 0.000000 0.058113 0.000000
# 6 0.000000 0.000000 0.000000 0.000000 0.000000 0.023388
#
#
# Mechanical properties :
#
#
# Convention : Reuss Voigt Hill
#
# Bulk Modulus (GPa) = 21.22362 23.00713 22.11537
# Shear Modulus (GPa) = 23.78205 28.28955 26.03580
#
# Velocity S-wave (km/s) = 3.18083 3.46920 3.32814
# Velocity P-wave (km/s) = 4.74547 5.08283 4.91704
#
# Compressibility (1/GPa) = 0.04711732
#
# Stress axis : x y z
#
# Youngs Moduli (GPa) = 47.46102 75.87878 71.20838
#
# Poissons Ratio (x) = 0.16700 -0.19950
# Poissons Ratio (y) = 0.10445 0.08462
# Poissons Ratio (z) = -0.13297 0.09017
#
# Static dielectric constant tensor:
#      x y z
#    x 2.176390 0.000000 0.000000 
#    y 0.000000 1.980670 0.000000 
#    z 0.000000 0.000000 1.937340 
# 
# From -- ./inp_files/1252.got.cif
#   From: 2010.05.17/outbox.cif.g08.bks.cpg/sg34_1_cif.got.tgz:1252.got - 2010.06.03 17:23:11.
