data_PCOD9347955
_publ_section_title
;
Structure prediction by ZEFSAII (Michael W. Deem and Ramdas Pophale) SiO2 
 PCOD9347955
Probable space group: P N N 2
;
_chemical_formula_sum "Si O2"
_cell_formula_units_Z 16
_cell_length_a 5.495165
_cell_length_b 4.999077
_cell_length_c 23.565390
_cell_angle_alpha 90.000000
_cell_angle_beta 90.000000
_cell_angle_gamma 90.000000
_cell_volume 647.359007
_symmetry_space_group_name_H-M "P N N 2"
_symmetry_group_IT_number 34
_symmetry_cell_setting 'orthorhombic'
loop_
_space_group_symop_operation_xyz
x,y,z
-x,-y,z
1/2-x,1/2+y,1/2+z
1/2+x,1/2-y,1/2+z
loop_
_atom_site_type_symbol
_atom_site_label
_atom_site_fract_x
_atom_site_fract_y
_atom_site_fract_z
Si Si1 0.843109 0.241929 0.834030
Si Si2 0.000000 0.500000 0.511826
Si Si3 0.000000 0.000000 0.428004
Si Si4 0.247412 0.170193 0.212472
Si Si5 0.257500 0.849822 0.586085
O O1 0.674735 0.352139 0.883235
O O2 0.748626 0.162975 0.771497
O O3 0.000000 0.500000 0.820350
O O4 0.000000 0.000000 0.857295
O O5 0.048531 0.750848 0.469879
O O6 0.780574 0.440065 0.556535
O O7 0.228448 0.327999 0.153887
O O8 0.500000 0.000000 0.206780
O O9 0.000000 0.000000 0.216568
O O10 0.500000 0.000000 0.564911
O O11 0.000000 0.000000 0.575035
#
# Coordination Sequence:
#
# PCOD9347955 Si02
#       5
#     4   2   2   4   4
#     4  11  25  47  76 114 156 210 266 336 409 483
#     4  12  28  50  78 112 160 216 270 332 398 488
#     4  12  26  52  74 114 154 212 272 330 396 488
#     4  11  23  45  78 117 161 205 262 338 414 488
#     4  12  27  50  79 117 159 212 269 337 412 488
#
# _framework density 24.715803999999999
#
# number of rings (size 3 to 8) (size 9 to 14) (size 15 to 20)
#    0.000    0.500    3.750    3.750    0.000    5.000 
#    6.750    0.000    0.000    0.000    0.000    0.000 
#    0.000    0.000    0.000    0.000    0.000    0.000 
#
# Total GULP energy -89242.491747 kJ/mol
# GULP energy per Si atom -5577.655734 kJ/mol
# Density = 2.465955 g / cm^3
# Si number density = 24.715804 Si / 1000 Ang^3
#
#
#
# Elastic Constant Matrix: (Units=GPa)
#
#
# Indices 1 2 3 4 5 6 
#
# 1 169.4150 66.5468 30.7336 0.0000 0.0000 0.0000
# 2 66.5468 131.1282 34.5729 0.0000 0.0000 0.0000
# 3 30.7336 34.5729 180.9749 0.0000 0.0000 0.0000
# 4 0.0000 0.0000 0.0000 13.6069 0.0000 0.0000
# 5 0.0000 0.0000 0.0000 0.0000 -11.1838 0.0000
# 6 0.0000 0.0000 0.0000 0.0000 0.0000 70.7860
#
#
#
# Elastic Compliance Matrix: (Units=1/GPa)
#
#
# Indices 1 2 3 4 5 6 
#
# 1 0.007428 -0.003619 -0.000570 0.000000 0.000000 0.000000
# 2 -0.003619 0.009794 -0.001256 0.000000 0.000000 0.000000
# 3 -0.000570 -0.001256 0.005862 0.000000 0.000000 0.000000
# 4 0.000000 0.000000 0.000000 0.073492 0.000000 0.000000
# 5 0.000000 0.000000 0.000000 0.000000 -0.089415 0.000000
# 6 0.000000 0.000000 0.000000 0.000000 0.000000 0.014127
#
#
# Mechanical properties :
#
#
# Convention : Reuss Voigt Hill
#
# Bulk Modulus (GPa) = 82.01415 82.80273 82.40844
# Shear Modulus (GPa) = 137.95353 37.95282 87.95317
#
# Velocity S-wave (km/s) = 7.47911 3.92288 5.97186
# Velocity P-wave (km/s) = 10.38449 7.35482 8.99808
#
# Compressibility (1/GPa) = 0.01219302
#
# Stress axis : x y z
#
# Youngs Moduli (GPa) = 134.63090 102.10195 170.57730
#
# Poissons Ratio (x) = 0.36953 0.09723
# Poissons Ratio (y) = 0.48726 0.21432
# Poissons Ratio (z) = 0.07674 0.12828
#
# Static dielectric constant tensor:
#      x y z
#    x 1.988050 0.000000 0.000000 
#    y 0.000000 2.032240 0.000000 
#    z 0.000000 0.000000 2.085700 
# 
# From -- ./inp_files/8197.got.cif
#   From: 2010.05.17/outbox.cif.g08.bks.cpg/sg34_5_cif.got.tgz:8197.got - 2010.06.03 17:23:11.
