data_PCOD9347240
_publ_section_title
;
Structure prediction by ZEFSAII (Michael W. Deem and Ramdas Pophale) SiO2 
 PCOD9347240
Probable space group: P N N 2
;
_chemical_formula_sum "Si O2"
_cell_formula_units_Z 24
_cell_length_a 7.366402
_cell_length_b 26.433596
_cell_length_c 5.153749
_cell_angle_alpha 90.000000
_cell_angle_beta 90.000000
_cell_angle_gamma 90.000000
_cell_volume 1003.540554
_symmetry_space_group_name_H-M "P N N 2"
_symmetry_group_IT_number 34
_symmetry_cell_setting 'orthorhombic'
loop_
_space_group_symop_operation_xyz
x,y,z
-x,-y,z
1/2-x,1/2+y,1/2+z
1/2+x,1/2-y,1/2+z
loop_
_atom_site_type_symbol
_atom_site_label
_atom_site_fract_x
_atom_site_fract_y
_atom_site_fract_z
Si Si1 0.454972 0.445960 0.289510
Si Si2 0.636350 0.110859 0.562658
Si Si3 0.323463 0.300280 0.279013
Si Si4 0.909636 0.553594 0.559303
Si Si5 0.688708 0.302462 0.018013
Si Si6 0.140124 0.141870 0.013481
O O1 0.500000 0.500000 0.172331
O O2 0.619580 0.415231 0.416459
O O3 0.304622 0.455734 0.511617
O O4 0.345220 0.410483 0.088255
O O5 0.659696 0.168942 0.646049
O O6 0.534914 0.079011 0.786073
O O7 0.565917 0.094290 0.285588
O O8 0.276443 0.248683 0.419161
O O9 0.431359 0.336790 0.481069
O O10 0.475635 0.290587 0.062053
O O11 0.000000 0.500000 0.614108
O O12 0.705888 0.345011 0.797634
O O13 0.744051 0.324952 0.296652
#
# Coordination Sequence:
#
# PCOD9347240 Si02
#       6
#     4   4   4   4   4   4
#     4   9  20  37  61  80 113 151 190 228 288 334
#     4   9  20  35  58  79 110 148 193 221 284 344
#     4   9  21  35  60  80 110 152 188 231 288 345
#     4  10  19  35  57  80 110 147 187 233 274 338
#     4  10  20  34  59  77 114 140 193 231 283 337
#     4   9  21  36  57  82 110 146 193 229 279 349
#
# _framework density 23.915330000000001
#
# number of rings (size 3 to 8) (size 9 to 14) (size 15 to 20)
#    2.000    0.667    0.000    1.500    2.333    0.667 
#    0.000    1.667    0.000    0.000    0.000    0.000 
#    0.000    0.000    0.000    0.000    0.000    0.000 
#
# Total GULP energy -133899.651731 kJ/mol
# GULP energy per Si atom -5579.152155 kJ/mol
# Density = 2.386090 g / cm^3
# Si number density = 23.915330 Si / 1000 Ang^3
#
#
#
# Elastic Constant Matrix: (Units=GPa)
#
#
# Indices 1 2 3 4 5 6 
#
# 1 62.4727 23.1366 -1.0489 0.0000 0.0000 0.0000
# 2 23.1366 90.7927 -18.7519 0.0000 0.0000 0.0000
# 3 -1.0489 -18.7519 84.6494 0.0000 0.0000 0.0000
# 4 0.0000 0.0000 0.0000 24.2418 0.0000 0.0000
# 5 0.0000 0.0000 0.0000 0.0000 -10.0405 0.0000
# 6 0.0000 0.0000 0.0000 0.0000 0.0000 31.8273
#
#
#
# Elastic Compliance Matrix: (Units=1/GPa)
#
#
# Indices 1 2 3 4 5 6 
#
# 1 0.017729 -0.004687 -0.000819 0.000000 0.000000 0.000000
# 2 -0.004687 0.012781 0.002773 0.000000 0.000000 0.000000
# 3 -0.000819 0.002773 0.012418 0.000000 0.000000 0.000000
# 4 0.000000 0.000000 0.000000 0.041251 0.000000 0.000000
# 5 0.000000 0.000000 0.000000 0.000000 -0.099597 0.000000
# 6 0.000000 0.000000 0.000000 0.000000 0.000000 0.031420
#
#
# Mechanical properties :
#
#
# Convention : Reuss Voigt Hill
#
# Bulk Modulus (GPa) = 26.69268 27.17626 26.93447
# Shear Modulus (GPa) = 147.25856 24.84432 86.05144
#
# Velocity S-wave (km/s) = 7.85548 3.22661 6.00498
# Velocity P-wave (km/s) = 9.66766 5.02688 7.70497
#
# Compressibility (1/GPa) = 0.03746345
#
# Stress axis : x y z
#
# Youngs Moduli (GPa) = 56.40463 78.23956 80.53056
#
# Poissons Ratio (x) = 0.36670 0.06592
# Poissons Ratio (y) = 0.26437 -0.22333
# Poissons Ratio (z) = 0.04617 -0.21698
#
# Static dielectric constant tensor:
#      x y z
#    x 1.996180 0.000000 0.000000 
#    y 0.000000 1.907340 0.000000 
#    z 0.000000 0.000000 1.871040 
# 
# From -- ./inp_files/564.got.cif
#   From: 2010.05.17/outbox.cif.g08.bks.cpg/sg34_1_cif.got.tgz:564.got - 2010.06.03 17:23:11.
