data_PCOD9347119
_publ_section_title
;
Structure prediction by ZEFSAII (Michael W. Deem and Ramdas Pophale) SiO2 
 PCOD9347119
Probable space group: P N N 2
;
_chemical_formula_sum "Si O2"
_cell_formula_units_Z 28
_cell_length_a 13.193379
_cell_length_b 5.012224
_cell_length_c 25.419120
_cell_angle_alpha 90.000000
_cell_angle_beta 90.000000
_cell_angle_gamma 90.000000
_cell_volume 1680.919911
_symmetry_space_group_name_H-M "P N N 2"
_symmetry_group_IT_number 34
_symmetry_cell_setting 'orthorhombic'
loop_
_space_group_symop_operation_xyz
x,y,z
-x,-y,z
1/2-x,1/2+y,1/2+z
1/2+x,1/2-y,1/2+z
loop_
_atom_site_type_symbol
_atom_site_label
_atom_site_fract_x
_atom_site_fract_y
_atom_site_fract_z
Si Si1 0.114071 0.972076 0.078350
Si Si2 0.177927 0.463505 0.013293
Si Si3 0.122452 0.503382 0.894636
Si Si4 0.429174 0.753749 0.228326
Si Si5 0.674885 0.978857 0.128017
Si Si6 0.614057 0.483384 0.064183
Si Si7 0.376837 0.507007 0.331460
O O1 0.134324 0.682075 0.053828
O O2 0.203625 0.030342 0.120254
O O3 0.128763 0.183992 0.030770
O O4 0.000000 0.000000 0.098752
O O5 0.297963 0.442973 0.023519
O O6 0.155786 0.549482 0.954150
O O7 0.158097 0.217133 0.874774
O O8 0.000000 0.500000 0.895042
O O9 0.156960 0.720080 0.851602
O O10 0.500000 0.500000 0.211945
O O11 0.366776 0.895859 0.181857
O O12 0.358214 0.626487 0.273613
O O13 0.500000 0.000000 0.249475
O O14 0.635366 0.185763 0.084138
O O15 0.630184 0.690660 0.112735
O O16 0.500000 0.500000 0.044691
O O17 0.500000 0.500000 0.332173
#
# Coordination Sequence:
#
# PCOD9347119 Si02
#       7
#     4   4   4   4   4   4   4
#     4  10  19  32  46  67  96 122 154 193 224 269
#     4  10  20  30  47  69  91 125 157 182 230 278
#     4  10  17  28  43  62  89 117 146 181 223 272
#     4  11  19  30  46  66  94 123 152 188 231 279
#     4  10  20  30  47  69  91 125 157 182 229 277
#     4  10  19  32  46  67  96 122 154 192 223 269
#     4   9  18  28  41  62  88 116 145 182 226 270
#
# _framework density 16.657544000000001
#
# number of rings (size 3 to 8) (size 9 to 14) (size 15 to 20)
#    0.000    2.000    0.000    6.857    0.000    1.143 
#    0.000    0.000    0.000    0.000    0.000    1.000 
#    0.000    6.857    0.000    0.000    0.000    1.143 
#
# Total GULP energy -156050.431486 kJ/mol
# GULP energy per Si atom -5573.229696 kJ/mol
# Density = 1.661963 g / cm^3
# Si number density = 16.657544 Si / 1000 Ang^3
#
#
#
# Elastic Constant Matrix: (Units=GPa)
#
#
# Indices 1 2 3 4 5 6 
#
# 1 84.9747 17.0098 13.0136 0.0000 0.0000 0.0000
# 2 17.0098 75.4432 5.6607 0.0000 0.0000 0.0000
# 3 13.0136 5.6607 66.0361 0.0000 0.0000 0.0000
# 4 0.0000 0.0000 0.0000 23.6102 0.0000 0.0000
# 5 0.0000 0.0000 0.0000 0.0000 16.5358 0.0000
# 6 0.0000 0.0000 0.0000 0.0000 0.0000 13.7372
#
#
#
# Elastic Compliance Matrix: (Units=1/GPa)
#
#
# Indices 1 2 3 4 5 6 
#
# 1 0.012652 -0.002683 -0.002263 0.000000 0.000000 0.000000
# 2 -0.002683 0.013910 -0.000664 0.000000 0.000000 0.000000
# 3 -0.002263 -0.000664 0.015646 0.000000 0.000000 0.000000
# 4 0.000000 0.000000 0.000000 0.042355 0.000000 0.000000
# 5 0.000000 0.000000 0.000000 0.000000 0.060475 0.000000
# 6 0.000000 0.000000 0.000000 0.000000 0.000000 0.072795
#
#
# Mechanical properties :
#
#
# Convention : Reuss Voigt Hill
#
# Bulk Modulus (GPa) = 32.27031 33.09136 32.68083
# Shear Modulus (GPa) = 20.88718 23.49462 22.19090
#
# Velocity S-wave (km/s) = 3.54491 3.75967 3.65387
# Velocity P-wave (km/s) = 6.01415 6.22540 6.12069
#
# Compressibility (1/GPa) = 0.03098824
#
# Stress axis : x y z
#
# Youngs Moduli (GPa) = 79.03988 71.89250 63.91345
#
# Poissons Ratio (x) = 0.19287 0.14466
# Poissons Ratio (y) = 0.21204 0.04242
# Poissons Ratio (z) = 0.17889 0.04771
#
# Static dielectric constant tensor:
#      x y z
#    x 1.563750 0.000000 0.000000 
#    y 0.000000 1.589900 0.000000 
#    z 0.000000 0.000000 1.578510 
# 
# From -- ./inp_files/8458.got.cif
#   From: 2010.05.17/outbox.cif.g08.bks.cpg/sg34_5_cif.got.tgz:8458.got - 2010.06.03 17:23:11.
