data_PCOD9347313
_publ_section_title
;
Structure prediction by ZEFSAII (Michael W. Deem and Ramdas Pophale) SiO2 
 PCOD9347313
Probable space group: P N N 2
;
_chemical_formula_sum "Si O2"
_cell_formula_units_Z 24
_cell_length_a 10.605377
_cell_length_b 11.799826
_cell_length_c 9.349803
_cell_angle_alpha 90.000000
_cell_angle_beta 90.000000
_cell_angle_gamma 90.000000
_cell_volume 1170.049338
_symmetry_space_group_name_H-M "P N N 2"
_symmetry_group_IT_number 34
_symmetry_cell_setting 'orthorhombic'
loop_
_space_group_symop_operation_xyz
x,y,z
-x,-y,z
1/2-x,1/2+y,1/2+z
1/2+x,1/2-y,1/2+z
loop_
_atom_site_type_symbol
_atom_site_label
_atom_site_fract_x
_atom_site_fract_y
_atom_site_fract_z
Si Si1 0.246969 0.567972 0.703780
Si Si2 0.693100 0.852976 0.639610
Si Si3 0.028459 0.633916 0.900844
Si Si4 0.139837 0.971244 0.477938
Si Si5 0.892581 0.664079 0.631667
Si Si6 0.156310 0.701303 0.467113
O O1 0.155990 0.640020 0.807981
O O2 0.348017 0.520897 0.816037
O O3 0.170596 0.459446 0.641376
O O4 0.265040 0.647896 0.568066
O O5 0.561655 0.828913 0.558612
O O6 0.791269 0.756848 0.589704
O O7 0.671201 0.846330 0.807845
O O8 0.755370 0.968657 0.578388
O O9 0.000000 0.500000 0.905856
O O10 0.928102 0.691057 0.797818
O O11 0.160651 0.837261 0.469758
O O12 0.000000 0.000000 0.532700
O O13 0.018811 0.668350 0.535814
#
# Coordination Sequence:
#
# PCOD9347313 Si02
#       6
#     4   4   4   4   4   4
#     4   9  20  41  64  86 126 171 206 251 316 377
#     4  11  22  39  64  97 120 167 211 259 314 374
#     4   8  18  36  60  85 120 165 201 245 309 372
#     4  11  22  43  64  94 133 166 204 264 324 371
#     4  10  19  41  63  86 129 164 206 260 312 372
#     4  11  22  41  64  92 125 168 212 262 313 370
#
# _framework density 20.511953999999999
#
# number of rings (size 3 to 8) (size 9 to 14) (size 15 to 20)
#    0.000    2.000    3.333    1.500    0.000    1.333 
#   12.000    0.833    0.000    0.000    0.000    0.000 
#    0.000    0.000    0.000    0.000    0.000    0.000 
#
# Total GULP energy -133761.866417 kJ/mol
# GULP energy per Si atom -5573.411101 kJ/mol
# Density = 2.046527 g / cm^3
# Si number density = 20.511954 Si / 1000 Ang^3
#
#
#
# Elastic Constant Matrix: (Units=GPa)
#
#
# Indices 1 2 3 4 5 6 
#
# 1 49.5384 11.2332 24.0419 0.0000 0.0000 0.0000
# 2 11.2332 60.5022 46.7078 0.0000 0.0000 0.0000
# 3 24.0419 46.7078 141.2708 0.0000 0.0000 0.0000
# 4 0.0000 0.0000 0.0000 19.7520 0.0000 0.0000
# 5 0.0000 0.0000 0.0000 0.0000 27.1890 0.0000
# 6 0.0000 0.0000 0.0000 0.0000 0.0000 15.4947
#
#
#
# Elastic Compliance Matrix: (Units=1/GPa)
#
#
# Indices 1 2 3 4 5 6 
#
# 1 0.022120 -0.001612 -0.003231 0.000000 0.000000 0.000000
# 2 -0.001612 0.022310 -0.007102 0.000000 0.000000 0.000000
# 3 -0.003231 -0.007102 0.009977 0.000000 0.000000 0.000000
# 4 0.000000 0.000000 0.000000 0.050628 0.000000 0.000000
# 5 0.000000 0.000000 0.000000 0.000000 0.036780 0.000000
# 6 0.000000 0.000000 0.000000 0.000000 0.000000 0.064538
#
#
# Mechanical properties :
#
#
# Convention : Reuss Voigt Hill
#
# Bulk Modulus (GPa) = 32.76987 46.14190 39.45588
# Shear Modulus (GPa) = 20.79728 23.77573 22.28650
#
# Velocity S-wave (km/s) = 3.18765 3.40827 3.29981
# Velocity P-wave (km/s) = 5.43680 6.16704 5.81340
#
# Compressibility (1/GPa) = 0.03051584
#
# Stress axis : x y z
#
# Youngs Moduli (GPa) = 45.20746 44.82208 100.23412
#
# Poissons Ratio (x) = 0.07227 0.32390
# Poissons Ratio (y) = 0.07289 0.71186
# Poissons Ratio (z) = 0.14608 0.31833
#
# Static dielectric constant tensor:
#      x y z
#    x 1.808870 0.000000 0.000000 
#    y 0.000000 1.731460 0.000000 
#    z 0.000000 0.000000 1.765600 
# 
# From -- ./inp_files/3149.got.cif
#   From: 2010.05.17/outbox.cif.g08.bks.cpg/sg34_2_cif.got.tgz:3149.got - 2010.06.03 17:23:11.
