data_PCOD9347886
_publ_section_title
;
Structure prediction by ZEFSAII (Michael W. Deem and Ramdas Pophale) SiO2 
 PCOD9347886
Probable space group: P N N 2
;
_chemical_formula_sum "Si O2"
_cell_formula_units_Z 22
_cell_length_a 31.638352
_cell_length_b 5.197863
_cell_length_c 5.114251
_cell_angle_alpha 90.000000
_cell_angle_beta 90.000000
_cell_angle_gamma 90.000000
_cell_volume 841.047881
_symmetry_space_group_name_H-M "P N N 2"
_symmetry_group_IT_number 34
_symmetry_cell_setting 'orthorhombic'
loop_
_space_group_symop_operation_xyz
x,y,z
-x,-y,z
1/2-x,1/2+y,1/2+z
1/2+x,1/2-y,1/2+z
loop_
_atom_site_type_symbol
_atom_site_label
_atom_site_fract_x
_atom_site_fract_y
_atom_site_fract_z
Si Si1 0.207448 0.127070 0.146590
Si Si2 0.196539 0.624363 0.476952
Si Si3 0.860440 0.034203 0.795354
Si Si4 0.072062 0.333814 0.617000
Si Si5 0.072939 0.688099 0.112784
Si Si6 0.000000 0.000000 0.835944
O O1 0.198432 0.847688 0.261074
O O2 0.179800 0.134649 0.884097
O O3 0.192842 0.354419 0.334025
O O4 0.257677 0.144331 0.113080
O O5 0.159153 0.711653 0.665376
O O6 0.928225 0.452207 0.391106
O O7 0.889006 0.117401 0.042812
O O8 0.891098 0.878626 0.602237
O O9 0.078249 0.466171 0.897164
O O10 0.028142 0.181517 0.650174
O O11 0.030610 0.835450 0.023356
#
# Coordination Sequence:
#
# PCOD9347886 Si02
#       6
#     4   4   4   4   4   2
#     4  12  28  49  79 116 163 223 294 359 430 502
#     4  12  28  49  79 116 163 223 294 359 430 502
#     4  11  30  47  78 118 170 218 288 354 435 508
#     4  11  28  51  83 121 168 219 275 352 433 518
#     4  11  28  51  83 121 168 219 275 352 433 518
#     4  10  26  54  84 124 160 218 278 346 422 530
#
# _framework density 26.157848000000001
#
# number of rings (size 3 to 8) (size 9 to 14) (size 15 to 20)
#    0.000    0.727    1.818    1.636   10.182    8.727 
#    0.000    5.455    0.000    0.000    0.000    0.000 
#    0.000    0.000    0.000    0.000    0.000    0.000 
#
# Total GULP energy -123572.157867 kJ/mol
# GULP energy per Si atom -5616.916267 kJ/mol
# Density = 2.609831 g / cm^3
# Si number density = 26.157848 Si / 1000 Ang^3
#
#
#
# Elastic Constant Matrix: (Units=GPa)
#
#
# Indices 1 2 3 4 5 6 
#
# 1 168.6029 38.5454 22.5037 0.0000 0.0000 0.0000
# 2 38.5454 76.6571 37.2582 0.0000 0.0000 0.0000
# 3 22.5037 37.2582 91.1584 0.0000 0.0000 0.0000
# 4 0.0000 0.0000 0.0000 62.2726 0.0000 0.0000
# 5 0.0000 0.0000 0.0000 0.0000 21.8697 0.0000
# 6 0.0000 0.0000 0.0000 0.0000 0.0000 49.9804
#
#
#
# Elastic Compliance Matrix: (Units=1/GPa)
#
#
# Indices 1 2 3 4 5 6 
#
# 1 0.006710 -0.003206 -0.000346 0.000000 0.000000 0.000000
# 2 -0.003206 0.017811 -0.006488 0.000000 0.000000 0.000000
# 3 -0.000346 -0.006488 0.013707 0.000000 0.000000 0.000000
# 4 0.000000 0.000000 0.000000 0.016058 0.000000 0.000000
# 5 0.000000 0.000000 0.000000 0.000000 0.045725 0.000000
# 6 0.000000 0.000000 0.000000 0.000000 0.000000 0.020008
#
#
# Mechanical properties :
#
#
# Convention : Reuss Voigt Hill
#
# Bulk Modulus (GPa) = 55.10356 59.22591 57.16473
# Shear Modulus (GPa) = 34.21166 42.69862 38.45514
#
# Velocity S-wave (km/s) = 3.62040 4.04461 3.83837
# Velocity P-wave (km/s) = 6.21192 6.67104 6.44557
#
# Compressibility (1/GPa) = 0.01814765
#
# Stress axis : x y z
#
# Youngs Moduli (GPa) = 149.02669 56.14652 72.95434
#
# Poissons Ratio (x) = 0.17999 0.02526
# Poissons Ratio (y) = 0.47775 0.47334
# Poissons Ratio (z) = 0.05160 0.36428
#
# Static dielectric constant tensor:
#      x y z
#    x 2.062270 0.000000 0.000000 
#    y 0.000000 2.066880 0.000000 
#    z 0.000000 0.000000 2.039020 
# 
# From -- ./inp_files/4110.got.cif
#   From: 2010.05.17/outbox.cif.g08.bks.cpg/sg34_3_cif.got.tgz:4110.got - 2010.06.03 17:23:11.
