data_PCOD9347121
_publ_section_title
;
Structure prediction by ZEFSAII (Michael W. Deem and Ramdas Pophale) SiO2 
 PCOD9347121
Probable space group: P N N 2
;
_chemical_formula_sum "Si O2"
_cell_formula_units_Z 26
_cell_length_a 7.789401
_cell_length_b 7.680427
_cell_length_c 20.635593
_cell_angle_alpha 90.000000
_cell_angle_beta 90.000000
_cell_angle_gamma 90.000000
_cell_volume 1234.543455
_symmetry_space_group_name_H-M "P N N 2"
_symmetry_group_IT_number 34
_symmetry_cell_setting 'orthorhombic'
loop_
_space_group_symop_operation_xyz
x,y,z
-x,-y,z
1/2-x,1/2+y,1/2+z
1/2+x,1/2-y,1/2+z
loop_
_atom_site_type_symbol
_atom_site_label
_atom_site_fract_x
_atom_site_fract_y
_atom_site_fract_z
Si Si1 0.843857 0.887993 0.759650
Si Si2 0.854915 0.192456 0.568171
Si Si3 0.000000 0.500000 0.332932
Si Si4 0.688372 0.295019 0.122210
Si Si5 0.016625 0.714427 0.025559
Si Si6 0.943199 0.187840 0.421921
Si Si7 0.953213 0.699537 0.886394
O O1 0.672980 0.972851 0.790969
O O2 0.771875 0.782047 0.698142
O O3 0.947194 0.797237 0.818545
O O4 0.000000 0.000000 0.729836
O O5 0.668815 0.271770 0.553068
O O6 0.956095 0.189381 0.499317
O O7 0.997576 0.280724 0.612656
O O8 0.820141 0.000227 0.598785
O O9 0.031354 0.337306 0.380682
O O10 0.835187 0.226972 0.074198
O O11 0.000000 0.500000 0.022435
O O12 0.052458 0.767021 0.950619
O O13 0.742320 0.206407 0.409566
O O14 0.000000 0.000000 0.397867
O O15 0.000000 0.500000 0.875081
#
# Coordination Sequence:
#
# PCOD9347121 Si02
#       7
#     4   4   2   4   4   4   4
#     4  11  23  36  54  85 126 155 189 252 311 359
#     4   9  16  29  52  81 102 137 199 235 278 354
#     4  10  26  38  54  94 124 152 200 246 300 374
#     4  10  17  29  52  83 110 147 200 236 288 365
#     4   8  16  28  51  79 103 133 190 253 273 336
#     4  10  19  37  61  86 117 153 195 251 305 347
#     4   9  20  36  56  86 111 150 206 243 297 372
#
# _framework density 21.060417000000001
#
# number of rings (size 3 to 8) (size 9 to 14) (size 15 to 20)
#    0.000    2.462    3.077    0.923    5.385    0.000 
#    0.000    0.000    1.692    0.000    0.000    0.000 
#    0.000    0.000    0.000    0.000    0.000    0.000 
#
# Total GULP energy -144751.824771 kJ/mol
# GULP energy per Si atom -5567.377876 kJ/mol
# Density = 2.101248 g / cm^3
# Si number density = 21.060417 Si / 1000 Ang^3
#
#
#
# Elastic Constant Matrix: (Units=GPa)
#
#
# Indices 1 2 3 4 5 6 
#
# 1 96.7606 7.3981 48.2936 0.0000 0.0000 0.0000
# 2 7.3981 41.7312 29.6158 0.0000 0.0000 0.0000
# 3 48.2936 29.6158 151.5717 0.0000 0.0000 0.0000
# 4 0.0000 0.0000 0.0000 24.9629 0.0000 0.0000
# 5 0.0000 0.0000 0.0000 0.0000 52.4856 0.0000
# 6 0.0000 0.0000 0.0000 0.0000 0.0000 9.4515
#
#
#
# Elastic Compliance Matrix: (Units=1/GPa)
#
#
# Indices 1 2 3 4 5 6 
#
# 1 0.012307 0.000698 -0.004057 0.000000 0.000000 0.000000
# 2 0.000698 0.027860 -0.005666 0.000000 0.000000 0.000000
# 3 -0.004057 -0.005666 0.008997 0.000000 0.000000 0.000000
# 4 0.000000 0.000000 0.000000 0.040059 0.000000 0.000000
# 5 0.000000 0.000000 0.000000 0.000000 0.019053 0.000000
# 6 0.000000 0.000000 0.000000 0.000000 0.000000 0.105803
#
#
# Mechanical properties :
#
#
# Convention : Reuss Voigt Hill
#
# Bulk Modulus (GPa) = 32.14102 51.18650 41.66376
# Shear Modulus (GPa) = 20.61840 31.03039 25.82440
#
# Velocity S-wave (km/s) = 3.13231 3.84265 3.50552
# Velocity P-wave (km/s) = 5.32694 6.63667 6.01754
#
# Compressibility (1/GPa) = 0.03111289
#
# Stress axis : x y z
#
# Youngs Moduli (GPa) = 81.25779 35.89345 111.14333
#
# Poissons Ratio (x) = -0.02505 0.45096
# Poissons Ratio (y) = -0.05670 0.62973
# Poissons Ratio (z) = 0.32970 0.20337
#
# Static dielectric constant tensor:
#      x y z
#    x 1.717010 0.000000 0.000000 
#    y 0.000000 1.809290 0.000000 
#    z 0.000000 0.000000 1.822130 
# 
# From -- ./inp_files/7549.got.cif
#   From: 2010.05.17/outbox.cif.g08.bks.cpg/sg34_4_cif.got.tgz:7549.got - 2010.06.03 17:23:11.
