data_PCOD9347846
_publ_section_title
;
Structure prediction by ZEFSAII (Michael W. Deem and Ramdas Pophale) SiO2 
 PCOD9347846
Probable space group: P N N 2
;
_chemical_formula_sum "Si O2"
_cell_formula_units_Z 14
_cell_length_a 6.671080
_cell_length_b 17.063301
_cell_length_c 5.245915
_cell_angle_alpha 90.000000
_cell_angle_beta 90.000000
_cell_angle_gamma 90.000000
_cell_volume 597.145893
_symmetry_space_group_name_H-M "P N N 2"
_symmetry_group_IT_number 34
_symmetry_cell_setting 'orthorhombic'
loop_
_space_group_symop_operation_xyz
x,y,z
-x,-y,z
1/2-x,1/2+y,1/2+z
1/2+x,1/2-y,1/2+z
loop_
_atom_site_type_symbol
_atom_site_label
_atom_site_fract_x
_atom_site_fract_y
_atom_site_fract_z
Si Si1 0.190124 0.378835 0.017740
Si Si2 0.381778 0.788136 0.009282
Si Si3 0.500000 0.500000 0.199038
Si Si4 0.773766 0.366050 0.240935
O O1 0.227814 0.319340 0.255114
O O2 0.342253 0.449957 0.036755
O O3 0.958097 0.401325 0.075845
O O4 0.199015 0.335842 0.750064
O O5 0.342291 0.697499 0.067932
O O6 0.608319 0.816908 0.955636
O O7 0.631733 0.434528 0.342300
#
# Coordination Sequence:
#
# PCOD9347846 Si02
#       4
#     4   4   2   4
#     4  10  26  47  69 109 139 195 230 309 345 445
#     4  10  24  46  76  97 148 183 252 282 367 415
#     4  12  24  50  72 110 150 192 242 296 386 410
#     4  10  25  45  74 108 142 192 238 309 348 444
#
# _framework density 23.444859999999998
#
# number of rings (size 3 to 8) (size 9 to 14) (size 15 to 20)
#    1.714    0.000    0.000    2.571    8.000    1.143 
#   15.429    0.000    0.000    0.000    0.000    0.000 
#    0.000    0.000    0.000    0.000    0.000    0.000 
#
# Total GULP energy -78125.901756 kJ/mol
# GULP energy per Si atom -5580.421554 kJ/mol
# Density = 2.339150 g / cm^3
# Si number density = 23.444860 Si / 1000 Ang^3
#
#
#
# Elastic Constant Matrix: (Units=GPa)
#
#
# Indices 1 2 3 4 5 6 
#
# 1 145.8161 96.7567 33.2086 0.0000 0.0000 0.0000
# 2 96.7567 164.3919 46.3796 0.0000 0.0000 0.0000
# 3 33.2086 46.3796 128.0380 0.0000 0.0000 0.0000
# 4 0.0000 0.0000 0.0000 17.2546 0.0000 0.0000
# 5 0.0000 0.0000 0.0000 0.0000 17.8250 0.0000
# 6 0.0000 0.0000 0.0000 0.0000 0.0000 63.3891
#
#
#
# Elastic Compliance Matrix: (Units=1/GPa)
#
#
# Indices 1 2 3 4 5 6 
#
# 1 0.011291 -0.006482 -0.000581 0.000000 0.000000 0.000000
# 2 -0.006482 0.010497 -0.002121 0.000000 0.000000 0.000000
# 3 -0.000581 -0.002121 0.008729 0.000000 0.000000 0.000000
# 4 0.000000 0.000000 0.000000 0.057956 0.000000 0.000000
# 5 0.000000 0.000000 0.000000 0.000000 0.056101 0.000000
# 6 0.000000 0.000000 0.000000 0.000000 0.000000 0.015776
#
#
# Mechanical properties :
#
#
# Convention : Reuss Voigt Hill
#
# Bulk Modulus (GPa) = 82.30585 87.88173 85.09379
# Shear Modulus (GPa) = 27.35736 37.15380 32.25558
#
# Velocity S-wave (km/s) = 3.41967 3.98519 3.71321
# Velocity P-wave (km/s) = 7.12563 7.66430 7.39986
#
# Compressibility (1/GPa) = 0.01214980
#
# Stress axis : x y z
#
# Youngs Moduli (GPa) = 88.56368 95.26956 114.55983
#
# Poissons Ratio (x) = 0.61753 0.06651
# Poissons Ratio (y) = 0.57407 0.24298
# Poissons Ratio (z) = 0.05142 0.20207
#
# Static dielectric constant tensor:
#      x y z
#    x 1.965460 0.000000 0.000000 
#    y 0.000000 1.864400 0.000000 
#    z 0.000000 0.000000 1.829350 
# 
# From -- ./inp_files/107.got.cif
#   From: 2010.05.17/outbox.cif.g08.bks.cpg/sg34_1_cif.got.tgz:107.got - 2010.06.03 17:23:11.
