data_PCOD9347982
_publ_section_title
;
Structure prediction by ZEFSAII (Michael W. Deem and Ramdas Pophale) SiO2 
 PCOD9347982
Probable space group: P N N 2
;
_chemical_formula_sum "Si O2"
_cell_formula_units_Z 28
_cell_length_a 6.841432
_cell_length_b 7.223238
_cell_length_c 23.109315
_cell_angle_alpha 90.000000
_cell_angle_beta 90.000000
_cell_angle_gamma 90.000000
_cell_volume 1141.999758
_symmetry_space_group_name_H-M "P N N 2"
_symmetry_group_IT_number 34
_symmetry_cell_setting 'orthorhombic'
loop_
_space_group_symop_operation_xyz
x,y,z
-x,-y,z
1/2-x,1/2+y,1/2+z
1/2+x,1/2-y,1/2+z
loop_
_atom_site_type_symbol
_atom_site_label
_atom_site_fract_x
_atom_site_fract_y
_atom_site_fract_z
Si Si1 0.878749 0.860074 0.351180
Si Si2 0.123737 0.353402 0.236420
Si Si3 0.123737 0.353402 0.834296
Si Si4 0.378749 0.639926 0.219535
Si Si5 0.500000 0.500000 0.408492
Si Si6 0.643901 0.175347 0.099925
Si Si7 0.500000 0.500000 0.662223
Si Si8 0.643901 0.175347 0.970790
O O1 0.875798 0.694029 0.304832
O O2 0.623953 0.906167 0.346260
O O3 0.901346 0.810654 0.418516
O O4 0.129807 0.906296 0.341060
O O5 0.370192 0.406296 0.229656
O O6 0.876047 0.406167 0.224455
O O7 0.109917 0.154953 0.201385
O O8 0.124202 0.305971 0.765883
O O9 0.109917 0.154953 0.869330
O O10 0.401346 0.689346 0.152200
O O11 0.646892 0.601301 0.451419
O O12 0.853108 0.101301 0.119296
O O13 0.500000 0.000000 0.100915
O O14 0.641882 0.255549 0.035358
O O15 0.500000 0.000000 0.969800
#
# Coordination Sequence:
#
# PCOD9347982 Si02
#       8
#     4   4   4   4   2   4   2   4
#     4  12  23  41  67 101 139 182 227 290 348 415
#     4  12  23  42  67 104 141 174 231 294 355 416
#     4  12  23  42  67 104 141 174 231 294 355 416
#     4  12  23  41  67 101 139 182 227 290 348 415
#     4  12  23  48  72 104 139 182 236 292 352 412
#     4  11  25  46  71 101 142 188 234 285 345 417
#     4  12  23  48  72 104 139 182 236 292 352 412
#     4  11  25  46  71 101 142 188 234 285 345 417
#
# _framework density 24.518393
#
# number of rings (size 3 to 8) (size 9 to 14) (size 15 to 20)
#    0.000    0.286    4.286    6.429    0.000    0.571 
#    0.000    4.286    0.000    0.000    0.000    0.000 
#    0.000    0.000    0.000    0.000    0.000    0.000 
#
# Total GULP energy -156347.454319 kJ/mol
# GULP energy per Si atom -5583.837654 kJ/mol
# Density = 2.446259 g / cm^3
# Si number density = 24.518393 Si / 1000 Ang^3
#
#
#
# Elastic Constant Matrix: (Units=GPa)
#
#
# Indices 1 2 3 4 5 6 
#
# 1 188.1676 70.4157 51.1175 0.0000 0.0000 0.0000
# 2 70.4157 103.6255 110.5599 0.0000 0.0000 0.0000
# 3 51.1175 110.5599 245.5654 0.0000 0.0000 0.0000
# 4 0.0000 0.0000 0.0000 37.2185 0.0000 0.0000
# 5 0.0000 0.0000 0.0000 0.0000 53.2835 0.0000
# 6 0.0000 0.0000 0.0000 0.0000 0.0000 84.3608
#
#
#
# Elastic Compliance Matrix: (Units=1/GPa)
#
#
# Indices 1 2 3 4 5 6 
#
# 1 0.007364 -0.006482 0.001386 0.000000 0.000000 0.000000
# 2 -0.006482 0.024277 -0.009581 0.000000 0.000000 0.000000
# 3 0.001386 -0.009581 0.008097 0.000000 0.000000 0.000000
# 4 0.000000 0.000000 0.000000 0.026868 0.000000 0.000000
# 5 0.000000 0.000000 0.000000 0.000000 0.018768 0.000000
# 6 0.000000 0.000000 0.000000 0.000000 0.000000 0.011854
#
#
# Mechanical properties :
#
#
# Convention : Reuss Voigt Hill
#
# Bulk Modulus (GPa) = 96.30878 111.28273 103.79576
# Shear Modulus (GPa) = 38.44894 55.32359 46.88627
#
# Velocity S-wave (km/s) = 3.96431 4.75532 4.37772
# Velocity P-wave (km/s) = 7.76658 8.69694 8.24489
#
# Compressibility (1/GPa) = 0.01038327
#
# Stress axis : x y z
#
# Youngs Moduli (GPa) = 135.80090 41.19201 123.49866
#
# Poissons Ratio (x) = 0.26701 -0.17111
# Poissons Ratio (y) = 0.88027 1.18319
# Poissons Ratio (z) = -0.18816 0.39464
#
# Static dielectric constant tensor:
#      x y z
#    x 2.302050 0.000000 0.000000 
#    y 0.000000 2.053120 0.000000 
#    z 0.000000 0.000000 1.798510 
# 
# From -- ./inp_files/6154.got.cif
#   From: 2010.05.17/outbox.cif.g08.bks.cpg/sg34_4_cif.got.tgz:6154.got - 2010.06.03 17:23:11.
