data_PCOD9347833
_publ_section_title
;
Structure prediction by ZEFSAII (Michael W. Deem and Ramdas Pophale) SiO2 
 PCOD9347833
Probable space group: P N N 2
;
_chemical_formula_sum "Si O2"
_cell_formula_units_Z 20
_cell_length_a 5.070942
_cell_length_b 18.413656
_cell_length_c 8.260471
_cell_angle_alpha 90.000000
_cell_angle_beta 90.000000
_cell_angle_gamma 90.000000
_cell_volume 771.318023
_symmetry_space_group_name_H-M "P N N 2"
_symmetry_group_IT_number 34
_symmetry_cell_setting 'orthorhombic'
loop_
_space_group_symop_operation_xyz
x,y,z
-x,-y,z
1/2-x,1/2+y,1/2+z
1/2+x,1/2-y,1/2+z
loop_
_atom_site_type_symbol
_atom_site_label
_atom_site_fract_x
_atom_site_fract_y
_atom_site_fract_z
Si Si1 0.758650 0.216763 0.165250
Si Si2 0.426092 0.585006 0.326631
Si Si3 0.427518 0.084381 0.140247
Si Si4 0.250074 0.052422 0.483651
Si Si5 0.759916 0.221455 0.814934
O O1 0.553925 0.248611 0.292272
O O2 0.718674 0.405521 0.153122
O O3 0.050847 0.244987 0.193381
O O4 0.661463 0.243431 0.990977
O O5 0.500000 0.500000 0.341517
O O6 0.248546 0.604509 0.483394
O O7 0.685684 0.635149 0.312003
O O8 0.282005 0.093978 0.313633
O O9 0.694027 0.131264 0.158955
O O10 0.500000 0.000000 0.123412
O O11 0.500000 0.000000 0.499916
O O12 0.000000 0.000000 0.468072
#
# Coordination Sequence:
#
# PCOD9347833 Si02
#       5
#     4   4   4   4   4
#     4  12  28  52  78 115 160 216 269 330 412 492
#     4  11  24  48  84 119 164 207 284 341 418 477
#     4  11  24  48  84 119 164 207 284 341 418 477
#     4  10  24  44  74 122 162 206 262 336 420 476
#     4  12  28  52  78 115 160 216 269 330 412 492
#
# _framework density 25.929639999999999
#
# number of rings (size 3 to 8) (size 9 to 14) (size 15 to 20)
#    0.000    0.800    0.000    6.000    2.800    9.600 
#   21.600    0.000    0.000    0.000    0.000    0.000 
#    0.000    0.000    0.000    0.000    0.000    0.000 
#
# Total GULP energy -112074.809749 kJ/mol
# GULP energy per Si atom -5603.740487 kJ/mol
# Density = 2.587062 g / cm^3
# Si number density = 25.929640 Si / 1000 Ang^3
#
#
#
# Elastic Constant Matrix: (Units=GPa)
#
#
# Indices 1 2 3 4 5 6 
#
# 1 159.5861 58.3092 57.4323 0.0000 0.0000 0.0000
# 2 58.3092 157.1025 25.4265 0.0000 0.0000 0.0000
# 3 57.4323 25.4265 216.1818 0.0000 0.0000 0.0000
# 4 0.0000 0.0000 0.0000 31.3583 0.0000 0.0000
# 5 0.0000 0.0000 0.0000 0.0000 50.2524 0.0000
# 6 0.0000 0.0000 0.0000 0.0000 0.0000 57.9810
#
#
#
# Elastic Compliance Matrix: (Units=1/GPa)
#
#
# Indices 1 2 3 4 5 6 
#
# 1 0.007869 -0.002632 -0.001781 0.000000 0.000000 0.000000
# 2 -0.002632 0.007369 -0.000167 0.000000 0.000000 0.000000
# 3 -0.001781 -0.000167 0.005119 0.000000 0.000000 0.000000
# 4 0.000000 0.000000 0.000000 0.031890 0.000000 0.000000
# 5 0.000000 0.000000 0.000000 0.000000 0.019900 0.000000
# 6 0.000000 0.000000 0.000000 0.000000 0.000000 0.017247
#
#
# Mechanical properties :
#
#
# Convention : Reuss Voigt Hill
#
# Bulk Modulus (GPa) = 89.32169 90.57849 89.95009
# Shear Modulus (GPa) = 48.88248 54.03184 51.45716
#
# Velocity S-wave (km/s) = 4.34660 4.56980 4.45960
# Velocity P-wave (km/s) = 7.72742 7.92795 7.82833
#
# Compressibility (1/GPa) = 0.01119549
#
# Stress axis : x y z
#
# Youngs Moduli (GPa) = 127.08211 135.69674 195.36760
#
# Poissons Ratio (x) = 0.35720 0.34793
# Poissons Ratio (y) = 0.33452 0.03271
# Poissons Ratio (z) = 0.22632 0.02272
#
# Static dielectric constant tensor:
#      x y z
#    x 1.974750 0.000000 0.000000 
#    y 0.000000 2.087050 0.000000 
#    z 0.000000 0.000000 2.007840 
# 
# From -- ./inp_files/2032.got.cif
#   From: 2010.05.17/outbox.cif.g08.bks.cpg/sg34_2_cif.got.tgz:2032.got - 2010.06.03 17:23:11.
