data_PCOD9347703
_publ_section_title
;
Structure prediction by ZEFSAII (Michael W. Deem and Ramdas Pophale) SiO2 
 PCOD9347703
Probable space group: P N N 2
;
_chemical_formula_sum "Si O2"
_cell_formula_units_Z 28
_cell_length_a 13.106532
_cell_length_b 18.695851
_cell_length_c 5.145805
_cell_angle_alpha 90.000000
_cell_angle_beta 90.000000
_cell_angle_gamma 90.000000
_cell_volume 1260.916579
_symmetry_space_group_name_H-M "P N N 2"
_symmetry_group_IT_number 34
_symmetry_cell_setting 'orthorhombic'
loop_
_space_group_symop_operation_xyz
x,y,z
-x,-y,z
1/2-x,1/2+y,1/2+z
1/2+x,1/2-y,1/2+z
loop_
_atom_site_type_symbol
_atom_site_label
_atom_site_fract_x
_atom_site_fract_y
_atom_site_fract_z
Si Si1 0.860518 0.777794 0.817390
Si Si2 0.251391 0.058917 0.433786
Si Si3 0.021054 0.291393 0.227127
Si Si4 0.687597 0.600110 0.934594
Si Si5 0.182032 0.638549 0.452733
Si Si6 0.273855 0.825266 0.928583
Si Si7 0.960630 0.870241 0.443633
O O1 0.771684 0.803560 0.008199
O O2 0.793829 0.751547 0.568520
O O3 0.930758 0.843675 0.733068
O O4 0.935719 0.717235 0.931820
O O5 0.278114 0.090663 0.714350
O O6 0.137238 0.085123 0.354227
O O7 0.246986 0.974016 0.464072
O O8 0.326148 0.091099 0.212620
O O9 0.915935 0.322062 0.332691
O O10 0.023270 0.207096 0.305944
O O11 0.108679 0.340128 0.355978
O O12 0.722625 0.631603 0.660352
O O13 0.566361 0.588788 0.933786
O O14 0.712445 0.655488 0.168289
#
# Coordination Sequence:
#
# PCOD9347703 Si02
#       7
#     4   4   4   4   4   4   4
#     4  10  22  43  68 105 141 165 229 293 350 417
#     4  11  25  47  63 101 140 183 231 274 335 425
#     4  11  23  43  71 103 133 174 224 295 348 402
#     4  12  25  44  70  96 140 189 225 279 336 419
#     4  11  25  42  70  96 140 181 221 284 350 397
#     4  11  25  42  66 102 135 172 236 277 336 411
#     4  10  24  39  71 104 134 175 225 284 361 400
#
# _framework density 22.20607
#
# number of rings (size 3 to 8) (size 9 to 14) (size 15 to 20)
#    0.000    1.143    2.857    2.143    8.000    0.000 
#    0.000    7.143    0.000    0.000    0.000    0.000 
#    0.000    0.000    0.000    0.000    0.000    0.000 
#
# Total GULP energy -156069.803481 kJ/mol
# GULP energy per Si atom -5573.921553 kJ/mol
# Density = 2.215553 g / cm^3
# Si number density = 22.206070 Si / 1000 Ang^3
#
#
#
# Elastic Constant Matrix: (Units=GPa)
#
#
# Indices 1 2 3 4 5 6 
#
# 1 72.1579 -12.6634 2.3564 0.0000 0.0000 0.0000
# 2 -12.6634 30.8360 11.7842 0.0000 0.0000 0.0000
# 3 2.3564 11.7842 115.9771 0.0000 0.0000 0.0000
# 4 0.0000 0.0000 0.0000 14.3425 0.0000 0.0000
# 5 0.0000 0.0000 0.0000 0.0000 27.6138 0.0000
# 6 0.0000 0.0000 0.0000 0.0000 0.0000 17.4617
#
#
#
# Elastic Compliance Matrix: (Units=1/GPa)
#
#
# Indices 1 2 3 4 5 6 
#
# 1 0.015039 0.006547 -0.000971 0.000000 0.000000 0.000000
# 2 0.006547 0.036590 -0.003851 0.000000 0.000000 0.000000
# 3 -0.000971 -0.003851 0.009033 0.000000 0.000000 0.000000
# 4 0.000000 0.000000 0.000000 0.069723 0.000000 0.000000
# 5 0.000000 0.000000 0.000000 0.000000 0.036214 0.000000
# 6 0.000000 0.000000 0.000000 0.000000 0.000000 0.057268
#
#
# Mechanical properties :
#
#
# Convention : Reuss Voigt Hill
#
# Bulk Modulus (GPa) = 15.59734 24.65837 20.12785
# Shear Modulus (GPa) = 20.67932 26.38320 23.53126
#
# Velocity S-wave (km/s) = 3.05494 3.45063 3.25880
# Velocity P-wave (km/s) = 4.41392 5.19656 4.82115
#
# Compressibility (1/GPa) = 0.06411351
#
# Stress axis : x y z
#
# Youngs Moduli (GPa) = 66.49297 27.32988 110.70044
#
# Poissons Ratio (x) = -0.17893 0.10747
# Poissons Ratio (y) = -0.43534 0.42629
# Poissons Ratio (z) = 0.06455 0.10524
#
# Static dielectric constant tensor:
#      x y z
#    x 1.826430 0.000000 0.000000 
#    y 0.000000 1.833510 0.000000 
#    z 0.000000 0.000000 1.940770 
# 
# From -- ./inp_files/1015.got.cif
#   From: 2010.05.17/outbox.cif.g08.bks.cpg/sg34_1_cif.got.tgz:1015.got - 2010.06.03 17:23:11.
