data_PCOD9347280
_publ_section_title
;
Structure prediction by ZEFSAII (Michael W. Deem and Ramdas Pophale) SiO2 
 PCOD9347280
Probable space group: P N N 2
;
_chemical_formula_sum "Si O2"
_cell_formula_units_Z 18
_cell_length_a 5.202984
_cell_length_b 10.166036
_cell_length_c 18.972009
_cell_angle_alpha 90.000000
_cell_angle_beta 90.000000
_cell_angle_gamma 90.000000
_cell_volume 1003.500182
_symmetry_space_group_name_H-M "P N N 2"
_symmetry_group_IT_number 34
_symmetry_cell_setting 'orthorhombic'
loop_
_space_group_symop_operation_xyz
x,y,z
-x,-y,z
1/2-x,1/2+y,1/2+z
1/2+x,1/2-y,1/2+z
loop_
_atom_site_type_symbol
_atom_site_label
_atom_site_fract_x
_atom_site_fract_y
_atom_site_fract_z
Si Si1 0.500000 0.000000 0.464481
Si Si2 0.500000 0.000000 0.219221
Si Si3 0.574561 0.145424 0.913114
Si Si4 0.578789 0.289724 0.503726
Si Si5 0.305019 0.609077 0.833219
Si Si6 0.500000 0.500000 0.624216
O O1 0.559139 0.131151 0.508374
O O2 0.286668 0.049479 0.408333
O O3 0.420592 0.114053 0.275399
O O4 0.744188 0.024392 0.169796
O O5 0.574582 0.251376 0.850679
O O6 0.500000 0.000000 0.889238
O O7 0.354586 0.182559 0.969134
O O8 0.851933 0.158565 0.951303
O O9 0.548890 0.373609 0.574380
O O10 0.500000 0.500000 0.805438
#
# Coordination Sequence:
#
# PCOD9347280 Si02
#       6
#     2   2   4   4   4   2
#     4   9  20  34  60  92 112 139 186 250 306 333
#     4  11  24  38  58  82 110 167 208 226 264 359
#     4  11  20  35  58  92 118 139 181 251 310 339
#     4  11  21  35  58  88 119 147 183 240 300 347
#     4  10  19  37  61  84 114 148 195 243 288 336
#     4  12  22  38  58  82 120 158 198 230 278 356
#
# _framework density 17.937217
#
# number of rings (size 3 to 8) (size 9 to 14) (size 15 to 20)
#    0.000    1.333    5.556    1.333    0.000    0.000 
#    0.000    0.000    2.444    2.667    0.000    0.000 
#    0.000    0.000    0.000    0.000    0.000    0.000 
#
# Total GULP energy -100312.109164 kJ/mol
# GULP energy per Si atom -5572.894954 kJ/mol
# Density = 1.789639 g / cm^3
# Si number density = 17.937217 Si / 1000 Ang^3
#
#
#
# Elastic Constant Matrix: (Units=GPa)
#
#
# Indices 1 2 3 4 5 6 
#
# 1 80.1618 18.0506 32.5392 0.0000 0.0000 0.0000
# 2 18.0506 163.4094 53.6088 0.0000 0.0000 0.0000
# 3 32.5392 53.6088 94.7944 0.0000 0.0000 0.0000
# 4 0.0000 0.0000 0.0000 -21.2909 0.0000 0.0000
# 5 0.0000 0.0000 0.0000 0.0000 39.6705 0.0000
# 6 0.0000 0.0000 0.0000 0.0000 0.0000 23.1712
#
#
#
# Elastic Compliance Matrix: (Units=1/GPa)
#
#
# Indices 1 2 3 4 5 6 
#
# 1 0.014495 0.000038 -0.004997 0.000000 0.000000 0.000000
# 2 0.000038 0.007514 -0.004262 0.000000 0.000000 0.000000
# 3 -0.004997 -0.004262 0.014675 0.000000 0.000000 0.000000
# 4 0.000000 0.000000 0.000000 -0.046969 0.000000 0.000000
# 5 0.000000 0.000000 0.000000 0.000000 0.025208 0.000000
# 6 0.000000 0.000000 0.000000 0.000000 0.000000 0.043157
#
#
# Mechanical properties :
#
#
# Convention : Reuss Voigt Hill
#
# Bulk Modulus (GPa) = 54.82186 60.75143 57.78664
# Shear Modulus (GPa) = 60.53130 23.92129 42.22630
#
# Velocity S-wave (km/s) = 5.81545 3.65583 4.85719
# Velocity P-wave (km/s) = 8.70185 7.19462 7.98388
#
# Compressibility (1/GPa) = 0.01824090
#
# Stress axis : x y z
#
# Youngs Moduli (GPa) = 68.99142 133.09039 68.14355
#
# Poissons Ratio (x) = -0.00509 0.34052
# Poissons Ratio (y) = -0.00264 0.29045
# Poissons Ratio (z) = 0.34475 0.56727
#
# Static dielectric constant tensor:
#      x y z
#    x 1.677350 0.000000 0.000000 
#    y 0.000000 1.637360 0.000000 
#    z 0.000000 0.000000 1.606970 
# 
# From -- ./inp_files/7089.got.cif
#   From: 2010.05.17/outbox.cif.g08.bks.cpg/sg34_4_cif.got.tgz:7089.got - 2010.06.03 17:23:11.
