data_PCOD9347326
_publ_section_title
;
Structure prediction by ZEFSAII (Michael W. Deem and Ramdas Pophale) SiO2 
 PCOD9347326
Probable space group: P N N 2
;
_chemical_formula_sum "Si O2"
_cell_formula_units_Z 32
_cell_length_a 22.023168
_cell_length_b 9.282826
_cell_length_c 7.453935
_cell_angle_alpha 90.000000
_cell_angle_beta 90.000000
_cell_angle_gamma 90.000000
_cell_volume 1523.861873
_symmetry_space_group_name_H-M "P N N 2"
_symmetry_group_IT_number 34
_symmetry_cell_setting 'orthorhombic'
loop_
_space_group_symop_operation_xyz
x,y,z
-x,-y,z
1/2-x,1/2+y,1/2+z
1/2+x,1/2-y,1/2+z
loop_
_atom_site_type_symbol
_atom_site_label
_atom_site_fract_x
_atom_site_fract_y
_atom_site_fract_z
Si Si1 0.565871 0.826733 0.059430
Si Si2 0.066810 0.171703 0.946108
Si Si3 0.066810 0.828297 0.946107
Si Si4 0.183549 0.662018 0.983075
Si Si5 0.683549 0.162017 0.483075
Si Si6 0.696164 0.838290 0.053700
Si Si7 0.803836 0.661711 0.553700
Si Si8 0.434129 0.826733 0.059430
O O1 0.564463 0.737734 0.244968
O O2 0.500000 0.800125 0.969861
O O3 0.568520 1.000000 0.096091
O O4 0.631055 0.792331 0.971031
O O5 0.124703 0.245930 0.036367
O O6 0.064463 0.237734 0.744968
O O7 1.000000 0.201927 0.026298
O O8 0.075027 0.000000 0.937779
O O9 0.124703 0.754071 0.036367
O O10 0.179101 0.500000 0.053457
O O11 0.184022 0.655254 0.766559
O O12 0.247308 0.734424 0.029539
O O13 0.747308 0.234424 0.529539
O O14 0.684022 0.155254 0.266560
O O15 0.711868 0.000000 0.991393
O O16 0.868945 0.707669 0.471031
#
# Coordination Sequence:
#
# PCOD9347326 Si02
#       8
#     4   4   4   4   4   4   4   4
#     4   8  14  26  44  66  92 120 151 189 230 271
#     4   9  16  26  43  67  92 118 150 190 233 273
#     4   9  16  26  43  67  92 118 150 190 233 273
#     4  10  20  32  48  70  95 125 158 191 230 276
#     4  10  20  32  48  70  95 125 158 191 230 276
#     4   9  18  31  47  69  95 122 155 194 233 274
#     4   9  18  31  47  69  95 122 155 194 233 274
#     4   8  14  26  44  66  92 120 151 189 230 271
#
# _framework density 20.999278
#
# number of rings (size 3 to 8) (size 9 to 14) (size 15 to 20)
#    0.000    3.000    0.000    3.000    0.000    6.500 
#    0.000    0.000    0.000    1.500    0.000    7.000 
#    0.000    0.000    0.000    0.000    0.000    0.000 
#
# Total GULP energy -178238.395337 kJ/mol
# GULP energy per Si atom -5569.949854 kJ/mol
# Density = 2.095148 g / cm^3
# Si number density = 20.999278 Si / 1000 Ang^3
#
#
#
# Elastic Constant Matrix: (Units=GPa)
#
#
# Indices 1 2 3 4 5 6 
#
# 1 254.9594 115.8602 0.5923 0.0000 0.0000 0.0000
# 2 115.8602 105.2050 12.1724 0.0000 0.0000 0.0000
# 3 0.5923 12.1724 40.1981 0.0000 0.0000 0.0000
# 4 0.0000 0.0000 0.0000 11.3755 0.0000 0.0000
# 5 0.0000 0.0000 0.0000 0.0000 15.5240 0.0000
# 6 0.0000 0.0000 0.0000 0.0000 0.0000 34.3827
#
#
#
# Elastic Compliance Matrix: (Units=1/GPa)
#
#
# Indices 1 2 3 4 5 6 
#
# 1 0.008121 -0.009254 0.002683 0.000000 0.000000 0.000000
# 2 -0.009254 0.020396 -0.006040 0.000000 0.000000 0.000000
# 3 0.002683 -0.006040 0.026666 0.000000 0.000000 0.000000
# 4 0.000000 0.000000 0.000000 0.087908 0.000000 0.000000
# 5 0.000000 0.000000 0.000000 0.000000 0.064416 0.000000
# 6 0.000000 0.000000 0.000000 0.000000 0.000000 0.029084
#
#
# Mechanical properties :
#
#
# Convention : Reuss Voigt Hill
#
# Bulk Modulus (GPa) = 33.37728 73.06803 53.22266
# Shear Modulus (GPa) = 18.39581 30.37230 24.38405
#
# Velocity S-wave (km/s) = 2.96298 3.80722 3.41131
# Velocity P-wave (km/s) = 5.25687 7.36190 6.39657
#
# Compressibility (1/GPa) = 0.02996050
#
# Stress axis : x y z
#
# Youngs Moduli (GPa) = 123.13256 49.03030 37.50079
#
# Poissons Ratio (x) = 0.45374 -0.10060
# Poissons Ratio (y) = 1.13950 0.22649
# Poissons Ratio (z) = -0.33032 0.29612
#
# Static dielectric constant tensor:
#      x y z
#    x 1.835010 0.000000 0.000000 
#    y 0.000000 1.716060 0.000000 
#    z 0.000000 0.000000 1.813160 
# 
# From -- ./inp_files/5200.got.cif
#   From: 2010.05.17/outbox.cif.g08.bks.cpg/sg34_3_cif.got.tgz:5200.got - 2010.06.03 17:23:11.
