data_PCOD9347916
_publ_section_title
;
Structure prediction by ZEFSAII (Michael W. Deem and Ramdas Pophale) SiO2 
 PCOD9347916
Probable space group: P N N 2
;
_chemical_formula_sum "Si O2"
_cell_formula_units_Z 16
_cell_length_a 6.334058
_cell_length_b 12.230846
_cell_length_c 8.023797
_cell_angle_alpha 90.000000
_cell_angle_beta 90.000000
_cell_angle_gamma 90.000000
_cell_volume 621.610678
_symmetry_space_group_name_H-M "P N N 2"
_symmetry_group_IT_number 34
_symmetry_cell_setting 'orthorhombic'
loop_
_space_group_symop_operation_xyz
x,y,z
-x,-y,z
1/2-x,1/2+y,1/2+z
1/2+x,1/2-y,1/2+z
loop_
_atom_site_type_symbol
_atom_site_label
_atom_site_fract_x
_atom_site_fract_y
_atom_site_fract_z
Si Si1 0.184826 0.428949 0.878380
Si Si2 0.109723 0.229082 0.024016
Si Si3 0.000000 0.000000 0.116412
Si Si4 0.000000 0.000000 0.635370
Si Si5 0.896591 0.382895 0.306706
O O1 0.085704 0.309506 0.865000
O O2 0.291255 0.495918 0.731011
O O3 0.000000 0.500000 0.953984
O O4 0.368391 0.420245 0.014628
O O5 0.340832 0.179805 0.978412
O O6 0.980057 0.116480 0.028695
O O7 0.029421 0.301298 0.183382
O O8 0.825791 0.925180 0.725961
O O9 0.000000 0.500000 0.343701
#
# Coordination Sequence:
#
# PCOD9347916 Si02
#       5
#     4   4   2   2   4
#     4  11  23  46  75 107 154 204 260 324 397 471
#     4  12  24  51  76 110 162 203 263 338 396 478
#     4  11  27  46  74 118 143 209 270 318 408 476
#     4  11  21  44  74 108 151 201 262 314 398 480
#     4  12  26  50  78 117 156 211 268 329 404 479
#
# _framework density 25.739581999999999
#
# number of rings (size 3 to 8) (size 9 to 14) (size 15 to 20)
#    0.000    0.500    7.500    0.750    0.000    3.000 
#   13.500    0.000    0.000    0.000    0.000    0.000 
#    0.000    0.000    0.000    0.000    0.000    0.000 
#
# Total GULP energy -89077.077028 kJ/mol
# GULP energy per Si atom -5567.317314 kJ/mol
# Density = 2.568100 g / cm^3
# Si number density = 25.739582 Si / 1000 Ang^3
#
#
#
# Elastic Constant Matrix: (Units=GPa)
#
#
# Indices 1 2 3 4 5 6 
#
# 1 106.6491 60.2522 53.4444 0.0000 0.0000 0.0000
# 2 60.2522 231.4053 47.1284 0.0000 0.0000 0.0000
# 3 53.4444 47.1284 86.5014 0.0000 0.0000 0.0000
# 4 0.0000 0.0000 0.0000 2.7309 0.0000 0.0000
# 5 0.0000 0.0000 0.0000 0.0000 40.7923 0.0000
# 6 0.0000 0.0000 0.0000 0.0000 0.0000 35.5558
#
#
#
# Elastic Compliance Matrix: (Units=1/GPa)
#
#
# Indices 1 2 3 4 5 6 
#
# 1 0.014510 -0.002196 -0.007769 0.000000 0.000000 0.000000
# 2 -0.002196 0.005193 -0.001473 0.000000 0.000000 0.000000
# 3 -0.007769 -0.001473 0.017163 0.000000 0.000000 0.000000
# 4 0.000000 0.000000 0.000000 0.366177 0.000000 0.000000
# 5 0.000000 0.000000 0.000000 0.000000 0.024514 0.000000
# 6 0.000000 0.000000 0.000000 0.000000 0.000000 0.028125
#
#
# Mechanical properties :
#
#
# Convention : Reuss Voigt Hill
#
# Bulk Modulus (GPa) = 71.47152 82.91175 77.19163
# Shear Modulus (GPa) = 10.34726 33.39786 21.87256
#
# Velocity S-wave (km/s) = 2.00716 3.60603 2.91823
# Velocity P-wave (km/s) = 5.76186 7.04412 6.43501
#
# Compressibility (1/GPa) = 0.01399159
#
# Stress axis : x y z
#
# Youngs Moduli (GPa) = 68.91710 192.56319 58.26615
#
# Poissons Ratio (x) = 0.42285 0.45265
# Poissons Ratio (y) = 0.15134 0.08580
# Poissons Ratio (z) = 0.53539 0.28357
#
# Static dielectric constant tensor:
#      x y z
#    x 2.065260 0.000000 0.000000 
#    y 0.000000 2.185640 0.000000 
#    z 0.000000 0.000000 2.141500 
# 
# From -- ./inp_files/4281.got.cif
#   From: 2010.05.17/outbox.cif.g08.bks.cpg/sg34_3_cif.got.tgz:4281.got - 2010.06.03 17:23:11.
