data_PCOD9347023
_publ_section_title
;
Structure prediction by ZEFSAII (Michael W. Deem and Ramdas Pophale) SiO2 
 PCOD9347023
Probable space group: P N A 21
;
_chemical_formula_sum "Si O2"
_cell_formula_units_Z 20
_cell_length_a 9.639470
_cell_length_b 11.109945
_cell_length_c 7.032257
_cell_angle_alpha 90.000000
_cell_angle_beta 90.000000
_cell_angle_gamma 90.000000
_cell_volume 753.112401
_symmetry_space_group_name_H-M "P N A 21"
_symmetry_group_IT_number 33
_symmetry_cell_setting 'orthorhombic'
loop_
_space_group_symop_operation_xyz
x,y,z
-x,-y,1/2+z
1/2-x,1/2+y,1/2+z
1/2+x,1/2-y,z
loop_
_atom_site_type_symbol
_atom_site_label
_atom_site_fract_x
_atom_site_fract_y
_atom_site_fract_z
Si Si1 0.459996 0.335178 0.559150
Si Si2 0.575082 0.755086 0.469521
Si Si3 0.462344 0.117494 0.327008
Si Si4 0.709326 0.494878 0.495867
Si Si5 0.729864 0.988114 0.442030
O O1 0.484914 0.265920 0.758171
O O2 0.396650 0.234181 0.425213
O O3 0.597341 0.389259 0.465280
O O4 0.352450 0.446276 0.554860
O O5 0.483942 0.824937 0.628088
O O6 0.630690 0.621731 0.501163
O O7 0.703489 0.848592 0.486776
O O8 0.338893 0.020239 0.352424
O O9 0.588376 0.065393 0.450218
O O10 0.749671 0.480827 0.715500
#
# Coordination Sequence:
#
# PCOD9347023 Si02
#       5
#     4   4   4   4   4
#     4  12  27  52  77 115 159 202 266 324 396 474
#     4  12  28  48  82 110 158 208 256 330 396 474
#     4  12  27  52  77 115 159 202 266 324 396 474
#     4  12  27  51  79 117 156 208 262 329 396 474
#     4  12  27  51  79 117 156 208 262 329 396 474
#
# _framework density 26.556459
#
# number of rings (size 3 to 8) (size 9 to 14) (size 15 to 20)
#    0.000    0.000    4.000    4.800    0.000    6.400 
#    0.000    0.000    0.000    0.000    0.000    0.000 
#    0.000    0.000    0.000    0.000    0.000    0.000 
#
# Total GULP energy -111781.376048 kJ/mol
# GULP energy per Si atom -5589.068802 kJ/mol
# Density = 2.649601 g / cm^3
# Si number density = 26.556459 Si / 1000 Ang^3
#
#
#
# Elastic Constant Matrix: (Units=GPa)
#
#
# Indices 1 2 3 4 5 6 
#
# 1 115.2540 28.9569 19.7150 0.0000 0.0000 0.0000
# 2 28.9569 137.3604 38.3329 0.0000 0.0000 0.0000
# 3 19.7150 38.3329 97.0510 0.0000 0.0000 0.0000
# 4 0.0000 0.0000 0.0000 58.4765 0.0000 0.0000
# 5 0.0000 0.0000 0.0000 0.0000 39.6816 0.0000
# 6 0.0000 0.0000 0.0000 0.0000 0.0000 34.7474
#
#
#
# Elastic Compliance Matrix: (Units=1/GPa)
#
#
# Indices 1 2 3 4 5 6 
#
# 1 0.009295 -0.001610 -0.001252 0.000000 0.000000 0.000000
# 2 -0.001610 0.008461 -0.003015 0.000000 0.000000 0.000000
# 3 -0.001252 -0.003015 0.011749 0.000000 0.000000 0.000000
# 4 0.000000 0.000000 0.000000 0.017101 0.000000 0.000000
# 5 0.000000 0.000000 0.000000 0.000000 0.025201 0.000000
# 6 0.000000 0.000000 0.000000 0.000000 0.000000 0.028779
#
#
# Mechanical properties :
#
#
# Convention : Reuss Voigt Hill
#
# Bulk Modulus (GPa) = 56.33535 58.18611 57.26073
# Shear Modulus (GPa) = 42.28083 44.09182 43.18632
#
# Velocity S-wave (km/s) = 3.99446 4.07910 4.03700
# Velocity P-wave (km/s) = 6.52179 6.64405 6.58320
#
# Compressibility (1/GPa) = 0.01775084
#
# Stress axis : x y z
#
# Youngs Moduli (GPa) = 107.58221 118.19134 85.11347
#
# Poissons Ratio (x) = 0.19029 0.10659
# Poissons Ratio (y) = 0.17321 0.25660
# Poissons Ratio (z) = 0.13473 0.35632
#
# Static dielectric constant tensor:
#      x y z
#    x 2.237480 0.000000 0.000000 
#    y 0.000000 2.002430 0.000000 
#    z 0.000000 0.000000 2.295030 
# 
# From -- ./inp_files/3030.got.cif
#   From: 2010.05.17/outbox.cif.g08.bks.cpg/sg33_2_cif.got.tgz:3030.got - 2010.06.03 17:15:25.
