data_PCOD9347387
_publ_section_title
;
Structure prediction by ZEFSAII (Michael W. Deem and Ramdas Pophale) SiO2 
 PCOD9347387
Probable space group: P N N 2
;
_chemical_formula_sum "Si O2"
_cell_formula_units_Z 30
_cell_length_a 15.134069
_cell_length_b 12.278339
_cell_length_c 7.267307
_cell_angle_alpha 90.000000
_cell_angle_beta 90.000000
_cell_angle_gamma 90.000000
_cell_volume 1350.419923
_symmetry_space_group_name_H-M "P N N 2"
_symmetry_group_IT_number 34
_symmetry_cell_setting 'orthorhombic'
loop_
_space_group_symop_operation_xyz
x,y,z
-x,-y,z
1/2-x,1/2+y,1/2+z
1/2+x,1/2-y,1/2+z
loop_
_atom_site_type_symbol
_atom_site_label
_atom_site_fract_x
_atom_site_fract_y
_atom_site_fract_z
Si Si1 0.286885 0.847901 0.906220
Si Si2 0.500000 0.500000 0.595233
Si Si3 0.596852 0.705711 0.519525
Si Si4 0.415602 0.282836 0.935569
Si Si5 0.403516 0.042118 0.929116
Si Si6 0.272315 0.454293 0.022983
Si Si7 0.908012 0.445353 0.979595
Si Si8 0.096902 0.132901 0.415896
O O1 0.251737 0.896786 0.714549
O O2 0.352910 0.746447 0.874262
O O3 0.336812 0.950028 0.994120
O O4 0.201557 0.812022 0.018866
O O5 0.548569 0.592319 0.474628
O O6 0.430475 0.560164 0.735568
O O7 0.558746 0.729914 0.721736
O O8 0.585644 0.819907 0.417237
O O9 0.389757 0.163510 0.001930
O O10 0.504331 0.336828 0.016185
O O11 0.333728 0.363417 0.932276
O O12 0.399865 0.048436 0.704658
O O13 0.500000 0.000000 0.976872
O O14 0.182255 0.493460 0.924800
O O15 0.335635 0.559974 0.034365
O O16 0.000000 0.500000 0.928127
#
# Coordination Sequence:
#
# PCOD9347387 Si02
#       8
#     4   2   4   4   4   4   4   4
#     4  11  23  35  61  89 121 148 196 259 301 346
#     4  10  22  36  64  82 112 166 200 236 296 380
#     4  10  20  38  58  85 114 150 194 252 292 350
#     4  10  20  38  64  83 117 159 205 234 294 377
#     4   9  17  33  56  88 110 149 195 239 287 359
#     4  11  21  37  62  89 112 160 197 244 299 364
#     4   9  19  34  59  81 116 150 197 238 296 361
#     4  11  19  39  63  86 118 161 201 241 297 368
#
# _framework density 22.215311
#
# number of rings (size 3 to 8) (size 9 to 14) (size 15 to 20)
#    0.000    1.867    5.333    0.000    5.600    1.067 
#    2.400    0.000    2.933    1.600    0.000    0.000 
#    0.000    0.000    0.000    0.000    0.000    0.000 
#
# Total GULP energy -167286.562035 kJ/mol
# GULP energy per Si atom -5576.218734 kJ/mol
# Density = 2.216475 g / cm^3
# Si number density = 22.215311 Si / 1000 Ang^3
#
#
#
# Elastic Constant Matrix: (Units=GPa)
#
#
# Indices 1 2 3 4 5 6 
#
# 1 146.9584 102.9737 0.2698 0.0000 0.0000 0.0000
# 2 102.9737 210.1532 13.5395 0.0000 0.0000 0.0000
# 3 0.2698 13.5395 56.5284 0.0000 0.0000 0.0000
# 4 0.0000 0.0000 0.0000 12.1958 0.0000 0.0000
# 5 0.0000 0.0000 0.0000 0.0000 10.6404 0.0000
# 6 0.0000 0.0000 0.0000 0.0000 0.0000 58.8247
#
#
#
# Elastic Compliance Matrix: (Units=1/GPa)
#
#
# Indices 1 2 3 4 5 6 
#
# 1 0.010441 -0.005193 0.001194 0.000000 0.000000 0.000000
# 2 -0.005193 0.007416 -0.001751 0.000000 0.000000 0.000000
# 3 0.001194 -0.001751 0.018104 0.000000 0.000000 0.000000
# 4 0.000000 0.000000 0.000000 0.081996 0.000000 0.000000
# 5 0.000000 0.000000 0.000000 0.000000 0.093981 0.000000
# 6 0.000000 0.000000 0.000000 0.000000 0.000000 0.017000
#
#
# Mechanical properties :
#
#
# Convention : Reuss Voigt Hill
#
# Bulk Modulus (GPa) = 40.88294 71.91179 56.39736
# Shear Modulus (GPa) = 20.11327 36.12264 28.11795
#
# Velocity S-wave (km/s) = 3.01222 4.03677 3.56153
# Velocity P-wave (km/s) = 5.52638 7.35989 6.50803
#
# Compressibility (1/GPa) = 0.02446008
#
# Stress axis : x y z
#
# Youngs Moduli (GPa) = 95.77420 134.84657 55.23636
#
# Poissons Ratio (x) = 0.70027 -0.06595
# Poissons Ratio (y) = 0.49736 0.09674
# Poissons Ratio (z) = -0.11435 0.23617
#
# Static dielectric constant tensor:
#      x y z
#    x 1.802910 0.000000 0.000000 
#    y 0.000000 1.861710 0.000000 
#    z 0.000000 0.000000 1.894950 
# 
# From -- ./inp_files/3638.got.cif
#   From: 2010.05.17/outbox.cif.g08.bks.cpg/sg34_2_cif.got.tgz:3638.got - 2010.06.03 17:23:11.
