data_PCOD9347295
_publ_section_title
;
Structure prediction by ZEFSAII (Michael W. Deem and Ramdas Pophale) SiO2 
 PCOD9347295
Probable space group: P N N 2
;
_chemical_formula_sum "Si O2"
_cell_formula_units_Z 24
_cell_length_a 13.710636
_cell_length_b 11.968580
_cell_length_c 6.463635
_cell_angle_alpha 90.000000
_cell_angle_beta 90.000000
_cell_angle_gamma 90.000000
_cell_volume 1060.662103
_symmetry_space_group_name_H-M "P N N 2"
_symmetry_group_IT_number 34
_symmetry_cell_setting 'orthorhombic'
loop_
_space_group_symop_operation_xyz
x,y,z
-x,-y,z
1/2-x,1/2+y,1/2+z
1/2+x,1/2-y,1/2+z
loop_
_atom_site_type_symbol
_atom_site_label
_atom_site_fract_x
_atom_site_fract_y
_atom_site_fract_z
Si Si1 0.241525 0.612243 0.913680
Si Si2 0.447382 0.380282 0.306814
Si Si3 0.785118 0.025911 0.038783
Si Si4 0.351800 0.697883 0.293084
Si Si5 0.323505 0.258808 0.023556
Si Si6 0.609516 0.956998 0.790142
O O1 0.281755 0.512649 0.772816
O O2 0.202448 0.698044 0.741260
O O3 0.321045 0.673373 0.058085
O O4 0.160472 0.563001 0.068720
O O5 0.500000 0.500000 0.300241
O O6 0.367266 0.383369 0.489041
O O7 0.533336 0.289049 0.324026
O O8 0.388669 0.360981 0.095898
O O9 0.822332 0.915663 0.914528
O O10 0.678766 0.038599 0.931910
O O11 0.275876 0.782804 0.397728
O O12 0.383144 0.165152 0.897515
O O13 0.500000 0.000000 0.778164
#
# Coordination Sequence:
#
# PCOD9347295 Si02
#       6
#     4   4   4   4   4   4
#     4   8  16  35  57  79 116 158 198 249 312 368
#     4  10  19  38  62  88 126 162 206 263 321 377
#     4   8  17  34  56  84 115 151 202 260 300 373
#     4   8  17  36  57  80 120 157 197 258 309 372
#     4   9  19  37  56  85 125 157 201 261 309 381
#     4   9  18  36  59  84 119 158 205 255 309 379
#
# _framework density 22.627378
#
# number of rings (size 3 to 8) (size 9 to 14) (size 15 to 20)
#    0.000    4.000    0.000    0.000    0.000    2.667 
#    6.000   39.167    3.667    0.000    0.000    0.000 
#    0.000    0.000    0.000    0.000    0.000    0.000 
#
# Total GULP energy -133831.293799 kJ/mol
# GULP energy per Si atom -5576.303908 kJ/mol
# Density = 2.257588 g / cm^3
# Si number density = 22.627378 Si / 1000 Ang^3
#
#
#
# Elastic Constant Matrix: (Units=GPa)
#
#
# Indices 1 2 3 4 5 6 
#
# 1 145.4915 15.0216 46.9918 0.0000 0.0000 0.0000
# 2 15.0216 39.2492 18.0766 0.0000 0.0000 0.0000
# 3 46.9918 18.0766 141.9208 0.0000 0.0000 0.0000
# 4 0.0000 0.0000 0.0000 9.8139 0.0000 0.0000
# 5 0.0000 0.0000 0.0000 0.0000 10.2220 0.0000
# 6 0.0000 0.0000 0.0000 0.0000 0.0000 4.9186
#
#
#
# Elastic Compliance Matrix: (Units=1/GPa)
#
#
# Indices 1 2 3 4 5 6 
#
# 1 0.007830 -0.001915 -0.002349 0.000000 0.000000 0.000000
# 2 -0.001915 0.027534 -0.002873 0.000000 0.000000 0.000000
# 3 -0.002349 -0.002873 0.008190 0.000000 0.000000 0.000000
# 4 0.000000 0.000000 0.000000 0.101896 0.000000 0.000000
# 5 0.000000 0.000000 0.000000 0.000000 0.097829 0.000000
# 6 0.000000 0.000000 0.000000 0.000000 0.000000 0.203310
#
#
# Mechanical properties :
#
#
# Convention : Reuss Voigt Hill
#
# Bulk Modulus (GPa) = 34.15229 54.09350 44.12290
# Shear Modulus (GPa) = 10.62425 21.42899 16.02662
#
# Velocity S-wave (km/s) = 2.16922 3.08074 2.66425
# Velocity P-wave (km/s) = 4.62603 6.05084 5.38576
#
# Compressibility (1/GPa) = 0.02928061
#
# Stress axis : x y z
#
# Youngs Moduli (GPa) = 127.72190 36.31837 122.10369
#
# Poissons Ratio (x) = 0.06955 0.28677
# Poissons Ratio (y) = 0.24457 0.35081
# Poissons Ratio (z) = 0.29996 0.10434
#
# Static dielectric constant tensor:
#      x y z
#    x 1.939590 0.000000 0.000000 
#    y 0.000000 1.977330 0.000000 
#    z 0.000000 0.000000 1.837140 
# 
# From -- ./inp_files/927.got.cif
#   From: 2010.05.17/outbox.cif.g08.bks.cpg/sg34_1_cif.got.tgz:927.got - 2010.06.03 17:23:11.
