data_PCOD9347617
_publ_section_title
;
Structure prediction by ZEFSAII (Michael W. Deem and Ramdas Pophale) SiO2 
 PCOD9347617
Probable space group: P N N 2
;
_chemical_formula_sum "Si O2"
_cell_formula_units_Z 20
_cell_length_a 4.691345
_cell_length_b 18.528643
_cell_length_c 8.493127
_cell_angle_alpha 90.000000
_cell_angle_beta 90.000000
_cell_angle_gamma 90.000000
_cell_volume 738.258751
_symmetry_space_group_name_H-M "P N N 2"
_symmetry_group_IT_number 34
_symmetry_cell_setting 'orthorhombic'
loop_
_space_group_symop_operation_xyz
x,y,z
-x,-y,z
1/2-x,1/2+y,1/2+z
1/2+x,1/2-y,1/2+z
loop_
_atom_site_type_symbol
_atom_site_label
_atom_site_fract_x
_atom_site_fract_y
_atom_site_fract_z
Si Si1 0.401244 0.152861 0.782160
Si Si2 0.000000 0.500000 0.400603
Si Si3 0.137350 0.383481 0.774820
Si Si4 0.480972 0.279455 0.549194
Si Si5 0.627952 0.348078 0.963267
Si Si6 0.000000 0.000000 0.132015
O O1 0.571639 0.078008 0.819677
O O2 0.554174 0.220538 0.687977
O O3 0.193824 0.125934 0.638711
O O4 0.211767 0.184985 0.929956
O O5 0.263185 0.527136 0.507308
O O6 0.269907 0.337431 0.632025
O O7 0.808494 0.384379 0.819881
O O8 0.286680 0.458164 0.745847
O O9 0.298214 0.351323 0.926006
O O10 0.259109 0.230977 0.455387
#
# Coordination Sequence:
#
# PCOD9347617 Si02
#       6
#     4   2   4   4   4   2
#     4  10  23  47  75 113 151 203 255 324 385 465
#     4  12  26  48  74 114 156 196 260 320 398 454
#     4  12  24  46  70 106 140 196 246 312 378 461
#     4  10  21  46  71 107 143 198 252 310 375 459
#     4  10  25  43  71 104 143 186 251 313 374 447
#     4  12  28  44  76 106 152 202 248 318 390 472
#
# _framework density 27.090772000000001
#
# number of rings (size 3 to 8) (size 9 to 14) (size 15 to 20)
#    1.200    0.000    4.000    1.200    0.000    8.000 
#    0.000    0.000    0.000    0.000    0.000    0.000 
#    0.000    0.000    0.000    0.000    0.000    0.000 
#
# Total GULP energy -111369.593134 kJ/mol
# GULP energy per Si atom -5568.479657 kJ/mol
# Density = 2.702911 g / cm^3
# Si number density = 27.090772 Si / 1000 Ang^3
#
#
#
# Elastic Constant Matrix: (Units=GPa)
#
#
# Indices 1 2 3 4 5 6 
#
# 1 118.5482 14.8705 44.5084 0.0000 0.0000 0.0000
# 2 14.8705 94.3113 44.6803 0.0000 0.0000 0.0000
# 3 44.5084 44.6803 155.4211 0.0000 0.0000 0.0000
# 4 0.0000 0.0000 0.0000 -10.5542 0.0000 0.0000
# 5 0.0000 0.0000 0.0000 0.0000 58.8739 0.0000
# 6 0.0000 0.0000 0.0000 0.0000 0.0000 23.5470
#
#
#
# Elastic Compliance Matrix: (Units=1/GPa)
#
#
# Indices 1 2 3 4 5 6 
#
# 1 0.009456 -0.000241 -0.002639 0.000000 0.000000 0.000000
# 2 -0.000241 0.012281 -0.003462 0.000000 0.000000 0.000000
# 3 -0.002639 -0.003462 0.008185 0.000000 0.000000 0.000000
# 4 0.000000 0.000000 0.000000 -0.094749 0.000000 0.000000
# 5 0.000000 0.000000 0.000000 0.000000 0.016985 0.000000
# 6 0.000000 0.000000 0.000000 0.000000 0.000000 0.042468
#
#
# Mechanical properties :
#
#
# Convention : Reuss Voigt Hill
#
# Bulk Modulus (GPa) = 58.00508 64.04432 61.02470
# Shear Modulus (GPa) = 382.95799 31.98810 207.47304
#
# Velocity S-wave (km/s) = 11.90243 3.43997 8.76075
# Velocity P-wave (km/s) = 14.50339 6.28250 11.17627
#
# Compressibility (1/GPa) = 0.01723987
#
# Stress axis : x y z
#
# Youngs Moduli (GPa) = 105.74940 81.42599 122.17568
#
# Poissons Ratio (x) = 0.01961 0.32239
# Poissons Ratio (y) = 0.02547 0.42292
# Poissons Ratio (z) = 0.27905 0.28186
#
# Static dielectric constant tensor:
#      x y z
#    x 2.037550 0.000000 0.000000 
#    y 0.000000 2.187890 0.000000 
#    z 0.000000 0.000000 2.272140 
# 
# From -- ./inp_files/2049.got.cif
#   From: 2010.05.17/outbox.cif.g08.bks.cpg/sg34_2_cif.got.tgz:2049.got - 2010.06.03 17:23:11.
