data_PCOD9347715
_publ_section_title
;
Structure prediction by ZEFSAII (Michael W. Deem and Ramdas Pophale) SiO2 
 PCOD9347715
Probable space group: P N N 2
;
_chemical_formula_sum "Si O2"
_cell_formula_units_Z 16
_cell_length_a 8.842337
_cell_length_b 12.512085
_cell_length_c 6.380711
_cell_angle_alpha 90.000000
_cell_angle_beta 90.000000
_cell_angle_gamma 90.000000
_cell_volume 705.936803
_symmetry_space_group_name_H-M "P N N 2"
_symmetry_group_IT_number 34
_symmetry_cell_setting 'orthorhombic'
loop_
_space_group_symop_operation_xyz
x,y,z
-x,-y,z
1/2-x,1/2+y,1/2+z
1/2+x,1/2-y,1/2+z
loop_
_atom_site_type_symbol
_atom_site_label
_atom_site_fract_x
_atom_site_fract_y
_atom_site_fract_z
Si Si1 0.205842 0.192566 0.395930
Si Si2 0.000000 0.000000 0.463088
Si Si3 0.463585 0.825306 0.237449
Si Si4 0.218618 0.393862 0.111136
Si Si5 0.500000 0.000000 0.903016
O O1 0.617973 0.418675 0.850138
O O2 0.389091 0.192017 0.384537
O O3 0.137172 0.236237 0.616239
O O4 0.176026 0.281359 0.216998
O O5 0.893599 0.078627 0.596426
O O6 0.348046 0.891448 0.379657
O O7 0.523694 0.898447 0.049115
O O8 0.141660 0.482666 0.253402
#
# Coordination Sequence:
#
# PCOD9347715 Si02
#       5
#     4   2   4   4   2
#     4  11  25  45  71 112 154 201 257 320 390 472
#     4  12  24  46  74 114 146 208 252 312 398 458
#     4  11  24  46  71 109 150 200 258 320 387 471
#     4  11  25  45  73 108 150 198 257 324 384 480
#     4  10  22  44  70 102 150 200 244 318 390 452
#
# _framework density 22.664921
#
# number of rings (size 3 to 8) (size 9 to 14) (size 15 to 20)
#    0.000    1.000    2.500    3.750    3.500    2.000 
#    0.000    6.250    0.000    0.000    0.000    0.000 
#    0.000    0.000    0.000    0.000    0.000    0.000 
#
# Total GULP energy -89246.442434 kJ/mol
# GULP energy per Si atom -5577.902652 kJ/mol
# Density = 2.261333 g / cm^3
# Si number density = 22.664921 Si / 1000 Ang^3
#
#
#
# Elastic Constant Matrix: (Units=GPa)
#
#
# Indices 1 2 3 4 5 6 
#
# 1 173.9542 48.7211 57.3833 0.0000 0.0000 0.0000
# 2 48.7211 85.8256 41.3348 0.0000 0.0000 0.0000
# 3 57.3833 41.3348 83.2780 0.0000 0.0000 0.0000
# 4 0.0000 0.0000 0.0000 23.2571 0.0000 0.0000
# 5 0.0000 0.0000 0.0000 0.0000 27.0715 0.0000
# 6 0.0000 0.0000 0.0000 0.0000 0.0000 46.4042
#
#
#
# Elastic Compliance Matrix: (Units=1/GPa)
#
#
# Indices 1 2 3 4 5 6 
#
# 1 0.007804 -0.002418 -0.004177 0.000000 0.000000 0.000000
# 2 -0.002418 0.016061 -0.006306 0.000000 0.000000 0.000000
# 3 -0.004177 -0.006306 0.018016 0.000000 0.000000 0.000000
# 4 0.000000 0.000000 0.000000 0.042998 0.000000 0.000000
# 5 0.000000 0.000000 0.000000 0.000000 0.036939 0.000000
# 6 0.000000 0.000000 0.000000 0.000000 0.000000 0.021550
#
#
# Mechanical properties :
#
#
# Convention : Reuss Voigt Hill
#
# Bulk Modulus (GPa) = 62.19212 70.88181 66.53696
# Shear Modulus (GPa) = 28.64854 32.38780 30.51817
#
# Velocity S-wave (km/s) = 3.55914 3.78429 3.67344
# Velocity P-wave (km/s) = 6.66253 7.10184 6.88569
#
# Compressibility (1/GPa) = 0.01607921
#
# Stress axis : x y z
#
# Youngs Moduli (GPa) = 128.14176 62.26178 55.50661
#
# Poissons Ratio (x) = 0.15057 0.23185
# Poissons Ratio (y) = 0.30989 0.35000
# Poissons Ratio (z) = 0.53524 0.39259
#
# Static dielectric constant tensor:
#      x y z
#    x 1.852570 0.000000 0.000000 
#    y 0.000000 1.931450 0.000000 
#    z 0.000000 0.000000 1.801820 
# 
# From -- ./inp_files/349.got.cif
#   From: 2010.05.17/outbox.cif.g08.bks.cpg/sg34_1_cif.got.tgz:349.got - 2010.06.03 17:23:11.
