data_PCOD9347584
_publ_section_title
;
Structure prediction by ZEFSAII (Michael W. Deem and Ramdas Pophale) SiO2 
 PCOD9347584
Probable space group: P N N 2
;
_chemical_formula_sum "Si O2"
_cell_formula_units_Z 32
_cell_length_a 9.514082
_cell_length_b 13.369374
_cell_length_c 14.431960
_cell_angle_alpha 90.000000
_cell_angle_beta 90.000000
_cell_angle_gamma 90.000000
_cell_volume 1835.706642
_symmetry_space_group_name_H-M "P N N 2"
_symmetry_group_IT_number 34
_symmetry_cell_setting 'orthorhombic'
loop_
_space_group_symop_operation_xyz
x,y,z
-x,-y,z
1/2-x,1/2+y,1/2+z
1/2+x,1/2-y,1/2+z
loop_
_atom_site_type_symbol
_atom_site_label
_atom_site_fract_x
_atom_site_fract_y
_atom_site_fract_z
Si Si1 0.659998 0.531877 0.534070
Si Si2 0.213493 0.732695 0.034070
Si Si3 0.635471 0.929104 0.891473
Si Si4 0.364530 0.070895 0.176667
Si Si5 0.844199 0.043315 0.534070
Si Si6 0.948786 0.261401 0.534070
Si Si7 0.644153 0.936252 0.393310
Si Si8 0.144153 0.563749 0.174830
O O1 0.500000 0.500000 0.534070
O O2 0.672034 0.651633 0.534070
O O3 0.739954 0.483991 0.446179
O O4 0.739954 0.483991 0.621961
O O5 0.152535 0.669403 0.947366
O O6 0.384970 0.733688 0.034070
O O7 0.152534 0.669403 0.120774
O O8 0.667732 0.917957 0.783287
O O9 0.500000 0.000000 0.900061
O O10 0.592493 0.828216 0.945073
O O11 0.407507 0.171784 0.123067
O O12 0.332270 0.082042 0.284853
O O13 0.500000 0.000000 0.168078
O O14 0.857737 0.161648 0.534071
O O15 0.762154 0.002158 0.444562
O O16 0.762154 0.002156 0.623577
O O17 0.000000 0.000000 0.534069
O O18 0.500000 0.000000 0.404811
O O19 0.000000 0.500000 0.163330
#
# Coordination Sequence:
#
# PCOD9347584 Si02
#       8
#     4   4   4   4   4   4   4   4
#     4  11  23  39  61  90 122 154 198 262 300 351
#     4  11  20  41  63  89 123 158 199 251 304 354
#     4  10  21  42  62  84 120 167 202 241 307 366
#     4  10  21  42  62  84 120 167 202 241 307 366
#     4  11  21  37  60  92 123 157 197 252 305 355
#     4  11  20  39  68  86 118 165 207 243 302 367
#     4  10  23  40  62  88 125 162 199 249 303 365
#     4  10  23  40  62  88 125 162 199 249 303 365
#
# _framework density 17.431979999999999
#
# number of rings (size 3 to 8) (size 9 to 14) (size 15 to 20)
#    0.000    1.500    5.000    2.250    0.000    7.000 
#    4.500    0.000    0.000    0.000    0.000    0.000 
#    0.000    0.000    0.000    0.000    0.000    0.000 
#
# Total GULP energy -178556.472880 kJ/mol
# GULP energy per Si atom -5579.889777 kJ/mol
# Density = 1.739230 g / cm^3
# Si number density = 17.431980 Si / 1000 Ang^3
#
#
#
# Elastic Constant Matrix: (Units=GPa)
#
#
# Indices 1 2 3 4 5 6 
#
# 1 121.7243 42.9269 78.4059 0.0000 0.0000 0.0000
# 2 42.9269 127.8648 68.0578 0.0000 0.0000 0.0000
# 3 78.4059 68.0578 179.8221 0.0000 0.0000 0.0000
# 4 0.0000 0.0000 0.0000 16.7949 0.0000 0.0000
# 5 0.0000 0.0000 0.0000 0.0000 18.5104 0.0000
# 6 0.0000 0.0000 0.0000 0.0000 0.0000 35.4214
#
#
#
# Elastic Compliance Matrix: (Units=1/GPa)
#
#
# Indices 1 2 3 4 5 6 
#
# 1 0.011653 -0.001512 -0.004508 0.000000 0.000000 0.000000
# 2 -0.001512 0.009990 -0.003121 0.000000 0.000000 0.000000
# 3 -0.004508 -0.003121 0.008708 0.000000 0.000000 0.000000
# 4 0.000000 0.000000 0.000000 0.059542 0.000000 0.000000
# 5 0.000000 0.000000 0.000000 0.000000 0.054024 0.000000
# 6 0.000000 0.000000 0.000000 0.000000 0.000000 0.028232
#
#
# Mechanical properties :
#
#
# Convention : Reuss Voigt Hill
#
# Bulk Modulus (GPa) = 82.87577 89.79915 86.33746
# Shear Modulus (GPa) = 25.71296 30.14671 27.92984
#
# Velocity S-wave (km/s) = 3.84480 4.16311 4.00711
# Velocity P-wave (km/s) = 8.20704 8.64491 8.42882
#
# Compressibility (1/GPa) = 0.01206625
#
# Stress axis : x y z
#
# Youngs Moduli (GPa) = 85.81779 100.10052 114.83453
#
# Poissons Ratio (x) = 0.15139 0.51772
# Poissons Ratio (y) = 0.12979 0.35846
# Poissons Ratio (z) = 0.38690 0.31246
#
# Static dielectric constant tensor:
#      x y z
#    x 1.576530 0.000000 0.000000 
#    y 0.000000 1.701640 0.000000 
#    z 0.000000 0.000000 1.589200 
# 
# From -- ./inp_files/6561.got.cif
#   From: 2010.05.17/outbox.cif.g08.bks.cpg/sg34_4_cif.got.tgz:6561.got - 2010.06.03 17:23:11.
