data_PCOD9347329
_publ_section_title
;
Structure prediction by ZEFSAII (Michael W. Deem and Ramdas Pophale) SiO2 
 PCOD9347329
Probable space group: P N N 2
;
_chemical_formula_sum "Si O2"
_cell_formula_units_Z 16
_cell_length_a 15.635238
_cell_length_b 7.824957
_cell_length_c 4.216922
_cell_angle_alpha 90.000000
_cell_angle_beta 90.000000
_cell_angle_gamma 90.000000
_cell_volume 515.919596
_symmetry_space_group_name_H-M "P N N 2"
_symmetry_group_IT_number 34
_symmetry_cell_setting 'orthorhombic'
loop_
_space_group_symop_operation_xyz
x,y,z
-x,-y,z
1/2-x,1/2+y,1/2+z
1/2+x,1/2-y,1/2+z
loop_
_atom_site_type_symbol
_atom_site_label
_atom_site_fract_x
_atom_site_fract_y
_atom_site_fract_z
Si Si1 0.750000 0.039751 0.931070
Si Si2 0.000000 0.500000 0.963731
Si Si3 0.126660 0.733522 0.379208
Si Si4 0.000000 0.000000 0.398409
Si Si5 0.626660 0.266478 0.482932
O O1 0.683245 0.901266 0.077046
O O2 0.691836 0.153629 0.698284
O O3 0.816755 0.901266 0.785094
O O4 0.808164 0.153629 0.163856
O O5 0.936889 0.383604 0.174089
O O6 0.935775 0.635104 0.801626
O O7 0.064225 0.864896 0.560514
O O8 0.063111 0.116396 0.188052
#
# Coordination Sequence:
#
# PCOD9347329 Si02
#       5
#     4   2   4   2   4
#     4  10  20  32  56  82 104 132 176 220 256 300
#     4   8  16  32  56  72 100 146 180 192 248 338
#     4   9  18  34  56  79 102 136 178 215 252 306
#     4   8  16  32  56  72 100 146 180 192 248 338
#     4   9  18  34  56  79 102 136 178 215 252 306
#
# _framework density 31.012581999999998
#
# number of rings (size 3 to 8) (size 9 to 14) (size 15 to 20)
#    0.000    3.000    0.000    0.000    0.000    8.000 
#    0.000    0.000    0.000  150.000    0.000    0.000 
#    0.000    0.000    0.000    0.000    0.000    0.000 
#
# Total GULP energy -89523.180709 kJ/mol
# GULP energy per Si atom -5595.198794 kJ/mol
# Density = 3.094200 g / cm^3
# Si number density = 31.012582 Si / 1000 Ang^3
#
#
#
# Elastic Constant Matrix: (Units=GPa)
#
#
# Indices 1 2 3 4 5 6 
#
# 1 239.7156 169.3802 81.9666 0.0000 0.0000 0.0000
# 2 169.3802 229.5009 75.8302 0.0000 0.0000 0.0000
# 3 81.9666 75.8302 70.2101 0.0000 0.0000 0.0000
# 4 0.0000 0.0000 0.0000 -72.5050 0.0000 0.0000
# 5 0.0000 0.0000 0.0000 0.0000 63.0937 0.0000
# 6 0.0000 0.0000 0.0000 0.0000 0.0000 218.1315
#
#
#
# Elastic Compliance Matrix: (Units=1/GPa)
#
#
# Indices 1 2 3 4 5 6 
#
# 1 0.010027 -0.005492 -0.005774 0.000000 0.000000 0.000000
# 2 -0.005492 0.009784 -0.004155 0.000000 0.000000 0.000000
# 3 -0.005774 -0.004155 0.025471 0.000000 0.000000 0.000000
# 4 0.000000 0.000000 0.000000 -0.013792 0.000000 0.000000
# 5 0.000000 0.000000 0.000000 0.000000 0.015849 0.000000
# 6 0.000000 0.000000 0.000000 0.000000 0.000000 0.004584
#
#
# Mechanical properties :
#
#
# Convention : Reuss Voigt Hill
#
# Bulk Modulus (GPa) = 69.25419 132.64230 100.94824
# Shear Modulus (GPa) = 57.09264 55.89401 56.49332
#
# Velocity S-wave (km/s) = 4.29528 4.24996 4.27268
# Velocity P-wave (km/s) = 6.85411 8.18206 7.54735
#
# Compressibility (1/GPa) = 0.01443956
#
# Stress axis : x y z
#
# Youngs Moduli (GPa) = 99.73469 102.21152 39.26095
#
# Poissons Ratio (x) = 0.56138 0.22667
# Poissons Ratio (y) = 0.54778 0.16312
# Poissons Ratio (z) = 0.57582 0.42466
#
# Static dielectric constant tensor:
#      x y z
#    x 2.404230 0.000000 0.000000 
#    y 0.000000 2.362760 0.000000 
#    z 0.000000 0.000000 2.321160 
# 
# From -- ./inp_files/315.got.cif
#   From: 2010.05.17/outbox.cif.g08.bks.cpg/sg34_1_cif.got.tgz:315.got - 2010.06.03 17:23:11.
