data_PCOD9347856
_publ_section_title
;
Structure prediction by ZEFSAII (Michael W. Deem and Ramdas Pophale) SiO2 
 PCOD9347856
Probable space group: P N N 2
;
_chemical_formula_sum "Si O2"
_cell_formula_units_Z 20
_cell_length_a 13.559768
_cell_length_b 12.224292
_cell_length_c 4.861391
_cell_angle_alpha 90.000000
_cell_angle_beta 90.000000
_cell_angle_gamma 90.000000
_cell_volume 805.817189
_symmetry_space_group_name_H-M "P N N 2"
_symmetry_group_IT_number 34
_symmetry_cell_setting 'orthorhombic'
loop_
_space_group_symop_operation_xyz
x,y,z
-x,-y,z
1/2-x,1/2+y,1/2+z
1/2+x,1/2-y,1/2+z
loop_
_atom_site_type_symbol
_atom_site_label
_atom_site_fract_x
_atom_site_fract_y
_atom_site_fract_z
Si Si1 0.113527 0.534708 0.231770
Si Si2 0.027012 0.122200 0.597924
Si Si3 0.690672 0.085431 0.253921
Si Si4 0.370517 0.713824 0.571004
Si Si5 0.841576 0.237024 0.503724
O O1 0.163517 0.451604 0.451084
O O2 0.121166 0.657567 0.340301
O O3 0.000000 0.500000 0.204326
O O4 0.172274 0.517609 0.950217
O O5 0.105428 0.121810 0.844891
O O6 0.927153 0.184612 0.684236
O O7 0.066844 0.188791 0.336924
O O8 0.000000 0.000000 0.516231
O O9 0.616127 0.176106 0.387462
O O10 0.796127 0.142491 0.303155
O O11 0.256995 0.723831 0.658002
#
# Coordination Sequence:
#
# PCOD9347856 Si02
#       5
#     4   4   4   4   4
#     4  12  24  44  71 102 134 184 234 289 348 408
#     4  12  26  47  71 103 142 186 232 287 348 410
#     4  10  25  42  68  97 141 174 232 281 354 397
#     4  10  25  43  68 102 139 181 239 275 347 418
#     4  10  28  42  76  99 145 182 234 287 344 417
#
# _framework density 24.819527000000001
#
# number of rings (size 3 to 8) (size 9 to 14) (size 15 to 20)
#    1.200    0.000    0.000    4.800    5.600    6.400 
#    0.000    0.000    0.000    0.000    0.000    0.000 
#    0.000    0.000    0.000    0.000    0.000    0.000 
#
# Total GULP energy -111890.117794 kJ/mol
# GULP energy per Si atom -5594.505890 kJ/mol
# Density = 2.476304 g / cm^3
# Si number density = 24.819527 Si / 1000 Ang^3
#
#
#
# Elastic Constant Matrix: (Units=GPa)
#
#
# Indices 1 2 3 4 5 6 
#
# 1 91.3741 43.7284 6.3738 0.0000 0.0000 0.0000
# 2 43.7284 96.0124 -4.7846 0.0000 0.0000 0.0000
# 3 6.3738 -4.7846 82.3856 0.0000 0.0000 0.0000
# 4 0.0000 0.0000 0.0000 27.1407 0.0000 0.0000
# 5 0.0000 0.0000 0.0000 0.0000 3.2501 0.0000
# 6 0.0000 0.0000 0.0000 0.0000 0.0000 33.1366
#
#
#
# Elastic Compliance Matrix: (Units=1/GPa)
#
#
# Indices 1 2 3 4 5 6 
#
# 1 0.014171 -0.006528 -0.001475 0.000000 0.000000 0.000000
# 2 -0.006528 0.013452 0.001286 0.000000 0.000000 0.000000
# 3 -0.001475 0.001286 0.012327 0.000000 0.000000 0.000000
# 4 0.000000 0.000000 0.000000 0.036845 0.000000 0.000000
# 5 0.000000 0.000000 0.000000 0.000000 0.307678 0.000000
# 6 0.000000 0.000000 0.000000 0.000000 0.000000 0.030178
#
#
# Mechanical properties :
#
#
# Convention : Reuss Voigt Hill
#
# Bulk Modulus (GPa) = 37.71219 40.04527 38.87873
# Shear Modulus (GPa) = 11.44364 27.66911 19.55638
#
# Velocity S-wave (km/s) = 2.14959 3.34250 2.81008
# Velocity P-wave (km/s) = 4.62478 5.57369 5.12126
#
# Compressibility (1/GPa) = 0.02651662
#
# Stress axis : x y z
#
# Youngs Moduli (GPa) = 70.56768 74.33642 81.12343
#
# Poissons Ratio (x) = 0.48523 0.11969
# Poissons Ratio (y) = 0.46063 -0.10435
# Poissons Ratio (z) = 0.10412 -0.09562
#
# Static dielectric constant tensor:
#      x y z
#    x 1.979770 0.000000 0.000000 
#    y 0.000000 2.033120 0.000000 
#    z 0.000000 0.000000 1.897230 
# 
# From -- ./inp_files/1190.got.cif
#   From: 2010.05.17/outbox.cif.g08.bks.cpg/sg34_1_cif.got.tgz:1190.got - 2010.06.03 17:23:11.
