data_PCOD9347671
_publ_section_title
;
Structure prediction by ZEFSAII (Michael W. Deem and Ramdas Pophale) SiO2 
 PCOD9347671
Probable space group: P N N 2
;
_chemical_formula_sum "Si O2"
_cell_formula_units_Z 20
_cell_length_a 9.942097
_cell_length_b 15.236658
_cell_length_c 6.042046
_cell_angle_alpha 90.000000
_cell_angle_beta 90.000000
_cell_angle_gamma 90.000000
_cell_volume 915.275301
_symmetry_space_group_name_H-M "P N N 2"
_symmetry_group_IT_number 34
_symmetry_cell_setting 'orthorhombic'
loop_
_space_group_symop_operation_xyz
x,y,z
-x,-y,z
1/2-x,1/2+y,1/2+z
1/2+x,1/2-y,1/2+z
loop_
_atom_site_type_symbol
_atom_site_label
_atom_site_fract_x
_atom_site_fract_y
_atom_site_fract_z
Si Si1 0.145383 0.961634 0.793510
Si Si2 0.334205 0.922725 0.427215
Si Si3 0.758184 0.206444 0.045179
Si Si4 0.499714 0.809243 0.779872
Si Si5 0.374991 0.055366 0.054642
O O1 0.195182 0.944086 0.547405
O O2 0.164151 0.869109 0.912155
O O3 0.000000 0.000000 0.805043
O O4 0.245405 0.028915 0.916317
O O5 0.312958 0.847059 0.245305
O O6 0.433280 0.881718 0.612689
O O7 0.363750 0.014452 0.299061
O O8 0.877795 0.265962 0.142516
O O9 0.633967 0.238903 0.885575
O O10 0.577969 0.847844 0.995866
O O11 0.500000 0.000000 0.960956
#
# Coordination Sequence:
#
# PCOD9347671 Si02
#       5
#     4   4   4   4   4
#     4  10  23  43  65  99 133 171 229 278 335 403
#     4  10  22  41  67  90 135 170 228 278 331 400
#     4  10  24  43  62  97 140 175 224 282 344 413
#     4  11  24  43  68  97 137 179 228 281 344 410
#     4  11  21  41  70  96 122 176 228 276 321 401
#
# _framework density 21.85135
#
# number of rings (size 3 to 8) (size 9 to 14) (size 15 to 20)
#    0.000    1.600    6.000    0.000    2.800    9.600 
#    3.600    0.000    0.000    0.000    0.000    0.000 
#    0.000    0.000    0.000    0.000    0.000    0.000 
#
# Total GULP energy -111350.363230 kJ/mol
# GULP energy per Si atom -5567.518162 kJ/mol
# Density = 2.180162 g / cm^3
# Si number density = 21.851350 Si / 1000 Ang^3
#
#
#
# Elastic Constant Matrix: (Units=GPa)
#
#
# Indices 1 2 3 4 5 6 
#
# 1 173.5359 51.0941 56.1423 0.0000 0.0000 0.0000
# 2 51.0941 34.7410 19.1351 0.0000 0.0000 0.0000
# 3 56.1423 19.1351 101.2749 0.0000 0.0000 0.0000
# 4 0.0000 0.0000 0.0000 6.8151 0.0000 0.0000
# 5 0.0000 0.0000 0.0000 0.0000 65.1493 0.0000
# 6 0.0000 0.0000 0.0000 0.0000 0.0000 4.1253
#
#
#
# Elastic Compliance Matrix: (Units=1/GPa)
#
#
# Indices 1 2 3 4 5 6 
#
# 1 0.011142 -0.014493 -0.003438 0.000000 0.000000 0.000000
# 2 -0.014493 0.050980 -0.001598 0.000000 0.000000 0.000000
# 3 -0.003438 -0.001598 0.012082 0.000000 0.000000 0.000000
# 4 0.000000 0.000000 0.000000 0.146732 0.000000 0.000000
# 5 0.000000 0.000000 0.000000 0.000000 0.015349 0.000000
# 6 0.000000 0.000000 0.000000 0.000000 0.000000 0.242410
#
#
# Mechanical properties :
#
#
# Convention : Reuss Voigt Hill
#
# Bulk Modulus (GPa) = 28.45333 62.47718 45.46525
# Shear Modulus (GPa) = 9.44344 27.42995 18.43669
#
# Velocity S-wave (km/s) = 2.08112 3.54686 2.90786
# Velocity P-wave (km/s) = 4.33870 6.74000 5.66798
#
# Compressibility (1/GPa) = 0.03514528
#
# Stress axis : x y z
#
# Youngs Moduli (GPa) = 89.75051 19.61573 82.76720
#
# Poissons Ratio (x) = 0.28429 0.28458
# Poissons Ratio (y) = 1.30075 0.13226
# Poissons Ratio (z) = 0.30859 0.03134
#
# Static dielectric constant tensor:
#      x y z
#    x 1.786980 0.000000 0.000000 
#    y 0.000000 2.043260 0.000000 
#    z 0.000000 0.000000 1.835150 
# 
# From -- ./inp_files/428.got.cif
#   From: 2010.05.17/outbox.cif.g08.bks.cpg/sg34_1_cif.got.tgz:428.got - 2010.06.03 17:23:11.
