data_PCOD9347544
_publ_section_title
;
Structure prediction by ZEFSAII (Michael W. Deem and Ramdas Pophale) SiO2 
 PCOD9347544
Probable space group: P N N 2
;
_chemical_formula_sum "Si O2"
_cell_formula_units_Z 28
_cell_length_a 25.873477
_cell_length_b 8.899165
_cell_length_c 5.371846
_cell_angle_alpha 90.000000
_cell_angle_beta 90.000000
_cell_angle_gamma 90.000000
_cell_volume 1236.880117
_symmetry_space_group_name_H-M "P N N 2"
_symmetry_group_IT_number 34
_symmetry_cell_setting 'orthorhombic'
loop_
_space_group_symop_operation_xyz
x,y,z
-x,-y,z
1/2-x,1/2+y,1/2+z
1/2+x,1/2-y,1/2+z
loop_
_atom_site_type_symbol
_atom_site_label
_atom_site_fract_x
_atom_site_fract_y
_atom_site_fract_z
Si Si1 0.724453 0.935295 0.778700
Si Si2 0.973753 0.363397 0.134841
Si Si3 0.116462 0.704037 0.785045
Si Si4 0.235526 0.732579 0.789747
Si Si5 0.424090 0.679070 0.674259
Si Si6 0.937294 0.002224 0.669183
Si Si7 0.387512 0.987611 0.883677
O O1 0.748591 0.871957 0.525233
O O2 0.736106 0.110134 0.807725
O O3 0.661898 0.926244 0.767668
O O4 0.743373 0.846611 0.023170
O O5 0.946348 0.452686 0.357791
O O6 0.000000 0.500000 0.980493
O O7 0.016723 0.239550 0.168172
O O8 0.922696 0.300471 0.011507
O O9 0.174171 0.762615 0.813738
O O10 0.121631 0.534527 0.672181
O O11 0.085925 0.831443 0.630264
O O12 0.416319 0.586399 0.417131
O O13 0.390193 0.826773 0.746170
O O14 0.420474 0.580427 0.919431
O O15 0.000000 0.000000 0.688757
#
# Coordination Sequence:
#
# PCOD9347544 Si02
#       7
#     4   4   4   4   4   4   4
#     4  11  24  45  70 100 132 171 219 280 338 405
#     4  10  21  39  64  91 124 173 220 263 317 385
#     4  11  24  41  68  94 134 175 222 269 332 397
#     4  11  25  44  72  99 134 175 223 280 343 398
#     4  11  26  40  63  95 128 178 216 273 321 392
#     4  12  25  40  61  92 136 170 215 266 332 383
#     4  10  24  42  67  92 129 170 227 269 322 394
#
# _framework density 22.637601
#
# number of rings (size 3 to 8) (size 9 to 14) (size 15 to 20)
#    0.000    1.143    2.857    2.143    6.000    2.857 
#    0.000    0.000    0.000    0.000    0.000    0.000 
#    0.000    0.000    0.000    0.000    0.000    0.000 
#
# Total GULP energy -156026.217792 kJ/mol
# GULP energy per Si atom -5572.364921 kJ/mol
# Density = 2.258608 g / cm^3
# Si number density = 22.637601 Si / 1000 Ang^3
#
#
#
# Elastic Constant Matrix: (Units=GPa)
#
#
# Indices 1 2 3 4 5 6 
#
# 1 39.4001 0.5855 5.2597 0.0000 0.0000 0.0000
# 2 0.5855 76.9694 43.5725 0.0000 0.0000 0.0000
# 3 5.2597 43.5725 115.7160 0.0000 0.0000 0.0000
# 4 0.0000 0.0000 0.0000 26.1213 0.0000 0.0000
# 5 0.0000 0.0000 0.0000 0.0000 4.6030 0.0000
# 6 0.0000 0.0000 0.0000 0.0000 0.0000 29.5835
#
#
#
# Elastic Compliance Matrix: (Units=1/GPa)
#
#
# Indices 1 2 3 4 5 6 
#
# 1 0.025557 0.000589 -0.001383 0.000000 0.000000 0.000000
# 2 0.000589 0.016525 -0.006249 0.000000 0.000000 0.000000
# 3 -0.001383 -0.006249 0.011058 0.000000 0.000000 0.000000
# 4 0.000000 0.000000 0.000000 0.038283 0.000000 0.000000
# 5 0.000000 0.000000 0.000000 0.000000 0.217249 0.000000
# 6 0.000000 0.000000 0.000000 0.000000 0.000000 0.033803
#
#
# Mechanical properties :
#
#
# Convention : Reuss Voigt Hill
#
# Bulk Modulus (GPa) = 25.60693 36.76899 31.18796
# Shear Modulus (GPa) = 13.52886 24.23942 18.88414
#
# Velocity S-wave (km/s) = 2.44730 3.27580 2.89137
# Velocity P-wave (km/s) = 4.39567 5.53041 4.99537
#
# Compressibility (1/GPa) = 0.03905192
#
# Stress axis : x y z
#
# Youngs Moduli (GPa) = 39.12892 60.51269 90.43309
#
# Poissons Ratio (x) = -0.03562 0.12509
# Poissons Ratio (y) = -0.02303 0.56515
# Poissons Ratio (z) = 0.05413 0.37817
#
# Static dielectric constant tensor:
#      x y z
#    x 2.156850 0.000000 0.000000 
#    y 0.000000 2.036310 0.000000 
#    z 0.000000 0.000000 2.001200 
# 
# From -- ./inp_files/593.got.cif
#   From: 2010.05.17/outbox.cif.g08.bks.cpg/sg34_1_cif.got.tgz:593.got - 2010.06.03 17:23:11.
