data_PCOD9347844
_publ_section_title
;
Structure prediction by ZEFSAII (Michael W. Deem and Ramdas Pophale) SiO2 
 PCOD9347844
Probable space group: P N N 2
;
_chemical_formula_sum "Si O2"
_cell_formula_units_Z 32
_cell_length_a 15.480788
_cell_length_b 12.009208
_cell_length_c 6.501456
_cell_angle_alpha 90.000000
_cell_angle_beta 90.000000
_cell_angle_gamma 90.000000
_cell_volume 1208.698708
_symmetry_space_group_name_H-M "P N N 2"
_symmetry_group_IT_number 34
_symmetry_cell_setting 'orthorhombic'
loop_
_space_group_symop_operation_xyz
x,y,z
-x,-y,z
1/2-x,1/2+y,1/2+z
1/2+x,1/2-y,1/2+z
loop_
_atom_site_type_symbol
_atom_site_label
_atom_site_fract_x
_atom_site_fract_y
_atom_site_fract_z
Si Si1 0.474920 0.123829 0.568590
Si Si2 0.910303 0.987063 0.069021
Si Si3 0.630212 0.150612 0.901999
Si Si4 0.706393 0.949106 0.516340
Si Si5 0.275045 0.061125 0.070390
Si Si6 0.878417 0.839082 0.695287
Si Si7 0.944521 0.179313 0.743341
Si Si8 0.757915 0.201125 0.570046
O O1 0.472566 0.214857 0.385790
O O2 0.500000 0.000000 0.490601
O O3 0.457584 0.852766 0.761021
O O4 0.375051 0.106906 0.634353
O O5 0.917207 0.084863 0.903707
O O6 0.903576 0.876685 0.927119
O O7 0.000000 0.000000 0.187864
O O8 0.814733 0.993174 0.153079
O O9 0.701099 0.220851 0.775365
O O10 0.630700 0.211704 0.122960
O O11 0.672687 0.030385 0.944772
O O12 0.713917 0.084254 0.507352
O O13 0.681316 0.912722 0.285418
O O14 0.800031 0.909843 0.600185
O O15 0.255255 0.179200 0.959177
O O16 0.974959 0.858874 0.603200
O O17 0.859140 0.188935 0.607486
#
# Coordination Sequence:
#
# PCOD9347844 Si02
#       8
#     4   4   4   4   4   4   4   4
#     4  12  28  50  75 110 157 211 262 321 386 471
#     4  10  24  46  73 109 154 195 248 321 386 460
#     4  12  27  49  76 115 153 207 266 320 391 473
#     4  12  26  51  80 112 160 206 262 325 399 468
#     4  12  27  49  81 113 155 206 264 320 402 470
#     4  11  25  46  80 110 153 202 257 328 388 472
#     4  11  24  49  74 106 159 195 255 320 393 452
#     4  12  25  51  74 110 157 204 252 330 391 465
#
# _framework density 26.474751999999999
#
# number of rings (size 3 to 8) (size 9 to 14) (size 15 to 20)
#    0.000    0.500    6.250    0.000    7.000    1.000 
#    6.750    0.000    0.000    0.000    0.000    0.000 
#    0.000    0.000    0.000    0.000    0.000    0.000 
#
# Total GULP energy -178324.454053 kJ/mol
# GULP energy per Si atom -5572.639189 kJ/mol
# Density = 2.641449 g / cm^3
# Si number density = 26.474752 Si / 1000 Ang^3
#
#
#
# Elastic Constant Matrix: (Units=GPa)
#
#
# Indices 1 2 3 4 5 6 
#
# 1 188.8634 32.9185 20.3075 0.0000 0.0000 0.0000
# 2 32.9185 141.2011 27.8524 0.0000 0.0000 0.0000
# 3 20.3075 27.8524 67.9917 0.0000 0.0000 0.0000
# 4 0.0000 0.0000 0.0000 45.9414 0.0000 0.0000
# 5 0.0000 0.0000 0.0000 0.0000 29.5758 0.0000
# 6 0.0000 0.0000 0.0000 0.0000 0.0000 32.7807
#
#
#
# Elastic Compliance Matrix: (Units=1/GPa)
#
#
# Indices 1 2 3 4 5 6 
#
# 1 0.005614 -0.001064 -0.001241 0.000000 0.000000 0.000000
# 2 -0.001064 0.007906 -0.002921 0.000000 0.000000 0.000000
# 3 -0.001241 -0.002921 0.016275 0.000000 0.000000 0.000000
# 4 0.000000 0.000000 0.000000 0.021767 0.000000 0.000000
# 5 0.000000 0.000000 0.000000 0.000000 0.033811 0.000000
# 6 0.000000 0.000000 0.000000 0.000000 0.000000 0.030506
#
#
# Mechanical properties :
#
#
# Convention : Reuss Voigt Hill
#
# Bulk Modulus (GPa) = 51.69753 62.24588 56.97170
# Shear Modulus (GPa) = 37.65674 42.79142 40.22408
#
# Velocity S-wave (km/s) = 3.77552 4.02470 3.90210
# Velocity P-wave (km/s) = 6.21092 6.72012 6.47053
#
# Compressibility (1/GPa) = 0.01934328
#
# Stress axis : x y z
#
# Youngs Moduli (GPa) = 178.13564 126.48104 61.44444
#
# Poissons Ratio (x) = 0.13457 0.07624
# Poissons Ratio (y) = 0.18953 0.17948
# Poissons Ratio (z) = 0.22104 0.36945
#
# Static dielectric constant tensor:
#      x y z
#    x 2.279340 0.000000 0.000000 
#    y 0.000000 2.103570 0.000000 
#    z 0.000000 0.000000 2.163820 
# 
# From -- ./inp_files/3688.got.cif
#   From: 2010.05.17/outbox.cif.g08.bks.cpg/sg34_2_cif.got.tgz:3688.got - 2010.06.03 17:23:11.
