data_PCOD9347112
_publ_section_title
;
Structure prediction by ZEFSAII (Michael W. Deem and Ramdas Pophale) SiO2 
 PCOD9347112
Probable space group: P N N 2
;
_chemical_formula_sum "Si O2"
_cell_formula_units_Z 32
_cell_length_a 9.611063
_cell_length_b 18.938577
_cell_length_c 7.157259
_cell_angle_alpha 90.000000
_cell_angle_beta 90.000000
_cell_angle_gamma 90.000000
_cell_volume 1302.763257
_symmetry_space_group_name_H-M "P N N 2"
_symmetry_group_IT_number 34
_symmetry_cell_setting 'orthorhombic'
loop_
_space_group_symop_operation_xyz
x,y,z
-x,-y,z
1/2-x,1/2+y,1/2+z
1/2+x,1/2-y,1/2+z
loop_
_atom_site_type_symbol
_atom_site_label
_atom_site_fract_x
_atom_site_fract_y
_atom_site_fract_z
Si Si1 0.368249 0.310409 0.034380
Si Si2 0.685825 0.328951 0.009869
Si Si3 0.762693 0.838227 0.938604
Si Si4 0.139667 0.961938 0.630834
Si Si5 0.508966 0.084012 0.864860
Si Si6 0.975642 0.075552 0.052093
Si Si7 0.782305 0.174920 0.950594
Si Si8 0.611640 0.945427 0.484443
O O1 0.525683 0.314403 0.956134
O O2 0.321530 0.391373 0.020376
O O3 0.370773 0.306758 0.262945
O O4 0.271569 0.244639 0.974112
O O5 0.688983 0.352288 0.225601
O O6 0.787073 0.384225 0.901419
O O7 0.748409 0.251917 0.017814
O O8 0.617269 0.877718 0.968193
O O9 0.884228 0.879381 0.045107
O O10 0.095260 0.945334 0.847124
O O11 0.274616 0.009167 0.601445
O O12 0.000000 0.000000 0.557914
O O13 0.647815 0.127311 0.906730
O O14 0.480180 0.092237 0.643448
O O15 0.500000 0.000000 0.905639
O O16 0.862484 0.132343 0.110944
O O17 0.000000 0.000000 0.143477
O O18 0.500000 0.000000 0.388242
#
# Coordination Sequence:
#
# PCOD9347112 Si02
#       8
#     4   4   4   4   4   4   4   4
#     4  11  21  38  56  88 118 151 191 235 295 348
#     4  11  21  40  55  88 124 147 187 246 286 345
#     4  11  21  35  61  82 118 155 186 236 296 343
#     4  10  16  32  58  81 114 149 187 245 298 325
#     4  10  18  32  53  88 111 140 194 246 281 333
#     4  10  18  33  55  86 110 143 195 246 284 332
#     4  11  22  35  61  84 116 156 188 232 298 341
#     4  10  19  32  57  88 115 145 195 249 290 331
#
# _framework density 24.563175000000001
#
# number of rings (size 3 to 8) (size 9 to 14) (size 15 to 20)
#    0.000    1.500    5.000    6.000    0.000    3.000 
#    0.000    0.000    0.000    4.500    0.000    0.000 
#    0.000    0.000    0.000    0.000    0.000    0.000 
#
# Total GULP energy -178360.205690 kJ/mol
# GULP energy per Si atom -5573.756428 kJ/mol
# Density = 2.450727 g / cm^3
# Si number density = 24.563175 Si / 1000 Ang^3
#
#
#
# Elastic Constant Matrix: (Units=GPa)
#
#
# Indices 1 2 3 4 5 6 
#
# 1 153.5412 43.3635 4.5212 0.0000 0.0000 0.0000
# 2 43.3635 150.8817 -4.7214 0.0000 0.0000 0.0000
# 3 4.5212 -4.7214 67.2886 0.0000 0.0000 0.0000
# 4 0.0000 0.0000 0.0000 5.5070 0.0000 0.0000
# 5 0.0000 0.0000 0.0000 0.0000 17.0594 0.0000
# 6 0.0000 0.0000 0.0000 0.0000 0.0000 50.9525
#
#
#
# Elastic Compliance Matrix: (Units=1/GPa)
#
#
# Indices 1 2 3 4 5 6 
#
# 1 0.007114 -0.002064 -0.000623 0.000000 0.000000 0.000000
# 2 -0.002064 0.007241 0.000647 0.000000 0.000000 0.000000
# 3 -0.000623 0.000647 0.014949 0.000000 0.000000 0.000000
# 4 0.000000 0.000000 0.000000 0.181587 0.000000 0.000000
# 5 0.000000 0.000000 0.000000 0.000000 0.058619 0.000000
# 6 0.000000 0.000000 0.000000 0.000000 0.000000 0.019626
#
#
# Mechanical properties :
#
#
# Convention : Reuss Voigt Hill
#
# Bulk Modulus (GPa) = 39.64542 50.89313 45.26927
# Shear Modulus (GPa) = 16.57693 36.60700 26.59196
#
# Velocity S-wave (km/s) = 2.60064 3.86465 3.29385
# Velocity P-wave (km/s) = 5.01926 6.37796 5.73896
#
# Compressibility (1/GPa) = 0.02522360
#
# Stress axis : x y z
#
# Youngs Moduli (GPa) = 140.56386 138.09910 66.89596
#
# Poissons Ratio (x) = 0.28505 0.04167
# Poissons Ratio (y) = 0.29014 -0.04327
# Poissons Ratio (z) = 0.08755 -0.08932
#
# Static dielectric constant tensor:
#      x y z
#    x 1.902960 0.000000 0.000000 
#    y 0.000000 2.051280 0.000000 
#    z 0.000000 0.000000 2.085400 
# 
# From -- ./inp_files/5156.got.cif
#   From: 2010.05.17/outbox.cif.g08.bks.cpg/sg34_3_cif.got.tgz:5156.got - 2010.06.03 17:23:11.
