data_PCOD9347207
_publ_section_title
;
Structure prediction by ZEFSAII (Michael W. Deem and Ramdas Pophale) SiO2 
 PCOD9347207
Probable space group: P N N 2
;
_chemical_formula_sum "Si O2"
_cell_formula_units_Z 30
_cell_length_a 11.873176
_cell_length_b 13.350723
_cell_length_c 8.681131
_cell_angle_alpha 90.000000
_cell_angle_beta 90.000000
_cell_angle_gamma 90.000000
_cell_volume 1376.093681
_symmetry_space_group_name_H-M "P N N 2"
_symmetry_group_IT_number 34
_symmetry_cell_setting 'orthorhombic'
loop_
_space_group_symop_operation_xyz
x,y,z
-x,-y,z
1/2-x,1/2+y,1/2+z
1/2+x,1/2-y,1/2+z
loop_
_atom_site_type_symbol
_atom_site_label
_atom_site_fract_x
_atom_site_fract_y
_atom_site_fract_z
Si Si1 0.633515 0.506577 0.897550
Si Si2 0.895153 0.769270 0.815806
Si Si3 0.000000 0.500000 0.884726
Si Si4 0.282316 0.115730 0.637281
Si Si5 0.416253 0.400976 0.199358
Si Si6 0.482843 0.810819 0.604382
Si Si7 0.180931 0.444049 0.677575
Si Si8 0.173595 0.422212 0.321284
O O1 0.500000 0.500000 0.870785
O O2 0.695275 0.532361 0.740045
O O3 0.702930 0.418146 0.991697
O O4 0.636626 0.593321 0.028128
O O5 0.800465 0.847587 0.769432
O O6 0.853679 0.664976 0.743134
O O7 0.007581 0.805746 0.730240
O O8 0.922466 0.770495 0.997267
O O9 0.103385 0.520995 0.772645
O O10 0.024728 0.406441 0.990857
O O11 0.381946 0.196902 0.618268
O O12 0.341583 0.017551 0.708515
O O13 0.500000 0.500000 0.215117
O O14 0.306583 0.398455 0.306034
O O15 0.411123 0.837388 0.755894
O O16 0.155160 0.447470 0.498505
#
# Coordination Sequence:
#
# PCOD9347207 Si02
#       8
#     4   4   2   4   4   4   4   4
#     4  10  19  43  73  94 127 181 226 267 344 418
#     4  11  23  41  65  99 134 169 224 288 330 402
#     4  10  18  40  64  90 126 176 212 272 332 404
#     4  11  20  43  71  90 130 184 219 270 353 402
#     4  10  19  41  70  90 128 181 224 264 346 411
#     4  11  22  42  69  92 134 177 224 277 343 397
#     4  11  25  39  63 105 135 167 234 280 326 406
#     4  11  23  42  65  95 131 181 234 268 334 419
#
# _framework density 21.800840999999998
#
# number of rings (size 3 to 8) (size 9 to 14) (size 15 to 20)
#    0.000    1.333    6.667    2.400    3.733    0.533 
#    4.800    1.333    0.000    0.000    0.000    0.000 
#    0.000    0.000    0.000    0.000    0.000    0.000 
#
# Total GULP energy -167160.492553 kJ/mol
# GULP energy per Si atom -5572.016418 kJ/mol
# Density = 2.175122 g / cm^3
# Si number density = 21.800841 Si / 1000 Ang^3
#
#
#
# Elastic Constant Matrix: (Units=GPa)
#
#
# Indices 1 2 3 4 5 6 
#
# 1 132.6272 14.9167 53.1928 0.0000 0.0000 0.0000
# 2 14.9167 22.2348 -1.2753 0.0000 0.0000 0.0000
# 3 53.1928 -1.2753 94.0608 0.0000 0.0000 0.0000
# 4 0.0000 0.0000 0.0000 14.2109 0.0000 0.0000
# 5 0.0000 0.0000 0.0000 0.0000 27.8800 0.0000
# 6 0.0000 0.0000 0.0000 0.0000 0.0000 26.8655
#
#
#
# Elastic Compliance Matrix: (Units=1/GPa)
#
#
# Indices 1 2 3 4 5 6 
#
# 1 0.010924 -0.007689 -0.006282 0.000000 0.000000 0.000000
# 2 -0.007689 0.050421 0.005032 0.000000 0.000000 0.000000
# 3 -0.006282 0.005032 0.014252 0.000000 0.000000 0.000000
# 4 0.000000 0.000000 0.000000 0.070368 0.000000 0.000000
# 5 0.000000 0.000000 0.000000 0.000000 0.035868 0.000000
# 6 0.000000 0.000000 0.000000 0.000000 0.000000 0.037222
#
#
# Mechanical properties :
#
#
# Convention : Reuss Voigt Hill
#
# Bulk Modulus (GPa) = 17.32519 42.51014 29.91766
# Shear Modulus (GPa) = 19.51789 25.93052 22.72420
#
# Velocity S-wave (km/s) = 2.99537 3.45255 3.23205
# Velocity P-wave (km/s) = 4.46400 5.95274 5.26129
#
# Compressibility (1/GPa) = 0.05771944
#
# Stress axis : x y z
#
# Youngs Moduli (GPa) = 91.53904 19.83282 70.16425
#
# Poissons Ratio (x) = 0.15250 0.44078
# Poissons Ratio (y) = 0.70385 -0.35306
# Poissons Ratio (z) = 0.57506 -0.09980
#
# Static dielectric constant tensor:
#      x y z
#    x 1.910670 0.000000 0.000000 
#    y 0.000000 1.878430 0.000000 
#    z 0.000000 0.000000 1.801340 
# 
# From -- ./inp_files/3316.got.cif
#   From: 2010.05.17/outbox.cif.g08.bks.cpg/sg34_2_cif.got.tgz:3316.got - 2010.06.03 17:23:11.
