data_PCOD9347542
_publ_section_title
;
Structure prediction by ZEFSAII (Michael W. Deem and Ramdas Pophale) SiO2 
 PCOD9347542
Probable space group: P N N 2
;
_chemical_formula_sum "Si O2"
_cell_formula_units_Z 18
_cell_length_a 7.881859
_cell_length_b 11.359123
_cell_length_c 9.112802
_cell_angle_alpha 90.000000
_cell_angle_beta 90.000000
_cell_angle_gamma 90.000000
_cell_volume 815.878329
_symmetry_space_group_name_H-M "P N N 2"
_symmetry_group_IT_number 34
_symmetry_cell_setting 'orthorhombic'
loop_
_space_group_symop_operation_xyz
x,y,z
-x,-y,z
1/2-x,1/2+y,1/2+z
1/2+x,1/2-y,1/2+z
loop_
_atom_site_type_symbol
_atom_site_label
_atom_site_fract_x
_atom_site_fract_y
_atom_site_fract_z
Si Si1 0.537466 0.777212 0.056450
Si Si2 0.119068 0.837772 0.835381
Si Si3 0.000000 0.500000 0.758544
Si Si4 0.718492 0.880531 0.492147
Si Si5 0.265563 0.072851 0.821308
O O1 0.661356 0.713663 0.174277
O O2 0.407712 0.676769 0.998742
O O3 0.465176 0.884531 0.158691
O O4 0.629675 0.841050 0.923276
O O5 0.929084 0.884756 0.821033
O O6 0.251270 0.939028 0.876389
O O7 0.113132 0.735944 0.954012
O O8 0.839646 0.470341 0.864952
O O9 0.679024 0.927363 0.652866
#
# Coordination Sequence:
#
# PCOD9347542 Si02
#       5
#     4   4   2   4   4
#     4  10  21  39  63  90 121 160 204 250 301 362
#     4   9  21  39  58  90 126 156 200 256 302 354
#     4  10  22  38  60  92 128 152 198 262 304 354
#     4  10  22  38  60  89 121 160 201 248 305 358
#     4  10  21  39  63  87 120 163 204 247 304 364
#
# _framework density 22.062114000000001
#
# number of rings (size 3 to 8) (size 9 to 14) (size 15 to 20)
#    0.000    2.222    0.000    1.333    0.000   11.556 
#    0.000    0.000    0.000   10.667    0.000    0.000 
#    0.000    0.000    0.000    0.000    0.000    0.000 
#
# Total GULP energy -100397.552072 kJ/mol
# GULP energy per Si atom -5577.641782 kJ/mol
# Density = 2.201190 g / cm^3
# Si number density = 22.062114 Si / 1000 Ang^3
#
#
#
# Elastic Constant Matrix: (Units=GPa)
#
#
# Indices 1 2 3 4 5 6 
#
# 1 56.6490 15.0490 42.4504 0.0000 0.0000 0.0000
# 2 15.0490 60.4235 19.2294 0.0000 0.0000 0.0000
# 3 42.4504 19.2294 98.3360 0.0000 0.0000 0.0000
# 4 0.0000 0.0000 0.0000 35.4611 0.0000 0.0000
# 5 0.0000 0.0000 0.0000 0.0000 36.2585 0.0000
# 6 0.0000 0.0000 0.0000 0.0000 0.0000 39.4102
#
#
#
# Elastic Compliance Matrix: (Units=1/GPa)
#
#
# Indices 1 2 3 4 5 6 
#
# 1 0.026652 -0.003174 -0.010885 0.000000 0.000000 0.000000
# 2 -0.003174 0.018026 -0.002155 0.000000 0.000000 0.000000
# 3 -0.010885 -0.002155 0.015289 0.000000 0.000000 0.000000
# 4 0.000000 0.000000 0.000000 0.028200 0.000000 0.000000
# 5 0.000000 0.000000 0.000000 0.000000 0.027580 0.000000
# 6 0.000000 0.000000 0.000000 0.000000 0.000000 0.025374
#
#
# Mechanical properties :
#
#
# Convention : Reuss Voigt Hill
#
# Bulk Modulus (GPa) = 36.30989 40.98513 38.64751
# Shear Modulus (GPa) = 27.36292 31.47129 29.41711
#
# Velocity S-wave (km/s) = 3.52556 3.78098 3.65550
# Velocity P-wave (km/s) = 5.75035 6.13829 5.94748
#
# Compressibility (1/GPa) = 0.02754070
#
# Stress axis : x y z
#
# Youngs Moduli (GPa) = 37.52013 55.47509 65.40466
#
# Poissons Ratio (x) = 0.17608 0.71192
# Poissons Ratio (y) = 0.11909 0.14094
# Poissons Ratio (z) = 0.40840 0.11954
#
# Static dielectric constant tensor:
#      x y z
#    x 1.845930 0.000000 0.000000 
#    y 0.000000 1.842110 0.000000 
#    z 0.000000 0.000000 1.800740 
# 
# From -- ./inp_files/2404.got.cif
#   From: 2010.05.17/outbox.cif.g08.bks.cpg/sg34_2_cif.got.tgz:2404.got - 2010.06.03 17:23:11.
