data_PCOD9347719
_publ_section_title
;
Structure prediction by ZEFSAII (Michael W. Deem and Ramdas Pophale) SiO2 
 PCOD9347719
Probable space group: P N N 2
;
_chemical_formula_sum "Si O2"
_cell_formula_units_Z 22
_cell_length_a 11.371906
_cell_length_b 16.779440
_cell_length_c 5.192133
_cell_angle_alpha 90.000000
_cell_angle_beta 90.000000
_cell_angle_gamma 90.000000
_cell_volume 990.732780
_symmetry_space_group_name_H-M "P N N 2"
_symmetry_group_IT_number 34
_symmetry_cell_setting 'orthorhombic'
loop_
_space_group_symop_operation_xyz
x,y,z
-x,-y,z
1/2-x,1/2+y,1/2+z
1/2+x,1/2-y,1/2+z
loop_
_atom_site_type_symbol
_atom_site_label
_atom_site_fract_x
_atom_site_fract_y
_atom_site_fract_z
Si Si1 0.500000 0.000000 0.298671
Si Si2 0.336613 0.913194 0.936347
Si Si3 0.858264 0.719709 0.053372
Si Si4 0.158012 0.874554 0.345327
Si Si5 0.265861 0.035384 0.586971
Si Si6 0.590949 0.320047 0.053819
O O1 0.391887 0.039520 0.451032
O O2 0.559701 0.071682 0.135712
O O3 0.386417 0.867027 0.685915
O O4 0.296178 0.001815 0.866599
O O5 0.218357 0.874905 0.059990
O O6 0.864620 0.772016 0.306942
O O7 0.726897 0.700813 0.962993
O O8 0.920771 0.763001 0.808719
O O9 0.026237 0.861091 0.438762
O O10 0.196548 0.961168 0.454140
O O11 0.186972 0.112465 0.608416
#
# Coordination Sequence:
#
# PCOD9347719 Si02
#       6
#     2   4   4   4   4   4
#     4  10  22  44  74 108 144 190 254 300 358 448
#     4  10  22  49  74 104 152 197 237 309 373 425
#     4  11  26  47  67 108 148 187 241 296 375 423
#     4  10  24  50  70 102 147 189 233 311 359 427
#     4  10  24  45  73 109 139 191 247 298 365 435
#     4  12  27  46  75 110 138 196 246 295 365 452
#
# _framework density 22.205787000000001
#
# number of rings (size 3 to 8) (size 9 to 14) (size 15 to 20)
#    0.000    1.455    1.818    1.091   10.182    1.455 
#   13.091    0.000    0.000    0.000    0.000    0.000 
#    0.000    0.000    0.000    0.000    0.000    0.000 
#
# Total GULP energy -122473.363822 kJ/mol
# GULP energy per Si atom -5566.971083 kJ/mol
# Density = 2.215525 g / cm^3
# Si number density = 22.205787 Si / 1000 Ang^3
#
#
#
# Elastic Constant Matrix: (Units=GPa)
#
#
# Indices 1 2 3 4 5 6 
#
# 1 123.5457 31.5804 45.1127 0.0000 0.0000 0.0000
# 2 31.5804 48.2018 39.4117 0.0000 0.0000 0.0000
# 3 45.1127 39.4117 145.4902 0.0000 0.0000 0.0000
# 4 0.0000 0.0000 0.0000 32.0218 0.0000 0.0000
# 5 0.0000 0.0000 0.0000 0.0000 14.9197 0.0000
# 6 0.0000 0.0000 0.0000 0.0000 0.0000 34.8110
#
#
#
# Elastic Compliance Matrix: (Units=1/GPa)
#
#
# Indices 1 2 3 4 5 6 
#
# 1 0.010043 -0.005181 -0.001711 0.000000 0.000000 0.000000
# 2 -0.005181 0.029322 -0.006336 0.000000 0.000000 0.000000
# 3 -0.001711 -0.006336 0.009120 0.000000 0.000000 0.000000
# 4 0.000000 0.000000 0.000000 0.031229 0.000000 0.000000
# 5 0.000000 0.000000 0.000000 0.000000 0.067025 0.000000
# 6 0.000000 0.000000 0.000000 0.000000 0.000000 0.028727
#
#
# Mechanical properties :
#
#
# Convention : Reuss Voigt Hill
#
# Bulk Modulus (GPa) = 45.39578 61.04970 53.22274
# Shear Modulus (GPa) = 23.89315 29.75937 26.82626
#
# Velocity S-wave (km/s) = 3.28378 3.66480 3.47951
# Velocity P-wave (km/s) = 5.90468 6.74240 6.33740
#
# Compressibility (1/GPa) = 0.02202848
#
# Stress axis : x y z
#
# Youngs Moduli (GPa) = 99.56952 34.10456 109.64740
#
# Poissons Ratio (x) = 0.17671 0.18756
# Poissons Ratio (y) = 0.51591 0.69476
# Poissons Ratio (z) = 0.17032 0.21610
#
# Static dielectric constant tensor:
#      x y z
#    x 1.803200 0.000000 0.000000 
#    y 0.000000 1.893190 0.000000 
#    z 0.000000 0.000000 1.941550 
# 
# From -- ./inp_files/893.got.cif
#   From: 2010.05.17/outbox.cif.g08.bks.cpg/sg34_1_cif.got.tgz:893.got - 2010.06.03 17:23:11.
