data_PCOD9347473
_publ_section_title
;
Structure prediction by ZEFSAII (Michael W. Deem and Ramdas Pophale) SiO2 
 PCOD9347473
Probable space group: P N N 2
;
_chemical_formula_sum "Si O2"
_cell_formula_units_Z 24
_cell_length_a 9.641926
_cell_length_b 8.690328
_cell_length_c 11.123568
_cell_angle_alpha 90.000000
_cell_angle_beta 90.000000
_cell_angle_gamma 90.000000
_cell_volume 932.060442
_symmetry_space_group_name_H-M "P N N 2"
_symmetry_group_IT_number 34
_symmetry_cell_setting 'orthorhombic'
loop_
_space_group_symop_operation_xyz
x,y,z
-x,-y,z
1/2-x,1/2+y,1/2+z
1/2+x,1/2-y,1/2+z
loop_
_atom_site_type_symbol
_atom_site_label
_atom_site_fract_x
_atom_site_fract_y
_atom_site_fract_z
Si Si1 0.280503 0.875505 0.730980
Si Si2 0.644579 0.470577 0.036510
Si Si3 0.604055 0.115581 0.386809
Si Si4 0.927605 0.652065 0.473578
Si Si5 0.484623 0.667256 0.586576
Si Si6 0.661837 0.791007 0.775160
O O1 0.302707 0.869617 0.874409
O O2 0.353906 0.729672 0.667635
O O3 0.145001 0.915981 0.653125
O O4 0.350946 0.044189 0.709334
O O5 0.500000 0.500000 0.969387
O O6 0.772181 0.522050 0.953317
O O7 0.632198 0.287410 0.055605
O O8 0.512385 0.203161 0.485687
O O9 0.686502 0.248540 0.318610
O O10 0.500000 0.000000 0.320996
O O11 0.000000 0.500000 0.529906
O O12 0.056393 0.699718 0.386709
O O13 0.500000 0.500000 0.529702
O O14 0.607430 0.666894 0.682602
#
# Coordination Sequence:
#
# PCOD9347473 Si02
#       6
#     4   4   4   4   4   4
#     4   9  21  40  63  97 140 179 229 302 360 425
#     4  11  21  41  70  99 138 187 236 296 367 431
#     4  11  24  44  66 102 144 188 239 297 368 444
#     4   9  19  39  70  96 133 184 236 285 365 443
#     4  10  21  40  69 100 135 184 236 292 364 444
#     4  10  20  42  68  96 138 185 231 286 372 434
#
# _framework density 25.749403000000001
#
# number of rings (size 3 to 8) (size 9 to 14) (size 15 to 20)
#    0.000    2.000    1.667    3.500    4.667    0.667 
#   15.000    0.833    0.000    0.000    0.000    0.000 
#    0.000    0.000    0.000    0.000    0.000    0.000 
#
# Total GULP energy -133725.273627 kJ/mol
# GULP energy per Si atom -5571.886401 kJ/mol
# Density = 2.569080 g / cm^3
# Si number density = 25.749403 Si / 1000 Ang^3
#
#
#
# Elastic Constant Matrix: (Units=GPa)
#
#
# Indices 1 2 3 4 5 6 
#
# 1 102.3448 41.9218 24.3622 0.0000 0.0000 0.0000
# 2 41.9218 136.1926 19.9603 0.0000 0.0000 0.0000
# 3 24.3622 19.9603 66.6564 0.0000 0.0000 0.0000
# 4 0.0000 0.0000 0.0000 14.0945 0.0000 0.0000
# 5 0.0000 0.0000 0.0000 0.0000 17.1775 0.0000
# 6 0.0000 0.0000 0.0000 0.0000 0.0000 49.8558
#
#
#
# Elastic Compliance Matrix: (Units=1/GPa)
#
#
# Indices 1 2 3 4 5 6 
#
# 1 0.011872 -0.003157 -0.003394 0.000000 0.000000 0.000000
# 2 -0.003157 0.008519 -0.001397 0.000000 0.000000 0.000000
# 3 -0.003394 -0.001397 0.016661 0.000000 0.000000 0.000000
# 4 0.000000 0.000000 0.000000 0.070950 0.000000 0.000000
# 5 0.000000 0.000000 0.000000 0.000000 0.058216 0.000000
# 6 0.000000 0.000000 0.000000 0.000000 0.000000 0.020058
#
#
# Mechanical properties :
#
#
# Convention : Reuss Voigt Hill
#
# Bulk Modulus (GPa) = 47.26723 53.07583 50.17153
# Shear Modulus (GPa) = 23.89793 30.82218 27.36005
#
# Velocity S-wave (km/s) = 3.04977 3.46353 3.26322
# Velocity P-wave (km/s) = 5.54959 6.05408 5.80732
#
# Compressibility (1/GPa) = 0.02115631
#
# Stress axis : x y z
#
# Youngs Moduli (GPa) = 84.23281 117.38382 60.02017
#
# Poissons Ratio (x) = 0.37057 0.20369
# Poissons Ratio (y) = 0.26592 0.08386
# Poissons Ratio (z) = 0.28586 0.16401
#
# Static dielectric constant tensor:
#      x y z
#    x 2.080460 0.000000 0.000000 
#    y 0.000000 2.074760 0.000000 
#    z 0.000000 0.000000 2.036470 
# 
# From -- ./inp_files/6413.got.cif
#   From: 2010.05.17/outbox.cif.g08.bks.cpg/sg34_4_cif.got.tgz:6413.got - 2010.06.03 17:23:11.
