data_PCOD9347616
_publ_section_title
;
Structure prediction by ZEFSAII (Michael W. Deem and Ramdas Pophale) SiO2 
 PCOD9347616
Probable space group: P N N 2
;
_chemical_formula_sum "Si O2"
_cell_formula_units_Z 30
_cell_length_a 5.009774
_cell_length_b 16.925752
_cell_length_c 13.333466
_cell_angle_alpha 90.000000
_cell_angle_beta 90.000000
_cell_angle_gamma 90.000000
_cell_volume 1130.600480
_symmetry_space_group_name_H-M "P N N 2"
_symmetry_group_IT_number 34
_symmetry_cell_setting 'orthorhombic'
loop_
_space_group_symop_operation_xyz
x,y,z
-x,-y,z
1/2-x,1/2+y,1/2+z
1/2+x,1/2-y,1/2+z
loop_
_atom_site_type_symbol
_atom_site_label
_atom_site_fract_x
_atom_site_fract_y
_atom_site_fract_z
Si Si1 0.540958 0.207673 0.462880
Si Si2 0.677251 0.416930 0.365487
Si Si3 0.755007 0.447033 0.756946
Si Si4 0.143050 0.662399 0.573723
Si Si5 0.843545 0.069246 0.548574
Si Si6 0.444885 0.299050 0.199285
Si Si7 0.440026 0.716332 0.838506
Si Si8 0.500000 0.000000 0.716348
O O1 0.649885 0.267302 0.546311
O O2 0.601684 0.117374 0.496263
O O3 0.248006 0.237134 0.433186
O O4 0.753194 0.215418 0.369973
O O5 0.500000 0.500000 0.378097
O O6 0.819273 0.383285 0.465868
O O7 0.526050 0.351679 0.297393
O O8 0.920642 0.432680 0.291164
O O9 0.500000 0.500000 0.745234
O O10 0.816904 0.409592 0.649057
O O11 0.667710 0.372120 0.821974
O O12 0.000000 0.500000 0.793701
O O13 0.947300 0.717010 0.647019
O O14 0.992451 0.140262 0.606352
O O15 0.731112 0.021837 0.642285
O O16 0.000000 0.000000 0.489349
O O17 0.158830 0.267341 0.244877
#
# Coordination Sequence:
#
# PCOD9347616 Si02
#       8
#     4   4   4   4   4   4   4   2
#     4  11  26  44  71 103 144 187 248 297 374 449
#     4  12  23  44  73 106 148 194 254 318 388 465
#     4  11  25  48  72 102 149 190 247 305 377 445
#     4  10  25  43  72 107 141 197 243 316 378 461
#     4  11  24  43  62 102 137 182 230 306 363 441
#     4  10  21  46  67  98 146 184 245 306 379 445
#     4  11  25  46  71 103 139 196 241 303 366 451
#     4  12  24  38  72 100 142 182 240 304 386 436
#
# _framework density 26.534569000000001
#
# number of rings (size 3 to 8) (size 9 to 14) (size 15 to 20)
#    0.000    1.067    4.000    1.200    4.667    2.667 
#    0.000    4.000    0.000    0.000    0.000    0.000 
#    0.000    0.000    0.000    0.000    0.000    0.000 
#
# Total GULP energy -167018.637018 kJ/mol
# GULP energy per Si atom -5567.287901 kJ/mol
# Density = 2.647417 g / cm^3
# Si number density = 26.534569 Si / 1000 Ang^3
#
#
#
# Elastic Constant Matrix: (Units=GPa)
#
#
# Indices 1 2 3 4 5 6 
#
# 1 67.8341 49.1966 4.2380 0.0000 0.0000 0.0000
# 2 49.1966 151.6405 37.1404 0.0000 0.0000 0.0000
# 3 4.2380 37.1404 118.2474 0.0000 0.0000 0.0000
# 4 0.0000 0.0000 0.0000 0.7711 0.0000 0.0000
# 5 0.0000 0.0000 0.0000 0.0000 32.1756 0.0000
# 6 0.0000 0.0000 0.0000 0.0000 0.0000 35.6667
#
#
#
# Elastic Compliance Matrix: (Units=1/GPa)
#
#
# Indices 1 2 3 4 5 6 
#
# 1 0.019488 -0.006664 0.001395 0.000000 0.000000 0.000000
# 2 -0.006664 0.009423 -0.002721 0.000000 0.000000 0.000000
# 3 0.001395 -0.002721 0.009261 0.000000 0.000000 0.000000
# 4 0.000000 0.000000 0.000000 1.296864 0.000000 0.000000
# 5 0.000000 0.000000 0.000000 0.000000 0.031079 0.000000
# 6 0.000000 0.000000 0.000000 0.000000 0.000000 0.028037
#
#
# Mechanical properties :
#
#
# Convention : Reuss Voigt Hill
#
# Bulk Modulus (GPa) = 45.06160 57.65243 51.35701
# Shear Modulus (GPa) = 3.52726 30.19913 16.86320
#
# Velocity S-wave (km/s) = 1.15421 3.37724 2.52368
# Velocity P-wave (km/s) = 4.33536 6.08129 5.28098
#
# Compressibility (1/GPa) = 0.02219185
#
# Stress axis : x y z
#
# Youngs Moduli (GPa) = 51.31427 106.12414 107.97454
#
# Poissons Ratio (x) = 0.70721 -0.15059
# Poissons Ratio (y) = 0.34196 0.29378
# Poissons Ratio (z) = -0.07157 0.28874
#
# Static dielectric constant tensor:
#      x y z
#    x 2.280830 0.000000 0.000000 
#    y 0.000000 2.236070 0.000000 
#    z 0.000000 0.000000 2.177500 
# 
# From -- ./inp_files/6164.got.cif
#   From: 2010.05.17/outbox.cif.g08.bks.cpg/sg34_4_cif.got.tgz:6164.got - 2010.06.03 17:23:11.
