data_PCOD9347398
_publ_section_title
;
Structure prediction by ZEFSAII (Michael W. Deem and Ramdas Pophale) SiO2 
 PCOD9347398
Probable space group: P N N 2
;
_chemical_formula_sum "Si O2"
_cell_formula_units_Z 26
_cell_length_a 12.188014
_cell_length_b 11.029786
_cell_length_c 8.493172
_cell_angle_alpha 90.000000
_cell_angle_beta 90.000000
_cell_angle_gamma 90.000000
_cell_volume 1141.747186
_symmetry_space_group_name_H-M "P N N 2"
_symmetry_group_IT_number 34
_symmetry_cell_setting 'orthorhombic'
loop_
_space_group_symop_operation_xyz
x,y,z
-x,-y,z
1/2-x,1/2+y,1/2+z
1/2+x,1/2-y,1/2+z
loop_
_atom_site_type_symbol
_atom_site_label
_atom_site_fract_x
_atom_site_fract_y
_atom_site_fract_z
Si Si1 0.246416 0.802038 0.358910
Si Si2 0.000000 0.000000 0.048928
Si Si3 0.185240 0.320703 0.495271
Si Si4 0.411933 0.281010 0.355429
Si Si5 0.016561 0.853269 0.506000
Si Si6 0.615316 0.966063 0.357188
Si Si7 0.241260 0.070458 0.075250
O O1 0.276289 0.787451 0.174651
O O2 0.119550 0.832136 0.391338
O O3 0.269924 0.681098 0.456915
O O4 0.321113 0.916318 0.417083
O O5 0.879564 0.979116 0.122466
O O6 0.018471 0.881609 0.944905
O O7 0.285754 0.315816 0.375522
O O8 0.176378 0.466723 0.506736
O O9 0.088203 0.227843 0.454376
O O10 0.422318 0.153275 0.450878
O O11 0.451799 0.295218 0.175902
O O12 0.000000 0.000000 0.519755
O O13 0.697420 0.902860 0.236249
O O14 0.500000 0.000000 0.278713
#
# Coordination Sequence:
#
# PCOD9347398 Si02
#       7
#     4   2   4   4   4   4   4
#     4  11  24  42  69 103 136 188 244 296 371 446
#     4  10  20  38  64  96 124 176 230 280 340 444
#     4  10  25  43  63 105 139 178 241 301 357 445
#     4  11  21  42  66  94 134 177 229 293 360 419
#     4  12  24  45  72 100 142 192 243 303 366 450
#     4  11  22  41  65  96 138 179 230 293 361 431
#     4  10  21  39  67  95 131 179 233 283 366 425
#
# _framework density 22.772114999999999
#
# number of rings (size 3 to 8) (size 9 to 14) (size 15 to 20)
#    0.000    1.231    2.308    4.615    2.154    0.000 
#   20.769    0.000    0.000    0.000    0.000    0.000 
#    0.000    0.000    0.000    0.000    0.000    0.000 
#
# Total GULP energy -144851.460386 kJ/mol
# GULP energy per Si atom -5571.210015 kJ/mol
# Density = 2.272029 g / cm^3
# Si number density = 22.772115 Si / 1000 Ang^3
#
#
#
# Elastic Constant Matrix: (Units=GPa)
#
#
# Indices 1 2 3 4 5 6 
#
# 1 157.1485 47.0287 13.5141 0.0000 0.0000 0.0000
# 2 47.0287 158.2351 23.7801 0.0000 0.0000 0.0000
# 3 13.5141 23.7801 26.7469 0.0000 0.0000 0.0000
# 4 0.0000 0.0000 0.0000 36.6995 0.0000 0.0000
# 5 0.0000 0.0000 0.0000 0.0000 22.2287 0.0000
# 6 0.0000 0.0000 0.0000 0.0000 0.0000 49.0699
#
#
#
# Elastic Compliance Matrix: (Units=1/GPa)
#
#
# Indices 1 2 3 4 5 6 
#
# 1 0.007073 -0.001807 -0.001968 0.000000 0.000000 0.000000
# 2 -0.001807 0.007756 -0.005983 0.000000 0.000000 0.000000
# 3 -0.001968 -0.005983 0.043701 0.000000 0.000000 0.000000
# 4 0.000000 0.000000 0.000000 0.027248 0.000000 0.000000
# 5 0.000000 0.000000 0.000000 0.000000 0.044987 0.000000
# 6 0.000000 0.000000 0.000000 0.000000 0.000000 0.020379
#
#
# Mechanical properties :
#
#
# Convention : Reuss Voigt Hill
#
# Bulk Modulus (GPa) = 25.63052 56.75291 41.19171
# Shear Modulus (GPa) = 27.22377 38.78681 33.00529
#
# Velocity S-wave (km/s) = 3.46133 4.13153 3.81119
# Velocity P-wave (km/s) = 5.22054 6.90910 6.12330
#
# Compressibility (1/GPa) = 0.03901599
#
# Stress axis : x y z
#
# Youngs Moduli (GPa) = 141.37784 128.93715 22.88290
#
# Poissons Ratio (x) = 0.23293 0.04503
# Poissons Ratio (y) = 0.25540 0.13690
# Poissons Ratio (z) = 0.27819 0.77139
#
# Static dielectric constant tensor:
#      x y z
#    x 1.955480 0.000000 0.000000 
#    y 0.000000 2.144420 0.000000 
#    z 0.000000 0.000000 1.873590 
# 
# From -- ./inp_files/3201.got.cif
#   From: 2010.05.17/outbox.cif.g08.bks.cpg/sg34_2_cif.got.tgz:3201.got - 2010.06.03 17:23:11.
