data_PCOD9347537
_publ_section_title
;
Structure prediction by ZEFSAII (Michael W. Deem and Ramdas Pophale) SiO2 
 PCOD9347537
Probable space group: P N N 2
;
_chemical_formula_sum "Si O2"
_cell_formula_units_Z 24
_cell_length_a 8.308123
_cell_length_b 24.158871
_cell_length_c 5.536956
_cell_angle_alpha 90.000000
_cell_angle_beta 90.000000
_cell_angle_gamma 90.000000
_cell_volume 1111.349414
_symmetry_space_group_name_H-M "P N N 2"
_symmetry_group_IT_number 34
_symmetry_cell_setting 'orthorhombic'
loop_
_space_group_symop_operation_xyz
x,y,z
-x,-y,z
1/2-x,1/2+y,1/2+z
1/2+x,1/2-y,1/2+z
loop_
_atom_site_type_symbol
_atom_site_label
_atom_site_fract_x
_atom_site_fract_y
_atom_site_fract_z
Si Si1 0.323108 0.001405 0.328830
Si Si2 0.431341 0.445446 0.187828
Si Si3 0.347634 0.784600 0.254989
Si Si4 0.277414 0.399265 0.580288
Si Si5 0.270152 0.228692 0.255318
Si Si6 0.868472 0.893698 0.303390
O O1 0.179557 0.978025 0.495476
O O2 0.321571 0.955217 0.121854
O O3 0.500000 0.000000 0.442760
O O4 0.267874 0.061552 0.241266
O O5 0.500000 0.500000 0.331003
O O6 0.309123 0.400019 0.296304
O O7 0.576279 0.409655 0.075540
O O8 0.301171 0.848610 0.216016
O O9 0.538286 0.776838 0.251935
O O10 0.282780 0.760334 0.509380
O O11 0.278109 0.756498 0.010646
O O12 0.464641 0.403021 0.662232
O O13 0.190077 0.167969 0.260792
#
# Coordination Sequence:
#
# PCOD9347537 Si02
#       6
#     4   4   4   4   4   4
#     4  10  21  39  61  97 135 175 225 288 350 421
#     4   9  20  38  63  97 129 179 225 289 352 430
#     4  12  28  47  75 101 146 182 247 285 366 412
#     4  11  22  40  68  94 134 177 231 288 353 417
#     4  12  27  50  70 108 136 193 231 305 342 435
#     4  10  22  40  67  93 136 172 235 280 359 410
#
# _framework density 21.595369000000002
#
# number of rings (size 3 to 8) (size 9 to 14) (size 15 to 20)
#    0.000    1.333    0.000    6.500    9.333    0.667 
#    3.000    0.000    0.000    0.000    0.000    0.000 
#    0.000    0.000    0.000    0.000    0.000    0.000 
#
# Total GULP energy -133770.830975 kJ/mol
# GULP energy per Si atom -5573.784624 kJ/mol
# Density = 2.154622 g / cm^3
# Si number density = 21.595369 Si / 1000 Ang^3
#
#
#
# Elastic Constant Matrix: (Units=GPa)
#
#
# Indices 1 2 3 4 5 6 
#
# 1 75.9252 -24.3311 8.3793 0.0000 0.0000 0.0000
# 2 -24.3311 51.8450 33.8859 0.0000 0.0000 0.0000
# 3 8.3793 33.8859 81.5479 0.0000 0.0000 0.0000
# 4 0.0000 0.0000 0.0000 26.9112 0.0000 0.0000
# 5 0.0000 0.0000 0.0000 0.0000 25.2984 0.0000
# 6 0.0000 0.0000 0.0000 0.0000 0.0000 37.8375
#
#
#
# Elastic Compliance Matrix: (Units=1/GPa)
#
#
# Indices 1 2 3 4 5 6 
#
# 1 0.018322 0.013494 -0.007490 0.000000 0.000000 0.000000
# 2 0.013494 0.036418 -0.016519 0.000000 0.000000 0.000000
# 3 -0.007490 -0.016519 0.019897 0.000000 0.000000 0.000000
# 4 0.000000 0.000000 0.000000 0.037159 0.000000 0.000000
# 5 0.000000 0.000000 0.000000 0.000000 0.039528 0.000000
# 6 0.000000 0.000000 0.000000 0.000000 0.000000 0.026429
#
#
# Mechanical properties :
#
#
# Convention : Reuss Voigt Hill
#
# Bulk Modulus (GPa) = 18.65478 27.24291 22.94884
# Shear Modulus (GPa) = 23.07847 30.76836 26.92342
#
# Velocity S-wave (km/s) = 3.27261 3.77870 3.53473
# Velocity P-wave (km/s) = 4.78926 5.62856 5.22579
#
# Compressibility (1/GPa) = 0.05360557
#
# Stress axis : x y z
#
# Youngs Moduli (GPa) = 54.58023 27.45888 50.25955
#
# Poissons Ratio (x) = -0.37052 0.37643
# Poissons Ratio (y) = -0.73649 0.83026
# Poissons Ratio (z) = 0.40879 0.45361
#
# Static dielectric constant tensor:
#      x y z
#    x 1.765930 0.000000 0.000000 
#    y 0.000000 1.847470 0.000000 
#    z 0.000000 0.000000 2.000490 
# 
# From -- ./inp_files/496.got.cif
#   From: 2010.05.17/outbox.cif.g08.bks.cpg/sg34_1_cif.got.tgz:496.got - 2010.06.03 17:23:11.
