data_PCOD9347017
_publ_section_title
;
Structure prediction by ZEFSAII (Michael W. Deem and Ramdas Pophale) SiO2 
 PCOD9347017
Probable space group: P N A 21
;
_chemical_formula_sum "Si O2"
_cell_formula_units_Z 24
_cell_length_a 12.390097
_cell_length_b 8.665087
_cell_length_c 9.889025
_cell_angle_alpha 90.000000
_cell_angle_beta 90.000000
_cell_angle_gamma 90.000000
_cell_volume 1061.698268
_symmetry_space_group_name_H-M "P N A 21"
_symmetry_group_IT_number 33
_symmetry_cell_setting 'orthorhombic'
loop_
_space_group_symop_operation_xyz
x,y,z
-x,-y,1/2+z
1/2-x,1/2+y,1/2+z
1/2+x,1/2-y,z
loop_
_atom_site_type_symbol
_atom_site_label
_atom_site_fract_x
_atom_site_fract_y
_atom_site_fract_z
Si Si1 0.530998 0.841685 0.305880
Si Si2 0.858134 0.838319 0.665152
Si Si3 0.704019 0.335813 0.462480
Si Si4 0.091787 0.485210 0.060250
Si Si5 0.935437 0.972414 0.200780
Si Si6 0.244239 0.510663 0.409614
O O1 0.512000 0.936607 0.167568
O O2 0.500888 0.666277 0.273491
O O3 0.655155 0.874391 0.346874
O O4 0.462074 0.910629 0.428778
O O5 0.809903 0.888708 0.808294
O O6 0.852725 0.655656 0.640514
O O7 0.797627 0.916297 0.541579
O O8 0.982995 0.889848 0.668616
O O9 0.820359 0.388624 0.516514
O O10 0.616251 0.408363 0.562625
O O11 0.693539 0.151741 0.453687
O O12 0.839546 0.017578 0.301885
#
# Coordination Sequence:
#
# PCOD9347017 Si02
#       6
#     4   4   4   4   4   4
#     4  12  27  49  75 112 155 197 257 313 385 450
#     4  12  28  47  77 111 146 199 251 318 373 456
#     4  12  27  50  77 111 152 199 257 312 381 457
#     4  12  28  48  77 111 149 201 253 316 381 450
#     4  12  27  50  76 109 154 204 254 312 384 450
#     4  12  27  50  74 112 154 200 252 309 386 451
#
# _framework density 22.605291999999999
#
# number of rings (size 3 to 8) (size 9 to 14) (size 15 to 20)
#    0.000    0.000    5.000    3.000    9.333    0.000 
#    0.000    0.000    0.000    0.000    0.000    0.000 
#    0.000    0.000    0.000    0.000    0.000    0.000 
#
# Total GULP energy -134498.460047 kJ/mol
# GULP energy per Si atom -5604.102502 kJ/mol
# Density = 2.255384 g / cm^3
# Si number density = 22.605292 Si / 1000 Ang^3
#
#
#
# Elastic Constant Matrix: (Units=GPa)
#
#
# Indices 1 2 3 4 5 6 
#
# 1 61.3904 4.5161 39.8530 0.0000 0.0000 0.0000
# 2 4.5161 42.3883 25.1092 0.0000 0.0000 0.0000
# 3 39.8530 25.1092 149.1473 0.0000 0.0000 0.0000
# 4 0.0000 0.0000 0.0000 11.2529 0.0000 0.0000
# 5 0.0000 0.0000 0.0000 0.0000 46.0690 0.0000
# 6 0.0000 0.0000 0.0000 0.0000 0.0000 41.2487
#
#
#
# Elastic Compliance Matrix: (Units=1/GPa)
#
#
# Indices 1 2 3 4 5 6 
#
# 1 0.019757 0.001136 -0.005470 0.000000 0.000000 0.000000
# 2 0.001136 0.026270 -0.004726 0.000000 0.000000 0.000000
# 3 -0.005470 -0.004726 0.008962 0.000000 0.000000 0.000000
# 4 0.000000 0.000000 0.000000 0.088866 0.000000 0.000000
# 5 0.000000 0.000000 0.000000 0.000000 0.021707 0.000000
# 6 0.000000 0.000000 0.000000 0.000000 0.000000 0.024243
#
#
# Mechanical properties :
#
#
# Convention : Reuss Voigt Hill
#
# Bulk Modulus (GPa) = 27.12432 43.54253 35.33342
# Shear Modulus (GPa) = 22.70507 31.94398 27.32452
#
# Velocity S-wave (km/s) = 3.17269 3.76323 3.48050
# Velocity P-wave (km/s) = 5.04444 6.17952 5.64060
#
# Compressibility (1/GPa) = 0.03686729
#
# Stress axis : x y z
#
# Youngs Moduli (GPa) = 50.61542 38.06627 111.58086
#
# Poissons Ratio (x) = -0.04322 0.61038
# Poissons Ratio (y) = -0.05747 0.52733
# Poissons Ratio (z) = 0.27688 0.17990
#
# Static dielectric constant tensor:
#      x y z
#    x 1.813670 0.000000 0.000000 
#    y 0.000000 1.804310 0.000000 
#    z 0.000000 0.000000 1.826190 
# 
# From -- ./inp_files/3717.got.cif
#   From: 2010.05.17/outbox.cif.g08.bks.cpg/sg33_2_cif.got.tgz:3717.got - 2010.06.03 17:15:25.
