data_PCOD9347755
_publ_section_title
;
Structure prediction by ZEFSAII (Michael W. Deem and Ramdas Pophale) SiO2 
 PCOD9347755
Probable space group: P N N 2
;
_chemical_formula_sum "Si O2"
_cell_formula_units_Z 26
_cell_length_a 9.355389
_cell_length_b 16.421314
_cell_length_c 6.509721
_cell_angle_alpha 90.000000
_cell_angle_beta 90.000000
_cell_angle_gamma 90.000000
_cell_volume 1000.073988
_symmetry_space_group_name_H-M "P N N 2"
_symmetry_group_IT_number 34
_symmetry_cell_setting 'orthorhombic'
loop_
_space_group_symop_operation_xyz
x,y,z
-x,-y,z
1/2-x,1/2+y,1/2+z
1/2+x,1/2-y,1/2+z
loop_
_atom_site_type_symbol
_atom_site_label
_atom_site_fract_x
_atom_site_fract_y
_atom_site_fract_z
Si Si1 0.088502 0.897355 0.529550
Si Si2 0.559876 0.246468 0.517742
Si Si3 0.679972 0.763186 0.792379
Si Si4 0.830741 0.898458 0.234003
Si Si5 0.000000 0.000000 0.900501
Si Si6 0.387171 0.929591 0.402840
Si Si7 0.541636 0.912417 0.021657
O O1 0.132176 0.806103 0.457942
O O2 0.221176 0.948228 0.434435
O O3 0.934370 0.911362 0.426664
O O4 0.074738 0.931543 0.758699
O O5 0.393203 0.259328 0.574728
O O6 0.647986 0.270639 0.310888
O O7 0.641790 0.303121 0.680375
O O8 0.582870 0.150393 0.536773
O O9 0.605941 0.845991 0.871347
O O10 0.663496 0.914454 0.203131
O O11 0.895012 0.951012 0.047262
O O12 0.405193 0.898361 0.167013
O O13 0.500000 0.000000 0.453315
O O14 0.500000 0.000000 0.928196
#
# Coordination Sequence:
#
# PCOD9347755 Si02
#       7
#     4   4   4   4   2   4   4
#     4  10  24  46  66  96 139 176 230 280 344 413
#     4   9  20  42  64  94 133 179 224 284 347 420
#     4   9  20  42  64  94 133 179 224 284 347 420
#     4  10  24  46  66  96 139 176 230 280 344 413
#     4  12  26  36  74  90 122 184 232 272 324 414
#     4  10  23  40  66  98 134 178 215 287 352 394
#     4  10  23  40  66  98 134 178 215 287 352 394
#
# _framework density 25.998076000000001
#
# number of rings (size 3 to 8) (size 9 to 14) (size 15 to 20)
#    0.000    2.154    0.000    0.462   10.769    5.538 
#    0.000    4.615    0.000    0.000    0.000    0.000 
#    0.000    0.000    0.000    0.000    0.000    0.000 
#
# Total GULP energy -144988.884036 kJ/mol
# GULP energy per Si atom -5576.495540 kJ/mol
# Density = 2.593890 g / cm^3
# Si number density = 25.998076 Si / 1000 Ang^3
#
#
#
# Elastic Constant Matrix: (Units=GPa)
#
#
# Indices 1 2 3 4 5 6 
#
# 1 92.8476 25.6611 35.4152 0.0000 0.0000 0.0000
# 2 25.6611 172.0840 14.4766 0.0000 0.0000 0.0000
# 3 35.4152 14.4766 75.9352 0.0000 0.0000 0.0000
# 4 0.0000 0.0000 0.0000 19.5380 0.0000 0.0000
# 5 0.0000 0.0000 0.0000 0.0000 24.2985 0.0000
# 6 0.0000 0.0000 0.0000 0.0000 0.0000 40.9448
#
#
#
# Elastic Compliance Matrix: (Units=1/GPa)
#
#
# Indices 1 2 3 4 5 6 
#
# 1 0.013474 -0.001505 -0.005997 0.000000 0.000000 0.000000
# 2 -0.001505 0.006074 -0.000456 0.000000 0.000000 0.000000
# 3 -0.005997 -0.000456 0.016053 0.000000 0.000000 0.000000
# 4 0.000000 0.000000 0.000000 0.051182 0.000000 0.000000
# 5 0.000000 0.000000 0.000000 0.000000 0.041155 0.000000
# 6 0.000000 0.000000 0.000000 0.000000 0.000000 0.024423
#
#
# Mechanical properties :
#
#
# Convention : Reuss Voigt Hill
#
# Bulk Modulus (GPa) = 50.80088 54.66362 52.73225
# Shear Modulus (GPa) = 28.59784 34.64384 31.62084
#
# Velocity S-wave (km/s) = 3.32022 3.65438 3.49130
# Velocity P-wave (km/s) = 5.85501 6.23519 6.04809
#
# Compressibility (1/GPa) = 0.01968470
#
# Stress axis : x y z
#
# Youngs Moduli (GPa) = 74.21866 164.63966 62.29340
#
# Poissons Ratio (x) = 0.24773 0.37358
# Poissons Ratio (y) = 0.11168 0.02842
# Poissons Ratio (z) = 0.44510 0.07511
#
# Static dielectric constant tensor:
#      x y z
#    x 2.149750 0.000000 0.000000 
#    y 0.000000 2.132710 0.000000 
#    z 0.000000 0.000000 2.069460 
# 
# From -- ./inp_files/2732.got.cif
#   From: 2010.05.17/outbox.cif.g08.bks.cpg/sg34_2_cif.got.tgz:2732.got - 2010.06.03 17:23:11.
