data_PCOD9347296
_publ_section_title
;
Structure prediction by ZEFSAII (Michael W. Deem and Ramdas Pophale) SiO2 
 PCOD9347296
Probable space group: P N N 2
;
_chemical_formula_sum "Si O2"
_cell_formula_units_Z 28
_cell_length_a 8.124552
_cell_length_b 15.502020
_cell_length_c 10.979357
_cell_angle_alpha 90.000000
_cell_angle_beta 90.000000
_cell_angle_gamma 90.000000
_cell_volume 1382.816720
_symmetry_space_group_name_H-M "P N N 2"
_symmetry_group_IT_number 34
_symmetry_cell_setting 'orthorhombic'
loop_
_space_group_symop_operation_xyz
x,y,z
-x,-y,z
1/2-x,1/2+y,1/2+z
1/2+x,1/2-y,1/2+z
loop_
_atom_site_type_symbol
_atom_site_label
_atom_site_fract_x
_atom_site_fract_y
_atom_site_fract_z
Si Si1 0.500000 0.500000 0.605780
Si Si2 0.070768 0.245908 0.671775
Si Si3 0.000000 0.500000 0.965880
Si Si4 0.749999 0.093222 0.285829
Si Si5 0.634114 0.826269 0.541157
Si Si6 0.749999 0.264706 0.785829
Si Si7 0.929231 0.254093 0.399883
Si Si8 0.365889 0.673731 0.530501
O O1 0.646183 0.536006 0.692000
O O2 0.444438 0.580405 0.525129
O O3 0.125396 0.340508 0.718384
O O4 0.237559 0.192818 0.648624
O O5 0.919669 0.214579 0.756022
O O6 0.999999 0.250000 0.535829
O O7 0.146182 0.463993 0.879660
O O8 0.055565 0.580405 0.046531
O O9 0.874603 0.159492 0.353274
O O10 0.718176 0.820238 0.406976
O O11 0.500001 0.750000 0.535828
O O12 0.580330 0.214578 0.815636
O O13 0.718174 0.320238 0.664682
O O14 0.762440 0.307183 0.423034
#
# Coordination Sequence:
#
# PCOD9347296 Si02
#       8
#     2   4   2   4   4   4   4   4
#     4  12  24  36  66 100 134 162 230 278 326 400
#     4  10  21  37  62  95 128 174 210 269 344 394
#     4  12  24  36  66 100 134 162 230 278 326 400
#     4  12  23  40  64 101 128 164 213 294 328 387
#     4  11  21  39  61  97 132 171 210 275 336 389
#     4  10  19  38  62  89 128 174 217 262 332 395
#     4  10  21  37  62  95 128 174 210 269 344 394
#     4  11  21  39  61  97 132 171 210 275 336 389
#
# _framework density 20.248525999999998
#
# number of rings (size 3 to 8) (size 9 to 14) (size 15 to 20)
#    0.000    1.143    5.714    0.857    4.000    0.000 
#    0.000    0.000    0.000    5.143    0.000    0.000 
#    0.000    0.000    0.000    0.000    0.000    0.000 
#
# Total GULP energy -156223.061743 kJ/mol
# GULP energy per Si atom -5579.395062 kJ/mol
# Density = 2.020244 g / cm^3
# Si number density = 20.248526 Si / 1000 Ang^3
#
#
#
# Elastic Constant Matrix: (Units=GPa)
#
#
# Indices 1 2 3 4 5 6 
#
# 1 161.6843 69.4882 38.4768 0.0000 0.0000 0.0000
# 2 69.4882 144.4659 29.8019 0.0000 0.0000 0.0000
# 3 38.4768 29.8019 81.7733 0.0000 0.0000 0.0000
# 4 0.0000 0.0000 0.0000 34.2648 0.0000 0.0000
# 5 0.0000 0.0000 0.0000 0.0000 65.5892 0.0000
# 6 0.0000 0.0000 0.0000 0.0000 0.0000 20.5621
#
#
#
# Elastic Compliance Matrix: (Units=1/GPa)
#
#
# Indices 1 2 3 4 5 6 
#
# 1 0.008295 -0.003444 -0.002648 0.000000 0.000000 0.000000
# 2 -0.003444 0.008914 -0.001628 0.000000 0.000000 0.000000
# 3 -0.002648 -0.001628 0.014068 0.000000 0.000000 0.000000
# 4 0.000000 0.000000 0.000000 0.029184 0.000000 0.000000
# 5 0.000000 0.000000 0.000000 0.000000 0.015246 0.000000
# 6 0.000000 0.000000 0.000000 0.000000 0.000000 0.048633
#
#
# Mechanical properties :
#
#
# Convention : Reuss Voigt Hill
#
# Bulk Modulus (GPa) = 63.14123 73.71747 68.42935
# Shear Modulus (GPa) = 34.46814 40.76032 37.61423
#
# Velocity S-wave (km/s) = 4.13031 4.49152 4.31470
# Velocity P-wave (km/s) = 7.34825 7.96139 7.66096
#
# Compressibility (1/GPa) = 0.01583751
#
# Stress axis : x y z
#
# Youngs Moduli (GPa) = 120.55350 112.17822 71.08124
#
# Poissons Ratio (x) = 0.38630 0.18823
# Poissons Ratio (y) = 0.41515 0.11575
# Poissons Ratio (z) = 0.31923 0.18268
#
# Static dielectric constant tensor:
#      x y z
#    x 1.950630 0.000000 0.000000 
#    y 0.000000 1.673190 0.000000 
#    z 0.000000 0.000000 1.767780 
# 
# From -- ./inp_files/5059.got.cif
#   From: 2010.05.17/outbox.cif.g08.bks.cpg/sg34_3_cif.got.tgz:5059.got - 2010.06.03 17:23:11.
