data_PCOD9347553
_publ_section_title
;
Structure prediction by ZEFSAII (Michael W. Deem and Ramdas Pophale) SiO2 
 PCOD9347553
Probable space group: P N N 2
;
_chemical_formula_sum "Si O2"
_cell_formula_units_Z 18
_cell_length_a 11.321690
_cell_length_b 4.907706
_cell_length_c 13.606628
_cell_angle_alpha 90.000000
_cell_angle_beta 90.000000
_cell_angle_gamma 90.000000
_cell_volume 756.032228
_symmetry_space_group_name_H-M "P N N 2"
_symmetry_group_IT_number 34
_symmetry_cell_setting 'orthorhombic'
loop_
_space_group_symop_operation_xyz
x,y,z
-x,-y,z
1/2-x,1/2+y,1/2+z
1/2+x,1/2-y,1/2+z
loop_
_atom_site_type_symbol
_atom_site_label
_atom_site_fract_x
_atom_site_fract_y
_atom_site_fract_z
Si Si1 0.402236 0.301130 0.127550
Si Si2 0.358391 0.485565 0.840464
Si Si3 0.252035 0.307694 0.629951
Si Si4 0.000000 0.000000 0.815726
Si Si5 0.772283 0.991526 0.928841
O O1 0.500000 0.500000 0.077278
O O2 0.286245 0.494358 0.131640
O O3 0.363760 0.995679 0.105546
O O4 0.447266 0.284466 0.239741
O O5 0.500000 0.500000 0.836248
O O6 0.309684 0.392611 0.732968
O O7 0.296883 0.766970 0.872575
O O8 0.390020 0.608366 0.374934
O O9 0.320349 0.386046 0.531367
O O10 0.316714 0.263673 0.921622
#
# Coordination Sequence:
#
# PCOD9347553 Si02
#       5
#     4   4   4   2   4
#     4  10  21  39  70  88 129 166 217 265 317 370
#     4  12  25  47  64  97 138 171 211 272 326 388
#     4  12  23  43  64  98 127 171 218 260 329 382
#     4  10  22  46  68  96 126 172 222 274 312 386
#     4  12  27  42  70  99 128 175 219 267 325 384
#
# _framework density 23.808509999999998
#
# number of rings (size 3 to 8) (size 9 to 14) (size 15 to 20)
#    0.667    0.000    4.444    2.667    1.556    8.000 
#    0.000    0.000    0.000    0.000    0.000    0.000 
#    0.000    0.000    0.000    0.000    0.000    0.000 
#
# Total GULP energy -100485.500693 kJ/mol
# GULP energy per Si atom -5582.527816 kJ/mol
# Density = 2.375432 g / cm^3
# Si number density = 23.808510 Si / 1000 Ang^3
#
#
#
# Elastic Constant Matrix: (Units=GPa)
#
#
# Indices 1 2 3 4 5 6 
#
# 1 83.9479 16.4755 10.8764 0.0000 0.0000 0.0000
# 2 16.4755 123.9907 13.6296 0.0000 0.0000 0.0000
# 3 10.8764 13.6296 101.0498 0.0000 0.0000 0.0000
# 4 0.0000 0.0000 0.0000 18.7928 0.0000 0.0000
# 5 0.0000 0.0000 0.0000 0.0000 11.8465 0.0000
# 6 0.0000 0.0000 0.0000 0.0000 0.0000 24.0873
#
#
#
# Elastic Compliance Matrix: (Units=1/GPa)
#
#
# Indices 1 2 3 4 5 6 
#
# 1 0.012356 -0.001518 -0.001125 0.000000 0.000000 0.000000
# 2 -0.001518 0.008373 -0.000966 0.000000 0.000000 0.000000
# 3 -0.001125 -0.000966 0.010148 0.000000 0.000000 0.000000
# 4 0.000000 0.000000 0.000000 0.053212 0.000000 0.000000
# 5 0.000000 0.000000 0.000000 0.000000 0.084413 0.000000
# 6 0.000000 0.000000 0.000000 0.000000 0.000000 0.041516
#
#
# Mechanical properties :
#
#
# Convention : Reuss Voigt Hill
#
# Bulk Modulus (GPa) = 42.26910 43.43904 42.85407
# Shear Modulus (GPa) = 22.21027 28.81247 25.51137
#
# Velocity S-wave (km/s) = 3.05761 3.48253 3.27696
# Velocity P-wave (km/s) = 5.50069 5.86988 5.68828
#
# Compressibility (1/GPa) = 0.02365795
#
# Stress axis : x y z
#
# Youngs Moduli (GPa) = 80.93320 119.43116 98.54641
#
# Poissons Ratio (x) = 0.18131 0.11088
# Poissons Ratio (y) = 0.12287 0.09519
# Poissons Ratio (z) = 0.09106 0.11536
#
# Static dielectric constant tensor:
#      x y z
#    x 1.960600 0.000000 0.000000 
#    y 0.000000 1.854720 0.000000 
#    z 0.000000 0.000000 2.046160 
# 
# From -- ./inp_files/7400.got.cif
#   From: 2010.05.17/outbox.cif.g08.bks.cpg/sg34_4_cif.got.tgz:7400.got - 2010.06.03 17:23:11.
