data_PCOD9347925
_publ_section_title
;
Structure prediction by ZEFSAII (Michael W. Deem and Ramdas Pophale) SiO2 
 PCOD9347925
Probable space group: P N N 2
;
_chemical_formula_sum "Si O2"
_cell_formula_units_Z 18
_cell_length_a 8.514241
_cell_length_b 7.151154
_cell_length_c 11.729898
_cell_angle_alpha 90.000000
_cell_angle_beta 90.000000
_cell_angle_gamma 90.000000
_cell_volume 714.194177
_symmetry_space_group_name_H-M "P N N 2"
_symmetry_group_IT_number 34
_symmetry_cell_setting 'orthorhombic'
loop_
_space_group_symop_operation_xyz
x,y,z
-x,-y,z
1/2-x,1/2+y,1/2+z
1/2+x,1/2-y,1/2+z
loop_
_atom_site_type_symbol
_atom_site_label
_atom_site_fract_x
_atom_site_fract_y
_atom_site_fract_z
Si Si1 0.554918 0.797048 0.601270
Si Si2 0.537590 0.777204 0.839507
Si Si3 0.744696 0.406555 0.500867
Si Si4 0.500000 0.000000 0.181266
Si Si5 0.685095 0.757440 0.361264
O O1 0.622816 0.728819 0.721462
O O2 0.405934 0.674830 0.563611
O O3 0.650688 0.832585 0.487360
O O4 0.500000 0.000000 0.636992
O O5 0.364425 0.691538 0.832110
O O6 0.500000 0.000000 0.858102
O O7 0.649310 0.742364 0.946638
O O8 0.854392 0.517491 0.591174
O O9 0.685510 0.535668 0.394758
O O10 0.563509 0.836402 0.267501
#
# Coordination Sequence:
#
# PCOD9347925 Si02
#       5
#     4   4   4   2   4
#     4  11  23  42  68 104 146 185 239 295 359 435
#     4   9  20  41  68  99 137 182 237 289 354 427
#     4  11  23  45  74 102 142 190 234 303 367 421
#     4  12  22  42  78 106 148 180 246 308 358 438
#     4  11  22  42  70 106 139 189 239 299 361 429
#
# _framework density 25.203230999999999
#
# number of rings (size 3 to 8) (size 9 to 14) (size 15 to 20)
#    0.000    1.333    6.667    0.667    0.000    1.778 
#    0.000    3.333    0.000    0.000    0.000    0.000 
#    0.000    0.000    0.000    0.000    0.000    0.000 
#
# Total GULP energy -100315.072532 kJ/mol
# GULP energy per Si atom -5573.059585 kJ/mol
# Density = 2.514587 g / cm^3
# Si number density = 25.203231 Si / 1000 Ang^3
#
#
#
# Elastic Constant Matrix: (Units=GPa)
#
#
# Indices 1 2 3 4 5 6 
#
# 1 80.8675 48.9575 62.8354 0.0000 0.0000 0.0000
# 2 48.9575 69.3699 24.8819 0.0000 0.0000 0.0000
# 3 62.8354 24.8819 190.8048 0.0000 0.0000 0.0000
# 4 0.0000 0.0000 0.0000 35.7376 0.0000 0.0000
# 5 0.0000 0.0000 0.0000 0.0000 367.5463 0.0000
# 6 0.0000 0.0000 0.0000 0.0000 0.0000 30.5842
#
#
#
# Elastic Compliance Matrix: (Units=1/GPa)
#
#
# Indices 1 2 3 4 5 6 
#
# 1 0.028534 -0.017590 -0.007103 0.000000 0.000000 0.000000
# 2 -0.017590 0.025966 0.002407 0.000000 0.000000 0.000000
# 3 -0.007103 0.002407 0.007266 0.000000 0.000000 0.000000
# 4 0.000000 0.000000 0.000000 0.027982 0.000000 0.000000
# 5 0.000000 0.000000 0.000000 0.000000 0.002721 0.000000
# 6 0.000000 0.000000 0.000000 0.000000 0.000000 0.032697
#
#
# Mechanical properties :
#
#
# Convention : Reuss Voigt Hill
#
# Bulk Modulus (GPa) = 58.16039 68.26575 63.21307
# Shear Modulus (GPa) = 28.49486 100.39812 64.44649
#
# Velocity S-wave (km/s) = 3.36609 6.31838 5.06224
# Velocity P-wave (km/s) = 6.18337 8.96516 7.70092
#
# Compressibility (1/GPa) = 0.01719383
#
# Stress axis : x y z
#
# Youngs Moduli (GPa) = 35.04570 38.51124 137.62241
#
# Poissons Ratio (x) = 0.67742 0.97753
# Poissons Ratio (y) = 0.61646 -0.33120
# Poissons Ratio (z) = 0.24893 -0.09268
#
# Static dielectric constant tensor:
#      x y z
#    x 2.062900 0.000000 0.000000 
#    y 0.000000 2.128620 0.000000 
#    z 0.000000 0.000000 1.977550 
# 
# From -- ./inp_files/4734.got.cif
#   From: 2010.05.17/outbox.cif.g08.bks.cpg/sg34_3_cif.got.tgz:4734.got - 2010.06.03 17:23:11.
