data_PCOD9347875
_publ_section_title
;
Structure prediction by ZEFSAII (Michael W. Deem and Ramdas Pophale) SiO2 
 PCOD9347875
Probable space group: P N N 2
;
_chemical_formula_sum "Si O2"
_cell_formula_units_Z 28
_cell_length_a 18.076267
_cell_length_b 12.287019
_cell_length_c 5.494250
_cell_angle_alpha 90.000000
_cell_angle_beta 90.000000
_cell_angle_gamma 90.000000
_cell_volume 1220.291804
_symmetry_space_group_name_H-M "P N N 2"
_symmetry_group_IT_number 34
_symmetry_cell_setting 'orthorhombic'
loop_
_space_group_symop_operation_xyz
x,y,z
-x,-y,z
1/2-x,1/2+y,1/2+z
1/2+x,1/2-y,1/2+z
loop_
_atom_site_type_symbol
_atom_site_label
_atom_site_fract_x
_atom_site_fract_y
_atom_site_fract_z
Si Si1 0.806356 0.208546 0.831530
Si Si2 0.000000 0.500000 0.406081
Si Si3 0.500000 0.500000 0.523491
Si Si4 0.470617 0.207382 0.247452
Si Si5 0.903283 0.642095 0.104106
Si Si6 0.852561 0.975305 0.723088
Si Si7 0.223143 0.252161 0.844591
Si Si8 0.436330 0.654028 0.886413
O O1 0.890001 0.254066 0.826786
O O2 0.770278 0.260666 0.590434
O O3 0.802861 0.079908 0.764255
O O4 0.768547 0.226490 0.095345
O O5 0.025078 0.603460 0.566598
O O6 0.072543 0.464611 0.249962
O O7 0.573429 0.502735 0.368101
O O8 0.492133 0.605704 0.691253
O O9 0.520543 0.171519 0.471383
O O10 0.515054 0.303962 0.111279
O O11 0.891453 0.741717 0.292102
O O12 0.837326 0.653152 0.909584
O O13 0.819428 0.861569 0.810967
O O14 0.881073 0.944216 0.453731
#
# Coordination Sequence:
#
# PCOD9347875 Si02
#       8
#     4   2   2   4   4   4   4   4
#     4  12  31  49  77 113 159 204 255 325 390 484
#     4  10  26  42  84 112 154 210 270 324 386 468
#     4  12  22  38  82 110 138 190 260 334 388 446
#     4  11  24  49  74 116 150 201 271 322 381 469
#     4  11  23  48  77 109 149 207 262 324 380 473
#     4  12  26  49  73 115 143 208 252 324 396 462
#     4  12  29  52  74 111 162 203 252 320 400 472
#     4  11  21  40  80 109 148 186 268 331 385 445
#
# _framework density 22.945332000000001
#
# number of rings (size 3 to 8) (size 9 to 14) (size 15 to 20)
#    0.000    0.571    2.857    4.286   10.000    1.143 
#    5.143    0.000    0.000    0.000    0.000    0.000 
#    0.000    0.000    0.000    0.000    0.000    0.000 
#
# Total GULP energy -156557.927583 kJ/mol
# GULP energy per Si atom -5591.354557 kJ/mol
# Density = 2.289311 g / cm^3
# Si number density = 22.945332 Si / 1000 Ang^3
#
#
#
# Elastic Constant Matrix: (Units=GPa)
#
#
# Indices 1 2 3 4 5 6 
#
# 1 102.9113 14.8913 49.2847 0.0000 0.0000 0.0000
# 2 14.8913 63.8006 20.8953 0.0000 0.0000 0.0000
# 3 49.2847 20.8953 110.2254 0.0000 0.0000 0.0000
# 4 0.0000 0.0000 0.0000 46.2140 0.0000 0.0000
# 5 0.0000 0.0000 0.0000 0.0000 30.4232 0.0000
# 6 0.0000 0.0000 0.0000 0.0000 0.0000 27.5461
#
#
#
# Elastic Compliance Matrix: (Units=1/GPa)
#
#
# Indices 1 2 3 4 5 6 
#
# 1 0.012444 -0.001154 -0.005345 0.000000 0.000000 0.000000
# 2 -0.001154 0.016818 -0.002672 0.000000 0.000000 0.000000
# 3 -0.005345 -0.002672 0.011969 0.000000 0.000000 0.000000
# 4 0.000000 0.000000 0.000000 0.021638 0.000000 0.000000
# 5 0.000000 0.000000 0.000000 0.000000 0.032870 0.000000
# 6 0.000000 0.000000 0.000000 0.000000 0.000000 0.036303
#
#
# Mechanical properties :
#
#
# Convention : Reuss Voigt Hill
#
# Bulk Modulus (GPa) = 43.69034 49.67552 46.68293
# Shear Modulus (GPa) = 31.64268 33.62774 32.63521
#
# Velocity S-wave (km/s) = 3.71758 3.83242 3.77543
# Velocity P-wave (km/s) = 6.12451 6.42493 6.27652
#
# Compressibility (1/GPa) = 0.02288835
#
# Stress axis : x y z
#
# Youngs Moduli (GPa) = 80.36041 59.45880 83.54967
#
# Poissons Ratio (x) = 0.06861 0.44660
# Poissons Ratio (y) = 0.09272 0.22327
# Poissons Ratio (z) = 0.42955 0.15889
#
# Static dielectric constant tensor:
#      x y z
#    x 1.869340 0.000000 0.000000 
#    y 0.000000 1.868350 0.000000 
#    z 0.000000 0.000000 1.902950 
# 
# From -- ./inp_files/1602.got.cif
#   From: 2010.05.17/outbox.cif.g08.bks.cpg/sg34_1_cif.got.tgz:1602.got - 2010.06.03 17:23:11.
