data_PCOD9347908
_publ_section_title
;
Structure prediction by ZEFSAII (Michael W. Deem and Ramdas Pophale) SiO2 
 PCOD9347908
Probable space group: P N N 2
;
_chemical_formula_sum "Si O2"
_cell_formula_units_Z 24
_cell_length_a 15.148810
_cell_length_b 5.825089
_cell_length_c 12.210856
_cell_angle_alpha 90.000000
_cell_angle_beta 90.000000
_cell_angle_gamma 90.000000
_cell_volume 1077.524599
_symmetry_space_group_name_H-M "P N N 2"
_symmetry_group_IT_number 34
_symmetry_cell_setting 'orthorhombic'
loop_
_space_group_symop_operation_xyz
x,y,z
-x,-y,z
1/2-x,1/2+y,1/2+z
1/2+x,1/2-y,1/2+z
loop_
_atom_site_type_symbol
_atom_site_label
_atom_site_fract_x
_atom_site_fract_y
_atom_site_fract_z
Si Si1 0.000000 0.500000 0.349000
Si Si2 0.822564 0.806989 0.878273
Si Si3 0.822564 0.693010 0.433493
Si Si4 0.584107 0.750000 0.655883
Si Si5 0.762274 0.542257 0.087008
Si Si6 0.762274 0.957742 0.224757
Si Si7 0.500000 0.500000 0.462765
O O1 0.081995 0.421019 0.422474
O O2 0.027891 0.705092 0.264784
O O3 0.799508 0.664186 0.768623
O O4 0.750000 0.999999 0.905883
O O5 0.808894 0.631390 0.977319
O O6 0.918005 0.921019 0.889291
O O7 0.799508 0.835814 0.543142
O O8 0.808894 0.868610 0.334446
O O9 0.653607 0.541829 0.655706
O O10 0.527891 0.705092 0.546981
O O11 0.653607 0.958170 0.656060
O O12 0.718992 0.750000 0.155883
#
# Coordination Sequence:
#
# PCOD9347908 Si02
#       7
#     2   4   4   4   4   4   2
#     4  12  22  38  66 106 136 180 238 304 350 436
#     4  11  23  40  63 103 137 185 230 293 367 431
#     4  11  23  40  63 103 137 185 230 293 367 431
#     4  12  22  40  68 104 136 172 228 308 362 418
#     4  11  21  41  64  99 140 187 227 294 375 427
#     4  11  21  41  64  99 140 187 227 294 375 427
#     4  12  22  38  66 106 136 180 238 304 350 436
#
# _framework density 22.273273
#
# number of rings (size 3 to 8) (size 9 to 14) (size 15 to 20)
#    0.000    0.667    6.667    2.000    0.000    0.000 
#    0.000    0.000    0.000    0.000   43.333    0.000 
#    0.000    0.000    0.000    0.000    0.000    0.000 
#
# Total GULP energy -134015.727394 kJ/mol
# GULP energy per Si atom -5583.988641 kJ/mol
# Density = 2.222258 g / cm^3
# Si number density = 22.273273 Si / 1000 Ang^3
#
#
#
# Elastic Constant Matrix: (Units=GPa)
#
#
# Indices 1 2 3 4 5 6 
#
# 1 179.5406 67.9574 52.7374 0.0000 0.0000 0.0000
# 2 67.9574 100.3566 35.8905 0.0000 0.0000 0.0000
# 3 52.7374 35.8905 99.6646 0.0000 0.0000 0.0000
# 4 0.0000 0.0000 0.0000 61.1002 0.0000 0.0000
# 5 0.0000 0.0000 0.0000 0.0000 33.4078 0.0000
# 6 0.0000 0.0000 0.0000 0.0000 0.0000 28.5391
#
#
#
# Elastic Compliance Matrix: (Units=1/GPa)
#
#
# Indices 1 2 3 4 5 6 
#
# 1 0.008051 -0.004509 -0.002636 0.000000 0.000000 0.000000
# 2 -0.004509 0.013963 -0.002642 0.000000 0.000000 0.000000
# 3 -0.002636 -0.002642 0.012380 0.000000 0.000000 0.000000
# 4 0.000000 0.000000 0.000000 0.016367 0.000000 0.000000
# 5 0.000000 0.000000 0.000000 0.000000 0.029933 0.000000
# 6 0.000000 0.000000 0.000000 0.000000 0.000000 0.035040
#
#
# Mechanical properties :
#
#
# Convention : Reuss Voigt Hill
#
# Bulk Modulus (GPa) = 67.48251 76.97026 72.22639
# Shear Modulus (GPa) = 35.65126 39.47451 37.56288
#
# Velocity S-wave (km/s) = 4.00513 4.21441 4.11110
# Velocity P-wave (km/s) = 7.19384 7.63636 7.41840
#
# Compressibility (1/GPa) = 0.01481865
#
# Stress axis : x y z
#
# Youngs Moduli (GPa) = 124.21136 71.61980 80.77400
#
# Poissons Ratio (x) = 0.32292 0.21295
# Poissons Ratio (y) = 0.56005 0.21343
# Poissons Ratio (z) = 0.32747 0.18924
#
# Static dielectric constant tensor:
#      x y z
#    x 1.781830 0.000000 0.000000 
#    y 0.000000 1.988730 0.000000 
#    z 0.000000 0.000000 1.966530 
# 
# From -- ./inp_files/6875.got.cif
#   From: 2010.05.17/outbox.cif.g08.bks.cpg/sg34_4_cif.got.tgz:6875.got - 2010.06.03 17:23:11.
