data_PCOD9347853
_publ_section_title
;
Structure prediction by ZEFSAII (Michael W. Deem and Ramdas Pophale) SiO2 
 PCOD9347853
Probable space group: P N N 2
;
_chemical_formula_sum "Si O2"
_cell_formula_units_Z 26
_cell_length_a 11.967177
_cell_length_b 14.083223
_cell_length_c 5.643857
_cell_angle_alpha 90.000000
_cell_angle_beta 90.000000
_cell_angle_gamma 90.000000
_cell_volume 951.195467
_symmetry_space_group_name_H-M "P N N 2"
_symmetry_group_IT_number 34
_symmetry_cell_setting 'orthorhombic'
loop_
_space_group_symop_operation_xyz
x,y,z
-x,-y,z
1/2-x,1/2+y,1/2+z
1/2+x,1/2-y,1/2+z
loop_
_atom_site_type_symbol
_atom_site_label
_atom_site_fract_x
_atom_site_fract_y
_atom_site_fract_z
Si Si1 0.988549 0.713600 0.811840
Si Si2 0.896560 0.126678 0.572168
Si Si3 0.136346 0.946104 0.072347
Si Si4 0.182396 0.335670 0.326146
Si Si5 0.500000 0.000000 0.429444
Si Si6 0.081211 0.642021 0.243961
Si Si7 0.699732 0.336683 0.554067
O O1 0.974966 0.598727 0.792210
O O2 0.041273 0.772976 0.599308
O O3 0.880467 0.772302 0.889543
O O4 0.075891 0.720074 0.033495
O O5 0.924518 0.076303 0.822190
O O6 0.762450 0.135113 0.604436
O O7 0.818981 0.348734 0.425986
O O8 0.919764 0.085003 0.317078
O O9 0.252696 0.887801 0.036646
O O10 0.158972 0.057139 0.087876
O O11 0.052023 0.360390 0.307850
O O12 0.195939 0.221602 0.301385
O O13 0.596760 0.958133 0.601331
#
# Coordination Sequence:
#
# PCOD9347853 Si02
#       7
#     4   4   4   4   2   4   4
#     4   9  22  43  82 127 173 222 302 360 448 537
#     4  10  24  51  80 119 169 229 286 359 436 534
#     4  10  25  49  85 118 172 222 296 351 442 531
#     4   9  23  47  79 120 167 224 294 354 442 524
#     4   8  18  40  82 122 168 220 294 370 440 516
#     4   9  19  42  84 119 172 215 291 366 435 518
#     4  11  22  45  83 130 169 234 287 371 444 534
#
# _framework density 27.334022999999998
#
# number of rings (size 3 to 8) (size 9 to 14) (size 15 to 20)
#    1.846    0.615    0.000    0.923    2.154    0.615 
#    8.308   10.769    3.385    3.692    0.000    0.000 
#    0.000    0.000    0.000    0.000    0.000    0.000 
#
# Total GULP energy -145095.568007 kJ/mol
# GULP energy per Si atom -5580.598769 kJ/mol
# Density = 2.727181 g / cm^3
# Si number density = 27.334023 Si / 1000 Ang^3
#
#
#
# Elastic Constant Matrix: (Units=GPa)
#
#
# Indices 1 2 3 4 5 6 
#
# 1 167.4695 91.8354 67.3425 0.0000 0.0000 0.0000
# 2 91.8354 264.6657 95.5160 0.0000 0.0000 0.0000
# 3 67.3425 95.5160 164.6291 0.0000 0.0000 0.0000
# 4 0.0000 0.0000 0.0000 16.9102 0.0000 0.0000
# 5 0.0000 0.0000 0.0000 0.0000 30.0861 0.0000
# 6 0.0000 0.0000 0.0000 0.0000 0.0000 42.0766
#
#
#
# Elastic Compliance Matrix: (Units=1/GPa)
#
#
# Indices 1 2 3 4 5 6 
#
# 1 0.007898 -0.001992 -0.002075 0.000000 0.000000 0.000000
# 2 -0.001992 0.005281 -0.002249 0.000000 0.000000 0.000000
# 3 -0.002075 -0.002249 0.008228 0.000000 0.000000 0.000000
# 4 0.000000 0.000000 0.000000 0.059136 0.000000 0.000000
# 5 0.000000 0.000000 0.000000 0.000000 0.033238 0.000000
# 6 0.000000 0.000000 0.000000 0.000000 0.000000 0.023766
#
#
# Mechanical properties :
#
#
# Convention : Reuss Voigt Hill
#
# Bulk Modulus (GPa) = 113.96107 122.90579 118.43343
# Shear Modulus (GPa) = 32.65746 40.61928 36.63837
#
# Velocity S-wave (km/s) = 3.46027 3.85909 3.66511
# Velocity P-wave (km/s) = 7.59916 8.05722 7.83154
#
# Compressibility (1/GPa) = 0.00877493
#
# Stress axis : x y z
#
# Youngs Moduli (GPa) = 126.61769 189.35126 121.53275
#
# Poissons Ratio (x) = 0.37709 0.25220
# Poissons Ratio (y) = 0.25216 0.27338
# Poissons Ratio (z) = 0.26276 0.42594
#
# Static dielectric constant tensor:
#      x y z
#    x 2.150640 0.000000 0.000000 
#    y 0.000000 2.199210 0.000000 
#    z 0.000000 0.000000 2.363700 
# 
# From -- ./inp_files/1772.got.cif
#   From: 2010.05.17/outbox.cif.g08.bks.cpg/sg34_1_cif.got.tgz:1772.got - 2010.06.03 17:23:11.
