data_PCOD9347725
_publ_section_title
;
Structure prediction by ZEFSAII (Michael W. Deem and Ramdas Pophale) SiO2 
 PCOD9347725
Probable space group: P N N 2
;
_chemical_formula_sum "Si O2"
_cell_formula_units_Z 18
_cell_length_a 13.482509
_cell_length_b 9.485140
_cell_length_c 5.776330
_cell_angle_alpha 90.000000
_cell_angle_beta 90.000000
_cell_angle_gamma 90.000000
_cell_volume 738.697213
_symmetry_space_group_name_H-M "P N N 2"
_symmetry_group_IT_number 34
_symmetry_cell_setting 'orthorhombic'
loop_
_space_group_symop_operation_xyz
x,y,z
-x,-y,z
1/2-x,1/2+y,1/2+z
1/2+x,1/2-y,1/2+z
loop_
_atom_site_type_symbol
_atom_site_label
_atom_site_fract_x
_atom_site_fract_y
_atom_site_fract_z
Si Si1 0.015542 0.239923 0.353990
Si Si2 0.500000 0.000000 0.163041
Si Si3 0.834169 0.607779 0.011741
Si Si4 0.814449 0.135752 0.156654
Si Si5 0.291504 0.629100 0.934483
O O1 0.095734 0.310449 0.183360
O O2 0.092886 0.146504 0.503155
O O3 0.973164 0.366206 0.506668
O O4 0.928701 0.166471 0.211740
O O5 0.591028 0.042876 0.322573
O O6 0.771384 0.474454 0.101498
O O7 0.753484 0.695334 0.868179
O O8 0.769798 0.223941 0.942328
O O9 0.796634 0.968638 0.201016
#
# Coordination Sequence:
#
# PCOD9347725 Si02
#       5
#     4   2   4   4   4
#     4  12  23  43  72  99 140 193 237 307 381 441
#     4  12  22  42  68 100 132 188 238 300 368 450
#     4  10  25  41  69 101 139 182 247 295 377 447
#     4  10  23  43  69  99 144 179 248 299 374 448
#     4  10  22  45  64 102 135 188 235 307 365 456
#
# _framework density 24.367224
#
# number of rings (size 3 to 8) (size 9 to 14) (size 15 to 20)
#    1.333    0.000    2.222    4.000    3.111    0.000 
#    4.000    0.000    4.889    0.000    0.000    0.000 
#    0.000    0.000    0.000    0.000    0.000    0.000 
#
# Total GULP energy -100299.149279 kJ/mol
# GULP energy per Si atom -5572.174960 kJ/mol
# Density = 2.431176 g / cm^3
# Si number density = 24.367224 Si / 1000 Ang^3
#
#
#
# Elastic Constant Matrix: (Units=GPa)
#
#
# Indices 1 2 3 4 5 6 
#
# 1 160.7521 31.4156 22.4389 0.0000 0.0000 0.0000
# 2 31.4156 123.6942 30.9520 0.0000 0.0000 0.0000
# 3 22.4389 30.9520 42.9300 0.0000 0.0000 0.0000
# 4 0.0000 0.0000 0.0000 29.3758 0.0000 0.0000
# 5 0.0000 0.0000 0.0000 0.0000 31.8452 0.0000
# 6 0.0000 0.0000 0.0000 0.0000 0.0000 42.5733
#
#
#
# Elastic Compliance Matrix: (Units=1/GPa)
#
#
# Indices 1 2 3 4 5 6 
#
# 1 0.006815 -0.001024 -0.002824 0.000000 0.000000 0.000000
# 2 -0.001024 0.010018 -0.006687 0.000000 0.000000 0.000000
# 3 -0.002824 -0.006687 0.029591 0.000000 0.000000 0.000000
# 4 0.000000 0.000000 0.000000 0.034042 0.000000 0.000000
# 5 0.000000 0.000000 0.000000 0.000000 0.031402 0.000000
# 6 0.000000 0.000000 0.000000 0.000000 0.000000 0.023489
#
#
# Mechanical properties :
#
#
# Convention : Reuss Voigt Hill
#
# Bulk Modulus (GPa) = 39.44234 55.22103 47.33169
# Shear Modulus (GPa) = 30.32530 36.93017 33.62773
#
# Velocity S-wave (km/s) = 3.53159 3.89725 3.71892
# Velocity P-wave (km/s) = 5.73160 6.55459 6.15686
#
# Compressibility (1/GPa) = 0.02535346
#
# Stress axis : x y z
#
# Youngs Moduli (GPa) = 146.73330 99.82013 33.79380
#
# Poissons Ratio (x) = 0.10225 0.09542
# Poissons Ratio (y) = 0.15030 0.22600
# Poissons Ratio (z) = 0.41432 0.66755
#
# Static dielectric constant tensor:
#      x y z
#    x 1.992270 0.000000 0.000000 
#    y 0.000000 2.100710 0.000000 
#    z 0.000000 0.000000 1.979290 
# 
# From -- ./inp_files/732.got.cif
#   From: 2010.05.17/outbox.cif.g08.bks.cpg/sg34_1_cif.got.tgz:732.got - 2010.06.03 17:23:11.
