data_PCOD9347077
_publ_section_title
;
Structure prediction by ZEFSAII (Michael W. Deem and Ramdas Pophale) SiO2 
 PCOD9347077
Probable space group: P N A 21
;
_chemical_formula_sum "Si O2"
_cell_formula_units_Z 24
_cell_length_a 15.000000
_cell_length_b 12.000000
_cell_length_c 6.000000
_cell_angle_alpha 90.000000
_cell_angle_beta 90.000000
_cell_angle_gamma 90.000000
_cell_volume 1080.000000
_symmetry_space_group_name_H-M "P N A 21"
_symmetry_group_IT_number 33
_symmetry_cell_setting 'orthorhombic'
loop_
_space_group_symop_operation_xyz
x,y,z
-x,-y,1/2+z
1/2-x,1/2+y,1/2+z
1/2+x,1/2-y,z
loop_
_atom_site_type_symbol
_atom_site_label
_atom_site_fract_x
_atom_site_fract_y
_atom_site_fract_z
Si Si1 0.125572 0.177807 0.243110
Si Si2 0.317174 0.442435 0.815236
Si Si3 0.296995 0.233603 0.502694
Si Si4 0.054012 0.595583 0.275922
Si Si5 0.425098 0.293613 0.125785
Si Si6 0.371482 0.906337 0.502560
O O1 0.195086 0.195343 0.449908
O O2 0.143756 0.277139 0.067741
O O3 0.017350 0.185497 0.261099
O O4 0.152141 0.051544 0.180161
O O5 0.292372 0.338635 0.662732
O O6 0.399287 0.397696 0.966745
O O7 0.223705 0.461426 0.944523
O O8 0.379262 0.157410 0.598430
O O9 0.338589 0.277191 0.274454
O O10 0.068236 0.677554 0.487578
O O11 0.086341 0.469703 0.219968
O O12 0.945309 0.585270 0.301922
#
# Coordination Sequence:
#
# PCOD9347077 Si02
#       6
#     4   4   4   4   4   4
#     4  11  25  45  71 103 139 192 235 292 364 429
#     4  11  25  47  69 106 142 188 241 298 368 438
#     4  11  24  46  72 100 143 189 238 303 356 443
#     4  10  25  44  72 105 143 182 241 300 361 439
#     4  10  25  48  69 105 143 184 245 291 369 440
#     4  11  24  46  73 107 142 193 238 306 366 431
#
# _framework density 22.222221999999999
#
# number of rings (size 3 to 8) (size 9 to 14) (size 15 to 20)
#    0.000    1.333    3.333    0.000    9.333    1.333 
#    3.000    0.000    0.000    0.000    0.000    0.000 
#    0.000    0.000    0.000    0.000    0.000    0.000 
#
# Total GULP energy -133641.715242 kJ/mol
# GULP energy per Si atom -5568.404802 kJ/mol
# Density = 2.217164 g / cm^3
# Si number density = 22.222222 Si / 1000 Ang^3
#
#
#
# Elastic Constant Matrix: (Units=GPa)
#
#
# Indices 1 2 3 4 5 6 
#
# 1 165.8512 39.1380 33.9877 0.0000 0.0000 0.0000
# 2 39.1380 105.3338 20.8322 0.0000 0.0000 0.0000
# 3 33.9877 20.8322 35.5284 0.0000 0.0000 0.0000
# 4 0.0000 0.0000 0.0000 19.5388 0.0000 0.0000
# 5 0.0000 0.0000 0.0000 0.0000 51.7030 0.0000
# 6 0.0000 0.0000 0.0000 0.0000 0.0000 23.0086
#
#
#
# Elastic Compliance Matrix: (Units=1/GPa)
#
#
# Indices 1 2 3 4 5 6 
#
# 1 0.007729 -0.001594 -0.006459 0.000000 0.000000 0.000000
# 2 -0.001594 0.011068 -0.004964 0.000000 0.000000 0.000000
# 3 -0.006459 -0.004964 0.037237 0.000000 0.000000 0.000000
# 4 0.000000 0.000000 0.000000 0.051180 0.000000 0.000000
# 5 0.000000 0.000000 0.000000 0.000000 0.019341 0.000000
# 6 0.000000 0.000000 0.000000 0.000000 0.000000 0.043462
#
#
# Mechanical properties :
#
#
# Convention : Reuss Voigt Hill
#
# Bulk Modulus (GPa) = 33.33603 54.95881 44.14742
# Shear Modulus (GPa) = 24.26559 33.03377 28.64968
#
# Velocity S-wave (km/s) = 3.30805 3.85972 3.59449
# Velocity P-wave (km/s) = 5.44286 6.68195 6.09398
#
# Compressibility (1/GPa) = 0.02999757
#
# Stress axis : x y z
#
# Youngs Moduli (GPa) = 129.37470 90.35140 26.85528
#
# Poissons Ratio (x) = 0.14406 0.17347
# Poissons Ratio (y) = 0.20629 0.13332
# Poissons Ratio (z) = 0.83568 0.44854
#
# Static dielectric constant tensor:
#      x y z
#    x 1.819980 0.000000 0.000000 
#    y 0.000000 1.857750 0.000000 
#    z 0.000000 0.000000 1.853860 
# 
# From -- ./inp_files/1325.got.cif
#   From: 2010.05.17/outbox.ucp.g08.bks.cvg/sg33_1_cif.got.tgz:1325.got - 2010.06.11 10:35:07.
