data_PCOD9347814
_publ_section_title
;
Structure prediction by ZEFSAII (Michael W. Deem and Ramdas Pophale) SiO2 
 PCOD9347814
Probable space group: P N N 2
;
_chemical_formula_sum "Si O2"
_cell_formula_units_Z 14
_cell_length_a 7.558661
_cell_length_b 11.661120
_cell_length_c 7.112187
_cell_angle_alpha 90.000000
_cell_angle_beta 90.000000
_cell_angle_gamma 90.000000
_cell_volume 626.885608
_symmetry_space_group_name_H-M "P N N 2"
_symmetry_group_IT_number 34
_symmetry_cell_setting 'orthorhombic'
loop_
_space_group_symop_operation_xyz
x,y,z
-x,-y,z
1/2-x,1/2+y,1/2+z
1/2+x,1/2-y,1/2+z
loop_
_atom_site_type_symbol
_atom_site_label
_atom_site_fract_x
_atom_site_fract_y
_atom_site_fract_z
Si Si1 0.201338 0.784496 0.099510
Si Si2 0.500000 0.500000 0.671279
Si Si3 0.071122 0.380664 0.284767
Si Si4 0.689491 0.055278 0.408415
O O1 0.296830 0.828037 0.289308
O O2 0.086769 0.676119 0.161984
O O3 0.343890 0.793794 0.933511
O O4 0.061646 0.888623 0.058733
O O5 0.663708 0.476237 0.810622
O O6 0.000000 0.500000 0.374610
O O7 0.213160 0.417795 0.127076
O O8 0.500000 0.000000 0.380656
#
# Coordination Sequence:
#
# PCOD9347814 Si02
#       4
#     4   2   4   4
#     4  10  24  42  68 105 143 187 238 296 360 432
#     4   8  22  44  66 100 136 186 228 298 358 418
#     4  11  25  41  72 107 140 195 243 293 365 432
#     4   9  21  43  69  95 144 178 239 298 352 425
#
# _framework density 22.332625
#
# number of rings (size 3 to 8) (size 9 to 14) (size 15 to 20)
#    1.714    0.571    0.000    0.857    8.000    5.714 
#    0.000    0.000    0.000    0.000    0.000    0.000 
#    0.000    0.000    0.000    0.000    0.000    0.000 
#
# Total GULP energy -77946.458490 kJ/mol
# GULP energy per Si atom -5567.604178 kJ/mol
# Density = 2.228180 g / cm^3
# Si number density = 22.332625 Si / 1000 Ang^3
#
#
#
# Elastic Constant Matrix: (Units=GPa)
#
#
# Indices 1 2 3 4 5 6 
#
# 1 89.7306 25.4268 25.9299 0.0000 0.0000 0.0000
# 2 25.4268 104.8518 12.3691 0.0000 0.0000 0.0000
# 3 25.9299 12.3691 74.3000 0.0000 0.0000 0.0000
# 4 0.0000 0.0000 0.0000 42.2601 0.0000 0.0000
# 5 0.0000 0.0000 0.0000 0.0000 53.8107 0.0000
# 6 0.0000 0.0000 0.0000 0.0000 0.0000 40.3799
#
#
#
# Elastic Compliance Matrix: (Units=1/GPa)
#
#
# Indices 1 2 3 4 5 6 
#
# 1 0.013098 -0.002690 -0.004123 0.000000 0.000000 0.000000
# 2 -0.002690 0.010281 -0.000773 0.000000 0.000000 0.000000
# 3 -0.004123 -0.000773 0.015027 0.000000 0.000000 0.000000
# 4 0.000000 0.000000 0.000000 0.023663 0.000000 0.000000
# 5 0.000000 0.000000 0.000000 0.000000 0.018584 0.000000
# 6 0.000000 0.000000 0.000000 0.000000 0.000000 0.024765
#
#
# Mechanical properties :
#
#
# Convention : Reuss Voigt Hill
#
# Bulk Modulus (GPa) = 43.04116 44.03711 43.53913
# Shear Modulus (GPa) = 38.96097 40.96725 39.96411
#
# Velocity S-wave (km/s) = 4.18134 4.28765 4.23483
# Velocity P-wave (km/s) = 6.52887 6.65383 6.59165
#
# Compressibility (1/GPa) = 0.02323358
#
# Stress axis : x y z
#
# Youngs Moduli (GPa) = 76.34605 97.26925 66.54870
#
# Poissons Ratio (x) = 0.26165 0.27440
# Poissons Ratio (y) = 0.20537 0.05142
# Poissons Ratio (z) = 0.31480 0.07516
#
# Static dielectric constant tensor:
#      x y z
#    x 1.795520 0.000000 0.000000 
#    y 0.000000 1.921370 0.000000 
#    z 0.000000 0.000000 1.848100 
# 
# From -- ./inp_files/2328.got.cif
#   From: 2010.05.17/outbox.cif.g08.bks.cpg/sg34_2_cif.got.tgz:2328.got - 2010.06.03 17:23:11.
