data_PCOD9347109
_publ_section_title
;
Structure prediction by ZEFSAII (Michael W. Deem and Ramdas Pophale) SiO2 
 PCOD9347109
Probable space group: P N N 2
;
_chemical_formula_sum "Si O2"
_cell_formula_units_Z 28
_cell_length_a 9.722149
_cell_length_b 8.662391
_cell_length_c 15.319697
_cell_angle_alpha 90.000000
_cell_angle_beta 90.000000
_cell_angle_gamma 90.000000
_cell_volume 1290.179780
_symmetry_space_group_name_H-M "P N N 2"
_symmetry_group_IT_number 34
_symmetry_cell_setting 'orthorhombic'
loop_
_space_group_symop_operation_xyz
x,y,z
-x,-y,z
1/2-x,1/2+y,1/2+z
1/2+x,1/2-y,1/2+z
loop_
_atom_site_type_symbol
_atom_site_label
_atom_site_fract_x
_atom_site_fract_y
_atom_site_fract_z
Si Si1 0.170262 0.726516 0.926500
Si Si2 0.000000 0.000000 0.420748
Si Si3 0.763992 0.491939 0.792538
Si Si4 0.029964 0.334741 0.422904
Si Si5 0.837720 0.490593 0.085952
Si Si6 0.625079 0.784742 0.741289
Si Si7 0.000000 0.000000 0.993168
Si Si8 0.851173 0.822192 0.132619
O O1 0.131413 0.598447 0.854576
O O2 0.307615 0.821781 0.902332
O O3 0.050924 0.849674 0.942631
O O4 0.210547 0.630624 0.014010
O O5 0.128830 0.014425 0.355261
O O6 0.009326 0.832037 0.466035
O O7 0.749943 0.667098 0.760216
O O8 0.743598 0.389134 0.707399
O O9 0.000000 0.500000 0.467032
O O10 0.944284 0.332914 0.332133
O O11 0.822067 0.424582 0.182948
O O12 0.793564 0.667207 0.088972
O O13 0.000000 0.500000 0.066782
O O14 0.500015 0.711721 0.681462
O O15 0.878645 0.945240 0.057292
#
# Coordination Sequence:
#
# PCOD9347109 Si02
#       8
#     4   2   4   4   4   4   2   4
#     4  11  22  34  50  89 127 153 183 250 298 358
#     4   8  15  28  48  78 113 126 176 238 287 326
#     4  10  16  31  55  83 111 140 188 244 301 334
#     4  10  19  34  56  88 118 144 194 246 301 340
#     4  10  20  33  56  83 121 138 193 252 303 340
#     4  10  16  32  60  85 104 140 198 255 290 345
#     4  12  21  36  52  84 125 158 194 232 301 354
#     4  11  16  33  60  79 110 150 195 247 287 346
#
# _framework density 21.702403
#
# number of rings (size 3 to 8) (size 9 to 14) (size 15 to 20)
#    0.000    1.714    8.571    1.286    0.000    0.000 
#    7.714    0.000    0.000    0.000    7.429    0.000 
#    0.000    0.000    0.000    0.000    0.000    0.000 
#
# Total GULP energy -155986.779052 kJ/mol
# GULP energy per Si atom -5570.956395 kJ/mol
# Density = 2.165301 g / cm^3
# Si number density = 21.702403 Si / 1000 Ang^3
#
#
#
# Elastic Constant Matrix: (Units=GPa)
#
#
# Indices 1 2 3 4 5 6 
#
# 1 24.5997 23.8981 25.2854 0.0000 0.0000 0.0000
# 2 23.8981 140.0619 33.7011 0.0000 0.0000 0.0000
# 3 25.2854 33.7011 57.0328 0.0000 0.0000 0.0000
# 4 0.0000 0.0000 0.0000 90.3629 0.0000 0.0000
# 5 0.0000 0.0000 0.0000 0.0000 15.1034 0.0000
# 6 0.0000 0.0000 0.0000 0.0000 0.0000 9.0605
#
#
#
# Elastic Compliance Matrix: (Units=1/GPa)
#
#
# Indices 1 2 3 4 5 6 
#
# 1 0.078605 -0.005860 -0.031387 0.000000 0.000000 0.000000
# 2 -0.005860 0.008760 -0.002578 0.000000 0.000000 0.000000
# 3 -0.031387 -0.002578 0.032973 0.000000 0.000000 0.000000
# 4 0.000000 0.000000 0.000000 0.011066 0.000000 0.000000
# 5 0.000000 0.000000 0.000000 0.000000 0.066210 0.000000
# 6 0.000000 0.000000 0.000000 0.000000 0.000000 0.110369
#
#
# Mechanical properties :
#
#
# Convention : Reuss Voigt Hill
#
# Bulk Modulus (GPa) = 24.57742 43.05152 33.81447
# Shear Modulus (GPa) = 12.46271 32.15934 22.31103
#
# Velocity S-wave (km/s) = 2.39896 3.85364 3.20979
# Velocity P-wave (km/s) = 4.36150 6.29928 5.41773
#
# Compressibility (1/GPa) = 0.04068776
#
# Stress axis : x y z
#
# Youngs Moduli (GPa) = 12.72176 114.15612 30.32816
#
# Poissons Ratio (x) = 0.66894 0.95191
# Poissons Ratio (y) = 0.07455 0.07820
# Poissons Ratio (z) = 0.39930 0.29433
#
# Static dielectric constant tensor:
#      x y z
#    x 1.873230 0.000000 0.000000 
#    y 0.000000 1.847910 0.000000 
#    z 0.000000 0.000000 1.780880 
# 
# From -- ./inp_files/6760.got.cif
#   From: 2010.05.17/outbox.cif.g08.bks.cpg/sg34_4_cif.got.tgz:6760.got - 2010.06.03 17:23:11.
