data_PCOD9347745
_publ_section_title
;
Structure prediction by ZEFSAII (Michael W. Deem and Ramdas Pophale) SiO2 
 PCOD9347745
Probable space group: P N N 2
;
_chemical_formula_sum "Si O2"
_cell_formula_units_Z 26
_cell_length_a 21.754852
_cell_length_b 5.381255
_cell_length_c 8.775956
_cell_angle_alpha 90.000000
_cell_angle_beta 90.000000
_cell_angle_gamma 90.000000
_cell_volume 1027.387181
_symmetry_space_group_name_H-M "P N N 2"
_symmetry_group_IT_number 34
_symmetry_cell_setting 'orthorhombic'
loop_
_space_group_symop_operation_xyz
x,y,z
-x,-y,z
1/2-x,1/2+y,1/2+z
1/2+x,1/2-y,1/2+z
loop_
_atom_site_type_symbol
_atom_site_label
_atom_site_fract_x
_atom_site_fract_y
_atom_site_fract_z
Si Si1 0.925939 0.518003 0.048520
Si Si2 0.772983 0.185396 0.802262
Si Si3 0.074321 0.989602 0.226989
Si Si4 0.748122 0.194649 0.146817
Si Si5 0.500000 0.500000 0.221953
Si Si6 0.892373 0.747267 0.534046
Si Si7 0.403019 0.158074 0.238642
O O1 0.911440 0.792195 0.108822
O O2 0.000000 0.500000 0.051938
O O3 0.907793 0.281563 0.158388
O O4 0.893495 0.522710 0.882318
O O5 0.744233 0.444225 0.744012
O O6 0.841357 0.185168 0.731310
O O7 0.737745 0.942957 0.741776
O O8 0.780008 0.179509 0.983415
O O9 0.106767 0.102966 0.377252
O O10 0.000000 0.000000 0.255573
O O11 0.676181 0.215530 0.097550
O O12 0.555665 0.392258 0.126694
O O13 0.463477 0.290109 0.306799
O O14 0.916030 0.464257 0.573879
#
# Coordination Sequence:
#
# PCOD9347745 Si02
#       7
#     4   4   4   4   2   4   4
#     4  10  23  39  58  91 131 178 223 272 337 410
#     4  11  25  47  72 105 138 182 236 297 350 422
#     4  10  23  38  60  88 134 177 222 273 337 408
#     4  11  25  46  73 104 140 179 241 291 356 416
#     4  12  22  40  70  94 142 172 238 274 356 412
#     4  11  24  41  68 102 135 184 229 288 347 421
#     4  11  26  41  69 100 138 183 236 286 357 419
#
# _framework density 25.306913999999999
#
# number of rings (size 3 to 8) (size 9 to 14) (size 15 to 20)
#    0.000    1.231    2.308    2.308    7.538    3.692 
#    0.000    0.000    0.000    0.000    0.000    0.000 
#    0.000    0.000    0.000    0.000    0.000    0.000 
#
# Total GULP energy -145161.149651 kJ/mol
# GULP energy per Si atom -5583.121140 kJ/mol
# Density = 2.524931 g / cm^3
# Si number density = 25.306914 Si / 1000 Ang^3
#
#
#
# Elastic Constant Matrix: (Units=GPa)
#
#
# Indices 1 2 3 4 5 6 
#
# 1 71.2288 31.3363 10.2633 0.0000 0.0000 0.0000
# 2 31.3363 146.8878 32.0751 0.0000 0.0000 0.0000
# 3 10.2633 32.0751 73.7189 0.0000 0.0000 0.0000
# 4 0.0000 0.0000 0.0000 28.7369 0.0000 0.0000
# 5 0.0000 0.0000 0.0000 0.0000 26.0550 0.0000
# 6 0.0000 0.0000 0.0000 0.0000 0.0000 3.0600
#
#
#
# Elastic Compliance Matrix: (Units=1/GPa)
#
#
# Indices 1 2 3 4 5 6 
#
# 1 0.015536 -0.003140 -0.000797 0.000000 0.000000 0.000000
# 2 -0.003140 0.008157 -0.003112 0.000000 0.000000 0.000000
# 3 -0.000797 -0.003112 0.015030 0.000000 0.000000 0.000000
# 4 0.000000 0.000000 0.000000 0.034798 0.000000 0.000000
# 5 0.000000 0.000000 0.000000 0.000000 0.038380 0.000000
# 6 0.000000 0.000000 0.000000 0.000000 0.000000 0.326792
#
#
# Mechanical properties :
#
#
# Convention : Reuss Voigt Hill
#
# Bulk Modulus (GPa) = 40.60898 48.79831 44.70364
# Shear Modulus (GPa) = 10.84598 26.11445 18.48021
#
# Velocity S-wave (km/s) = 2.07246 3.21582 2.70523
# Velocity P-wave (km/s) = 4.66993 5.75440 5.24029
#
# Compressibility (1/GPa) = 0.02462510
#
# Stress axis : x y z
#
# Youngs Moduli (GPa) = 64.36835 122.58755 66.53356
#
# Poissons Ratio (x) = 0.38497 0.05300
# Poissons Ratio (y) = 0.20214 0.20706
# Poissons Ratio (z) = 0.05127 0.38150
#
# Static dielectric constant tensor:
#      x y z
#    x 2.081540 0.000000 0.000000 
#    y 0.000000 2.527330 0.000000 
#    z 0.000000 0.000000 2.004620 
# 
# From -- ./inp_files/2156.got.cif
#   From: 2010.05.17/outbox.cif.g08.bks.cpg/sg34_2_cif.got.tgz:2156.got - 2010.06.03 17:23:11.
