data_PCOD9347557
_publ_section_title
;
Structure prediction by ZEFSAII (Michael W. Deem and Ramdas Pophale) SiO2 
 PCOD9347557
Probable space group: P N N 2
;
_chemical_formula_sum "Si O2"
_cell_formula_units_Z 30
_cell_length_a 8.266947
_cell_length_b 13.356383
_cell_length_c 12.363485
_cell_angle_alpha 90.000000
_cell_angle_beta 90.000000
_cell_angle_gamma 90.000000
_cell_volume 1365.132870
_symmetry_space_group_name_H-M "P N N 2"
_symmetry_group_IT_number 34
_symmetry_cell_setting 'orthorhombic'
loop_
_space_group_symop_operation_xyz
x,y,z
-x,-y,z
1/2-x,1/2+y,1/2+z
1/2+x,1/2-y,1/2+z
loop_
_atom_site_type_symbol
_atom_site_label
_atom_site_fract_x
_atom_site_fract_y
_atom_site_fract_z
Si Si1 0.322706 0.447720 0.210850
Si Si2 0.000000 0.500000 0.784247
Si Si3 0.174568 0.942515 0.949522
Si Si4 0.822322 0.395337 0.593743
Si Si5 0.517168 0.282280 0.547836
Si Si6 0.221796 0.657179 0.152264
Si Si7 0.707415 0.190554 0.350717
Si Si8 0.542254 0.690150 0.028050
O O1 0.500000 0.500000 0.216668
O O2 0.285952 0.405521 0.329439
O O3 0.212603 0.544282 0.194009
O O4 0.342403 0.368450 0.114666
O O5 0.117224 0.559983 0.704382
O O6 0.109533 0.413789 0.839498
O O7 0.140166 0.849574 0.026591
O O8 0.000000 0.000000 0.945243
O O9 0.297875 0.019384 0.003407
O O10 0.647717 0.345541 0.612293
O O11 0.938206 0.307757 0.551892
O O12 0.451864 0.186187 0.607037
O O13 0.603256 0.256792 0.435055
O O14 0.271541 0.739432 0.244279
O O15 0.361049 0.658178 0.059089
O O16 0.879779 0.171721 0.410430
#
# Coordination Sequence:
#
# PCOD9347557 Si02
#       8
#     4   2   4   4   4   4   4   4
#     4   9  18  34  62  90 123 171 214 265 330 402
#     4  12  24  40  72  90 138 178 230 282 368 408
#     4   9  17  34  63  89 119 162 216 268 329 392
#     4  10  21  40  64  95 127 174 221 282 334 416
#     4  10  22  40  67  94 130 169 225 277 338 412
#     4  11  21  42  65  93 128 177 222 278 341 411
#     4  11  24  42  65  95 133 178 219 287 351 411
#     4  10  21  40  63  91 134 169 224 281 342 412
#
# _framework density 21.975883
#
# number of rings (size 3 to 8) (size 9 to 14) (size 15 to 20)
#    0.000    1.867    1.333    4.800    1.867    0.000 
#    2.400    0.000    5.867    0.000    0.000    0.000 
#    0.000    0.000    0.000    0.000    0.000    0.000 
#
# Total GULP energy -167486.878969 kJ/mol
# GULP energy per Si atom -5582.895966 kJ/mol
# Density = 2.192587 g / cm^3
# Si number density = 21.975883 Si / 1000 Ang^3
#
#
#
# Elastic Constant Matrix: (Units=GPa)
#
#
# Indices 1 2 3 4 5 6 
#
# 1 68.8491 11.0462 27.9290 0.0000 0.0000 0.0000
# 2 11.0462 51.6572 8.8567 0.0000 0.0000 0.0000
# 3 27.9290 8.8567 56.1256 0.0000 0.0000 0.0000
# 4 0.0000 0.0000 0.0000 29.8107 0.0000 0.0000
# 5 0.0000 0.0000 0.0000 0.0000 23.8619 0.0000
# 6 0.0000 0.0000 0.0000 0.0000 0.0000 36.3457
#
#
#
# Elastic Compliance Matrix: (Units=1/GPa)
#
#
# Indices 1 2 3 4 5 6 
#
# 1 0.018493 -0.002443 -0.008817 0.000000 0.000000 0.000000
# 2 -0.002443 0.020219 -0.001975 0.000000 0.000000 0.000000
# 3 -0.008817 -0.001975 0.022516 0.000000 0.000000 0.000000
# 4 0.000000 0.000000 0.000000 0.033545 0.000000 0.000000
# 5 0.000000 0.000000 0.000000 0.000000 0.041908 0.000000
# 6 0.000000 0.000000 0.000000 0.000000 0.000000 0.027514
#
#
# Mechanical properties :
#
#
# Convention : Reuss Voigt Hill
#
# Bulk Modulus (GPa) = 28.76946 30.25508 29.51227
# Shear Modulus (GPa) = 24.72170 26.59031 25.65600
#
# Velocity S-wave (km/s) = 3.35766 3.48225 3.42052
# Velocity P-wave (km/s) = 5.30581 5.47406 5.39059
#
# Compressibility (1/GPa) = 0.03475908
#
# Stress axis : x y z
#
# Youngs Moduli (GPa) = 54.07419 49.45747 44.41218
#
# Poissons Ratio (x) = 0.12082 0.39158
# Poissons Ratio (y) = 0.13209 0.08772
# Poissons Ratio (z) = 0.47677 0.09768
#
# Static dielectric constant tensor:
#      x y z
#    x 1.825230 0.000000 0.000000 
#    y 0.000000 1.824790 0.000000 
#    z 0.000000 0.000000 1.788410 
# 
# From -- ./inp_files/5074.got.cif
#   From: 2010.05.17/outbox.cif.g08.bks.cpg/sg34_3_cif.got.tgz:5074.got - 2010.06.03 17:23:11.
