data_PCOD9347412
_publ_section_title
;
Structure prediction by ZEFSAII (Michael W. Deem and Ramdas Pophale) SiO2 
 PCOD9347412
Probable space group: P N N 2
;
_chemical_formula_sum "Si O2"
_cell_formula_units_Z 26
_cell_length_a 7.298639
_cell_length_b 12.338479
_cell_length_c 10.482728
_cell_angle_alpha 90.000000
_cell_angle_beta 90.000000
_cell_angle_gamma 90.000000
_cell_volume 944.012678
_symmetry_space_group_name_H-M "P N N 2"
_symmetry_group_IT_number 34
_symmetry_cell_setting 'orthorhombic'
loop_
_space_group_symop_operation_xyz
x,y,z
-x,-y,z
1/2-x,1/2+y,1/2+z
1/2+x,1/2-y,1/2+z
loop_
_atom_site_type_symbol
_atom_site_label
_atom_site_fract_x
_atom_site_fract_y
_atom_site_fract_z
Si Si1 0.123712 0.897246 0.272210
Si Si2 0.315397 0.307775 0.494660
Si Si3 0.314136 0.069975 0.571769
Si Si4 0.796279 0.122058 0.719573
Si Si5 0.100657 0.660269 0.322253
Si Si6 0.500000 0.000000 0.282922
Si Si7 0.391057 0.160399 0.079266
O O1 0.097469 0.861589 0.122443
O O2 0.067620 0.787201 0.342424
O O3 0.330002 0.922302 0.322195
O O4 0.000000 0.000000 0.302888
O O5 0.327498 0.175170 0.479243
O O6 0.382764 0.358933 0.360211
O O7 0.101266 0.331042 0.529144
O O8 0.276402 0.142171 0.699598
O O9 0.500000 0.000000 0.541977
O O10 0.181537 0.972154 0.614788
O O11 0.585983 0.108363 0.769165
O O12 0.817505 0.229804 0.637079
O O13 0.195042 0.616811 0.448674
O O14 0.620423 0.924220 0.190507
#
# Coordination Sequence:
#
# PCOD9347412 Si02
#       7
#     4   4   4   4   4   2   4
#     4  10  20  40  63  93 128 166 212 272 331 388
#     4   9  21  40  59  95 129 161 225 278 316 412
#     4   9  19  38  63  83 121 170 213 266 336 394
#     4  10  20  39  63  91 127 172 213 267 339 402
#     4   9  20  38  63  89 122 170 217 262 329 406
#     4  10  22  38  64  90 122 164 214 266 318 396
#     4  10  21  38  61  91 124 165 217 265 333 401
#
# _framework density 27.542003000000001
#
# number of rings (size 3 to 8) (size 9 to 14) (size 15 to 20)
#    0.000    2.462    0.000    0.923    7.538    0.615 
#   12.462   12.308    0.000    0.000    0.000    0.000 
#    0.000    0.000    0.000    0.000    0.000    0.000 
#
# Total GULP energy -144854.588810 kJ/mol
# GULP energy per Si atom -5571.330339 kJ/mol
# Density = 2.747932 g / cm^3
# Si number density = 27.542003 Si / 1000 Ang^3
#
#
#
# Elastic Constant Matrix: (Units=GPa)
#
#
# Indices 1 2 3 4 5 6 
#
# 1 66.5123 12.5509 18.5088 0.0000 0.0000 0.0000
# 2 12.5509 131.3648 -12.4690 0.0000 0.0000 0.0000
# 3 18.5088 -12.4690 93.4076 0.0000 0.0000 0.0000
# 4 0.0000 0.0000 0.0000 -111.8456 0.0000 0.0000
# 5 0.0000 0.0000 0.0000 0.0000 -37.9441 0.0000
# 6 0.0000 0.0000 0.0000 0.0000 0.0000 45.4398
#
#
#
# Elastic Compliance Matrix: (Units=1/GPa)
#
#
# Indices 1 2 3 4 5 6 
#
# 1 0.016365 -0.001895 -0.003496 0.000000 0.000000 0.000000
# 2 -0.001895 0.007930 0.001434 0.000000 0.000000 0.000000
# 3 -0.003496 0.001434 0.011590 0.000000 0.000000 0.000000
# 4 0.000000 0.000000 0.000000 -0.008941 0.000000 0.000000
# 5 0.000000 0.000000 0.000000 0.000000 -0.026355 0.000000
# 6 0.000000 0.000000 0.000000 0.000000 0.000000 0.022007
#
#
# Mechanical properties :
#
#
# Convention : Reuss Voigt Hill
#
# Bulk Modulus (GPa) = 35.75184 36.49621 36.12403
# Shear Modulus (GPa) = 125.52017 -2.69039 61.41489
#
# Velocity S-wave (km/s) = 6.75818 -0.98942 4.72727
# Velocity P-wave (km/s) = 8.59688 3.46043 6.55290
#
# Compressibility (1/GPa) = 0.02797058
#
# Stress axis : x y z
#
# Youngs Moduli (GPa) = 61.10497 126.10977 86.28201
#
# Poissons Ratio (x) = 0.23903 0.30163
# Poissons Ratio (y) = 0.11582 -0.12374
# Poissons Ratio (z) = 0.21361 -0.18085
#
# Static dielectric constant tensor:
#      x y z
#    x 2.288630 0.000000 0.000000 
#    y 0.000000 2.207880 0.000000 
#    z 0.000000 0.000000 2.550070 
# 
# From -- ./inp_files/4982.got.cif
#   From: 2010.05.17/outbox.cif.g08.bks.cpg/sg34_3_cif.got.tgz:4982.got - 2010.06.03 17:23:11.
