data_PCOD9347358
_publ_section_title
;
Structure prediction by ZEFSAII (Michael W. Deem and Ramdas Pophale) SiO2 
 PCOD9347358
Probable space group: P N N 2
;
_chemical_formula_sum "Si O2"
_cell_formula_units_Z 30
_cell_length_a 9.397095
_cell_length_b 5.068642
_cell_length_c 30.518351
_cell_angle_alpha 90.000000
_cell_angle_beta 90.000000
_cell_angle_gamma 90.000000
_cell_volume 1453.604635
_symmetry_space_group_name_H-M "P N N 2"
_symmetry_group_IT_number 34
_symmetry_cell_setting 'orthorhombic'
loop_
_space_group_symop_operation_xyz
x,y,z
-x,-y,z
1/2-x,1/2+y,1/2+z
1/2+x,1/2-y,1/2+z
loop_
_atom_site_type_symbol
_atom_site_label
_atom_site_fract_x
_atom_site_fract_y
_atom_site_fract_z
Si Si1 0.152447 0.576849 0.917410
Si Si2 0.829061 0.996649 0.766188
Si Si3 0.601649 0.248651 0.646838
Si Si4 0.171514 0.510438 0.712335
Si Si5 0.730006 0.452411 0.365923
Si Si6 0.899684 0.745564 0.044786
Si Si7 0.857970 0.102021 0.485444
Si Si8 0.500000 0.000000 0.916889
O O1 0.203714 0.330984 0.887764
O O2 0.000000 0.500000 0.936687
O O3 0.126786 0.826981 0.886349
O O4 0.264677 0.608252 0.957243
O O5 0.787414 0.782776 0.728904
O O6 0.772991 0.929260 0.814047
O O7 0.793957 0.293665 0.752554
O O8 0.000000 0.000000 0.768911
O O9 0.500000 0.500000 0.649026
O O10 0.739949 0.346553 0.673864
O O11 0.641760 0.209524 0.595909
O O12 0.500000 0.000000 0.660546
O O13 0.000000 0.500000 0.703915
O O14 0.876128 0.579997 0.383704
O O15 0.757612 0.745515 0.015605
O O16 0.000000 0.500000 0.034006
O O17 0.000000 0.000000 0.039630
O O18 0.928555 0.288235 0.448792
O O19 0.000000 0.000000 0.509879
#
# Coordination Sequence:
#
# PCOD9347358 Si02
#       8
#     4   4   4   4   4   4   4   2
#     4  11  22  36  61  85 115 164 212 257 309 375
#     4  10  20  36  60  89 122 160 209 264 307 374
#     4  10  21  43  66  93 131 166 209 263 329 394
#     4  10  21  39  63  93 125 160 204 263 324 381
#     4  11  22  39  58  86 123 163 212 255 320 365
#     4  10  24  43  68  95 126 171 218 269 315 394
#     4  11  23  41  62  90 131 166 212 266 331 373
#     4  10  24  40  58  84 134 170 198 274 320 378
#
# _framework density 20.638349999999999
#
# number of rings (size 3 to 8) (size 9 to 14) (size 15 to 20)
#    0.000    1.600    1.333    3.200    1.867    3.200 
#    4.800    2.000    0.000    0.000    0.000    0.000 
#    0.000    0.000    0.000    0.000    0.000    0.000 
#
# Total GULP energy -167226.956612 kJ/mol
# GULP energy per Si atom -5574.231887 kJ/mol
# Density = 2.059138 g / cm^3
# Si number density = 20.638350 Si / 1000 Ang^3
#
#
#
# Elastic Constant Matrix: (Units=GPa)
#
#
# Indices 1 2 3 4 5 6 
#
# 1 118.7493 26.0797 60.1364 0.0000 0.0000 0.0000
# 2 26.0797 97.9152 26.5060 0.0000 0.0000 0.0000
# 3 60.1364 26.5060 102.8378 0.0000 0.0000 0.0000
# 4 0.0000 0.0000 0.0000 40.9211 0.0000 0.0000
# 5 0.0000 0.0000 0.0000 0.0000 27.4214 0.0000
# 6 0.0000 0.0000 0.0000 0.0000 0.0000 25.4889
#
#
#
# Elastic Compliance Matrix: (Units=1/GPa)
#
#
# Indices 1 2 3 4 5 6 
#
# 1 0.012143 -0.001410 -0.006737 0.000000 0.000000 0.000000
# 2 -0.001410 0.011143 -0.002047 0.000000 0.000000 0.000000
# 3 -0.006737 -0.002047 0.014191 0.000000 0.000000 0.000000
# 4 0.000000 0.000000 0.000000 0.024437 0.000000 0.000000
# 5 0.000000 0.000000 0.000000 0.000000 0.036468 0.000000
# 6 0.000000 0.000000 0.000000 0.000000 0.000000 0.039233
#
#
# Mechanical properties :
#
#
# Convention : Reuss Voigt Hill
#
# Bulk Modulus (GPa) = 58.52316 60.54961 59.53638
# Shear Modulus (GPa) = 30.54369 32.55163 31.54766
#
# Velocity S-wave (km/s) = 3.85118 3.97576 3.91397
# Velocity P-wave (km/s) = 6.94216 7.10476 7.02393
#
# Compressibility (1/GPa) = 0.01708725
#
# Stress axis : x y z
#
# Youngs Moduli (GPa) = 82.35446 89.74425 70.46535
#
# Poissons Ratio (x) = 0.12658 0.47473
# Poissons Ratio (y) = 0.11616 0.14426
# Poissons Ratio (z) = 0.55483 0.18373
#
# Static dielectric constant tensor:
#      x y z
#    x 1.817730 0.000000 0.000000 
#    y 0.000000 1.774500 0.000000 
#    z 0.000000 0.000000 1.744540 
# 
# From -- ./inp_files/8682.got.cif
#   From: 2010.05.17/outbox.cif.g08.bks.cpg/sg34_5_cif.got.tgz:8682.got - 2010.06.03 17:23:11.
