data_PCOD9347672
_publ_section_title
;
Structure prediction by ZEFSAII (Michael W. Deem and Ramdas Pophale) SiO2 
 PCOD9347672
Probable space group: P N N 2
;
_chemical_formula_sum "Si O2"
_cell_formula_units_Z 20
_cell_length_a 12.096632
_cell_length_b 13.091869
_cell_length_c 5.303418
_cell_angle_alpha 90.000000
_cell_angle_beta 90.000000
_cell_angle_gamma 90.000000
_cell_volume 839.889164
_symmetry_space_group_name_H-M "P N N 2"
_symmetry_group_IT_number 34
_symmetry_cell_setting 'orthorhombic'
loop_
_space_group_symop_operation_xyz
x,y,z
-x,-y,z
1/2-x,1/2+y,1/2+z
1/2+x,1/2-y,1/2+z
loop_
_atom_site_type_symbol
_atom_site_label
_atom_site_fract_x
_atom_site_fract_y
_atom_site_fract_z
Si Si1 0.900137 0.074125 0.205240
Si Si2 0.474623 0.121579 0.023589
Si Si3 0.780628 0.906633 0.013373
Si Si4 0.821514 0.099458 0.700011
Si Si5 0.592707 0.200003 0.530941
O O1 0.800113 0.991655 0.229092
O O2 0.911364 0.117641 0.482565
O O3 0.000000 0.000000 0.132684
O O4 0.863991 0.143405 0.970092
O O5 0.516066 0.174964 0.768655
O O6 0.500000 0.000000 0.003528
O O7 0.538781 0.162472 0.270262
O O8 0.342610 0.134384 0.036329
O O9 0.869909 0.817435 0.018621
O O10 0.802317 0.980847 0.775220
O O11 0.707687 0.144143 0.600832
#
# Coordination Sequence:
#
# PCOD9347672 Si02
#       5
#     4   4   4   4   4
#     4  10  22  41  68  92 140 180 225 286 360 410
#     4  12  25  46  73 102 141 194 236 294 367 437
#     4  10  27  43  70 105 143 175 253 291 350 453
#     4  10  22  43  64  98 137 183 227 290 354 423
#     4  12  26  42  73 101 138 190 235 296 368 418
#
# _framework density 23.812667000000001
#
# number of rings (size 3 to 8) (size 9 to 14) (size 15 to 20)
#    1.200    0.000    2.000    3.600    5.600    3.200 
#    0.000    0.000    0.000    0.000    0.000    0.000 
#    0.000    0.000    0.000    0.000    0.000    0.000 
#
# Total GULP energy -111732.285261 kJ/mol
# GULP energy per Si atom -5586.614263 kJ/mol
# Density = 2.375847 g / cm^3
# Si number density = 23.812667 Si / 1000 Ang^3
#
#
#
# Elastic Constant Matrix: (Units=GPa)
#
#
# Indices 1 2 3 4 5 6 
#
# 1 75.8403 14.9952 17.5319 0.0000 0.0000 0.0000
# 2 14.9952 121.1706 40.1175 0.0000 0.0000 0.0000
# 3 17.5319 40.1175 178.5038 0.0000 0.0000 0.0000
# 4 0.0000 0.0000 0.0000 23.0057 0.0000 0.0000
# 5 0.0000 0.0000 0.0000 0.0000 33.2139 0.0000
# 6 0.0000 0.0000 0.0000 0.0000 0.0000 49.2611
#
#
#
# Elastic Compliance Matrix: (Units=1/GPa)
#
#
# Indices 1 2 3 4 5 6 
#
# 1 0.013693 -0.001350 -0.001042 0.000000 0.000000 0.000000
# 2 -0.001350 0.009049 -0.001901 0.000000 0.000000 0.000000
# 3 -0.001042 -0.001901 0.006132 0.000000 0.000000 0.000000
# 4 0.000000 0.000000 0.000000 0.043468 0.000000 0.000000
# 5 0.000000 0.000000 0.000000 0.000000 0.030108 0.000000
# 6 0.000000 0.000000 0.000000 0.000000 0.000000 0.020300
#
#
# Mechanical properties :
#
#
# Convention : Reuss Voigt Hill
#
# Bulk Modulus (GPa) = 49.28711 57.86709 53.57710
# Shear Modulus (GPa) = 36.20624 41.28747 38.74686
#
# Velocity S-wave (km/s) = 3.90354 4.16846 4.03817
# Velocity P-wave (km/s) = 6.40778 6.89361 6.65513
#
# Compressibility (1/GPa) = 0.02028928
#
# Stress axis : x y z
#
# Youngs Moduli (GPa) = 73.02874 110.50553 163.08686
#
# Poissons Ratio (x) = 0.14915 0.16986
# Poissons Ratio (y) = 0.09857 0.31006
# Poissons Ratio (z) = 0.07606 0.21009
#
# Static dielectric constant tensor:
#      x y z
#    x 1.928520 0.000000 0.000000 
#    y 0.000000 1.945000 0.000000 
#    z 0.000000 0.000000 1.942440 
# 
# From -- ./inp_files/1191.got.cif
#   From: 2010.05.17/outbox.cif.g08.bks.cpg/sg34_1_cif.got.tgz:1191.got - 2010.06.03 17:23:11.
