data_PCOD9347117
_publ_section_title
;
Structure prediction by ZEFSAII (Michael W. Deem and Ramdas Pophale) SiO2 
 PCOD9347117
Probable space group: P N N 2
;
_chemical_formula_sum "Si O2"
_cell_formula_units_Z 30
_cell_length_a 11.755785
_cell_length_b 15.604231
_cell_length_c 9.283737
_cell_angle_alpha 90.000000
_cell_angle_beta 90.000000
_cell_angle_gamma 90.000000
_cell_volume 1703.008573
_symmetry_space_group_name_H-M "P N N 2"
_symmetry_group_IT_number 34
_symmetry_cell_setting 'orthorhombic'
loop_
_space_group_symop_operation_xyz
x,y,z
-x,-y,z
1/2-x,1/2+y,1/2+z
1/2+x,1/2-y,1/2+z
loop_
_atom_site_type_symbol
_atom_site_label
_atom_site_fract_x
_atom_site_fract_y
_atom_site_fract_z
Si Si1 0.071190 0.821790 0.720620
Si Si2 0.794947 0.952749 0.459439
Si Si3 0.265801 0.733764 0.902320
Si Si4 0.809119 0.779620 0.735913
Si Si5 0.602310 0.121373 0.746612
Si Si6 0.740369 0.642787 0.969421
Si Si7 0.500000 0.500000 0.166611
Si Si8 0.656302 0.933009 0.735150
O O1 0.151576 0.768583 0.827189
O O2 0.132819 0.824962 0.564499
O O3 0.944694 0.785521 0.722681
O O4 0.058949 0.923715 0.754776
O O5 0.793730 0.866119 0.366997
O O6 0.687856 0.944570 0.567154
O O7 0.786182 0.049238 0.402219
O O8 0.906085 0.956106 0.562892
O O9 0.360524 0.799373 0.844422
O O10 0.261622 0.736601 0.075342
O O11 0.773258 0.707186 0.845811
O O12 0.752840 0.868714 0.790834
O O13 0.659225 0.136194 0.589472
O O14 0.467512 0.108745 0.745095
O O15 0.652580 0.029114 0.797787
#
# Coordination Sequence:
#
# PCOD9347117 Si02
#       8
#     4   4   4   4   4   4   2   4
#     4  10  21  37  61  86 114 151 203 240 281 349
#     4   9  18  34  57  84 108 150 197 233 277 348
#     4  10  21  36  57  87 117 145 190 244 290 340
#     4  11  22  35  59  87 116 149 191 242 299 338
#     4   9  19  36  59  82 111 149 193 235 283 347
#     4   9  21  37  58  85 111 152 194 235 286 348
#     4  10  16  36  64  82 106 156 206 236 270 346
#     4   9  18  34  57  83 108 148 194 230 276 351
#
# _framework density 17.615883
#
# number of rings (size 3 to 8) (size 9 to 14) (size 15 to 20)
#    0.000    2.400    2.667    0.800    5.600    0.000 
#    0.000    2.667    0.000    0.800    0.000    0.000 
#    0.000    0.000    0.000    0.000    0.000    0.000 
#
# Total GULP energy -167011.934269 kJ/mol
# GULP energy per Si atom -5567.064476 kJ/mol
# Density = 1.757579 g / cm^3
# Si number density = 17.615883 Si / 1000 Ang^3
#
#
#
# Elastic Constant Matrix: (Units=GPa)
#
#
# Indices 1 2 3 4 5 6 
#
# 1 112.9384 65.8363 29.6889 0.0000 0.0000 0.0000
# 2 65.8363 141.7435 53.6432 0.0000 0.0000 0.0000
# 3 29.6889 53.6432 50.8356 0.0000 0.0000 0.0000
# 4 0.0000 0.0000 0.0000 34.5175 0.0000 0.0000
# 5 0.0000 0.0000 0.0000 0.0000 15.9608 0.0000
# 6 0.0000 0.0000 0.0000 0.0000 0.0000 33.0811
#
#
#
# Elastic Compliance Matrix: (Units=1/GPa)
#
#
# Indices 1 2 3 4 5 6 
#
# 1 0.012253 -0.004966 -0.001915 0.000000 0.000000 0.000000
# 2 -0.004966 0.013759 -0.011618 0.000000 0.000000 0.000000
# 3 -0.001915 -0.011618 0.033050 0.000000 0.000000 0.000000
# 4 0.000000 0.000000 0.000000 0.028971 0.000000 0.000000
# 5 0.000000 0.000000 0.000000 0.000000 0.062654 0.000000
# 6 0.000000 0.000000 0.000000 0.000000 0.000000 0.030229
#
#
# Mechanical properties :
#
#
# Convention : Reuss Voigt Hill
#
# Bulk Modulus (GPa) = 45.32744 67.09492 56.21118
# Shear Modulus (GPa) = 22.19580 27.13514 24.66547
#
# Velocity S-wave (km/s) = 3.55348 3.92902 3.74596
# Velocity P-wave (km/s) = 6.52864 7.66508 7.11957
#
# Compressibility (1/GPa) = 0.02206169
#
# Stress axis : x y z
#
# Youngs Moduli (GPa) = 81.61299 72.68165 30.25756
#
# Poissons Ratio (x) = 0.36096 0.05795
# Poissons Ratio (y) = 0.40532 0.35154
# Poissons Ratio (z) = 0.15632 0.84442
#
# Static dielectric constant tensor:
#      x y z
#    x 1.626910 0.000000 0.000000 
#    y 0.000000 1.658170 0.000000 
#    z 0.000000 0.000000 1.571200 
# 
# From -- ./inp_files/3313.got.cif
#   From: 2010.05.17/outbox.cif.g08.bks.cpg/sg34_2_cif.got.tgz:3313.got - 2010.06.03 17:23:11.
