data_PCOD9347919
_publ_section_title
;
Structure prediction by ZEFSAII (Michael W. Deem and Ramdas Pophale) SiO2 
 PCOD9347919
Probable space group: P N N 2
;
_chemical_formula_sum "Si O2"
_cell_formula_units_Z 20
_cell_length_a 9.958611
_cell_length_b 8.846018
_cell_length_c 10.869012
_cell_angle_alpha 90.000000
_cell_angle_beta 90.000000
_cell_angle_gamma 90.000000
_cell_volume 957.495310
_symmetry_space_group_name_H-M "P N N 2"
_symmetry_group_IT_number 34
_symmetry_cell_setting 'orthorhombic'
loop_
_space_group_symop_operation_xyz
x,y,z
-x,-y,z
1/2-x,1/2+y,1/2+z
1/2+x,1/2-y,1/2+z
loop_
_atom_site_type_symbol
_atom_site_label
_atom_site_fract_x
_atom_site_fract_y
_atom_site_fract_z
Si Si1 0.952726 0.835794 0.823110
Si Si2 0.749673 0.126920 0.442676
Si Si3 0.272022 0.186995 0.338748
Si Si4 0.733308 0.858132 0.613918
Si Si5 0.481890 0.322336 0.768370
O O1 0.861572 0.754092 0.925678
O O2 0.858248 0.842781 0.704155
O O3 0.088947 0.749065 0.791789
O O4 0.000000 0.000000 0.863990
O O5 0.899284 0.175164 0.399623
O O6 0.718309 0.995802 0.341057
O O7 0.733375 0.032601 0.567695
O O8 0.257182 0.227105 0.483526
O O9 0.133344 0.235415 0.279045
O O10 0.606213 0.785816 0.682437
O O11 0.500000 0.500000 0.731674
#
# Coordination Sequence:
#
# PCOD9347919 Si02
#       5
#     4   4   4   4   4
#     4  11  22  39  65  99 132 170 234 268 325 415
#     4   8  19  40  64  90 136 174 211 277 336 389
#     4   9  20  39  63  93 136 169 219 283 323 401
#     4   9  21  38  66  95 134 184 208 276 356 378
#     4   9  17  37  66  97 134 168 229 268 328 411
#
# _framework density 20.887830000000001
#
# number of rings (size 3 to 8) (size 9 to 14) (size 15 to 20)
#    1.200    1.600    0.000    0.600    2.800    0.800 
#    7.200    3.000    4.400    2.400    0.000    0.000 
#    0.000    0.000    0.000    0.000    0.000    0.000 
#
# Total GULP energy -111377.256824 kJ/mol
# GULP energy per Si atom -5568.862841 kJ/mol
# Density = 2.084029 g / cm^3
# Si number density = 20.887830 Si / 1000 Ang^3
#
#
#
# Elastic Constant Matrix: (Units=GPa)
#
#
# Indices 1 2 3 4 5 6 
#
# 1 153.6434 48.2875 49.4041 0.0000 0.0000 0.0000
# 2 48.2875 40.6432 32.0529 0.0000 0.0000 0.0000
# 3 49.4041 32.0529 86.9048 0.0000 0.0000 0.0000
# 4 0.0000 0.0000 0.0000 34.2139 0.0000 0.0000
# 5 0.0000 0.0000 0.0000 0.0000 12.9661 0.0000
# 6 0.0000 0.0000 0.0000 0.0000 0.0000 21.9757
#
#
#
# Elastic Compliance Matrix: (Units=1/GPa)
#
#
# Indices 1 2 3 4 5 6 
#
# 1 0.010616 -0.011075 -0.001951 0.000000 0.000000 0.000000
# 2 -0.011075 0.046250 -0.010762 0.000000 0.000000 0.000000
# 3 -0.001951 -0.010762 0.016585 0.000000 0.000000 0.000000
# 4 0.000000 0.000000 0.000000 0.029228 0.000000 0.000000
# 5 0.000000 0.000000 0.000000 0.000000 0.077124 0.000000
# 6 0.000000 0.000000 0.000000 0.000000 0.000000 0.045505
#
#
# Mechanical properties :
#
#
# Convention : Reuss Voigt Hill
#
# Bulk Modulus (GPa) = 38.64601 60.07560 49.36081
# Shear Modulus (GPa) = 17.76141 23.92760 20.84451
#
# Velocity S-wave (km/s) = 2.91919 3.38824 3.16242
# Velocity P-wave (km/s) = 5.46847 6.64307 6.08418
#
# Compressibility (1/GPa) = 0.02587589
#
# Stress axis : x y z
#
# Youngs Moduli (GPa) = 94.19359 21.62174 60.29503
#
# Poissons Ratio (x) = 0.23946 0.11761
# Poissons Ratio (y) = 1.04318 0.64891
# Poissons Ratio (z) = 0.18373 0.23270
#
# Static dielectric constant tensor:
#      x y z
#    x 1.734010 0.000000 0.000000 
#    y 0.000000 1.801370 0.000000 
#    z 0.000000 0.000000 1.784130 
# 
# From -- ./inp_files/6323.got.cif
#   From: 2010.05.17/outbox.cif.g08.bks.cpg/sg34_4_cif.got.tgz:6323.got - 2010.06.03 17:23:11.
