data_PCOD9347218
_publ_section_title
;
Structure prediction by ZEFSAII (Michael W. Deem and Ramdas Pophale) SiO2 
 PCOD9347218
Probable space group: P N N 2
;
_chemical_formula_sum "Si O2"
_cell_formula_units_Z 24
_cell_length_a 20.909441
_cell_length_b 4.904495
_cell_length_c 11.756325
_cell_angle_alpha 90.000000
_cell_angle_beta 90.000000
_cell_angle_gamma 90.000000
_cell_volume 1205.614054
_symmetry_space_group_name_H-M "P N N 2"
_symmetry_group_IT_number 34
_symmetry_cell_setting 'orthorhombic'
loop_
_space_group_symop_operation_xyz
x,y,z
-x,-y,z
1/2-x,1/2+y,1/2+z
1/2+x,1/2-y,1/2+z
loop_
_atom_site_type_symbol
_atom_site_label
_atom_site_fract_x
_atom_site_fract_y
_atom_site_fract_z
Si Si1 0.149204 0.497750 0.174230
Si Si2 0.821778 0.486297 0.721114
Si Si3 0.649200 0.497684 0.357106
Si Si4 0.321770 0.486331 0.810232
Si Si5 0.457812 0.249999 0.515665
Si Si6 0.738984 0.249945 0.015667
O O1 0.144056 0.193458 0.222141
O O2 0.088495 0.599698 0.104761
O O3 0.211906 0.566530 0.094325
O O4 0.154729 0.684933 0.286153
O O5 0.845260 0.184870 0.745187
O O6 0.750008 0.500046 0.765691
O O7 0.809356 0.577169 0.593469
O O8 0.855973 0.693406 0.809186
O O9 0.588496 0.599696 0.426574
O O10 0.711906 0.566422 0.437009
O O11 0.309360 0.577281 0.937870
O O12 0.500000 0.500000 0.563888
O O13 0.500000 0.000000 0.467443
#
# Coordination Sequence:
#
# PCOD9347218 Si02
#       6
#     4   4   4   4   4   4
#     4  10  21  33  49  78 107 131 174 216 248 312
#     4  10  19  31  48  75 109 141 165 200 252 315
#     4  10  21  33  49  78 107 131 174 216 248 312
#     4  10  19  31  48  75 109 141 165 200 252 315
#     4  11  22  38  58  76  98 136 178 227 276 298
#     4   9  18  30  50  74 108 140 158 191 256 320
#
# _framework density 19.906867999999999
#
# number of rings (size 3 to 8) (size 9 to 14) (size 15 to 20)
#    0.000    2.000    0.000    6.000    0.000   17.333 
#    0.000    0.000    0.000    0.000    0.000   23.333 
#    0.000    0.000    0.000    0.000    0.000    0.000 
#
# Total GULP energy -133773.654457 kJ/mol
# GULP energy per Si atom -5573.902269 kJ/mol
# Density = 1.986156 g / cm^3
# Si number density = 19.906868 Si / 1000 Ang^3
#
#
#
# Elastic Constant Matrix: (Units=GPa)
#
#
# Indices 1 2 3 4 5 6 
#
# 1 62.6897 7.4610 10.8714 0.0000 0.0000 0.0000
# 2 7.4610 52.7206 -4.3651 0.0000 0.0000 0.0000
# 3 10.8714 -4.3651 80.7039 0.0000 0.0000 0.0000
# 4 0.0000 0.0000 0.0000 29.5354 0.0000 0.0000
# 5 0.0000 0.0000 0.0000 0.0000 12.5503 0.0000
# 6 0.0000 0.0000 0.0000 0.0000 0.0000 27.5531
#
#
#
# Elastic Compliance Matrix: (Units=1/GPa)
#
#
# Indices 1 2 3 4 5 6 
#
# 1 0.016669 -0.002556 -0.002384 0.000000 0.000000 0.000000
# 2 -0.002556 0.019445 0.001396 0.000000 0.000000 0.000000
# 3 -0.002384 0.001396 0.012788 0.000000 0.000000 0.000000
# 4 0.000000 0.000000 0.000000 0.033858 0.000000 0.000000
# 5 0.000000 0.000000 0.000000 0.000000 0.079680 0.000000
# 6 0.000000 0.000000 0.000000 0.000000 0.000000 0.036294
#
#
# Mechanical properties :
#
#
# Convention : Reuss Voigt Hill
#
# Bulk Modulus (GPa) = 23.91539 24.89433 24.40486
# Shear Modulus (GPa) = 22.75221 26.07089 24.41155
#
# Velocity S-wave (km/s) = 3.38440 3.62282 3.50564
# Velocity P-wave (km/s) = 5.22608 5.48018 5.35464
#
# Compressibility (1/GPa) = 0.04181408
#
# Stress axis : x y z
#
# Youngs Moduli (GPa) = 59.99090 51.42632 78.20084
#
# Poissons Ratio (x) = 0.13146 0.18641
# Poissons Ratio (y) = 0.15336 -0.10918
# Poissons Ratio (z) = 0.14300 -0.07180
#
# Static dielectric constant tensor:
#      x y z
#    x 1.708350 0.000000 0.000000 
#    y 0.000000 1.760200 0.000000 
#    z 0.000000 0.000000 1.840400 
# 
# From -- ./inp_files/5734.got.cif
#   From: 2010.05.17/outbox.cif.g08.bks.cpg/sg34_3_cif.got.tgz:5734.got - 2010.06.03 17:23:11.
