data_PCOD9347586
_publ_section_title
;
Structure prediction by ZEFSAII (Michael W. Deem and Ramdas Pophale) SiO2 
 PCOD9347586
Probable space group: P N N 2
;
_chemical_formula_sum "Si O2"
_cell_formula_units_Z 24
_cell_length_a 11.997517
_cell_length_b 17.457654
_cell_length_c 5.100145
_cell_angle_alpha 90.000000
_cell_angle_beta 90.000000
_cell_angle_gamma 90.000000
_cell_volume 1068.217723
_symmetry_space_group_name_H-M "P N N 2"
_symmetry_group_IT_number 34
_symmetry_cell_setting 'orthorhombic'
loop_
_space_group_symop_operation_xyz
x,y,z
-x,-y,z
1/2-x,1/2+y,1/2+z
1/2+x,1/2-y,1/2+z
loop_
_atom_site_type_symbol
_atom_site_label
_atom_site_fract_x
_atom_site_fract_y
_atom_site_fract_z
Si Si1 0.326568 0.895154 0.863900
Si Si2 0.682859 0.904769 0.459988
Si Si3 0.000000 0.000000 0.650327
Si Si4 0.323661 0.275001 0.484774
Si Si5 0.699833 0.459984 0.478229
Si Si6 0.849581 0.131792 0.489697
Si Si7 0.000000 0.500000 0.636152
O O1 0.304154 0.808331 0.957013
O O2 0.279436 0.892890 0.564344
O O3 0.232928 0.950265 0.000269
O O4 0.438561 0.936852 0.950991
O O5 0.661384 0.814671 0.466365
O O6 0.714070 0.930232 0.753909
O O7 0.585066 0.954188 0.324616
O O8 0.783523 0.919417 0.253939
O O9 0.074867 0.942931 0.481756
O O10 0.918535 0.953660 0.842773
O O11 0.362289 0.310385 0.755020
O O12 0.381713 0.318839 0.246193
#
# Coordination Sequence:
#
# PCOD9347586 Si02
#       7
#     4   4   2   4   4   4   2
#     4   8  21  39  65  92 131 171 224 271 336 391
#     4  11  24  43  66  99 137 176 228 277 337 412
#     4  10  22  40  72  98 132 174 236 272 348 404
#     4  10  21  42  64  91 137 172 214 286 336 388
#     4  10  23  40  67  95 131 174 223 280 329 405
#     4   9  21  38  67  93 131 174 218 282 336 400
#     4  10  22  42  70 100 134 190 230 278 340 424
#
# _framework density 22.467328999999999
#
# number of rings (size 3 to 8) (size 9 to 14) (size 15 to 20)
#    1.000    1.333    0.000    1.000    9.333    5.333 
#    3.000    0.000   11.000    0.000    0.000    0.000 
#    0.000    0.000    0.000    0.000    0.000    0.000 
#
# Total GULP energy -133869.628226 kJ/mol
# GULP energy per Si atom -5577.901176 kJ/mol
# Density = 2.241619 g / cm^3
# Si number density = 22.467329 Si / 1000 Ang^3
#
#
#
# Elastic Constant Matrix: (Units=GPa)
#
#
# Indices 1 2 3 4 5 6 
#
# 1 76.4746 29.5424 13.9176 0.0000 0.0000 0.0000
# 2 29.5424 150.5964 49.4339 0.0000 0.0000 0.0000
# 3 13.9176 49.4339 132.1205 0.0000 0.0000 0.0000
# 4 0.0000 0.0000 0.0000 21.9221 0.0000 0.0000
# 5 0.0000 0.0000 0.0000 0.0000 18.4012 0.0000
# 6 0.0000 0.0000 0.0000 0.0000 0.0000 18.4233
#
#
#
# Elastic Compliance Matrix: (Units=1/GPa)
#
#
# Indices 1 2 3 4 5 6 
#
# 1 0.014179 -0.002612 -0.000516 0.000000 0.000000 0.000000
# 2 -0.002612 0.008051 -0.002737 0.000000 0.000000 0.000000
# 3 -0.000516 -0.002737 0.008647 0.000000 0.000000 0.000000
# 4 0.000000 0.000000 0.000000 0.045616 0.000000 0.000000
# 5 0.000000 0.000000 0.000000 0.000000 0.054344 0.000000
# 6 0.000000 0.000000 0.000000 0.000000 0.000000 0.054279
#
#
# Mechanical properties :
#
#
# Convention : Reuss Voigt Hill
#
# Bulk Modulus (GPa) = 52.22865 60.55323 56.39094
# Shear Modulus (GPa) = 24.60258 29.50249 27.05253
#
# Velocity S-wave (km/s) = 3.31273 3.62764 3.47375
# Velocity P-wave (km/s) = 6.15867 6.67507 6.42206
#
# Compressibility (1/GPa) = 0.01914658
#
# Stress axis : x y z
#
# Youngs Moduli (GPa) = 70.52560 124.20528 115.64159
#
# Poissons Ratio (x) = 0.32443 0.05971
# Poissons Ratio (y) = 0.18422 0.31654
# Poissons Ratio (z) = 0.03641 0.33998
#
# Static dielectric constant tensor:
#      x y z
#    x 1.920940 0.000000 0.000000 
#    y 0.000000 1.844050 0.000000 
#    z 0.000000 0.000000 1.881550 
# 
# From -- ./inp_files/949.got.cif
#   From: 2010.05.17/outbox.cif.g08.bks.cpg/sg34_1_cif.got.tgz:949.got - 2010.06.03 17:23:11.
