data_PCOD9347532
_publ_section_title
;
Structure prediction by ZEFSAII (Michael W. Deem and Ramdas Pophale) SiO2 
 PCOD9347532
Probable space group: P N N 2
;
_chemical_formula_sum "Si O2"
_cell_formula_units_Z 30
_cell_length_a 16.961934
_cell_length_b 12.474629
_cell_length_c 6.537538
_cell_angle_alpha 90.000000
_cell_angle_beta 90.000000
_cell_angle_gamma 90.000000
_cell_volume 1383.302729
_symmetry_space_group_name_H-M "P N N 2"
_symmetry_group_IT_number 34
_symmetry_cell_setting 'orthorhombic'
loop_
_space_group_symop_operation_xyz
x,y,z
-x,-y,z
1/2-x,1/2+y,1/2+z
1/2+x,1/2-y,1/2+z
loop_
_atom_site_type_symbol
_atom_site_label
_atom_site_fract_x
_atom_site_fract_y
_atom_site_fract_z
Si Si1 0.952650 0.282221 0.841510
Si Si2 0.144072 0.419562 0.358700
Si Si3 0.731273 0.356148 0.785472
Si Si4 0.335477 0.284648 0.021452
Si Si5 0.721048 0.093421 0.266737
Si Si6 0.611804 0.253563 0.539245
Si Si7 0.682558 0.869520 0.645365
Si Si8 0.000000 0.500000 0.624179
O O1 0.915862 0.217525 0.649231
O O2 0.984313 0.395797 0.758899
O O3 0.885364 0.316328 0.004480
O O4 0.026613 0.224711 0.945718
O O5 0.209325 0.387424 0.525561
O O6 0.105800 0.320523 0.240969
O O7 0.174152 0.504897 0.192596
O O8 0.074922 0.476432 0.484769
O O9 0.772985 0.250388 0.694142
O O10 0.784505 0.463546 0.767325
O O11 0.656810 0.357313 0.633180
O O12 0.734018 0.347944 0.031662
O O13 0.303395 0.382044 0.884370
O O14 0.328307 0.187371 0.861681
O O15 0.660781 0.176319 0.380202
#
# Coordination Sequence:
#
# PCOD9347532 Si02
#       8
#     4   4   4   4   4   4   4   2
#     4  11  22  36  54  90 126 163 208 256 328 397
#     4  12  20  33  57  90 125 164 201 259 337 393
#     4  10  21  39  57  87 121 159 209 265 316 385
#     4  10  22  37  58  87 123 164 202 263 322 385
#     4  11  21  39  60  87 125 159 213 266 321 387
#     4  11  23  36  59  89 125 163 210 266 323 395
#     4  11  19  36  57  84 123 158 201 255 326 382
#     4  12  20  34  54  90 128 156 192 264 324 392
#
# _framework density 21.687227
#
# number of rings (size 3 to 8) (size 9 to 14) (size 15 to 20)
#    0.000    1.067    5.333    3.200    0.000    0.000 
#    0.000    0.000    0.000    0.800    3.467    0.000 
#    0.000    0.000    0.000    0.000    0.000    0.000 
#
# Total GULP energy -167128.019910 kJ/mol
# GULP energy per Si atom -5570.933997 kJ/mol
# Density = 2.163787 g / cm^3
# Si number density = 21.687227 Si / 1000 Ang^3
#
#
#
# Elastic Constant Matrix: (Units=GPa)
#
#
# Indices 1 2 3 4 5 6 
#
# 1 92.8144 16.4016 54.5559 0.0000 0.0000 0.0000
# 2 16.4016 39.3253 16.8855 0.0000 0.0000 0.0000
# 3 54.5559 16.8855 135.0989 0.0000 0.0000 0.0000
# 4 0.0000 0.0000 0.0000 34.4427 0.0000 0.0000
# 5 0.0000 0.0000 0.0000 0.0000 30.5380 0.0000
# 6 0.0000 0.0000 0.0000 0.0000 0.0000 23.3608
#
#
#
# Elastic Compliance Matrix: (Units=1/GPa)
#
#
# Indices 1 2 3 4 5 6 
#
# 1 0.014638 -0.003769 -0.005440 0.000000 0.000000 0.000000
# 2 -0.003769 0.027842 -0.001958 0.000000 0.000000 0.000000
# 3 -0.005440 -0.001958 0.009843 0.000000 0.000000 0.000000
# 4 0.000000 0.000000 0.000000 0.029034 0.000000 0.000000
# 5 0.000000 0.000000 0.000000 0.000000 0.032746 0.000000
# 6 0.000000 0.000000 0.000000 0.000000 0.000000 0.042807
#
#
# Mechanical properties :
#
#
# Convention : Reuss Voigt Hill
#
# Bulk Modulus (GPa) = 33.34552 49.21385 41.27969
# Shear Modulus (GPa) = 26.42150 29.62800 28.02475
#
# Velocity S-wave (km/s) = 3.49420 3.70016 3.59865
# Velocity P-wave (km/s) = 5.62923 6.40287 6.02847
#
# Compressibility (1/GPa) = 0.02998903
#
# Stress axis : x y z
#
# Youngs Moduli (GPa) = 68.31595 35.91746 101.59031
#
# Poissons Ratio (x) = 0.13538 0.55265
# Poissons Ratio (y) = 0.25750 0.19888
# Poissons Ratio (z) = 0.37164 0.07032
#
# Static dielectric constant tensor:
#      x y z
#    x 1.914490 0.000000 0.000000 
#    y 0.000000 1.836620 0.000000 
#    z 0.000000 0.000000 1.853790 
# 
# From -- ./inp_files/1483.got.cif
#   From: 2010.05.17/outbox.cif.g08.bks.cpg/sg34_1_cif.got.tgz:1483.got - 2010.06.03 17:23:11.
