data_PCOD9347245
_publ_section_title
;
Structure prediction by ZEFSAII (Michael W. Deem and Ramdas Pophale) SiO2 
 PCOD9347245
Probable space group: P N N 2
;
_chemical_formula_sum "Si O2"
_cell_formula_units_Z 32
_cell_length_a 11.842116
_cell_length_b 22.470443
_cell_length_c 5.903768
_cell_angle_alpha 90.000000
_cell_angle_beta 90.000000
_cell_angle_gamma 90.000000
_cell_volume 1570.978452
_symmetry_space_group_name_H-M "P N N 2"
_symmetry_group_IT_number 34
_symmetry_cell_setting 'orthorhombic'
loop_
_space_group_symop_operation_xyz
x,y,z
-x,-y,z
1/2-x,1/2+y,1/2+z
1/2+x,1/2-y,1/2+z
loop_
_atom_site_type_symbol
_atom_site_label
_atom_site_fract_x
_atom_site_fract_y
_atom_site_fract_z
Si Si1 0.719912 0.184036 0.877900
Si Si2 0.217835 0.387886 0.768519
Si Si3 0.370534 0.708351 0.179978
Si Si4 0.103989 0.547256 0.450243
Si Si5 0.136750 0.509646 0.947130
Si Si6 0.638233 0.826865 0.798003
Si Si7 0.459099 0.808193 0.478873
Si Si8 0.898995 0.196247 0.506277
O O1 0.617765 0.185918 0.701891
O O2 0.834788 0.194878 0.745041
O O3 0.726321 0.119840 0.999442
O O4 0.694842 0.238839 0.046287
O O5 0.205245 0.449135 0.897706
O O6 0.322150 0.348301 0.858964
O O7 0.098318 0.355668 0.816398
O O8 0.273006 0.667408 0.280642
O O9 0.436468 0.743714 0.376874
O O10 0.469399 0.680594 0.028630
O O11 0.157120 0.542847 0.704146
O O12 0.080832 0.617251 0.418238
O O13 0.000000 0.500000 0.457877
O O14 0.162960 0.532867 0.203100
O O15 0.000000 0.500000 0.954198
O O16 0.584915 0.822972 0.547585
O O17 0.610480 0.763684 0.914137
#
# Coordination Sequence:
#
# PCOD9347245 Si02
#       8
#     4   4   4   4   4   4   4   4
#     4  10  19  35  59  88 127 169 206 259 329 403
#     4  10  22  38  63  94 126 172 215 276 333 402
#     4  11  22  36  56  90 127 171 210 259 329 399
#     4  10  24  40  63  96 129 175 219 273 340 389
#     4  10  22  40  64  95 127 165 221 272 331 391
#     4  12  22  40  60  96 135 171 217 281 332 405
#     4  10  20  34  58  89 127 167 210 253 337 387
#     4  11  23  37  60  96 128 174 213 266 343 403
#
# _framework density 20.369468000000001
#
# number of rings (size 3 to 8) (size 9 to 14) (size 15 to 20)
#    0.000    1.500    5.000    2.250    7.000    2.000 
#    0.000    0.000    0.000    0.750    0.000    0.000 
#    0.000    0.000    0.000    0.000    0.000    0.000 
#
# Total GULP energy -178260.003242 kJ/mol
# GULP energy per Si atom -5570.625101 kJ/mol
# Density = 2.032311 g / cm^3
# Si number density = 20.369468 Si / 1000 Ang^3
#
#
#
# Elastic Constant Matrix: (Units=GPa)
#
#
# Indices 1 2 3 4 5 6 
#
# 1 86.6125 12.5394 5.5346 0.0000 0.0000 0.0000
# 2 12.5394 55.9807 4.0426 0.0000 0.0000 0.0000
# 3 5.5346 4.0426 91.0411 0.0000 0.0000 0.0000
# 4 0.0000 0.0000 0.0000 19.5757 0.0000 0.0000
# 5 0.0000 0.0000 0.0000 0.0000 16.5218 0.0000
# 6 0.0000 0.0000 0.0000 0.0000 0.0000 18.3530
#
#
#
# Elastic Compliance Matrix: (Units=1/GPa)
#
#
# Indices 1 2 3 4 5 6 
#
# 1 0.011966 -0.002636 -0.000610 0.000000 0.000000 0.000000
# 2 -0.002636 0.018502 -0.000661 0.000000 0.000000 0.000000
# 3 -0.000610 -0.000661 0.011051 0.000000 0.000000 0.000000
# 4 0.000000 0.000000 0.000000 0.051084 0.000000 0.000000
# 5 0.000000 0.000000 0.000000 0.000000 0.060526 0.000000
# 6 0.000000 0.000000 0.000000 0.000000 0.000000 0.054487
#
#
# Mechanical properties :
#
#
# Convention : Reuss Voigt Hill
#
# Bulk Modulus (GPa) = 29.67143 30.87417 30.27280
# Shear Modulus (GPa) = 22.05891 24.99126 23.52508
#
# Velocity S-wave (km/s) = 3.29438 3.50651 3.40210
# Velocity P-wave (km/s) = 5.39155 5.61998 5.50695
#
# Compressibility (1/GPa) = 0.03370246
#
# Stress axis : x y z
#
# Youngs Moduli (GPa) = 83.56755 54.04940 90.49349
#
# Poissons Ratio (x) = 0.14249 0.05524
# Poissons Ratio (y) = 0.22031 0.05984
# Poissons Ratio (z) = 0.05101 0.03574
#
# Static dielectric constant tensor:
#      x y z
#    x 1.723990 0.000000 0.000000 
#    y 0.000000 1.761920 0.000000 
#    z 0.000000 0.000000 1.832100 
# 
# From -- ./inp_files/1085.got.cif
#   From: 2010.05.17/outbox.cif.g08.bks.cpg/sg34_1_cif.got.tgz:1085.got - 2010.06.03 17:23:11.
