data_PCOD9347632
_publ_section_title
;
Structure prediction by ZEFSAII (Michael W. Deem and Ramdas Pophale) SiO2 
 PCOD9347632
Probable space group: P N N 2
;
_chemical_formula_sum "Si O2"
_cell_formula_units_Z 30
_cell_length_a 18.751777
_cell_length_b 12.305334
_cell_length_c 5.630756
_cell_angle_alpha 90.000000
_cell_angle_beta 90.000000
_cell_angle_gamma 90.000000
_cell_volume 1299.279374
_symmetry_space_group_name_H-M "P N N 2"
_symmetry_group_IT_number 34
_symmetry_cell_setting 'orthorhombic'
loop_
_space_group_symop_operation_xyz
x,y,z
-x,-y,z
1/2-x,1/2+y,1/2+z
1/2+x,1/2-y,1/2+z
loop_
_atom_site_type_symbol
_atom_site_label
_atom_site_fract_x
_atom_site_fract_y
_atom_site_fract_z
Si Si1 0.000000 0.500000 0.490770
Si Si2 0.939256 0.682527 0.827057
Si Si3 0.072547 0.643762 0.136992
Si Si4 0.324324 0.988520 0.444510
Si Si5 0.820204 0.916063 0.264624
Si Si6 0.147669 0.109004 0.760048
Si Si7 0.288461 0.261509 0.769361
Si Si8 0.266747 0.828855 0.769672
O O1 0.975920 0.604411 0.636834
O O2 0.940049 0.453655 0.319335
O O3 0.864303 0.620181 0.863731
O O4 0.914605 0.801342 0.757766
O O5 0.995900 0.683419 0.043941
O O6 0.129984 0.725162 0.242435
O O7 0.116962 0.582852 0.931782
O O8 0.258655 0.034846 0.296657
O O9 0.300608 0.945965 0.707047
O O10 0.857744 0.951010 0.509281
O O11 0.815687 0.782044 0.268769
O O12 0.854700 0.948101 0.015389
O O13 0.227174 0.166470 0.760756
O O14 0.270333 0.325762 0.525667
O O15 0.279948 0.312183 0.030332
#
# Coordination Sequence:
#
# PCOD9347632 Si02
#       8
#     2   4   4   4   4   4   4   4
#     4  12  26  32  60  90 132 174 208 244 346 412
#     4  12  25  38  56  94 133 173 201 262 335 409
#     4  12  25  38  56  94 133 173 201 262 335 409
#     4  12  21  40  62  90 135 158 212 268 334 393
#     4  10  22  38  60  88 120 166 209 266 308 381
#     4  10  22  40  58  83 126 161 218 254 304 382
#     4  10  22  40  58  83 126 161 218 254 304 382
#     4  10  22  38  60  88 120 166 209 266 308 381
#
# _framework density 23.089721000000001
#
# number of rings (size 3 to 8) (size 9 to 14) (size 15 to 20)
#    0.000    1.067    8.000    0.000   11.200    1.067 
#    0.000    0.000    0.000    0.000    0.000    5.600 
#    0.000    0.000    0.000    0.000    0.000    0.000 
#
# Total GULP energy -167320.725071 kJ/mol
# GULP energy per Si atom -5577.357502 kJ/mol
# Density = 2.303717 g / cm^3
# Si number density = 23.089721 Si / 1000 Ang^3
#
#
#
# Elastic Constant Matrix: (Units=GPa)
#
#
# Indices 1 2 3 4 5 6 
#
# 1 78.2602 15.1244 34.9297 0.0000 0.0000 0.0000
# 2 15.1244 32.6774 4.8526 0.0000 0.0000 0.0000
# 3 34.9297 4.8526 159.6100 0.0000 0.0000 0.0000
# 4 0.0000 0.0000 0.0000 39.7144 0.0000 0.0000
# 5 0.0000 0.0000 0.0000 0.0000 -16.7324 0.0000
# 6 0.0000 0.0000 0.0000 0.0000 0.0000 40.6152
#
#
#
# Elastic Compliance Matrix: (Units=1/GPa)
#
#
# Indices 1 2 3 4 5 6 
#
# 1 0.015495 -0.006698 -0.003187 0.000000 0.000000 0.000000
# 2 -0.006698 0.033637 0.000443 0.000000 0.000000 0.000000
# 3 -0.003187 0.000443 0.006949 0.000000 0.000000 0.000000
# 4 0.000000 0.000000 0.000000 0.025180 0.000000 0.000000
# 5 0.000000 0.000000 0.000000 0.000000 -0.059764 0.000000
# 6 0.000000 0.000000 0.000000 0.000000 0.000000 0.024621
#
#
# Mechanical properties :
#
#
# Convention : Reuss Voigt Hill
#
# Bulk Modulus (GPa) = 26.88459 42.26235 34.57347
# Shear Modulus (GPa) = 64.59827 27.09550 45.84688
#
# Velocity S-wave (km/s) = 5.29507 3.42934 4.46084
# Velocity P-wave (km/s) = 7.00375 5.83299 6.44501
#
# Compressibility (1/GPa) = 0.03719603
#
# Stress axis : x y z
#
# Youngs Moduli (GPa) = 64.53694 29.72945 143.89888
#
# Poissons Ratio (x) = 0.19914 0.45865
# Poissons Ratio (y) = 0.43229 -0.06378
# Poissons Ratio (z) = 0.20570 -0.01318
#
# Static dielectric constant tensor:
#      x y z
#    x 1.967470 0.000000 0.000000 
#    y 0.000000 1.590230 0.000000 
#    z 0.000000 0.000000 1.972970 
# 
# From -- ./inp_files/1491.got.cif
#   From: 2010.05.17/outbox.cif.g08.bks.cpg/sg34_1_cif.got.tgz:1491.got - 2010.06.03 17:23:11.
