data_PCOD9347166
_publ_section_title
;
Structure prediction by ZEFSAII (Michael W. Deem and Ramdas Pophale) SiO2 
 PCOD9347166
Probable space group: P N N 2
;
_chemical_formula_sum "Si O2"
_cell_formula_units_Z 32
_cell_length_a 11.663569
_cell_length_b 9.205524
_cell_length_c 15.942931
_cell_angle_alpha 90.000000
_cell_angle_beta 90.000000
_cell_angle_gamma 90.000000
_cell_volume 1711.780773
_symmetry_space_group_name_H-M "P N N 2"
_symmetry_group_IT_number 34
_symmetry_cell_setting 'orthorhombic'
loop_
_space_group_symop_operation_xyz
x,y,z
-x,-y,z
1/2-x,1/2+y,1/2+z
1/2+x,1/2-y,1/2+z
loop_
_atom_site_type_symbol
_atom_site_label
_atom_site_fract_x
_atom_site_fract_y
_atom_site_fract_z
Si Si1 0.773862 0.141181 0.879920
Si Si2 0.165735 0.139091 0.774428
Si Si3 0.864160 0.827270 0.252448
Si Si4 0.453796 0.646485 0.094836
Si Si5 0.723631 0.123505 0.061519
Si Si6 0.359592 0.144104 0.162950
Si Si7 0.373841 0.336260 0.716402
Si Si8 0.525799 0.842204 0.346454
O O1 0.676524 0.237388 0.833743
O O2 0.880308 0.249202 0.895444
O O3 0.813057 0.014661 0.817302
O O4 0.743340 0.068981 0.968223
O O5 0.098771 0.114251 0.687108
O O6 0.283932 0.223012 0.755249
O O7 0.085847 0.244831 0.829759
O O8 0.767898 0.795250 0.181426
O O9 0.994219 0.792962 0.227420
O O10 0.857866 0.003832 0.258563
O O11 0.500000 0.500000 0.054489
O O12 0.351410 0.731574 0.050598
O O13 0.561640 0.751210 0.108981
O O14 0.835723 0.148675 0.118830
O O15 0.651699 0.010641 0.117989
O O16 0.416654 0.130055 0.254642
O O17 0.500000 0.000000 0.383169
#
# Coordination Sequence:
#
# PCOD9347166 Si02
#       8
#     4   4   4   4   4   4   4   4
#     4  11  22  36  55  88 123 140 190 253 294 322
#     4  10  19  34  58  89 111 144 187 236 289 333
#     4   9  18  36  58  81 109 160 196 224 273 359
#     4  10  18  34  59  80 108 144 191 235 282 342
#     4  10  21  37  55  84 119 148 189 245 289 334
#     4   9  17  34  59  84 106 147 190 226 281 347
#     4   9  19  38  60  79 109 162 203 217 277 366
#     4  10  18  35  63  82 107 147 193 231 277 349
#
# _framework density 18.693982999999999
#
# number of rings (size 3 to 8) (size 9 to 14) (size 15 to 20)
#    0.000    2.250    0.000    6.750    0.000    0.500 
#   15.750    1.250    5.500    0.000    0.000    0.000 
#    0.000    0.000    0.000    0.000    0.000    0.000 
#
# Total GULP energy -178469.826190 kJ/mol
# GULP energy per Si atom -5577.182068 kJ/mol
# Density = 1.865143 g / cm^3
# Si number density = 18.693983 Si / 1000 Ang^3
#
#
#
# Elastic Constant Matrix: (Units=GPa)
#
#
# Indices 1 2 3 4 5 6 
#
# 1 125.0542 31.6499 6.4280 0.0000 0.0000 0.0000
# 2 31.6499 67.1185 6.9525 0.0000 0.0000 0.0000
# 3 6.4280 6.9525 32.1024 0.0000 0.0000 0.0000
# 4 0.0000 0.0000 0.0000 7.4808 0.0000 0.0000
# 5 0.0000 0.0000 0.0000 0.0000 0.9575 0.0000
# 6 0.0000 0.0000 0.0000 0.0000 0.0000 24.0355
#
#
#
# Elastic Compliance Matrix: (Units=1/GPa)
#
#
# Indices 1 2 3 4 5 6 
#
# 1 0.009106 -0.004199 -0.000914 0.000000 0.000000 0.000000
# 2 -0.004199 0.017178 -0.002879 0.000000 0.000000 0.000000
# 3 -0.000914 -0.002879 0.031957 0.000000 0.000000 0.000000
# 4 0.000000 0.000000 0.000000 0.133676 0.000000 0.000000
# 5 0.000000 0.000000 0.000000 0.000000 1.044345 0.000000
# 6 0.000000 0.000000 0.000000 0.000000 0.000000 0.041605
#
#
# Mechanical properties :
#
#
# Convention : Reuss Voigt Hill
#
# Bulk Modulus (GPa) = 23.66561 34.92622 29.29592
# Shear Modulus (GPa) = 3.82281 18.44441 11.13361
#
# Velocity S-wave (km/s) = 1.43157 3.14451 2.44308
# Velocity P-wave (km/s) = 3.92676 5.64868 4.86452
#
# Compressibility (1/GPa) = 0.04225540
#
# Stress axis : x y z
#
# Youngs Moduli (GPa) = 109.81348 58.21554 31.29219
#
# Poissons Ratio (x) = 0.24447 0.02860
# Poissons Ratio (y) = 0.46116 0.09010
# Poissons Ratio (z) = 0.10036 0.16762
#
# Static dielectric constant tensor:
#      x y z
#    x 1.673800 0.000000 0.000000 
#    y 0.000000 1.668120 0.000000 
#    z 0.000000 0.000000 1.622450 
# 
# From -- ./inp_files/7749.got.cif
#   From: 2010.05.17/outbox.cif.g08.bks.cpg/sg34_4_cif.got.tgz:7749.got - 2010.06.03 17:23:11.
