data_PCOD9347772
_publ_section_title
;
Structure prediction by ZEFSAII (Michael W. Deem and Ramdas Pophale) SiO2 
 PCOD9347772
Probable space group: P N N 2
;
_chemical_formula_sum "Si O2"
_cell_formula_units_Z 30
_cell_length_a 5.066551
_cell_length_b 20.301924
_cell_length_c 11.840831
_cell_angle_alpha 90.000000
_cell_angle_beta 90.000000
_cell_angle_gamma 90.000000
_cell_volume 1217.956560
_symmetry_space_group_name_H-M "P N N 2"
_symmetry_group_IT_number 34
_symmetry_cell_setting 'orthorhombic'
loop_
_space_group_symop_operation_xyz
x,y,z
-x,-y,z
1/2-x,1/2+y,1/2+z
1/2+x,1/2-y,1/2+z
loop_
_atom_site_type_symbol
_atom_site_label
_atom_site_fract_x
_atom_site_fract_y
_atom_site_fract_z
Si Si1 0.570265 0.715767 0.111920
Si Si2 0.247442 0.954279 0.243372
Si Si3 0.048280 0.704157 0.229279
Si Si4 0.688448 0.323408 0.451186
Si Si5 0.500000 0.500000 0.330149
Si Si6 0.995249 0.081187 0.476890
Si Si7 0.180170 0.406050 0.490743
Si Si8 0.150263 0.567497 0.154429
O O1 0.259163 0.724332 0.132827
O O2 0.749221 0.726373 0.224116
O O3 0.704097 0.772802 0.041683
O O4 0.612172 0.643878 0.050838
O O5 0.133348 0.914937 0.352936
O O6 0.500000 0.000000 0.275215
O O7 0.311230 0.917995 0.126124
O O8 0.000000 0.000000 0.213122
O O9 0.007545 0.626313 0.214466
O O10 0.220906 0.713029 0.338567
O O11 0.881057 0.386771 0.462817
O O12 0.390675 0.348032 0.463253
O O13 0.286820 0.466038 0.413131
O O14 0.395163 0.554443 0.239918
O O15 0.294386 0.088301 0.524488
O O16 0.000000 0.000000 0.500668
O O17 0.000000 0.500000 0.153511
#
# Coordination Sequence:
#
# PCOD9347772 Si02
#       8
#     4   4   4   4   2   4   4   4
#     4  11  26  44  68 100 138 186 235 293 348 423
#     4  11  25  46  69 100 143 186 234 290 345 426
#     4  11  24  44  67  99 140 176 234 296 350 418
#     4  12  26  46  71 102 139 189 241 288 359 426
#     4  12  24  40  72 110 140 180 230 302 370 424
#     4  10  23  42  66 101 136 182 231 286 351 408
#     4  12  26  45  73 106 141 186 236 293 361 421
#     4  11  22  39  69 106 143 179 229 295 371 425
#
# _framework density 24.631419000000001
#
# number of rings (size 3 to 8) (size 9 to 14) (size 15 to 20)
#    0.000    0.800    2.667    4.000    3.733    8.533 
#    0.000    1.333    0.000    0.000    0.000    0.000 
#    0.000    0.000    0.000    0.000    0.000    0.000 
#
# Total GULP energy -167045.616573 kJ/mol
# GULP energy per Si atom -5568.187219 kJ/mol
# Density = 2.457536 g / cm^3
# Si number density = 24.631419 Si / 1000 Ang^3
#
#
#
# Elastic Constant Matrix: (Units=GPa)
#
#
# Indices 1 2 3 4 5 6 
#
# 1 86.6313 5.7260 16.6139 0.0000 0.0000 0.0000
# 2 5.7260 35.0346 -4.3223 0.0000 0.0000 0.0000
# 3 16.6139 -4.3223 126.7982 0.0000 0.0000 0.0000
# 4 0.0000 0.0000 0.0000 15.6391 0.0000 0.0000
# 5 0.0000 0.0000 0.0000 0.0000 32.6068 0.0000
# 6 0.0000 0.0000 0.0000 0.0000 0.0000 24.4388
#
#
#
# Elastic Compliance Matrix: (Units=1/GPa)
#
#
# Indices 1 2 3 4 5 6 
#
# 1 0.012002 -0.002165 -0.001646 0.000000 0.000000 0.000000
# 2 -0.002165 0.029054 0.001274 0.000000 0.000000 0.000000
# 3 -0.001646 0.001274 0.008146 0.000000 0.000000 0.000000
# 4 0.000000 0.000000 0.000000 0.063942 0.000000 0.000000
# 5 0.000000 0.000000 0.000000 0.000000 0.030668 0.000000
# 6 0.000000 0.000000 0.000000 0.000000 0.000000 0.040919
#
#
# Mechanical properties :
#
#
# Convention : Reuss Voigt Hill
#
# Bulk Modulus (GPa) = 22.66142 31.61100 27.13621
# Shear Modulus (GPa) = 24.44815 29.90005 27.17410
#
# Velocity S-wave (km/s) = 3.15391 3.48788 3.32509
# Velocity P-wave (km/s) = 4.74163 5.39277 5.07765
#
# Compressibility (1/GPa) = 0.04412786
#
# Stress axis : x y z
#
# Youngs Moduli (GPa) = 83.31953 34.41842 122.76425
#
# Poissons Ratio (x) = 0.07451 0.20211
# Poissons Ratio (y) = 0.18036 -0.15641
# Poissons Ratio (z) = 0.13717 -0.04385
#
# Static dielectric constant tensor:
#      x y z
#    x 1.942060 0.000000 0.000000 
#    y 0.000000 2.019660 0.000000 
#    z 0.000000 0.000000 2.114110 
# 
# From -- ./inp_files/4522.got.cif
#   From: 2010.05.17/outbox.cif.g08.bks.cpg/sg34_3_cif.got.tgz:4522.got - 2010.06.03 17:23:11.
