data_PCOD9347977
_publ_section_title
;
Structure prediction by ZEFSAII (Michael W. Deem and Ramdas Pophale) SiO2 
 PCOD9347977
Probable space group: P N N 2
;
_chemical_formula_sum "Si O2"
_cell_formula_units_Z 18
_cell_length_a 8.943994
_cell_length_b 7.265131
_cell_length_c 12.068198
_cell_angle_alpha 90.000000
_cell_angle_beta 90.000000
_cell_angle_gamma 90.000000
_cell_volume 784.182914
_symmetry_space_group_name_H-M "P N N 2"
_symmetry_group_IT_number 34
_symmetry_cell_setting 'orthorhombic'
loop_
_space_group_symop_operation_xyz
x,y,z
-x,-y,z
1/2-x,1/2+y,1/2+z
1/2+x,1/2-y,1/2+z
loop_
_atom_site_type_symbol
_atom_site_label
_atom_site_fract_x
_atom_site_fract_y
_atom_site_fract_z
Si Si1 0.915283 0.689756 0.766460
Si Si2 0.116023 0.229042 0.421949
Si Si3 0.333604 0.556139 0.681498
Si Si4 0.224429 0.633064 0.454358
Si Si5 0.000000 0.000000 0.606150
O O1 0.772069 0.620359 0.697096
O O2 0.849203 0.789429 0.872957
O O3 0.000000 0.500000 0.792560
O O4 0.010686 0.827936 0.690670
O O5 0.155697 0.150549 0.301841
O O6 0.210350 0.412276 0.442900
O O7 0.125057 0.075506 0.518749
O O8 0.940560 0.289585 0.425294
O O9 0.500000 0.500000 0.649722
O O10 0.267406 0.672517 0.580739
#
# Coordination Sequence:
#
# PCOD9347977 Si02
#       5
#     4   4   4   4   2
#     4  12  28  49  79 118 162 211 271 339 413 493
#     4  11  24  49  80 110 159 214 266 338 415 475
#     4  12  25  48  77 113 160 213 271 332 405 490
#     4  11  26  48  75 119 158 210 273 335 406 498
#     4  12  24  48  80 106 160 214 254 332 404 484
#
# _framework density 22.953828000000001
#
# number of rings (size 3 to 8) (size 9 to 14) (size 15 to 20)
#    0.000    0.444    5.556    1.333    7.778    0.000 
#    8.000    0.000    0.000    0.000    0.000    0.000 
#    0.000    0.000    0.000    0.000    0.000    0.000 
#
# Total GULP energy -100666.663111 kJ/mol
# GULP energy per Si atom -5592.592395 kJ/mol
# Density = 2.290158 g / cm^3
# Si number density = 22.953828 Si / 1000 Ang^3
#
#
#
# Elastic Constant Matrix: (Units=GPa)
#
#
# Indices 1 2 3 4 5 6 
#
# 1 110.8895 62.8446 62.1726 0.0000 0.0000 0.0000
# 2 62.8446 168.6653 92.3722 0.0000 0.0000 0.0000
# 3 62.1726 92.3722 226.0496 0.0000 0.0000 0.0000
# 4 0.0000 0.0000 0.0000 43.9262 0.0000 0.0000
# 5 0.0000 0.0000 0.0000 0.0000 22.8111 0.0000
# 6 0.0000 0.0000 0.0000 0.0000 0.0000 33.0760
#
#
#
# Elastic Compliance Matrix: (Units=1/GPa)
#
#
# Indices 1 2 3 4 5 6 
#
# 1 0.012036 -0.003442 -0.001904 0.000000 0.000000 0.000000
# 2 -0.003442 0.008623 -0.002577 0.000000 0.000000 0.000000
# 3 -0.001904 -0.002577 0.006000 0.000000 0.000000 0.000000
# 4 0.000000 0.000000 0.000000 0.022765 0.000000 0.000000
# 5 0.000000 0.000000 0.000000 0.000000 0.043838 0.000000
# 6 0.000000 0.000000 0.000000 0.000000 0.000000 0.030233
#
#
# Mechanical properties :
#
#
# Convention : Reuss Voigt Hill
#
# Bulk Modulus (GPa) = 92.47451 104.48700 98.48076
# Shear Modulus (GPa) = 34.97816 39.17699 37.07757
#
# Velocity S-wave (km/s) = 3.90789 4.13579 4.02345
# Velocity P-wave (km/s) = 7.79338 8.27198 8.03624
#
# Compressibility (1/GPa) = 0.01081379
#
# Stress axis : x y z
#
# Youngs Moduli (GPa) = 83.08331 115.97397 166.65410
#
# Poissons Ratio (x) = 0.39918 0.31729
# Poissons Ratio (y) = 0.28597 0.42944
# Poissons Ratio (z) = 0.15818 0.29885
#
# Static dielectric constant tensor:
#      x y z
#    x 1.862050 0.000000 0.000000 
#    y 0.000000 1.901280 0.000000 
#    z 0.000000 0.000000 1.846390 
# 
# From -- ./inp_files/4721.got.cif
#   From: 2010.05.17/outbox.cif.g08.bks.cpg/sg34_3_cif.got.tgz:4721.got - 2010.06.03 17:23:11.
