data_PCOD9347957
_publ_section_title
;
Structure prediction by ZEFSAII (Michael W. Deem and Ramdas Pophale) SiO2 
 PCOD9347957
Probable space group: P N N 2
;
_chemical_formula_sum "Si O2"
_cell_formula_units_Z 18
_cell_length_a 5.481043
_cell_length_b 5.431714
_cell_length_c 24.453711
_cell_angle_alpha 90.000000
_cell_angle_beta 90.000000
_cell_angle_gamma 90.000000
_cell_volume 728.022630
_symmetry_space_group_name_H-M "P N N 2"
_symmetry_group_IT_number 34
_symmetry_cell_setting 'orthorhombic'
loop_
_space_group_symop_operation_xyz
x,y,z
-x,-y,z
1/2-x,1/2+y,1/2+z
1/2+x,1/2-y,1/2+z
loop_
_atom_site_type_symbol
_atom_site_label
_atom_site_fract_x
_atom_site_fract_y
_atom_site_fract_z
Si Si1 0.656461 0.751058 0.084210
Si Si2 0.367802 0.248226 0.315099
Si Si3 0.758495 0.652611 0.964539
Si Si4 0.500000 0.000000 0.884666
Si Si5 0.642271 0.251660 0.705147
O O1 0.500000 0.500000 0.087007
O O2 0.798061 0.759170 0.141210
O O3 0.500000 0.000000 0.081791
O O4 0.800332 0.737120 0.027295
O O5 0.500000 0.500000 0.329840
O O6 0.109076 0.288746 0.345111
O O7 0.356455 0.247437 0.249190
O O8 0.500000 0.000000 0.331859
O O9 0.500000 0.500000 0.964042
O O10 0.699348 0.880082 0.925063
O O11 0.000000 0.500000 0.949436
O O12 0.500000 0.500000 0.718592
O O13 0.500000 0.000000 0.715873
#
# Coordination Sequence:
#
# PCOD9347957 Si02
#       5
#     4   4   4   2   4
#     4  11  23  47  76 115 158 209 266 337 415 497
#     4  12  29  50  80 114 160 216 272 341 418 497
#     4  11  28  51  81 119 164 219 281 344 419 499
#     4  12  30  52  78 116 168 212 298 334 432 496
#     4  12  24  45  75 116 160 206 264 339 416 497
#
# _framework density 24.724509000000001
#
# number of rings (size 3 to 8) (size 9 to 14) (size 15 to 20)
#    0.000    0.444    2.222    4.667    6.222    1.778 
#    0.000    0.000    0.000    0.000    0.000    0.000 
#    0.000    0.000    0.000    0.000    0.000    0.000 
#
# Total GULP energy -100842.020544 kJ/mol
# GULP energy per Si atom -5602.334475 kJ/mol
# Density = 2.466823 g / cm^3
# Si number density = 24.724509 Si / 1000 Ang^3
#
#
#
# Elastic Constant Matrix: (Units=GPa)
#
#
# Indices 1 2 3 4 5 6 
#
# 1 90.2933 65.3695 32.9228 0.0000 0.0000 0.0000
# 2 65.3695 212.0403 38.0619 0.0000 0.0000 0.0000
# 3 32.9228 38.0619 170.0791 0.0000 0.0000 0.0000
# 4 0.0000 0.0000 0.0000 25.6367 0.0000 0.0000
# 5 0.0000 0.0000 0.0000 0.0000 114.5863 0.0000
# 6 0.0000 0.0000 0.0000 0.0000 0.0000 63.9195
#
#
#
# Elastic Compliance Matrix: (Units=1/GPa)
#
#
# Indices 1 2 3 4 5 6 
#
# 1 0.014839 -0.004229 -0.001926 0.000000 0.000000 0.000000
# 2 -0.004229 0.006119 -0.000551 0.000000 0.000000 0.000000
# 3 -0.001926 -0.000551 0.006376 0.000000 0.000000 0.000000
# 4 0.000000 0.000000 0.000000 0.039007 0.000000 0.000000
# 5 0.000000 0.000000 0.000000 0.000000 0.008727 0.000000
# 6 0.000000 0.000000 0.000000 0.000000 0.000000 0.015645
#
#
# Mechanical properties :
#
#
# Convention : Reuss Voigt Hill
#
# Bulk Modulus (GPa) = 71.82897 82.79126 77.31011
# Shear Modulus (GPa) = 45.97130 63.23238 54.60184
#
# Velocity S-wave (km/s) = 4.31669 5.06264 4.70447
# Velocity P-wave (km/s) = 7.34574 8.22994 7.80038
#
# Compressibility (1/GPa) = 0.01392196
#
# Stress axis : x y z
#
# Youngs Moduli (GPa) = 67.39044 163.43437 156.84596
#
# Poissons Ratio (x) = 0.69115 0.30209
# Poissons Ratio (y) = 0.28499 0.08637
# Poissons Ratio (z) = 0.12980 0.09000
#
# Static dielectric constant tensor:
#      x y z
#    x 1.847230 0.000000 0.000000 
#    y 0.000000 1.811640 0.000000 
#    z 0.000000 0.000000 1.948530 
# 
# From -- ./inp_files/8213.got.cif
#   From: 2010.05.17/outbox.cif.g08.bks.cpg/sg34_5_cif.got.tgz:8213.got - 2010.06.03 17:23:11.
