data_PCOD9347801
_publ_section_title
;
Structure prediction by ZEFSAII (Michael W. Deem and Ramdas Pophale) SiO2 
 PCOD9347801
Probable space group: P N N 2
;
_chemical_formula_sum "Si O2"
_cell_formula_units_Z 22
_cell_length_a 6.150402
_cell_length_b 14.836259
_cell_length_c 11.036296
_cell_angle_alpha 90.000000
_cell_angle_beta 90.000000
_cell_angle_gamma 90.000000
_cell_volume 1007.050499
_symmetry_space_group_name_H-M "P N N 2"
_symmetry_group_IT_number 34
_symmetry_cell_setting 'orthorhombic'
loop_
_space_group_symop_operation_xyz
x,y,z
-x,-y,z
1/2-x,1/2+y,1/2+z
1/2+x,1/2-y,1/2+z
loop_
_atom_site_type_symbol
_atom_site_label
_atom_site_fract_x
_atom_site_fract_y
_atom_site_fract_z
Si Si1 0.500000 0.000000 0.691650
Si Si2 0.010841 0.315805 0.532311
Si Si3 0.837063 0.081027 0.880803
Si Si4 0.070389 0.602636 0.765100
Si Si5 0.184531 0.653616 0.022642
Si Si6 0.142376 0.245510 0.881789
O O1 0.674000 0.049527 0.776448
O O2 0.369769 0.070829 0.608212
O O3 0.194786 0.387441 0.495464
O O4 0.125752 0.220732 0.562295
O O5 0.860137 0.358769 0.635818
O O6 0.870449 0.297009 0.412409
O O7 0.976503 0.168098 0.841208
O O8 0.000000 0.000000 0.909654
O O9 0.000000 0.500000 0.760458
O O10 0.965075 0.712980 0.004508
O O11 0.220324 0.620262 0.882930
O O12 0.364496 0.831391 0.294391
#
# Coordination Sequence:
#
# PCOD9347801 Si02
#       6
#     2   4   4   4   4   4
#     4  12  24  42  76  94 144 182 232 298 340 436
#     4  11  24  44  73  95 143 182 227 295 351 414
#     4  11  26  42  65 104 134 178 239 276 356 416
#     4  10  23  46  67 100 139 176 233 286 347 421
#     4   9  23  43  67 102 129 182 233 276 360 409
#     4   9  23  44  65  97 137 178 231 280 348 423
#
# _framework density 21.845977000000001
#
# number of rings (size 3 to 8) (size 9 to 14) (size 15 to 20)
#    1.091    0.727    0.909    1.091   11.455    0.000 
#    3.273    2.727    0.000    0.000    0.000    0.000 
#    0.000    0.000    0.000    0.000    0.000    0.000 
#
# Total GULP energy -122703.967796 kJ/mol
# GULP energy per Si atom -5577.453082 kJ/mol
# Density = 2.179625 g / cm^3
# Si number density = 21.845977 Si / 1000 Ang^3
#
#
#
# Elastic Constant Matrix: (Units=GPa)
#
#
# Indices 1 2 3 4 5 6 
#
# 1 46.7073 38.2742 12.1618 0.0000 0.0000 0.0000
# 2 38.2742 166.4603 58.5967 0.0000 0.0000 0.0000
# 3 12.1618 58.5967 77.6979 0.0000 0.0000 0.0000
# 4 0.0000 0.0000 0.0000 40.4740 0.0000 0.0000
# 5 0.0000 0.0000 0.0000 0.0000 12.6774 0.0000
# 6 0.0000 0.0000 0.0000 0.0000 0.0000 16.7890
#
#
#
# Elastic Compliance Matrix: (Units=1/GPa)
#
#
# Indices 1 2 3 4 5 6 
#
# 1 0.026401 -0.006284 0.000607 0.000000 0.000000 0.000000
# 2 -0.006284 0.009674 -0.006312 0.000000 0.000000 0.000000
# 3 0.000607 -0.006312 0.017536 0.000000 0.000000 0.000000
# 4 0.000000 0.000000 0.000000 0.024707 0.000000 0.000000
# 5 0.000000 0.000000 0.000000 0.000000 0.078880 0.000000
# 6 0.000000 0.000000 0.000000 0.000000 0.000000 0.059563
#
#
# Mechanical properties :
#
#
# Convention : Reuss Voigt Hill
#
# Bulk Modulus (GPa) = 33.74714 56.54788 45.14751
# Shear Modulus (GPa) = 19.95059 26.11027 23.03043
#
# Velocity S-wave (km/s) = 3.02526 3.46091 3.25040
# Velocity P-wave (km/s) = 5.26158 6.47391 5.89897
#
# Compressibility (1/GPa) = 0.02963214
#
# Stress axis : x y z
#
# Youngs Moduli (GPa) = 37.87681 103.36554 57.02554
#
# Poissons Ratio (x) = 0.64955 -0.03459
# Poissons Ratio (y) = 0.23802 0.35997
# Poissons Ratio (z) = -0.02298 0.65249
#
# Static dielectric constant tensor:
#      x y z
#    x 1.776300 0.000000 0.000000 
#    y 0.000000 1.776270 0.000000 
#    z 0.000000 0.000000 1.839030 
# 
# From -- ./inp_files/4391.got.cif
#   From: 2010.05.17/outbox.cif.g08.bks.cpg/sg34_3_cif.got.tgz:4391.got - 2010.06.03 17:23:11.
