data_PCOD9347262
_publ_section_title
;
Structure prediction by ZEFSAII (Michael W. Deem and Ramdas Pophale) SiO2 
 PCOD9347262
Probable space group: P N N 2
;
_chemical_formula_sum "Si O2"
_cell_formula_units_Z 28
_cell_length_a 11.585055
_cell_length_b 15.052142
_cell_length_c 8.393871
_cell_angle_alpha 90.000000
_cell_angle_beta 90.000000
_cell_angle_gamma 90.000000
_cell_volume 1463.722326
_symmetry_space_group_name_H-M "P N N 2"
_symmetry_group_IT_number 34
_symmetry_cell_setting 'orthorhombic'
loop_
_space_group_symop_operation_xyz
x,y,z
-x,-y,z
1/2-x,1/2+y,1/2+z
1/2+x,1/2-y,1/2+z
loop_
_atom_site_type_symbol
_atom_site_label
_atom_site_fract_x
_atom_site_fract_y
_atom_site_fract_z
Si Si1 0.544835 0.803210 0.091900
Si Si2 0.866252 0.031195 0.712586
Si Si3 0.740899 0.883277 0.906424
Si Si4 0.622594 0.712884 0.399546
Si Si5 0.784411 0.714119 0.684800
Si Si6 0.101953 0.877062 0.398088
Si Si7 0.953818 0.902401 0.107097
O O1 0.596752 0.787028 0.268273
O O2 0.410112 0.816347 0.128276
O O3 0.612638 0.871720 0.977489
O O4 0.568099 0.709943 0.000278
O O5 0.776733 0.961727 0.786734
O O6 0.843942 0.123810 0.803200
O O7 0.859218 0.049857 0.524716
O O8 0.000000 0.000000 0.734063
O O9 0.781475 0.795323 0.810076
O O10 0.821521 0.896040 0.060812
O O11 0.717541 0.742139 0.525455
O O12 0.516068 0.676088 0.506658
O O13 0.705522 0.641010 0.773632
O O14 0.990747 0.894882 0.289488
O O15 0.000000 0.000000 0.059220
#
# Coordination Sequence:
#
# PCOD9347262 Si02
#       7
#     4   4   4   4   4   4   4
#     4  10  21  37  56  87 115 162 191 234 287 357
#     4  11  18  38  61  89 113 143 195 257 290 336
#     4  11  20  35  60  87 116 147 200 241 287 344
#     4  10  19  36  59  81 118 153 183 240 302 325
#     4  10  21  38  54  86 124 153 188 239 289 364
#     4   9  22  34  58  90 116 153 191 238 312 336
#     4  11  18  34  59  91 113 141 188 257 290 335
#
# _framework density 19.12931
#
# number of rings (size 3 to 8) (size 9 to 14) (size 15 to 20)
#    0.000    1.714    4.286    1.286    2.000    0.000 
#    0.000    0.714    0.000    0.000    0.000    0.000 
#    0.000    0.000    0.000    0.000    0.000    0.000 
#
# Total GULP energy -155989.210681 kJ/mol
# GULP energy per Si atom -5571.043239 kJ/mol
# Density = 1.908577 g / cm^3
# Si number density = 19.129310 Si / 1000 Ang^3
#
#
#
# Elastic Constant Matrix: (Units=GPa)
#
#
# Indices 1 2 3 4 5 6 
#
# 1 78.1097 -3.3558 35.3329 0.0000 0.0000 0.0000
# 2 -3.3558 14.1220 2.8533 0.0000 0.0000 0.0000
# 3 35.3329 2.8533 123.3355 0.0000 0.0000 0.0000
# 4 0.0000 0.0000 0.0000 0.7266 0.0000 0.0000
# 5 0.0000 0.0000 0.0000 0.0000 -27.0539 0.0000
# 6 0.0000 0.0000 0.0000 0.0000 0.0000 15.2019
#
#
#
# Elastic Compliance Matrix: (Units=1/GPa)
#
#
# Indices 1 2 3 4 5 6 
#
# 1 0.014982 0.004448 -0.004395 0.000000 0.000000 0.000000
# 2 0.004448 0.072465 -0.002951 0.000000 0.000000 0.000000
# 3 -0.004395 -0.002951 0.009435 0.000000 0.000000 0.000000
# 4 0.000000 0.000000 0.000000 1.376331 0.000000 0.000000
# 5 0.000000 0.000000 0.000000 0.000000 -0.036963 0.000000
# 6 0.000000 0.000000 0.000000 0.000000 0.000000 0.065781
#
#
# Mechanical properties :
#
#
# Convention : Reuss Voigt Hill
#
# Bulk Modulus (GPa) = 10.97857 31.69201 21.33529
# Shear Modulus (GPa) = 3.25058 9.82402 6.53730
#
# Velocity S-wave (km/s) = 1.30497 2.26864 1.85063
# Velocity P-wave (km/s) = 2.83235 4.84412 3.96785
#
# Compressibility (1/GPa) = 0.09108653
#
# Stress axis : x y z
#
# Youngs Moduli (GPa) = 66.74854 13.79983 105.98557
#
# Poissons Ratio (x) = -0.06138 0.46579
# Poissons Ratio (y) = -0.29690 0.31273
# Poissons Ratio (z) = 0.29335 0.04072
#
# Static dielectric constant tensor:
#      x y z
#    x 2.309640 0.000000 0.000000 
#    y 0.000000 1.694360 0.000000 
#    z 0.000000 0.000000 1.691510 
# 
# From -- ./inp_files/3277.got.cif
#   From: 2010.05.17/outbox.cif.g08.bks.cpg/sg34_2_cif.got.tgz:3277.got - 2010.06.03 17:23:11.
