data_PCOD9347411
_publ_section_title
;
Structure prediction by ZEFSAII (Michael W. Deem and Ramdas Pophale) SiO2 
 PCOD9347411
Probable space group: P N N 2
;
_chemical_formula_sum "Si O2"
_cell_formula_units_Z 22
_cell_length_a 11.237450
_cell_length_b 14.608498
_cell_length_c 5.245461
_cell_angle_alpha 90.000000
_cell_angle_beta 90.000000
_cell_angle_gamma 90.000000
_cell_volume 861.106763
_symmetry_space_group_name_H-M "P N N 2"
_symmetry_group_IT_number 34
_symmetry_cell_setting 'orthorhombic'
loop_
_space_group_symop_operation_xyz
x,y,z
-x,-y,z
1/2-x,1/2+y,1/2+z
1/2+x,1/2-y,1/2+z
loop_
_atom_site_type_symbol
_atom_site_label
_atom_site_fract_x
_atom_site_fract_y
_atom_site_fract_z
Si Si1 0.611952 0.827495 0.875000
Si Si2 0.949584 0.144328 0.080739
Si Si3 0.398765 0.757579 0.203633
Si Si4 0.806338 0.878363 0.298163
Si Si5 0.785545 0.562139 0.713120
Si Si6 0.000000 0.500000 0.349805
O O1 0.599607 0.735959 0.713469
O O2 0.556618 0.912101 0.712685
O O3 0.508527 0.811176 0.079788
O O4 0.731179 0.847011 0.043170
O O5 0.029350 0.178993 0.848783
O O6 0.833798 0.082943 0.048951
O O7 0.054240 0.102185 0.251303
O O8 0.327357 0.841560 0.338118
O O9 0.314653 0.705484 0.997912
O O10 0.749300 0.974674 0.382769
O O11 0.889444 0.529116 0.527095
#
# Coordination Sequence:
#
# PCOD9347411 Si02
#       6
#     4   4   4   4   4   2
#     4   9  19  37  60  86 125 171 222 281 343 414
#     4  11  21  36  60  92 127 167 220 284 348 416
#     4  10  21  38  62  91 127 173 223 285 355 412
#     4  10  21  39  60  89 129 175 225 281 348 425
#     4  10  20  39  63  89 127 171 223 282 341 418
#     4   8  18  38  62  88 122 168 220 278 334 408
#
# _framework density 25.548514000000001
#
# number of rings (size 3 to 8) (size 9 to 14) (size 15 to 20)
#    0.000    2.182    0.000    2.727    0.000    0.000 
#    0.000   23.636    0.000    0.000    0.000    0.000 
#    0.000    0.000    0.000    0.000    0.000    0.000 
#
# Total GULP energy -122610.710497 kJ/mol
# GULP energy per Si atom -5573.214114 kJ/mol
# Density = 2.549036 g / cm^3
# Si number density = 25.548514 Si / 1000 Ang^3
#
#
#
# Elastic Constant Matrix: (Units=GPa)
#
#
# Indices 1 2 3 4 5 6 
#
# 1 207.6754 80.3982 43.2992 0.0000 0.0000 0.0000
# 2 80.3982 122.3928 14.8488 0.0000 0.0000 0.0000
# 3 43.2992 14.8488 38.4476 0.0000 0.0000 0.0000
# 4 0.0000 0.0000 0.0000 -66.2586 0.0000 0.0000
# 5 0.0000 0.0000 0.0000 0.0000 59.6774 0.0000
# 6 0.0000 0.0000 0.0000 0.0000 0.0000 52.4613
#
#
#
# Elastic Compliance Matrix: (Units=1/GPa)
#
#
# Indices 1 2 3 4 5 6 
#
# 1 0.008054 -0.004396 -0.007373 0.000000 0.000000 0.000000
# 2 -0.004396 0.010972 0.000714 0.000000 0.000000 0.000000
# 3 -0.007373 0.000714 0.034037 0.000000 0.000000 0.000000
# 4 0.000000 0.000000 0.000000 -0.015092 0.000000 0.000000
# 5 0.000000 0.000000 0.000000 0.000000 0.016757 0.000000
# 6 0.000000 0.000000 0.000000 0.000000 0.000000 0.019062
#
#
# Mechanical properties :
#
#
# Convention : Reuss Voigt Hill
#
# Bulk Modulus (GPa) = 32.30790 71.73423 52.02106
# Shear Modulus (GPa) = 47.07330 24.50734 35.79032
#
# Velocity S-wave (km/s) = 4.29710 3.10053 3.74689
# Velocity P-wave (km/s) = 6.10682 6.39971 6.25498
#
# Compressibility (1/GPa) = 0.03095218
#
# Stress axis : x y z
#
# Youngs Moduli (GPa) = 124.15611 91.14335 29.37984
#
# Poissons Ratio (x) = 0.40070 0.21661
# Poissons Ratio (y) = 0.54583 -0.02097
# Poissons Ratio (z) = 0.91538 -0.06505
#
# Static dielectric constant tensor:
#      x y z
#    x 1.975900 0.000000 0.000000 
#    y 0.000000 2.184880 0.000000 
#    z 0.000000 0.000000 2.095840 
# 
# From -- ./inp_files/894.got.cif
#   From: 2010.05.17/outbox.cif.g08.bks.cpg/sg34_1_cif.got.tgz:894.got - 2010.06.03 17:23:11.
