data_PCOD9347943
_publ_section_title
;
Structure prediction by ZEFSAII (Michael W. Deem and Ramdas Pophale) SiO2 
 PCOD9347943
Probable space group: P N N 2
;
_chemical_formula_sum "Si O2"
_cell_formula_units_Z 32
_cell_length_a 12.692953
_cell_length_b 14.076693
_cell_length_c 8.530537
_cell_angle_alpha 90.000000
_cell_angle_beta 90.000000
_cell_angle_gamma 90.000000
_cell_volume 1524.192015
_symmetry_space_group_name_H-M "P N N 2"
_symmetry_group_IT_number 34
_symmetry_cell_setting 'orthorhombic'
loop_
_space_group_symop_operation_xyz
x,y,z
-x,-y,z
1/2-x,1/2+y,1/2+z
1/2+x,1/2-y,1/2+z
loop_
_atom_site_type_symbol
_atom_site_label
_atom_site_fract_x
_atom_site_fract_y
_atom_site_fract_z
Si Si1 0.277322 0.982757 0.529320
Si Si2 0.441389 0.245075 0.653563
Si Si3 0.736347 0.797679 0.421016
Si Si4 0.444345 0.737733 0.088552
Si Si5 0.323921 0.180315 0.062118
Si Si6 0.366127 0.795808 0.429563
Si Si7 0.555102 0.591363 0.915051
Si Si8 0.887594 0.453328 0.329938
O O1 0.355481 0.910219 0.439074
O O2 0.164325 0.937736 0.493516
O O3 0.270910 0.091679 0.474030
O O4 0.318464 0.985641 0.708133
O O5 0.353433 0.256400 0.518815
O O6 0.552379 0.236141 0.564128
O O7 0.438477 0.328886 0.780512
O O8 0.414305 0.145616 0.739532
O O9 0.847690 0.750879 0.467967
O O10 0.714340 0.802657 0.237756
O O11 0.552152 0.794310 0.059852
O O12 0.405178 0.761410 0.261017
O O13 0.481220 0.630484 0.054581
O O14 0.246225 0.246238 0.960848
O O15 0.322565 0.076153 0.984360
O O16 0.500000 0.500000 0.842479
O O17 0.000000 0.500000 0.365708
#
# Coordination Sequence:
#
# PCOD9347943 Si02
#       8
#     4   4   4   4   4   4   4   4
#     4  11  23  43  70 102 142 191 233 297 363 433
#     4  11  23  46  72 102 143 193 238 297 367 430
#     4  11  25  45  72 103 147 187 245 304 364 427
#     4  12  24  46  73 102 143 194 238 301 363 435
#     4  12  26  44  68 107 144 190 243 301 359 439
#     4  12  24  44  75 102 144 194 239 292 373 432
#     4  12  24  45  74 102 143 190 248 300 365 426
#     4  11  23  42  70 104 143 187 236 292 359 438
#
# _framework density 20.994729
#
# number of rings (size 3 to 8) (size 9 to 14) (size 15 to 20)
#    0.000    0.500    6.250    3.000    0.000    1.000 
#    0.000    3.125    2.750    0.000    0.000    0.000 
#    0.000    0.000    0.000    0.000    0.000    0.000 
#
# Total GULP energy -178735.103067 kJ/mol
# GULP energy per Si atom -5585.471971 kJ/mol
# Density = 2.094694 g / cm^3
# Si number density = 20.994729 Si / 1000 Ang^3
#
#
#
# Elastic Constant Matrix: (Units=GPa)
#
#
# Indices 1 2 3 4 5 6 
#
# 1 140.0134 37.8214 63.1638 0.0000 0.0000 0.0000
# 2 37.8214 70.1230 36.7033 0.0000 0.0000 0.0000
# 3 63.1638 36.7033 149.1246 0.0000 0.0000 0.0000
# 4 0.0000 0.0000 0.0000 29.1419 0.0000 0.0000
# 5 0.0000 0.0000 0.0000 0.0000 34.2248 0.0000
# 6 0.0000 0.0000 0.0000 0.0000 0.0000 30.2549
#
#
#
# Elastic Compliance Matrix: (Units=1/GPa)
#
#
# Indices 1 2 3 4 5 6 
#
# 1 0.009511 -0.003468 -0.003175 0.000000 0.000000 0.000000
# 2 -0.003468 0.017634 -0.002871 0.000000 0.000000 0.000000
# 3 -0.003175 -0.002871 0.008757 0.000000 0.000000 0.000000
# 4 0.000000 0.000000 0.000000 0.034315 0.000000 0.000000
# 5 0.000000 0.000000 0.000000 0.000000 0.029219 0.000000
# 6 0.000000 0.000000 0.000000 0.000000 0.000000 0.033053
#
#
# Mechanical properties :
#
#
# Convention : Reuss Voigt Hill
#
# Bulk Modulus (GPa) = 59.26311 70.51532 64.88921
# Shear Modulus (GPa) = 31.81832 33.49582 32.65707
#
# Velocity S-wave (km/s) = 3.89722 3.99863 3.94825
# Velocity P-wave (km/s) = 6.96706 7.41477 7.19440
#
# Compressibility (1/GPa) = 0.01687390
#
# Stress axis : x y z
#
# Youngs Moduli (GPa) = 105.13721 56.70842 114.19020
#
# Poissons Ratio (x) = 0.19667 0.36256
# Poissons Ratio (y) = 0.36463 0.32786
# Poissons Ratio (z) = 0.33382 0.16282
#
# Static dielectric constant tensor:
#      x y z
#    x 1.786020 0.000000 0.000000 
#    y 0.000000 1.788100 0.000000 
#    z 0.000000 0.000000 1.750730 
# 
# From -- ./inp_files/3351.got.cif
#   From: 2010.05.17/outbox.cif.g08.bks.cpg/sg34_2_cif.got.tgz:3351.got - 2010.06.03 17:23:11.
