data_PCOD9347028
_publ_section_title
;
Structure prediction by ZEFSAII (Michael W. Deem and Ramdas Pophale) SiO2 
 PCOD9347028
Probable space group: P N A 21
;
_chemical_formula_sum "Si O2"
_cell_formula_units_Z 20
_cell_length_a 4.846764
_cell_length_b 31.937512
_cell_length_c 5.080279
_cell_angle_alpha 90.000000
_cell_angle_beta 90.000000
_cell_angle_gamma 90.000000
_cell_volume 786.394591
_symmetry_space_group_name_H-M "P N A 21"
_symmetry_group_IT_number 33
_symmetry_cell_setting 'orthorhombic'
loop_
_space_group_symop_operation_xyz
x,y,z
-x,-y,1/2+z
1/2-x,1/2+y,1/2+z
1/2+x,1/2-y,z
loop_
_atom_site_type_symbol
_atom_site_label
_atom_site_fract_x
_atom_site_fract_y
_atom_site_fract_z
Si Si1 0.039046 0.583769 0.945770
Si Si2 0.777547 0.850944 0.608226
Si Si3 0.328544 0.339923 0.605901
Si Si4 0.372940 0.778694 0.468551
Si Si5 0.029818 0.972695 0.039121
O O1 0.893901 0.622981 0.088443
O O2 0.804561 0.548874 0.927561
O O3 0.150275 0.603641 0.674013
O O4 0.301741 0.563065 0.082160
O O5 0.524375 0.818322 0.597879
O O6 0.965284 0.847729 0.350639
O O7 0.979841 0.840765 0.851338
O O8 0.170975 0.296466 0.670454
O O9 0.573734 0.739972 0.523575
O O10 0.920254 0.003371 0.810887
#
# Coordination Sequence:
#
# PCOD9347028 Si02
#       5
#     4   4   4   4   4
#     4  12  28  54  83 115 162 208 268 325 381 504
#     4  12  28  53  82 120 156 218 268 324 401 469
#     4  12  28  53  82 120 156 218 268 324 401 469
#     4  12  28  50  78 118 164 208 268 340 392 464
#     4  12  30  50  81 121 160 204 256 329 409 462
#
# _framework density 25.432527
#
# number of rings (size 3 to 8) (size 9 to 14) (size 15 to 20)
#    0.000    0.000    4.000    3.600    2.800    4.800 
#    0.000    0.000    0.000    0.000    0.000    0.000 
#    0.000    0.000    0.000    0.000    0.000    0.000 
#
# Total GULP energy -112093.937423 kJ/mol
# GULP energy per Si atom -5604.696871 kJ/mol
# Density = 2.537464 g / cm^3
# Si number density = 25.432527 Si / 1000 Ang^3
#
#
#
# Elastic Constant Matrix: (Units=GPa)
#
#
# Indices 1 2 3 4 5 6 
#
# 1 157.8520 20.8040 45.7460 0.0000 0.0000 0.0000
# 2 20.8040 75.1712 23.8785 0.0000 0.0000 0.0000
# 3 45.7460 23.8785 142.4209 0.0000 0.0000 0.0000
# 4 0.0000 0.0000 0.0000 39.8879 0.0000 0.0000
# 5 0.0000 0.0000 0.0000 0.0000 42.6110 0.0000
# 6 0.0000 0.0000 0.0000 0.0000 0.0000 54.6642
#
#
#
# Elastic Compliance Matrix: (Units=1/GPa)
#
#
# Indices 1 2 3 4 5 6 
#
# 1 0.007106 -0.001311 -0.002062 0.000000 0.000000 0.000000
# 2 -0.001311 0.014293 -0.001975 0.000000 0.000000 0.000000
# 3 -0.002062 -0.001975 0.008015 0.000000 0.000000 0.000000
# 4 0.000000 0.000000 0.000000 0.025070 0.000000 0.000000
# 5 0.000000 0.000000 0.000000 0.000000 0.023468 0.000000
# 6 0.000000 0.000000 0.000000 0.000000 0.000000 0.018294
#
#
# Mechanical properties :
#
#
# Convention : Reuss Voigt Hill
#
# Bulk Modulus (GPa) = 53.43054 61.81123 57.62089
# Shear Modulus (GPa) = 44.17639 46.43365 45.30502
#
# Velocity S-wave (km/s) = 4.17226 4.27752 4.22522
# Velocity P-wave (km/s) = 6.65317 6.98234 6.81974
#
# Compressibility (1/GPa) = 0.01871589
#
# Stress axis : x y z
#
# Youngs Moduli (GPa) = 140.73432 69.96271 124.76479
#
# Poissons Ratio (x) = 0.09175 0.25732
# Poissons Ratio (y) = 0.18455 0.24644
# Poissons Ratio (z) = 0.29026 0.13819
#
# Static dielectric constant tensor:
#      x y z
#    x 1.970610 0.000000 0.000000 
#    y 0.000000 2.016970 0.000000 
#    z 0.000000 0.000000 2.043300 
# 
# From -- ./inp_files/212.got.cif
#   From: 2010.05.17/outbox.cif.g08.bks.cpg/sg33_1_cif.got.tgz:212.got - 2010.06.03 17:15:25.
