data_PCOD9347303
_publ_section_title
;
Structure prediction by ZEFSAII (Michael W. Deem and Ramdas Pophale) SiO2 
 PCOD9347303
Probable space group: P N N 2
;
_chemical_formula_sum "Si O2"
_cell_formula_units_Z 32
_cell_length_a 5.654688
_cell_length_b 13.741954
_cell_length_c 19.062832
_cell_angle_alpha 90.000000
_cell_angle_beta 90.000000
_cell_angle_gamma 90.000000
_cell_volume 1481.305238
_symmetry_space_group_name_H-M "P N N 2"
_symmetry_group_IT_number 34
_symmetry_cell_setting 'orthorhombic'
loop_
_space_group_symop_operation_xyz
x,y,z
-x,-y,z
1/2-x,1/2+y,1/2+z
1/2+x,1/2-y,1/2+z
loop_
_atom_site_type_symbol
_atom_site_label
_atom_site_fract_x
_atom_site_fract_y
_atom_site_fract_z
Si Si1 0.604032 0.756803 0.514590
Si Si2 0.669023 0.243763 0.646462
Si Si3 0.342707 0.777317 0.883109
Si Si4 0.408397 0.110497 0.758706
Si Si5 0.246739 0.452558 0.782759
Si Si6 0.222808 0.878153 0.430840
Si Si7 0.979511 0.741303 0.761592
Si Si8 0.991909 0.901931 0.568432
O O1 0.489446 0.709917 0.584554
O O2 0.756756 0.690621 0.461003
O O3 0.413318 0.802847 0.461514
O O4 0.753853 0.849025 0.543902
O O5 0.520393 0.169477 0.693883
O O6 0.833535 0.295627 0.703612
O O7 0.862759 0.182281 0.604853
O O8 0.489253 0.850496 0.833504
O O9 0.505958 0.685667 0.901600
O O10 0.127243 0.743885 0.833317
O O11 0.137297 0.151049 0.754800
O O12 0.500000 0.000000 0.752398
O O13 0.500000 0.500000 0.763836
O O14 0.224684 0.449814 0.867500
O O15 0.000000 0.500000 0.756988
O O16 0.228985 0.338315 0.762290
O O17 0.150479 0.931517 0.501508
O O18 0.000000 0.000000 0.613697
#
# Coordination Sequence:
#
# PCOD9347303 Si02
#       8
#     4   4   4   4   4   4   4   4
#     4  10  20  37  58  88 123 180 216 271 332 414
#     4  10  24  36  59  85 130 173 221 265 345 412
#     4  10  19  39  64  88 133 170 224 277 337 404
#     4  11  24  39  64  94 134 179 224 279 350 418
#     4  12  25  38  66  99 133 174 221 278 347 412
#     4  10  20  35  57  91 131 165 205 263 329 399
#     4  11  23  42  61  92 133 169 218 282 343 417
#     4  10  22  33  53  86 128 170 213 258 323 409
#
# _framework density 21.602568000000002
#
# number of rings (size 3 to 8) (size 9 to 14) (size 15 to 20)
#    0.000    1.500    2.500    1.875    8.750    2.500 
#    0.000    0.000    0.000    0.000    0.000   35.875 
#    0.000    0.000    0.000    0.000    0.000    0.000 
#
# Total GULP energy -178187.595357 kJ/mol
# GULP energy per Si atom -5568.362355 kJ/mol
# Density = 2.155340 g / cm^3
# Si number density = 21.602568 Si / 1000 Ang^3
#
#
#
# Elastic Constant Matrix: (Units=GPa)
#
#
# Indices 1 2 3 4 5 6 
#
# 1 93.5695 15.6761 37.7095 0.0000 0.0000 0.0000
# 2 15.6761 38.1745 8.7484 0.0000 0.0000 0.0000
# 3 37.7095 8.7484 114.0717 0.0000 0.0000 0.0000
# 4 0.0000 0.0000 0.0000 10.1477 0.0000 0.0000
# 5 0.0000 0.0000 0.0000 0.0000 43.9314 0.0000
# 6 0.0000 0.0000 0.0000 0.0000 0.0000 17.6463
#
#
#
# Elastic Compliance Matrix: (Units=1/GPa)
#
#
# Indices 1 2 3 4 5 6 
#
# 1 0.013030 -0.004442 -0.003967 0.000000 0.000000 0.000000
# 2 -0.004442 0.028178 -0.000693 0.000000 0.000000 0.000000
# 3 -0.003967 -0.000693 0.010131 0.000000 0.000000 0.000000
# 4 0.000000 0.000000 0.000000 0.098545 0.000000 0.000000
# 5 0.000000 0.000000 0.000000 0.000000 0.022763 0.000000
# 6 0.000000 0.000000 0.000000 0.000000 0.000000 0.056669
#
#
# Mechanical properties :
#
#
# Convention : Reuss Voigt Hill
#
# Bulk Modulus (GPa) = 30.17798 41.12040 35.64919
# Shear Modulus (GPa) = 19.33761 26.59052 22.96407
#
# Velocity S-wave (km/s) = 2.99516 3.51222 3.26394
# Velocity P-wave (km/s) = 5.09522 5.96019 5.54460
#
# Compressibility (1/GPa) = 0.03313675
#
# Stress axis : x y z
#
# Youngs Moduli (GPa) = 76.74577 35.48845 98.70820
#
# Poissons Ratio (x) = 0.15763 0.39155
# Poissons Ratio (y) = 0.34088 0.06838
# Poissons Ratio (z) = 0.30443 0.02458
#
# Static dielectric constant tensor:
#      x y z
#    x 1.946960 0.000000 0.000000 
#    y 0.000000 1.844330 0.000000 
#    z 0.000000 0.000000 1.836460 
# 
# From -- ./inp_files/7255.got.cif
#   From: 2010.05.17/outbox.cif.g08.bks.cpg/sg34_4_cif.got.tgz:7255.got - 2010.06.03 17:23:11.
