data_PCOD9347035
_publ_section_title
;
Structure prediction by ZEFSAII (Michael W. Deem and Ramdas Pophale) SiO2 
 PCOD9347035
Probable space group: P N A 21
;
_chemical_formula_sum "Si O2"
_cell_formula_units_Z 12
_cell_length_a 8.538541
_cell_length_b 9.881336
_cell_length_c 4.938008
_cell_angle_alpha 90.000000
_cell_angle_beta 90.000000
_cell_angle_gamma 90.000000
_cell_volume 416.630562
_symmetry_space_group_name_H-M "P N A 21"
_symmetry_group_IT_number 33
_symmetry_cell_setting 'orthorhombic'
loop_
_space_group_symop_operation_xyz
x,y,z
-x,-y,1/2+z
1/2-x,1/2+y,1/2+z
1/2+x,1/2-y,z
loop_
_atom_site_type_symbol
_atom_site_label
_atom_site_fract_x
_atom_site_fract_y
_atom_site_fract_z
Si Si1 0.442835 0.579186 0.428450
Si Si2 0.671010 0.905854 0.783053
Si Si3 0.115585 0.310742 0.604293
O O1 0.526529 0.535990 0.705340
O O2 0.260340 0.602790 0.495504
O O3 0.492646 0.718403 0.296086
O O4 0.814628 0.570551 0.293411
O O5 0.494369 0.877192 0.873692
O O6 0.770973 0.796077 0.954590
#
# Coordination Sequence:
#
# PCOD9347035 Si02
#       3
#     4   4   4
#     4  12  28  58  95 134 187 249 308 395 481 556
#     4  12  32  56  93 142 187 255 317 395 476 577
#     4  12  32  56  96 144 194 248 329 392 489 569
#
# _framework density 28.802493999999999
#
# number of rings (size 3 to 8) (size 9 to 14) (size 15 to 20)
#    0.000    0.000    3.333    2.000    9.333    5.333 
#    0.000    0.000    0.000    0.000    0.000    0.000 
#    0.000    0.000    0.000    0.000    0.000    0.000 
#
# Total GULP energy -67094.478805 kJ/mol
# GULP energy per Si atom -5591.206567 kJ/mol
# Density = 2.873694 g / cm^3
# Si number density = 28.802494 Si / 1000 Ang^3
#
#
#
# Elastic Constant Matrix: (Units=GPa)
#
#
# Indices 1 2 3 4 5 6 
#
# 1 142.1227 86.2339 60.6939 0.0000 0.0000 0.0000
# 2 86.2339 230.8362 68.4168 0.0000 0.0000 0.0000
# 3 60.6939 68.4168 160.9562 0.0000 0.0000 0.0000
# 4 0.0000 0.0000 0.0000 72.2671 0.0000 0.0000
# 5 0.0000 0.0000 0.0000 0.0000 52.3068 0.0000
# 6 0.0000 0.0000 0.0000 0.0000 0.0000 75.7583
#
#
#
# Elastic Compliance Matrix: (Units=1/GPa)
#
#
# Indices 1 2 3 4 5 6 
#
# 1 0.009888 -0.002962 -0.002470 0.000000 0.000000 0.000000
# 2 -0.002962 0.005844 -0.001367 0.000000 0.000000 0.000000
# 3 -0.002470 -0.001367 0.007725 0.000000 0.000000 0.000000
# 4 0.000000 0.000000 0.000000 0.013838 0.000000 0.000000
# 5 0.000000 0.000000 0.000000 0.000000 0.019118 0.000000
# 6 0.000000 0.000000 0.000000 0.000000 0.000000 0.013200
#
#
# Mechanical properties :
#
#
# Convention : Reuss Voigt Hill
#
# Bulk Modulus (GPa) = 101.42229 107.17827 104.30028
# Shear Modulus (GPa) = 57.80608 61.30449 59.55528
#
# Velocity S-wave (km/s) = 4.48480 4.61851 4.55214
# Velocity P-wave (km/s) = 7.88082 8.10759 7.99501
#
# Compressibility (1/GPa) = 0.00985977
#
# Stress axis : x y z
#
# Youngs Moduli (GPa) = 101.13286 171.12298 129.44629
#
# Poissons Ratio (x) = 0.50685 0.31968
# Poissons Ratio (y) = 0.29955 0.17696
# Poissons Ratio (z) = 0.24976 0.23394
#
# Static dielectric constant tensor:
#      x y z
#    x 2.380910 0.000000 0.000000 
#    y 0.000000 2.247810 0.000000 
#    z 0.000000 0.000000 2.196670 
# 
# From -- ./inp_files/271.got.cif
#   From: 2010.05.17/outbox.cif.g08.bks.cpg/sg33_1_cif.got.tgz:271.got - 2010.06.03 17:15:25.
