data_PCOD9347771
_publ_section_title
;
Structure prediction by ZEFSAII (Michael W. Deem and Ramdas Pophale) SiO2 
 PCOD9347771
Probable space group: P N N 2
;
_chemical_formula_sum "Si O2"
_cell_formula_units_Z 22
_cell_length_a 12.306823
_cell_length_b 6.355063
_cell_length_c 11.305876
_cell_angle_alpha 90.000000
_cell_angle_beta 90.000000
_cell_angle_gamma 90.000000
_cell_volume 884.239747
_symmetry_space_group_name_H-M "P N N 2"
_symmetry_group_IT_number 34
_symmetry_cell_setting 'orthorhombic'
loop_
_space_group_symop_operation_xyz
x,y,z
-x,-y,z
1/2-x,1/2+y,1/2+z
1/2+x,1/2-y,1/2+z
loop_
_atom_site_type_symbol
_atom_site_label
_atom_site_fract_x
_atom_site_fract_y
_atom_site_fract_z
Si Si1 0.950990 0.290133 0.079250
Si Si2 0.318738 0.453958 0.958695
Si Si3 0.113380 0.592825 0.621564
Si Si4 0.216663 0.167010 0.685797
Si Si5 0.000000 0.000000 0.268675
Si Si6 0.651624 0.691217 0.353995
O O1 0.841500 0.353756 0.147770
O O2 0.000000 0.500000 0.025536
O O3 0.915731 0.146059 0.971099
O O4 0.027966 0.186276 0.177362
O O5 0.404333 0.433910 0.854551
O O6 0.229236 0.615882 0.901730
O O7 0.316167 0.224209 0.024713
O O8 0.354481 0.580887 0.075629
O O9 0.186119 0.409403 0.679033
O O10 0.085617 0.727498 0.739560
O O11 0.000000 0.500000 0.571909
O O12 0.201626 0.024487 0.801367
#
# Coordination Sequence:
#
# PCOD9347771 Si02
#       6
#     4   4   4   4   2   4
#     4  11  25  41  63  97 135 178 230 289 354 427
#     4  10  23  42  65  97 136 179 232 293 360 436
#     4  11  23  41  70 102 134 180 237 300 365 434
#     4  10  23  44  70  98 134 185 237 294 363 437
#     4  12  24  40  64  94 132 178 228 284 350 434
#     4  10  23  43  66  95 137 181 234 295 361 435
#
# _framework density 24.880127999999999
#
# number of rings (size 3 to 8) (size 9 to 14) (size 15 to 20)
#    0.000    1.455    0.000    3.818    0.000   16.000 
#    0.000    0.000    0.000    0.000    0.000    0.000 
#    0.000    0.000    0.000    0.000    0.000    0.000 
#
# Total GULP energy -122598.274202 kJ/mol
# GULP energy per Si atom -5572.648827 kJ/mol
# Density = 2.482350 g / cm^3
# Si number density = 24.880128 Si / 1000 Ang^3
#
#
#
# Elastic Constant Matrix: (Units=GPa)
#
#
# Indices 1 2 3 4 5 6 
#
# 1 58.3857 50.4372 33.5284 0.0000 0.0000 0.0000
# 2 50.4372 125.8695 75.0266 0.0000 0.0000 0.0000
# 3 33.5284 75.0266 206.4778 0.0000 0.0000 0.0000
# 4 0.0000 0.0000 0.0000 -3.0660 0.0000 0.0000
# 5 0.0000 0.0000 0.0000 0.0000 31.1193 0.0000
# 6 0.0000 0.0000 0.0000 0.0000 0.0000 34.1304
#
#
#
# Elastic Compliance Matrix: (Units=1/GPa)
#
#
# Indices 1 2 3 4 5 6 
#
# 1 0.026246 -0.010182 -0.000562 0.000000 0.000000 0.000000
# 2 -0.010182 0.014091 -0.003467 0.000000 0.000000 0.000000
# 3 -0.000562 -0.003467 0.006194 0.000000 0.000000 0.000000
# 4 0.000000 0.000000 0.000000 -0.326158 0.000000 0.000000
# 5 0.000000 0.000000 0.000000 0.000000 0.032134 0.000000
# 6 0.000000 0.000000 0.000000 0.000000 0.000000 0.029299
#
#
# Mechanical properties :
#
#
# Convention : Reuss Voigt Hill
#
# Bulk Modulus (GPa) = 55.21968 78.74640 66.98304
# Shear Modulus (GPa) = -27.21318 27.88614 0.33648
#
# Velocity S-wave (km/s) = -3.31081 3.35150 0.36815
# Velocity P-wave (km/s) = 2.76174 6.83343 5.21167
#
# Compressibility (1/GPa) = 0.01810949
#
# Stress axis : x y z
#
# Youngs Moduli (GPa) = 38.10083 70.96595 161.44255
#
# Poissons Ratio (x) = 0.72258 0.09075
# Poissons Ratio (y) = 0.38794 0.55970
# Poissons Ratio (z) = 0.02142 0.24603
#
# Static dielectric constant tensor:
#      x y z
#    x 2.015900 0.000000 0.000000 
#    y 0.000000 2.133060 0.000000 
#    z 0.000000 0.000000 1.914300 
# 
# From -- ./inp_files/5591.got.cif
#   From: 2010.05.17/outbox.cif.g08.bks.cpg/sg34_3_cif.got.tgz:5591.got - 2010.06.03 17:23:11.
