data_PCOD9347947
_publ_section_title
;
Structure prediction by ZEFSAII (Michael W. Deem and Ramdas Pophale) SiO2 
 PCOD9347947
Probable space group: P N N 2
;
_chemical_formula_sum "Si O2"
_cell_formula_units_Z 30
_cell_length_a 13.764301
_cell_length_b 12.113138
_cell_length_c 8.576130
_cell_angle_alpha 90.000000
_cell_angle_beta 90.000000
_cell_angle_gamma 90.000000
_cell_volume 1429.888528
_symmetry_space_group_name_H-M "P N N 2"
_symmetry_group_IT_number 34
_symmetry_cell_setting 'orthorhombic'
loop_
_space_group_symop_operation_xyz
x,y,z
-x,-y,z
1/2-x,1/2+y,1/2+z
1/2+x,1/2-y,1/2+z
loop_
_atom_site_type_symbol
_atom_site_label
_atom_site_fract_x
_atom_site_fract_y
_atom_site_fract_z
Si Si1 0.000000 0.500000 0.949501
Si Si2 0.162387 0.246548 0.428739
Si Si3 0.514090 0.630519 0.390797
Si Si4 0.293378 0.354744 0.193242
Si Si5 0.892386 0.686284 0.754333
Si Si6 0.492832 0.368655 0.749037
Si Si7 0.694306 0.742000 0.876265
Si Si8 0.801534 0.419083 0.113985
O O1 0.958820 0.596886 0.838824
O O2 0.907729 0.455692 0.050034
O O3 0.214091 0.338056 0.326312
O O4 0.102075 0.301033 0.569502
O O5 0.245938 0.168315 0.502531
O O6 0.091956 0.179735 0.315648
O O7 0.500000 0.500000 0.389847
O O8 0.603313 0.655032 0.276901
O O9 0.421768 0.695424 0.325967
O O10 0.528617 0.665484 0.570198
O O11 0.268621 0.474343 0.122891
O O12 0.284153 0.261426 0.059986
O O13 0.780005 0.670176 0.797317
O O14 0.500000 0.500000 0.755703
O O15 0.406182 0.321422 0.852351
O O16 0.689717 0.856523 0.780940
#
# Coordination Sequence:
#
# PCOD9347947 Si02
#       8
#     2   4   4   4   4   4   4   4
#     4  12  24  46  76 104 154 186 238 296 386 430
#     4  11  25  45  67 102 141 180 245 291 356 429
#     4  11  23  43  70  99 136 183 240 299 356 424
#     4  12  24  45  69 101 140 190 234 295 361 429
#     4  11  23  44  68 100 141 187 233 294 363 436
#     4  11  24  41  70 101 137 186 239 296 356 426
#     4  11  23  43  69 102 140 184 239 292 360 430
#     4  11  26  46  74 105 145 190 234 307 366 442
#
# _framework density 20.980654999999999
#
# number of rings (size 3 to 8) (size 9 to 14) (size 15 to 20)
#    0.000    0.800    1.333    7.200    1.867    2.133 
#    7.200    0.000    0.000    0.000    0.000    0.000 
#    0.000    0.000    0.000    0.000    0.000    0.000 
#
# Total GULP energy -167739.614975 kJ/mol
# GULP energy per Si atom -5591.320499 kJ/mol
# Density = 2.093290 g / cm^3
# Si number density = 20.980655 Si / 1000 Ang^3
#
#
#
# Elastic Constant Matrix: (Units=GPa)
#
#
# Indices 1 2 3 4 5 6 
#
# 1 80.3197 13.6255 15.8535 0.0000 0.0000 0.0000
# 2 13.6255 62.2763 32.2031 0.0000 0.0000 0.0000
# 3 15.8535 32.2031 113.1285 0.0000 0.0000 0.0000
# 4 0.0000 0.0000 0.0000 -19.2264 0.0000 0.0000
# 5 0.0000 0.0000 0.0000 0.0000 25.4619 0.0000
# 6 0.0000 0.0000 0.0000 0.0000 0.0000 30.0207
#
#
#
# Elastic Compliance Matrix: (Units=1/GPa)
#
#
# Indices 1 2 3 4 5 6 
#
# 1 0.013066 -0.002242 -0.001193 0.000000 0.000000 0.000000
# 2 -0.002242 0.019214 -0.005155 0.000000 0.000000 0.000000
# 3 -0.001193 -0.005155 0.010474 0.000000 0.000000 0.000000
# 4 0.000000 0.000000 0.000000 -0.052012 0.000000 0.000000
# 5 0.000000 0.000000 0.000000 0.000000 0.039274 0.000000
# 6 0.000000 0.000000 0.000000 0.000000 0.000000 0.033310
#
#
# Mechanical properties :
#
#
# Convention : Reuss Voigt Hill
#
# Bulk Modulus (GPa) = 39.10226 42.12097 40.61162
# Shear Modulus (GPa) = 56.16001 20.18740 38.17371
#
# Velocity S-wave (km/s) = 5.17935 3.10529 4.27015
# Velocity P-wave (km/s) = 7.37870 5.74254 6.61143
#
# Compressibility (1/GPa) = 0.02557397
#
# Stress axis : x y z
#
# Youngs Moduli (GPa) = 76.53446 52.04611 95.47315
#
# Poissons Ratio (x) = 0.11668 0.11389
# Poissons Ratio (y) = 0.17158 0.49218
# Poissons Ratio (z) = 0.09129 0.26831
#
# Static dielectric constant tensor:
#      x y z
#    x 2.016430 0.000000 0.000000 
#    y 0.000000 1.711480 0.000000 
#    z 0.000000 0.000000 1.755350 
# 
# From -- ./inp_files/3315.got.cif
#   From: 2010.05.17/outbox.cif.g08.bks.cpg/sg34_2_cif.got.tgz:3315.got - 2010.06.03 17:23:11.
