data_PCOD9347052
_publ_section_title
;
Structure prediction by ZEFSAII (Michael W. Deem and Ramdas Pophale) SiO2 
 PCOD9347052
Probable space group: P N A 21
;
_chemical_formula_sum "Si O2"
_cell_formula_units_Z 16
_cell_length_a 9.531985
_cell_length_b 12.933277
_cell_length_c 5.158213
_cell_angle_alpha 90.000000
_cell_angle_beta 90.000000
_cell_angle_gamma 90.000000
_cell_volume 635.903479
_symmetry_space_group_name_H-M "P N A 21"
_symmetry_group_IT_number 33
_symmetry_cell_setting 'orthorhombic'
loop_
_space_group_symop_operation_xyz
x,y,z
-x,-y,1/2+z
1/2-x,1/2+y,1/2+z
1/2+x,1/2-y,z
loop_
_atom_site_type_symbol
_atom_site_label
_atom_site_fract_x
_atom_site_fract_y
_atom_site_fract_z
Si Si1 0.335865 0.047722 0.448180
Si Si2 0.860046 0.255050 0.204224
Si Si3 0.382790 0.618254 0.598717
Si Si4 0.270659 0.936516 0.950889
O O1 0.351085 0.992928 0.718086
O O2 0.422670 0.150174 0.373086
O O3 0.177254 0.093164 0.389930
O O4 0.343213 0.961102 0.222923
O O5 0.751268 0.311219 0.009598
O O6 0.769733 0.178259 0.381749
O O7 0.978277 0.183694 0.079978
O O8 0.372034 0.507138 0.465717
#
# Coordination Sequence:
#
# PCOD9347052 Si02
#       4
#     4   4   4   4
#     4   8  21  35  54  87 106 140 193 220 277 323
#     4   9  19  39  57  82 116 144 183 240 269 328
#     4   8  21  35  56  84 109 143 190 220 282 326
#     4   9  19  37  55  83 107 149 184 226 268 337
#
# _framework density 25.161052999999999
#
# number of rings (size 3 to 8) (size 9 to 14) (size 15 to 20)
#    3.000    0.000    0.000    0.000    3.500    4.000 
#    9.000    5.000    0.000    0.000    0.000    0.000 
#    0.000    0.000    0.000    0.000    0.000    0.000 
#
# Total GULP energy -89078.441939 kJ/mol
# GULP energy per Si atom -5567.402621 kJ/mol
# Density = 2.510379 g / cm^3
# Si number density = 25.161053 Si / 1000 Ang^3
#
#
#
# Elastic Constant Matrix: (Units=GPa)
#
#
# Indices 1 2 3 4 5 6 
#
# 1 85.7347 12.0483 -5.5182 0.0000 0.0000 0.0000
# 2 12.0483 150.4847 12.0804 0.0000 0.0000 0.0000
# 3 -5.5182 12.0804 59.6594 0.0000 0.0000 0.0000
# 4 0.0000 0.0000 0.0000 24.3543 0.0000 0.0000
# 5 0.0000 0.0000 0.0000 0.0000 1.6158 0.0000
# 6 0.0000 0.0000 0.0000 0.0000 0.0000 42.3090
#
#
#
# Elastic Compliance Matrix: (Units=1/GPa)
#
#
# Indices 1 2 3 4 5 6 
#
# 1 0.011897 -0.001058 0.001315 0.000000 0.000000 0.000000
# 2 -0.001058 0.006849 -0.001485 0.000000 0.000000 0.000000
# 3 0.001315 -0.001485 0.017184 0.000000 0.000000 0.000000
# 4 0.000000 0.000000 0.000000 0.041060 0.000000 0.000000
# 5 0.000000 0.000000 0.000000 0.000000 0.618896 0.000000
# 6 0.000000 0.000000 0.000000 0.000000 0.000000 0.023636
#
#
# Mechanical properties :
#
#
# Convention : Reuss Voigt Hill
#
# Bulk Modulus (GPa) = 29.87382 37.01108 33.44245
# Shear Modulus (GPa) = 6.82001 32.14038 19.48019
#
# Velocity S-wave (km/s) = 1.64816 3.57793 2.78550
# Velocity P-wave (km/s) = 3.93963 5.64007 4.86473
#
# Compressibility (1/GPa) = 0.03347413
#
# Stress axis : x y z
#
# Youngs Moduli (GPa) = 84.05339 146.00464 58.19341
#
# Poissons Ratio (x) = 0.15448 -0.07651
# Poissons Ratio (y) = 0.08893 0.08640
# Poissons Ratio (z) = -0.11050 0.21678
#
# Static dielectric constant tensor:
#      x y z
#    x 2.125030 0.000000 0.000000 
#    y 0.000000 1.937060 0.000000 
#    z 0.000000 0.000000 1.969420 
# 
# From -- ./inp_files/651.got.cif
#   From: 2010.05.17/outbox.cif.g08.bks.cpg/sg33_1_cif.got.tgz:651.got - 2010.06.03 17:15:25.
