data_PCOD9347622
_publ_section_title
;
Structure prediction by ZEFSAII (Michael W. Deem and Ramdas Pophale) SiO2 
 PCOD9347622
Probable space group: P N N 2
;
_chemical_formula_sum "Si O2"
_cell_formula_units_Z 32
_cell_length_a 13.297189
_cell_length_b 17.742921
_cell_length_c 5.275948
_cell_angle_alpha 90.000000
_cell_angle_beta 90.000000
_cell_angle_gamma 90.000000
_cell_volume 1244.759550
_symmetry_space_group_name_H-M "P N N 2"
_symmetry_group_IT_number 34
_symmetry_cell_setting 'orthorhombic'
loop_
_space_group_symop_operation_xyz
x,y,z
-x,-y,z
1/2-x,1/2+y,1/2+z
1/2+x,1/2-y,1/2+z
loop_
_atom_site_type_symbol
_atom_site_label
_atom_site_fract_x
_atom_site_fract_y
_atom_site_fract_z
Si Si1 0.619938 0.573031 0.483980
Si Si2 0.216379 0.690262 0.975749
Si Si3 0.222324 0.324320 0.712153
Si Si4 0.530193 0.717751 0.369449
Si Si5 0.612942 0.923166 0.799382
Si Si6 0.299806 0.943823 0.582705
Si Si7 0.544244 0.199851 0.882062
Si Si8 0.706548 0.436231 0.689950
O O1 0.531629 0.627244 0.390398
O O2 0.674639 0.628426 0.688087
O O3 0.703242 0.566254 0.261795
O O4 0.614505 0.488135 0.591713
O O5 0.252138 0.736291 0.224468
O O6 0.146182 0.751894 0.838136
O O7 0.137807 0.626017 0.051641
O O8 0.303195 0.643827 0.832878
O O9 0.156991 0.326680 0.453516
O O10 0.166644 0.368980 0.933957
O O11 0.477276 0.744940 0.117044
O O12 0.483796 0.756616 0.622463
O O13 0.611128 0.010971 0.724857
O O14 0.525760 0.873830 0.921225
O O15 0.714253 0.919630 0.967563
O O16 0.262541 0.003690 0.371592
#
# Coordination Sequence:
#
# PCOD9347622 Si02
#       8
#     4   4   4   4   4   4   4   4
#     4   9  20  35  58  86 110 154 202 256 299 363
#     4   9  18  34  59  85 109 154 201 256 297 357
#     4  10  22  35  56  89 121 153 201 256 311 365
#     4  10  22  37  61  82 116 159 202 249 302 368
#     4   9  18  35  57  80 117 160 203 242 301 379
#     4   9  19  34  57  82 121 150 203 247 308 366
#     4  11  23  39  58  87 124 161 200 248 313 377
#     4   9  16  33  54  87 106 147 202 246 297 362
#
# _framework density 25.707777
#
# number of rings (size 3 to 8) (size 9 to 14) (size 15 to 20)
#    0.000    2.500    1.250    0.000    8.750    0.000 
#    0.000    6.875    0.000    0.750    0.000    0.000 
#    0.000    0.000    0.000    0.000    0.000    0.000 
#
# Total GULP energy -178437.720905 kJ/mol
# GULP energy per Si atom -5576.178778 kJ/mol
# Density = 2.564927 g / cm^3
# Si number density = 25.707777 Si / 1000 Ang^3
#
#
#
# Elastic Constant Matrix: (Units=GPa)
#
#
# Indices 1 2 3 4 5 6 
#
# 1 50.1579 26.4179 7.8250 0.0000 0.0000 0.0000
# 2 26.4179 164.9183 35.7019 0.0000 0.0000 0.0000
# 3 7.8250 35.7019 85.1105 0.0000 0.0000 0.0000
# 4 0.0000 0.0000 0.0000 49.4939 0.0000 0.0000
# 5 0.0000 0.0000 0.0000 0.0000 13.9407 0.0000
# 6 0.0000 0.0000 0.0000 0.0000 0.0000 33.9681
#
#
#
# Elastic Compliance Matrix: (Units=1/GPa)
#
#
# Indices 1 2 3 4 5 6 
#
# 1 0.021801 -0.003364 -0.000593 0.000000 0.000000 0.000000
# 2 -0.003364 0.007188 -0.002706 0.000000 0.000000 0.000000
# 3 -0.000593 -0.002706 0.012939 0.000000 0.000000 0.000000
# 4 0.000000 0.000000 0.000000 0.020205 0.000000 0.000000
# 5 0.000000 0.000000 0.000000 0.000000 0.071733 0.000000
# 6 0.000000 0.000000 0.000000 0.000000 0.000000 0.029439
#
#
# Mechanical properties :
#
#
# Convention : Reuss Voigt Hill
#
# Bulk Modulus (GPa) = 34.96233 48.89739 41.92986
# Shear Modulus (GPa) = 26.85778 34.82999 30.84389
#
# Velocity S-wave (km/s) = 3.23574 3.68481 3.46755
# Velocity P-wave (km/s) = 5.25257 6.09635 5.69012
#
# Compressibility (1/GPa) = 0.02860222
#
# Stress axis : x y z
#
# Youngs Moduli (GPa) = 45.86871 139.11558 77.28511
#
# Poissons Ratio (x) = 0.46797 0.04586
# Poissons Ratio (y) = 0.15430 0.20914
# Poissons Ratio (z) = 0.02722 0.37645
#
# Static dielectric constant tensor:
#      x y z
#    x 2.084270 0.000000 0.000000 
#    y 0.000000 2.168310 0.000000 
#    z 0.000000 0.000000 2.089660 
# 
# From -- ./inp_files/1331.got.cif
#   From: 2010.05.17/outbox.cif.g08.bks.cpg/sg34_1_cif.got.tgz:1331.got - 2010.06.03 17:23:11.
