data_PCOD9347878
_publ_section_title
;
Structure prediction by ZEFSAII (Michael W. Deem and Ramdas Pophale) SiO2 
 PCOD9347878
Probable space group: P N N 2
;
_chemical_formula_sum "Si O2"
_cell_formula_units_Z 18
_cell_length_a 5.033377
_cell_length_b 9.904086
_cell_length_c 16.016657
_cell_angle_alpha 90.000000
_cell_angle_beta 90.000000
_cell_angle_gamma 90.000000
_cell_volume 798.446347
_symmetry_space_group_name_H-M "P N N 2"
_symmetry_group_IT_number 34
_symmetry_cell_setting 'orthorhombic'
loop_
_space_group_symop_operation_xyz
x,y,z
-x,-y,z
1/2-x,1/2+y,1/2+z
1/2+x,1/2-y,1/2+z
loop_
_atom_site_type_symbol
_atom_site_label
_atom_site_fract_x
_atom_site_fract_y
_atom_site_fract_z
Si Si1 0.000000 0.500000 0.595290
Si Si2 0.803614 0.881668 0.943130
Si Si3 0.244331 0.908148 0.515356
Si Si4 0.434010 0.148257 0.775876
Si Si5 0.576312 0.736545 0.185509
O O1 0.780586 0.446739 0.531097
O O2 0.055629 0.373920 0.653344
O O3 0.857762 0.724075 0.965470
O O4 0.568147 0.859915 0.875917
O O5 0.000000 0.000000 0.908664
O O6 0.129067 0.850949 0.602652
O O7 0.500000 0.000000 0.529862
O O8 0.000000 0.000000 0.478596
O O9 0.646020 0.248269 0.734713
O O10 0.135091 0.175804 0.748623
O O11 0.500000 0.000000 0.742895
#
# Coordination Sequence:
#
# PCOD9347878 Si02
#       5
#     2   4   4   4   4
#     4  10  26  46  72 102 146 194 244 286 376 432
#     4  11  26  45  75 100 147 195 247 291 366 448
#     4  11  25  44  69 102 141 184 235 300 361 428
#     4  12  24  44  69 103 139 183 238 296 357 422
#     4  11  25  43  71 101 140 186 234 300 353 432
#
# _framework density 22.543780000000002
#
# number of rings (size 3 to 8) (size 9 to 14) (size 15 to 20)
#    0.000    0.889    1.111    5.333   12.444    0.000 
#    6.000    0.000    0.000    0.000    0.000    0.000 
#    0.000    0.000    0.000    0.000    0.000    0.000 
#
# Total GULP energy -100390.597288 kJ/mol
# GULP energy per Si atom -5577.255405 kJ/mol
# Density = 2.249247 g / cm^3
# Si number density = 22.543780 Si / 1000 Ang^3
#
#
#
# Elastic Constant Matrix: (Units=GPa)
#
#
# Indices 1 2 3 4 5 6 
#
# 1 83.0740 33.0743 2.1439 0.0000 0.0000 0.0000
# 2 33.0743 150.1873 31.9621 0.0000 0.0000 0.0000
# 3 2.1439 31.9621 62.7033 0.0000 0.0000 0.0000
# 4 0.0000 0.0000 0.0000 19.3401 0.0000 0.0000
# 5 0.0000 0.0000 0.0000 0.0000 23.2231 0.0000
# 6 0.0000 0.0000 0.0000 0.0000 0.0000 27.0027
#
#
#
# Elastic Compliance Matrix: (Units=1/GPa)
#
#
# Indices 1 2 3 4 5 6 
#
# 1 0.013269 -0.003169 0.001162 0.000000 0.000000 0.000000
# 2 -0.003169 0.008226 -0.004085 0.000000 0.000000 0.000000
# 3 0.001162 -0.004085 0.017990 0.000000 0.000000 0.000000
# 4 0.000000 0.000000 0.000000 0.051706 0.000000 0.000000
# 5 0.000000 0.000000 0.000000 0.000000 0.043061 0.000000
# 6 0.000000 0.000000 0.000000 0.000000 0.000000 0.037033
#
#
# Mechanical properties :
#
#
# Convention : Reuss Voigt Hill
#
# Bulk Modulus (GPa) = 36.62843 47.81392 42.22118
# Shear Modulus (GPa) = 25.96462 29.16547 27.56505
#
# Velocity S-wave (km/s) = 3.39741 3.60074 3.50055
# Velocity P-wave (km/s) = 5.62786 6.20826 5.92517
#
# Compressibility (1/GPa) = 0.02730120
#
# Stress axis : x y z
#
# Youngs Moduli (GPa) = 75.36175 121.57208 55.58518
#
# Poissons Ratio (x) = 0.38532 -0.06458
# Poissons Ratio (y) = 0.23885 0.22704
# Poissons Ratio (z) = -0.08756 0.49656
#
# Static dielectric constant tensor:
#      x y z
#    x 1.886860 0.000000 0.000000 
#    y 0.000000 1.894480 0.000000 
#    z 0.000000 0.000000 1.821380 
# 
# From -- ./inp_files/7101.got.cif
#   From: 2010.05.17/outbox.cif.g08.bks.cpg/sg34_4_cif.got.tgz:7101.got - 2010.06.03 17:23:11.
