data_PCOD9347248
_publ_section_title
;
Structure prediction by ZEFSAII (Michael W. Deem and Ramdas Pophale) SiO2 
 PCOD9347248
Probable space group: P N N 2
;
_chemical_formula_sum "Si O2"
_cell_formula_units_Z 24
_cell_length_a 16.354985
_cell_length_b 15.653160
_cell_length_c 5.136882
_cell_angle_alpha 90.000000
_cell_angle_beta 90.000000
_cell_angle_gamma 90.000000
_cell_volume 1315.078762
_symmetry_space_group_name_H-M "P N N 2"
_symmetry_group_IT_number 34
_symmetry_cell_setting 'orthorhombic'
loop_
_space_group_symop_operation_xyz
x,y,z
-x,-y,z
1/2-x,1/2+y,1/2+z
1/2+x,1/2-y,1/2+z
loop_
_atom_site_type_symbol
_atom_site_label
_atom_site_fract_x
_atom_site_fract_y
_atom_site_fract_z
Si Si1 0.343476 0.400273 0.623990
Si Si2 0.450228 0.912882 0.713167
Si Si3 0.519841 0.727671 0.726201
Si Si4 0.653760 0.130662 0.214905
Si Si5 0.583153 0.314889 0.228805
Si Si6 0.097995 0.997949 0.623264
O O1 0.391604 0.311661 0.673412
O O2 0.247549 0.391766 0.671577
O O3 0.363392 0.435585 0.337770
O O4 0.380347 0.465540 0.836683
O O5 0.509096 0.829461 0.698234
O O6 0.383903 0.902685 0.484387
O O7 0.500000 0.000000 0.689467
O O8 0.402267 0.906649 0.984696
O O9 0.459852 0.686394 0.509918
O O10 0.486310 0.700493 0.008813
O O11 0.641721 0.233151 0.211644
O O12 0.625303 0.404868 0.173334
O O13 0.000000 0.000000 0.657019
#
# Coordination Sequence:
#
# PCOD9347248 Si02
#       6
#     4   4   4   4   4   4
#     4  12  22  37  56  89 123 145 188 250 292 331
#     4  10  21  41  66  81 111 160 205 231 276 353
#     4  10  19  35  60  82 110 154 188 231 285 345
#     4  10  23  40  58  85 122 149 189 250 294 321
#     4  10  20  37  58  82 111 156 190 220 287 355
#     4  12  21  35  63  86 117 154 195 229 286 359
#
# _framework density 18.249856000000001
#
# number of rings (size 3 to 8) (size 9 to 14) (size 15 to 20)
#    0.000    1.333    3.333    3.000    0.000    0.000 
#    6.000    0.000    0.000    0.000    0.000    0.000 
#    0.000    0.000    0.000    0.000    0.000    0.000 
#
# Total GULP energy -134085.443011 kJ/mol
# GULP energy per Si atom -5586.893459 kJ/mol
# Density = 1.820832 g / cm^3
# Si number density = 18.249856 Si / 1000 Ang^3
#
#
#
# Elastic Constant Matrix: (Units=GPa)
#
#
# Indices 1 2 3 4 5 6 
#
# 1 61.6874 23.3869 -19.9816 0.0000 0.0000 0.0000
# 2 23.3869 76.7747 -16.0602 0.0000 0.0000 0.0000
# 3 -19.9816 -16.0602 54.8470 0.0000 0.0000 0.0000
# 4 0.0000 0.0000 0.0000 19.6344 0.0000 0.0000
# 5 0.0000 0.0000 0.0000 0.0000 16.7218 0.0000
# 6 0.0000 0.0000 0.0000 0.0000 0.0000 15.4330
#
#
#
# Elastic Compliance Matrix: (Units=1/GPa)
#
#
# Indices 1 2 3 4 5 6 
#
# 1 0.019944 -0.004853 0.005845 0.000000 0.000000 0.000000
# 2 -0.004853 0.015056 0.002641 0.000000 0.000000 0.000000
# 3 0.005845 0.002641 0.021135 0.000000 0.000000 0.000000
# 4 0.000000 0.000000 0.000000 0.050931 0.000000 0.000000
# 5 0.000000 0.000000 0.000000 0.000000 0.059802 0.000000
# 6 0.000000 0.000000 0.000000 0.000000 0.000000 0.064796
#
#
# Mechanical properties :
#
#
# Convention : Reuss Voigt Hill
#
# Bulk Modulus (GPa) = 15.77268 18.66659 17.21964
# Shear Modulus (GPa) = 20.36400 24.08878 22.22639
#
# Velocity S-wave (km/s) = 3.34405 3.63704 3.49362
# Velocity P-wave (km/s) = 4.85506 5.28091 5.07246
#
# Compressibility (1/GPa) = 0.06340078
#
# Stress axis : x y z
#
# Youngs Moduli (GPa) = 50.14109 66.42005 47.31445
#
# Poissons Ratio (x) = 0.32231 -0.27655
# Poissons Ratio (y) = 0.24331 -0.12494
# Poissons Ratio (z) = -0.29307 -0.17540
#
# Static dielectric constant tensor:
#      x y z
#    x 1.584050 0.000000 0.000000 
#    y 0.000000 1.642980 0.000000 
#    z 0.000000 0.000000 1.613520 
# 
# From -- ./inp_files/1219.got.cif
#   From: 2010.05.17/outbox.cif.g08.bks.cpg/sg34_1_cif.got.tgz:1219.got - 2010.06.03 17:23:11.
