data_PCOD9347580
_publ_section_title
;
Structure prediction by ZEFSAII (Michael W. Deem and Ramdas Pophale) SiO2 
 PCOD9347580
Probable space group: P N N 2
;
_chemical_formula_sum "Si O2"
_cell_formula_units_Z 24
_cell_length_a 28.051390
_cell_length_b 5.242499
_cell_length_c 7.206923
_cell_angle_alpha 90.000000
_cell_angle_beta 90.000000
_cell_angle_gamma 90.000000
_cell_volume 1059.845657
_symmetry_space_group_name_H-M "P N N 2"
_symmetry_group_IT_number 34
_symmetry_cell_setting 'orthorhombic'
loop_
_space_group_symop_operation_xyz
x,y,z
-x,-y,z
1/2-x,1/2+y,1/2+z
1/2+x,1/2-y,1/2+z
loop_
_atom_site_type_symbol
_atom_site_label
_atom_site_fract_x
_atom_site_fract_y
_atom_site_fract_z
Si Si1 0.403330 0.184913 0.481030
Si Si2 0.097002 0.908200 0.365674
Si Si3 0.000000 0.500000 0.794706
Si Si4 0.000000 0.000000 0.568976
Si Si5 0.144638 0.406267 0.301976
Si Si6 0.194498 0.823345 0.822381
Si Si7 0.771763 0.671633 0.045914
O O1 0.409747 0.393940 0.642625
O O2 0.362638 0.285786 0.341906
O O3 0.453691 0.101207 0.402414
O O4 0.381215 0.952515 0.601748
O O5 0.045337 0.905047 0.454038
O O6 0.128670 0.660479 0.406739
O O7 0.124598 0.165369 0.408134
O O8 0.983976 0.750281 0.681494
O O9 0.198331 0.367276 0.237360
O O10 0.217747 0.831988 0.618951
O O11 0.216519 0.570776 0.919100
O O12 0.210565 0.072233 0.942296
#
# Coordination Sequence:
#
# PCOD9347580 Si02
#       7
#     4   4   2   2   4   4   4
#     4   9  24  42  70  90 128 181 229 253 325 407
#     4  10  21  41  70  84 124 174 228 252 309 414
#     4  12  28  42  64 100 144 160 214 296 344 374
#     4  12  28  42  60 102 136 160 216 286 348 364
#     4   9  19  38  69  90 114 170 232 252 299 403
#     4  11  23  43  67 101 132 174 223 276 328 406
#     4  11  21  42  66  99 135 166 222 275 330 396
#
# _framework density 22.644808999999999
#
# number of rings (size 3 to 8) (size 9 to 14) (size 15 to 20)
#    1.000    0.667    1.667    2.000    4.667    0.000 
#    9.000    0.000    0.000    0.000    0.000    0.000 
#    0.000    0.000    0.000    0.000    0.000    0.000 
#
# Total GULP energy -133975.853159 kJ/mol
# GULP energy per Si atom -5582.327215 kJ/mol
# Density = 2.259327 g / cm^3
# Si number density = 22.644809 Si / 1000 Ang^3
#
#
#
# Elastic Constant Matrix: (Units=GPa)
#
#
# Indices 1 2 3 4 5 6 
#
# 1 145.9495 34.6282 36.2395 0.0000 0.0000 0.0000
# 2 34.6282 167.4260 19.9241 0.0000 0.0000 0.0000
# 3 36.2395 19.9241 35.0853 0.0000 0.0000 0.0000
# 4 0.0000 0.0000 0.0000 19.9998 0.0000 0.0000
# 5 0.0000 0.0000 0.0000 0.0000 78.1171 0.0000
# 6 0.0000 0.0000 0.0000 0.0000 0.0000 29.1903
#
#
#
# Elastic Compliance Matrix: (Units=1/GPa)
#
#
# Indices 1 2 3 4 5 6 
#
# 1 0.009324 -0.000839 -0.009154 0.000000 0.000000 0.000000
# 2 -0.000839 0.006481 -0.002814 0.000000 0.000000 0.000000
# 3 -0.009154 -0.002814 0.039555 0.000000 0.000000 0.000000
# 4 0.000000 0.000000 0.000000 0.050001 0.000000 0.000000
# 5 0.000000 0.000000 0.000000 0.000000 0.012801 0.000000
# 6 0.000000 0.000000 0.000000 0.000000 0.000000 0.034258
#
#
# Mechanical properties :
#
#
# Convention : Reuss Voigt Hill
#
# Bulk Modulus (GPa) = 33.61780 58.89383 46.25581
# Shear Modulus (GPa) = 26.60297 42.63935 34.62116
#
# Velocity S-wave (km/s) = 3.43124 4.34402 3.91433
# Velocity P-wave (km/s) = 5.52954 7.15715 6.39534
#
# Compressibility (1/GPa) = 0.02974615
#
# Stress axis : x y z
#
# Youngs Moduli (GPa) = 107.25354 154.29285 25.28126
#
# Poissons Ratio (x) = 0.12946 0.23142
# Poissons Ratio (y) = 0.08999 0.07114
# Poissons Ratio (z) = 0.98179 0.43416
#
# Static dielectric constant tensor:
#      x y z
#    x 1.815290 0.000000 0.000000 
#    y 0.000000 1.808830 0.000000 
#    z 0.000000 0.000000 1.857640 
# 
# From -- ./inp_files/4059.got.cif
#   From: 2010.05.17/outbox.cif.g08.bks.cpg/sg34_3_cif.got.tgz:4059.got - 2010.06.03 17:23:11.
