data_PCOD9347053
_publ_section_title
;
Structure prediction by ZEFSAII (Michael W. Deem and Ramdas Pophale) SiO2 
 PCOD9347053
Probable space group: P N A 21
;
_chemical_formula_sum "Si O2"
_cell_formula_units_Z 16
_cell_length_a 10.658192
_cell_length_b 7.797602
_cell_length_c 6.843865
_cell_angle_alpha 90.000000
_cell_angle_beta 90.000000
_cell_angle_gamma 90.000000
_cell_volume 568.782254
_symmetry_space_group_name_H-M "P N A 21"
_symmetry_group_IT_number 33
_symmetry_cell_setting 'orthorhombic'
loop_
_space_group_symop_operation_xyz
x,y,z
-x,-y,1/2+z
1/2-x,1/2+y,1/2+z
1/2+x,1/2-y,z
loop_
_atom_site_type_symbol
_atom_site_label
_atom_site_fract_x
_atom_site_fract_y
_atom_site_fract_z
Si Si1 0.954315 0.130220 0.455960
Si Si2 0.930593 0.235082 0.906793
Si Si3 0.321037 0.893064 0.385278
Si Si4 0.796378 0.730661 0.941091
O O1 0.064470 0.241522 0.356894
O O2 0.931198 0.206375 0.671754
O O3 0.818589 0.120743 0.355607
O O4 0.009947 0.942202 0.482577
O O5 0.784224 0.243035 0.963598
O O6 0.035405 0.375632 0.952333
O O7 0.265138 0.078973 0.432680
O O8 0.321566 0.849725 0.154539
#
# Coordination Sequence:
#
# PCOD9347053 Si02
#       4
#     4   4   4   4
#     4   9  18  34  52  75 107 141 181 229 276 326
#     4   9  18  34  52  75 107 141 181 229 276 326
#     4   9  18  34  54  77 108 145 184 227 277 332
#     4   9  18  34  54  77 108 145 184 227 277 332
#
# _framework density 28.130272999999999
#
# number of rings (size 3 to 8) (size 9 to 14) (size 15 to 20)
#    0.000    3.000    0.000    0.000    0.000    2.000 
#    0.000   30.000    0.000    0.000    0.000    0.000 
#    0.000    0.000    0.000    0.000    0.000    0.000 
#
# Total GULP energy -89387.908152 kJ/mol
# GULP energy per Si atom -5586.744260 kJ/mol
# Density = 2.806625 g / cm^3
# Si number density = 28.130273 Si / 1000 Ang^3
#
#
#
# Elastic Constant Matrix: (Units=GPa)
#
#
# Indices 1 2 3 4 5 6 
#
# 1 143.5543 29.3822 -15.6934 0.0000 0.0000 0.0000
# 2 29.3822 115.7626 18.0669 0.0000 0.0000 0.0000
# 3 -15.6934 18.0669 140.3834 0.0000 0.0000 0.0000
# 4 0.0000 0.0000 0.0000 8.8010 0.0000 0.0000
# 5 0.0000 0.0000 0.0000 0.0000 -6.8016 0.0000
# 6 0.0000 0.0000 0.0000 0.0000 0.0000 54.5477
#
#
#
# Elastic Compliance Matrix: (Units=1/GPa)
#
#
# Indices 1 2 3 4 5 6 
#
# 1 0.007513 -0.002080 0.001107 0.000000 0.000000 0.000000
# 2 -0.002080 0.009391 -0.001441 0.000000 0.000000 0.000000
# 3 0.001107 -0.001441 0.007433 0.000000 0.000000 0.000000
# 4 0.000000 0.000000 0.000000 0.113624 0.000000 0.000000
# 5 0.000000 0.000000 0.000000 0.000000 -0.147024 0.000000
# 6 0.000000 0.000000 0.000000 0.000000 0.000000 0.018333
#
#
# Mechanical properties :
#
#
# Convention : Reuss Voigt Hill
#
# Bulk Modulus (GPa) = 51.25597 51.46796 51.36197
# Shear Modulus (GPa) = 242.73222 35.83905 139.28564
#
# Velocity S-wave (km/s) = 9.29924 3.57324 7.04429
# Velocity P-wave (km/s) = 11.55689 5.94643 9.19026
#
# Compressibility (1/GPa) = 0.01950992
#
# Stress axis : x y z
#
# Youngs Moduli (GPa) = 133.10722 106.48339 134.54203
#
# Poissons Ratio (x) = 0.22145 -0.14900
# Poissons Ratio (y) = 0.27682 0.19389
# Poissons Ratio (z) = -0.14742 0.15345
#
# Static dielectric constant tensor:
#      x y z
#    x 2.276090 0.000000 0.000000 
#    y 0.000000 2.183050 0.000000 
#    z 0.000000 0.000000 2.233290 
# 
# From -- ./inp_files/2896.got.cif
#   From: 2010.05.17/outbox.cif.g08.bks.cpg/sg33_2_cif.got.tgz:2896.got - 2010.06.03 17:15:25.
