data_PCOD9347711
_publ_section_title
;
Structure prediction by ZEFSAII (Michael W. Deem and Ramdas Pophale) SiO2 
 PCOD9347711
Probable space group: P N N 2
;
_chemical_formula_sum "Si O2"
_cell_formula_units_Z 28
_cell_length_a 22.648785
_cell_length_b 8.291204
_cell_length_c 6.394981
_cell_angle_alpha 90.000000
_cell_angle_beta 90.000000
_cell_angle_gamma 90.000000
_cell_volume 1200.885963
_symmetry_space_group_name_H-M "P N N 2"
_symmetry_group_IT_number 34
_symmetry_cell_setting 'orthorhombic'
loop_
_space_group_symop_operation_xyz
x,y,z
-x,-y,z
1/2-x,1/2+y,1/2+z
1/2+x,1/2-y,1/2+z
loop_
_atom_site_type_symbol
_atom_site_label
_atom_site_fract_x
_atom_site_fract_y
_atom_site_fract_z
Si Si1 0.493356 0.294455 0.690600
Si Si2 0.390337 0.056352 0.175130
Si Si3 0.500000 0.000000 0.425660
Si Si4 0.406228 0.419544 0.351224
Si Si5 0.500000 0.500000 0.066877
Si Si6 0.806929 0.892145 0.665892
Si Si7 0.123501 0.315225 0.318261
Si Si8 0.789214 0.603779 0.939803
O O1 0.475171 0.131002 0.582508
O O2 0.553959 0.460200 0.212763
O O3 0.481151 0.353574 0.921884
O O4 0.564531 0.262071 0.714581
O O5 0.445322 0.958138 0.277636
O O6 0.330415 0.006848 0.292490
O O7 0.400948 0.244367 0.236617
O O8 0.387975 0.986404 0.939258
O O9 0.447557 0.407040 0.556413
O O10 0.343045 0.502777 0.337578
O O11 0.848550 0.799713 0.497499
O O12 0.765304 0.008130 0.533701
O O13 0.772358 0.756542 0.797154
O O14 0.170093 0.341335 0.133585
#
# Coordination Sequence:
#
# PCOD9347711 Si02
#       8
#     4   4   2   4   2   4   4   4
#     4  11  25  42  68 105 143 188 235 292 379 443
#     4  10  25  44  71 107 143 186 243 305 366 447
#     4  10  22  44  68 106 148 180 234 302 356 446
#     4  11  27  45  69 109 152 185 243 315 364 454
#     4  12  26  40  68 102 146 194 226 300 372 450
#     4  11  28  50  75 106 144 196 252 313 369 448
#     4  11  25  46  77 101 141 196 241 305 378 450
#     4  11  27  50  75 103 146 194 256 311 370 446
#
# _framework density 23.316119
#
# number of rings (size 3 to 8) (size 9 to 14) (size 15 to 20)
#    0.000    1.143    2.857    0.429   14.000    1.143 
#    0.000    0.000    0.000    0.000    0.000    0.000 
#    0.000    0.000    0.000    0.000    0.000    0.000 
#
# Total GULP energy -156106.617561 kJ/mol
# GULP energy per Si atom -5575.236341 kJ/mol
# Density = 2.326305 g / cm^3
# Si number density = 23.316119 Si / 1000 Ang^3
#
#
#
# Elastic Constant Matrix: (Units=GPa)
#
#
# Indices 1 2 3 4 5 6 
#
# 1 91.8069 29.3446 24.2588 0.0000 0.0000 0.0000
# 2 29.3446 87.0834 37.3839 0.0000 0.0000 0.0000
# 3 24.2588 37.3839 75.9958 0.0000 0.0000 0.0000
# 4 0.0000 0.0000 0.0000 20.0076 0.0000 0.0000
# 5 0.0000 0.0000 0.0000 0.0000 19.9872 0.0000
# 6 0.0000 0.0000 0.0000 0.0000 0.0000 30.7946
#
#
#
# Elastic Compliance Matrix: (Units=1/GPa)
#
#
# Indices 1 2 3 4 5 6 
#
# 1 0.012555 -0.003182 -0.002442 0.000000 0.000000 0.000000
# 2 -0.003182 0.015364 -0.006542 0.000000 0.000000 0.000000
# 3 -0.002442 -0.006542 0.017156 0.000000 0.000000 0.000000
# 4 0.000000 0.000000 0.000000 0.049981 0.000000 0.000000
# 5 0.000000 0.000000 0.000000 0.000000 0.050032 0.000000
# 6 0.000000 0.000000 0.000000 0.000000 0.000000 0.032473
#
#
# Mechanical properties :
#
#
# Convention : Reuss Voigt Hill
#
# Bulk Modulus (GPa) = 48.21090 48.54008 48.37549
# Shear Modulus (GPa) = 23.94534 25.08446 24.51490
#
# Velocity S-wave (km/s) = 3.20814 3.28356 3.24607
# Velocity P-wave (km/s) = 5.86897 5.93626 5.90271
#
# Compressibility (1/GPa) = 0.02074220
#
# Stress axis : x y z
#
# Youngs Moduli (GPa) = 79.65009 65.08728 58.28721
#
# Poissons Ratio (x) = 0.20712 0.14235
# Poissons Ratio (y) = 0.25346 0.38132
# Poissons Ratio (z) = 0.19453 0.42581
#
# Static dielectric constant tensor:
#      x y z
#    x 1.856180 0.000000 0.000000 
#    y 0.000000 1.935210 0.000000 
#    z 0.000000 0.000000 1.864380 
# 
# From -- ./inp_files/1766.got.cif
#   From: 2010.05.17/outbox.cif.g08.bks.cpg/sg34_1_cif.got.tgz:1766.got - 2010.06.03 17:23:11.
