data_PCOD9347566
_publ_section_title
;
Structure prediction by ZEFSAII (Michael W. Deem and Ramdas Pophale) SiO2 
 PCOD9347566
Probable space group: P N N 2
;
_chemical_formula_sum "Si O2"
_cell_formula_units_Z 22
_cell_length_a 5.038429
_cell_length_b 24.169030
_cell_length_c 8.666279
_cell_angle_alpha 90.000000
_cell_angle_beta 90.000000
_cell_angle_gamma 90.000000
_cell_volume 1055.326953
_symmetry_space_group_name_H-M "P N N 2"
_symmetry_group_IT_number 34
_symmetry_cell_setting 'orthorhombic'
loop_
_space_group_symop_operation_xyz
x,y,z
-x,-y,z
1/2-x,1/2+y,1/2+z
1/2+x,1/2-y,1/2+z
loop_
_atom_site_type_symbol
_atom_site_label
_atom_site_fract_x
_atom_site_fract_y
_atom_site_fract_z
Si Si1 0.614010 0.811112 0.613020
Si Si2 0.500000 0.000000 0.882160
Si Si3 0.918391 0.729231 0.820621
Si Si4 0.700255 0.114338 0.836338
Si Si5 0.283567 0.594884 0.526378
Si Si6 0.604572 0.342129 0.817765
O O1 0.806371 0.781288 0.732430
O O2 0.495624 0.764037 0.499692
O O3 0.387900 0.844645 0.702099
O O4 0.780048 0.849091 0.491566
O O5 0.285418 0.031160 0.988972
O O6 0.631634 0.050622 0.790279
O O7 0.688393 0.682775 0.820242
O O8 0.190220 0.704479 0.754087
O O9 0.491719 0.124409 0.976763
O O10 0.990580 0.114941 0.907843
O O11 0.368119 0.607681 0.699691
#
# Coordination Sequence:
#
# PCOD9347566 Si02
#       6
#     4   2   4   4   4   4
#     4  10  26  42  65  92 132 176 218 267 320 389
#     4   8  22  38  68  96 130 160 218 264 338 392
#     4  10  25  38  65  90 132 169 219 263 320 380
#     4  10  22  38  69  93 128 169 214 268 324 391
#     4  10  21  40  67  94 126 166 213 267 326 389
#     4  10  24  41  62  95 126 174 211 270 314 387
#
# _framework density 20.846619
#
# number of rings (size 3 to 8) (size 9 to 14) (size 15 to 20)
#    2.182    0.000    0.000    1.636    7.636    1.455 
#    0.000    0.909    0.000    0.000    0.000    0.000 
#    0.000    0.000    0.000    0.000    0.000    0.000 
#
# Total GULP energy -122509.543320 kJ/mol
# GULP energy per Si atom -5568.615605 kJ/mol
# Density = 2.079917 g / cm^3
# Si number density = 20.846619 Si / 1000 Ang^3
#
#
#
# Elastic Constant Matrix: (Units=GPa)
#
#
# Indices 1 2 3 4 5 6 
#
# 1 85.7208 3.3798 0.5632 0.0000 0.0000 0.0000
# 2 3.3798 55.5597 36.2628 0.0000 0.0000 0.0000
# 3 0.5632 36.2628 70.6641 0.0000 0.0000 0.0000
# 4 0.0000 0.0000 0.0000 29.3075 0.0000 0.0000
# 5 0.0000 0.0000 0.0000 0.0000 14.8984 0.0000
# 6 0.0000 0.0000 0.0000 0.0000 0.0000 28.9551
#
#
#
# Elastic Compliance Matrix: (Units=1/GPa)
#
#
# Indices 1 2 3 4 5 6 
#
# 1 0.011702 -0.000979 0.000409 0.000000 0.000000 0.000000
# 2 -0.000979 0.027145 -0.013922 0.000000 0.000000 0.000000
# 3 0.000409 -0.013922 0.021293 0.000000 0.000000 0.000000
# 4 0.000000 0.000000 0.000000 0.034121 0.000000 0.000000
# 5 0.000000 0.000000 0.000000 0.000000 0.067122 0.000000
# 6 0.000000 0.000000 0.000000 0.000000 0.000000 0.034536
#
#
# Mechanical properties :
#
#
# Convention : Reuss Voigt Hill
#
# Bulk Modulus (GPa) = 32.09723 32.48404 32.29064
# Shear Modulus (GPa) = 21.25062 26.08143 23.66603
#
# Velocity S-wave (km/s) = 3.19624 3.54094 3.37300
# Velocity P-wave (km/s) = 5.38995 5.68629 5.54010
#
# Compressibility (1/GPa) = 0.03115533
#
# Stress axis : x y z
#
# Youngs Moduli (GPa) = 85.45779 36.83919 46.96447
#
# Poissons Ratio (x) = 0.03606 -0.01921
# Poissons Ratio (y) = 0.08365 0.65385
# Poissons Ratio (z) = -0.03496 0.51288
#
# Static dielectric constant tensor:
#      x y z
#    x 1.762010 0.000000 0.000000 
#    y 0.000000 1.772530 0.000000 
#    z 0.000000 0.000000 1.747950 
# 
# From -- ./inp_files/2140.got.cif
#   From: 2010.05.17/outbox.cif.g08.bks.cpg/sg34_2_cif.got.tgz:2140.got - 2010.06.03 17:23:11.
