data_PCOD9347252
_publ_section_title
;
Structure prediction by ZEFSAII (Michael W. Deem and Ramdas Pophale) SiO2 
 PCOD9347252
Probable space group: P N N 2
;
_chemical_formula_sum "Si O2"
_cell_formula_units_Z 32
_cell_length_a 9.264135
_cell_length_b 14.406462
_cell_length_c 12.503352
_cell_angle_alpha 90.000000
_cell_angle_beta 90.000000
_cell_angle_gamma 90.000000
_cell_volume 1668.739980
_symmetry_space_group_name_H-M "P N N 2"
_symmetry_group_IT_number 34
_symmetry_cell_setting 'orthorhombic'
loop_
_space_group_symop_operation_xyz
x,y,z
-x,-y,z
1/2-x,1/2+y,1/2+z
1/2+x,1/2-y,1/2+z
loop_
_atom_site_type_symbol
_atom_site_label
_atom_site_fract_x
_atom_site_fract_y
_atom_site_fract_z
Si Si1 0.963159 0.183627 0.519480
Si Si2 0.764978 0.415076 0.013368
Si Si3 0.516390 0.800098 0.376185
Si Si4 0.162941 0.956902 0.684283
Si Si5 0.101967 0.909396 0.912389
Si Si6 0.918308 0.363130 0.640996
Si Si7 0.732739 0.045606 0.122901
Si Si8 0.285155 0.409969 0.855654
O O1 0.862882 0.127877 0.603824
O O2 0.932521 0.288177 0.548332
O O3 0.913756 0.148944 0.404913
O O4 0.128533 0.152782 0.530271
O O5 0.770545 0.471900 0.125243
O O6 0.896816 0.355296 0.968468
O O7 0.733017 0.494854 0.923960
O O8 0.521135 0.689467 0.397123
O O9 0.591297 0.819769 0.260375
O O10 0.359135 0.847494 0.369009
O O11 0.195314 0.926054 0.804331
O O12 0.000000 0.000000 0.688131
O O13 0.195860 0.910329 0.019344
O O14 0.000000 0.000000 0.921376
O O15 0.791716 0.435286 0.616588
O O16 0.072687 0.414021 0.639743
O O17 0.812819 0.067680 0.232818
#
# Coordination Sequence:
#
# PCOD9347252 Si02
#       8
#     4   4   4   4   4   4   4   4
#     4  10  19  35  62  88 119 151 204 248 294 358
#     4  10  19  36  64  92 117 152 207 255 292 354
#     4  11  21  38  63  89 119 161 204 243 301 366
#     4   8  17  34  56  84 112 153 191 238 290 348
#     4  11  23  38  58  88 126 162 196 247 304 366
#     4  10  20  39  62  84 115 167 205 236 301 372
#     4  10  22  39  60  84 122 161 202 247 301 364
#     4  10  21  37  62  93 119 154 201 257 302 348
#
# _framework density 19.176144000000001
#
# number of rings (size 3 to 8) (size 9 to 14) (size 15 to 20)
#    0.000    2.000    2.500    2.250    1.750    1.000 
#    0.000    0.000   13.750    0.000    0.000    0.000 
#    0.000    0.000    0.000    0.000    0.000    0.000 
#
# Total GULP energy -178374.654900 kJ/mol
# GULP energy per Si atom -5574.207966 kJ/mol
# Density = 1.913250 g / cm^3
# Si number density = 19.176144 Si / 1000 Ang^3
#
#
#
# Elastic Constant Matrix: (Units=GPa)
#
#
# Indices 1 2 3 4 5 6 
#
# 1 18.1264 6.2134 6.6805 0.0000 0.0000 0.0000
# 2 6.2134 105.0926 25.9371 0.0000 0.0000 0.0000
# 3 6.6805 25.9371 111.9686 0.0000 0.0000 0.0000
# 4 0.0000 0.0000 0.0000 46.0846 0.0000 0.0000
# 5 0.0000 0.0000 0.0000 0.0000 24.0937 0.0000
# 6 0.0000 0.0000 0.0000 0.0000 0.0000 20.8970
#
#
#
# Elastic Compliance Matrix: (Units=1/GPa)
#
#
# Indices 1 2 3 4 5 6 
#
# 1 0.057116 -0.002690 -0.002785 0.000000 0.000000 0.000000
# 2 -0.002690 0.010219 -0.002207 0.000000 0.000000 0.000000
# 3 -0.002785 -0.002207 0.009608 0.000000 0.000000 0.000000
# 4 0.000000 0.000000 0.000000 0.021699 0.000000 0.000000
# 5 0.000000 0.000000 0.000000 0.000000 0.041505 0.000000
# 6 0.000000 0.000000 0.000000 0.000000 0.000000 0.047854
#
#
# Mechanical properties :
#
#
# Convention : Reuss Voigt Hill
#
# Bulk Modulus (GPa) = 16.23863 34.76109 25.49986
# Shear Modulus (GPa) = 22.33232 31.30550 26.81891
#
# Velocity S-wave (km/s) = 3.41631 4.04483 3.74378
# Velocity P-wave (km/s) = 4.90388 6.32304 5.65813
#
# Compressibility (1/GPa) = 0.06158153
#
# Stress axis : x y z
#
# Youngs Moduli (GPa) = 17.50814 97.85629 104.07557
#
# Poissons Ratio (x) = 0.26320 0.28982
# Poissons Ratio (y) = 0.04709 0.22967
# Poissons Ratio (z) = 0.04876 0.21594
#
# Static dielectric constant tensor:
#      x y z
#    x 1.661930 0.000000 0.000000 
#    y 0.000000 1.704900 0.000000 
#    z 0.000000 0.000000 1.682120 
# 
# From -- ./inp_files/5085.got.cif
#   From: 2010.05.17/outbox.cif.g08.bks.cpg/sg34_3_cif.got.tgz:5085.got - 2010.06.03 17:23:11.
