data_PCOD9347113
_publ_section_title
;
Structure prediction by ZEFSAII (Michael W. Deem and Ramdas Pophale) SiO2 
 PCOD9347113
Probable space group: P N N 2
;
_chemical_formula_sum "Si O2"
_cell_formula_units_Z 22
_cell_length_a 7.662821
_cell_length_b 13.146568
_cell_length_c 9.551976
_cell_angle_alpha 90.000000
_cell_angle_beta 90.000000
_cell_angle_gamma 90.000000
_cell_volume 962.264127
_symmetry_space_group_name_H-M "P N N 2"
_symmetry_group_IT_number 34
_symmetry_cell_setting 'orthorhombic'
loop_
_space_group_symop_operation_xyz
x,y,z
-x,-y,z
1/2-x,1/2+y,1/2+z
1/2+x,1/2-y,1/2+z
loop_
_atom_site_type_symbol
_atom_site_label
_atom_site_fract_x
_atom_site_fract_y
_atom_site_fract_z
Si Si1 0.806900 0.631082 0.329640
Si Si2 0.209192 0.350887 0.004641
Si Si3 0.086297 0.132079 0.564020
Si Si4 0.000000 0.000000 0.821913
Si Si5 0.911655 0.339343 0.544235
Si Si6 0.363277 0.140400 0.341859
O O1 0.661044 0.555729 0.393497
O O2 0.987618 0.618016 0.411340
O O3 0.717487 0.743973 0.334194
O O4 0.835568 0.616125 0.163488
O O5 0.058880 0.371553 0.896609
O O6 0.405030 0.392171 0.982842
O O7 0.244710 0.228631 0.003406
O O8 0.056686 0.252857 0.590814
O O9 0.244269 0.099443 0.467330
O O10 0.083813 0.080892 0.714215
O O11 0.860220 0.400050 0.683001
#
# Coordination Sequence:
#
# PCOD9347113 Si02
#       6
#     4   4   4   2   4   4
#     4   9  18  33  52  86 109 142 190 231 285 342
#     4   8  17  30  52  76 111 133 184 232 265 328
#     4   8  18  31  51  83 108 144 187 228 279 341
#     4  10  16  36  56  80 122 148 190 248 290 338
#     4   8  17  32  49  84 112 132 191 237 260 342
#     4  10  16  33  54  82 107 144 190 231 275 334
#
# _framework density 22.862746000000001
#
# number of rings (size 3 to 8) (size 9 to 14) (size 15 to 20)
#    1.091    2.182    1.818    0.000    0.000    2.909 
#    0.000    3.636    0.000    4.364   18.909    0.000 
#    0.000    0.000    0.000    0.000    0.000    0.000 
#
# Total GULP energy -122467.860711 kJ/mol
# GULP energy per Si atom -5566.720941 kJ/mol
# Density = 2.281071 g / cm^3
# Si number density = 22.862746 Si / 1000 Ang^3
#
#
#
# Elastic Constant Matrix: (Units=GPa)
#
#
# Indices 1 2 3 4 5 6 
#
# 1 82.8847 -24.2162 35.9853 0.0000 0.0000 0.0000
# 2 -24.2162 30.9373 -15.2573 0.0000 0.0000 0.0000
# 3 35.9853 -15.2573 61.2265 0.0000 0.0000 0.0000
# 4 0.0000 0.0000 0.0000 8.2091 0.0000 0.0000
# 5 0.0000 0.0000 0.0000 0.0000 39.1780 0.0000
# 6 0.0000 0.0000 0.0000 0.0000 0.0000 20.3671
#
#
#
# Elastic Compliance Matrix: (Units=1/GPa)
#
#
# Indices 1 2 3 4 5 6 
#
# 1 0.018809 0.010570 -0.008421 0.000000 0.000000 0.000000
# 2 0.010570 0.042792 0.004451 0.000000 0.000000 0.000000
# 3 -0.008421 0.004451 0.022391 0.000000 0.000000 0.000000
# 4 0.000000 0.000000 0.000000 0.121816 0.000000 0.000000
# 5 0.000000 0.000000 0.000000 0.000000 0.025525 0.000000
# 6 0.000000 0.000000 0.000000 0.000000 0.000000 0.049099
#
#
# Mechanical properties :
#
#
# Convention : Reuss Voigt Hill
#
# Bulk Modulus (GPa) = 10.28878 18.67467 14.48173
# Shear Modulus (GPa) = 16.68725 25.45328 21.07026
#
# Velocity S-wave (km/s) = 2.70458 3.34025 3.03908
# Velocity P-wave (km/s) = 3.77664 4.80232 4.32002
#
# Compressibility (1/GPa) = 0.09719329
#
# Stress axis : x y z
#
# Youngs Moduli (GPa) = 53.16552 23.36870 44.66006
#
# Poissons Ratio (x) = -0.24701 0.37608
# Poissons Ratio (y) = -0.56196 -0.19879
# Poissons Ratio (z) = 0.44770 -0.10402
#
# Static dielectric constant tensor:
#      x y z
#    x 1.839200 0.000000 0.000000 
#    y 0.000000 2.082640 0.000000 
#    z 0.000000 0.000000 1.834030 
# 
# From -- ./inp_files/2563.got.cif
#   From: 2010.05.17/outbox.cif.g08.bks.cpg/sg34_2_cif.got.tgz:2563.got - 2010.06.03 17:23:11.
