data_PCOD9347562
_publ_section_title
;
Structure prediction by ZEFSAII (Michael W. Deem and Ramdas Pophale) SiO2 
 PCOD9347562
Probable space group: P N N 2
;
_chemical_formula_sum "Si O2"
_cell_formula_units_Z 30
_cell_length_a 15.773783
_cell_length_b 10.393685
_cell_length_c 8.921235
_cell_angle_alpha 90.000000
_cell_angle_beta 90.000000
_cell_angle_gamma 90.000000
_cell_volume 1462.616243
_symmetry_space_group_name_H-M "P N N 2"
_symmetry_group_IT_number 34
_symmetry_cell_setting 'orthorhombic'
loop_
_space_group_symop_operation_xyz
x,y,z
-x,-y,z
1/2-x,1/2+y,1/2+z
1/2+x,1/2-y,1/2+z
loop_
_atom_site_type_symbol
_atom_site_label
_atom_site_fract_x
_atom_site_fract_y
_atom_site_fract_z
Si Si1 0.235200 0.355335 0.347700
Si Si2 0.102890 0.476961 0.895206
Si Si3 0.116851 0.749854 0.012697
Si Si4 0.950427 0.869161 0.884239
Si Si5 0.197894 0.234313 0.040786
Si Si6 0.000000 0.500000 0.441206
Si Si7 0.833418 0.371878 0.314249
Si Si8 0.894892 0.680576 0.618613
O O1 0.326681 0.347609 0.420599
O O2 0.220981 0.256921 0.212087
O O3 0.223048 0.500363 0.284853
O O4 0.172775 0.313000 0.485007
O O5 0.139182 0.611196 0.945049
O O6 0.129400 0.436800 0.728425
O O7 0.000000 0.500000 0.903854
O O8 0.145466 0.363105 0.991700
O O9 0.020236 0.783407 0.973599
O O10 0.144092 0.729797 0.184516
O O11 0.916705 0.797172 0.732224
O O12 0.870541 0.874647 0.996642
O O13 0.000000 0.000000 0.849560
O O14 0.282249 0.203539 0.944185
O O15 0.920798 0.447906 0.348781
O O16 0.977928 0.624318 0.540155
#
# Coordination Sequence:
#
# PCOD9347562 Si02
#       8
#     4   4   4   4   4   2   4   4
#     4  11  26  41  67  99 136 177 231 286 359 412
#     4  11  20  39  70  99 130 179 228 281 343 418
#     4  12  23  40  70  99 130 186 231 278 358 425
#     4  11  24  43  68  93 141 181 225 281 363 420
#     4  11  24  45  66  98 141 177 228 300 346 416
#     4  10  22  38  74 100 122 174 238 286 336 406
#     4  11  26  44  69 100 142 177 237 295 347 417
#     4  10  21  40  65  96 131 174 226 286 337 423
#
# _framework density 20.511189000000002
#
# number of rings (size 3 to 8) (size 9 to 14) (size 15 to 20)
#    0.000    1.067    4.667    2.400   10.267    0.000 
#    2.400    0.667    0.000    0.000    0.000    0.000 
#    0.000    0.000    0.000    0.000    0.000    0.000 
#
# Total GULP energy -167076.072261 kJ/mol
# GULP energy per Si atom -5569.202409 kJ/mol
# Density = 2.046450 g / cm^3
# Si number density = 20.511189 Si / 1000 Ang^3
#
#
#
# Elastic Constant Matrix: (Units=GPa)
#
#
# Indices 1 2 3 4 5 6 
#
# 1 99.1597 23.0713 55.4640 0.0000 0.0000 0.0000
# 2 23.0713 63.7697 14.5196 0.0000 0.0000 0.0000
# 3 55.4640 14.5196 112.0740 0.0000 0.0000 0.0000
# 4 0.0000 0.0000 0.0000 19.8157 0.0000 0.0000
# 5 0.0000 0.0000 0.0000 0.0000 9.9300 0.0000
# 6 0.0000 0.0000 0.0000 0.0000 0.0000 31.3759
#
#
#
# Elastic Compliance Matrix: (Units=1/GPa)
#
#
# Indices 1 2 3 4 5 6 
#
# 1 0.014786 -0.003795 -0.006825 0.000000 0.000000 0.000000
# 2 -0.003795 0.017132 -0.000341 0.000000 0.000000 0.000000
# 3 -0.006825 -0.000341 0.012345 0.000000 0.000000 0.000000
# 4 0.000000 0.000000 0.000000 0.050465 0.000000 0.000000
# 5 0.000000 0.000000 0.000000 0.000000 0.100705 0.000000
# 6 0.000000 0.000000 0.000000 0.000000 0.000000 0.031872
#
#
# Mechanical properties :
#
#
# Convention : Reuss Voigt Hill
#
# Bulk Modulus (GPa) = 44.76590 51.23479 48.00035
# Shear Modulus (GPa) = 19.47993 24.35420 21.91707
#
# Velocity S-wave (km/s) = 3.08510 3.44955 3.27240
# Velocity P-wave (km/s) = 5.87903 6.39524 6.14256
#
# Compressibility (1/GPa) = 0.02233843
#
# Stress axis : x y z
#
# Youngs Moduli (GPa) = 67.63368 58.36959 81.00606
#
# Poissons Ratio (x) = 0.22152 0.55291
# Poissons Ratio (y) = 0.25668 0.02765
# Poissons Ratio (z) = 0.46163 0.01993
#
# Static dielectric constant tensor:
#      x y z
#    x 1.798660 0.000000 0.000000 
#    y 0.000000 1.798900 0.000000 
#    z 0.000000 0.000000 1.771320 
# 
# From -- ./inp_files/3654.got.cif
#   From: 2010.05.17/outbox.cif.g08.bks.cpg/sg34_2_cif.got.tgz:3654.got - 2010.06.03 17:23:11.
