data_PCOD9347589
_publ_section_title
;
Structure prediction by ZEFSAII (Michael W. Deem and Ramdas Pophale) SiO2 
 PCOD9347589
Probable space group: P N N 2
;
_chemical_formula_sum "Si O2"
_cell_formula_units_Z 30
_cell_length_a 15.094432
_cell_length_b 12.225186
_cell_length_c 7.679131
_cell_angle_alpha 90.000000
_cell_angle_beta 90.000000
_cell_angle_gamma 90.000000
_cell_volume 1417.047235
_symmetry_space_group_name_H-M "P N N 2"
_symmetry_group_IT_number 34
_symmetry_cell_setting 'orthorhombic'
loop_
_space_group_symop_operation_xyz
x,y,z
-x,-y,z
1/2-x,1/2+y,1/2+z
1/2+x,1/2-y,1/2+z
loop_
_atom_site_type_symbol
_atom_site_label
_atom_site_fract_x
_atom_site_fract_y
_atom_site_fract_z
Si Si1 0.794147 0.635408 0.406610
Si Si2 0.094967 0.144954 0.408583
Si Si3 0.579693 0.928815 0.365190
Si Si4 0.088217 0.550507 0.274612
Si Si5 0.102458 0.792970 0.287645
Si Si6 0.769454 0.021355 0.262336
Si Si7 0.895517 0.191102 0.867228
Si Si8 0.000000 0.000000 0.685988
O O1 0.855097 0.740832 0.450555
O O2 0.842622 0.546782 0.288588
O O3 0.761311 0.567178 0.574915
O O4 0.706341 0.679155 0.315168
O O5 0.072732 0.064347 0.569315
O O6 0.996639 0.172179 0.339642
O O7 0.157784 0.076105 0.276338
O O8 0.567405 0.924243 0.573606
O O9 0.571180 0.806339 0.295434
O O10 0.500000 0.000000 0.290863
O O11 0.677630 0.977465 0.340797
O O12 0.117721 0.668014 0.346562
O O13 0.000000 0.500000 0.359056
O O14 0.178789 0.876052 0.349928
O O15 0.104095 0.802301 0.077292
O O16 0.951747 0.090472 0.801020
#
# Coordination Sequence:
#
# PCOD9347589 Si02
#       8
#     4   4   4   4   4   4   4   2
#     4  11  25  42  68  97 136 172 227 276 330 410
#     4  12  24  46  68  99 138 176 219 281 336 396
#     4  10  23  44  65  92 136 175 219 276 342 398
#     4  10  21  42  66  96 128 174 220 270 333 405
#     4  10  22  44  70  93 136 177 218 274 344 398
#     4  11  24  43  65  97 133 180 217 277 333 396
#     4  10  25  44  64  96 131 174 225 279 330 399
#     4  12  28  40  72 100 132 178 234 280 328 408
#
# _framework density 21.170781999999999
#
# number of rings (size 3 to 8) (size 9 to 14) (size 15 to 20)
#    0.000    1.333    4.000    0.000    7.467    1.600 
#    2.400    0.000    0.000    0.000    0.000    0.000 
#    0.000    0.000    0.000    0.000    0.000    0.000 
#
# Total GULP energy -167414.568916 kJ/mol
# GULP energy per Si atom -5580.485631 kJ/mol
# Density = 2.112260 g / cm^3
# Si number density = 21.170782 Si / 1000 Ang^3
#
#
#
# Elastic Constant Matrix: (Units=GPa)
#
#
# Indices 1 2 3 4 5 6 
#
# 1 111.0536 70.4299 -7.4638 0.0000 0.0000 0.0000
# 2 70.4299 192.9939 18.0685 0.0000 0.0000 0.0000
# 3 -7.4638 18.0685 21.9114 0.0000 0.0000 0.0000
# 4 0.0000 0.0000 0.0000 6.3370 0.0000 0.0000
# 5 0.0000 0.0000 0.0000 0.0000 21.4869 0.0000
# 6 0.0000 0.0000 0.0000 0.0000 0.0000 39.6676
#
#
#
# Elastic Compliance Matrix: (Units=1/GPa)
#
#
# Indices 1 2 3 4 5 6 
#
# 1 0.013231 -0.005690 0.009199 0.000000 0.000000 0.000000
# 2 -0.005690 0.008062 -0.008586 0.000000 0.000000 0.000000
# 3 0.009199 -0.008586 0.055852 0.000000 0.000000 0.000000
# 4 0.000000 0.000000 0.000000 0.157804 0.000000 0.000000
# 5 0.000000 0.000000 0.000000 0.000000 0.046540 0.000000
# 6 0.000000 0.000000 0.000000 0.000000 0.000000 0.025209
#
#
# Mechanical properties :
#
#
# Convention : Reuss Voigt Hill
#
# Bulk Modulus (GPa) = 14.92725 54.22534 34.57629
# Shear Modulus (GPa) = 14.74133 29.82660 22.28396
#
# Velocity S-wave (km/s) = 2.64162 3.75755 3.24787
# Velocity P-wave (km/s) = 4.04604 6.67041 5.51656
#
# Compressibility (1/GPa) = 0.06699159
#
# Stress axis : x y z
#
# Youngs Moduli (GPa) = 75.57801 124.04265 17.90443
#
# Poissons Ratio (x) = 0.70578 -0.16470
# Poissons Ratio (y) = 0.43002 0.15373
# Poissons Ratio (z) = -0.69524 1.06503
#
# Static dielectric constant tensor:
#      x y z
#    x 1.716020 0.000000 0.000000 
#    y 0.000000 1.802140 0.000000 
#    z 0.000000 0.000000 1.792370 
# 
# From -- ./inp_files/3642.got.cif
#   From: 2010.05.17/outbox.cif.g08.bks.cpg/sg34_2_cif.got.tgz:3642.got - 2010.06.03 17:23:11.
