data_PCOD9347753
_publ_section_title
;
Structure prediction by ZEFSAII (Michael W. Deem and Ramdas Pophale) SiO2 
 PCOD9347753
Probable space group: P N N 2
;
_chemical_formula_sum "Si O2"
_cell_formula_units_Z 24
_cell_length_a 9.310916
_cell_length_b 11.879262
_cell_length_c 8.619721
_cell_angle_alpha 90.000000
_cell_angle_beta 90.000000
_cell_angle_gamma 90.000000
_cell_volume 953.399848
_symmetry_space_group_name_H-M "P N N 2"
_symmetry_group_IT_number 34
_symmetry_cell_setting 'orthorhombic'
loop_
_space_group_symop_operation_xyz
x,y,z
-x,-y,z
1/2-x,1/2+y,1/2+z
1/2+x,1/2-y,1/2+z
loop_
_atom_site_type_symbol
_atom_site_label
_atom_site_fract_x
_atom_site_fract_y
_atom_site_fract_z
Si Si1 0.047870 0.114724 0.523370
Si Si2 0.464034 0.164564 0.629350
Si Si3 0.192357 0.587190 0.833431
Si Si4 0.854660 0.075326 0.117342
Si Si5 0.274459 0.570128 0.334409
Si Si6 0.765252 0.248001 0.574903
O O1 0.902580 0.180926 0.522959
O O2 0.173796 0.153600 0.413119
O O3 0.118311 0.081693 0.688355
O O4 0.000000 0.000000 0.448096
O O5 0.423402 0.102093 0.468163
O O6 0.397084 0.292892 0.629609
O O7 0.382058 0.095422 0.762984
O O8 0.635779 0.173873 0.642314
O O9 0.244690 0.470118 0.752392
O O10 0.159641 0.663230 0.688082
O O11 0.000000 0.000000 0.124759
O O12 0.792260 0.037600 0.947159
O O13 0.307694 0.677562 0.442254
#
# Coordination Sequence:
#
# PCOD9347753 Si02
#       6
#     4   4   4   4   4   4
#     4  11  24  40  70  98 131 183 221 276 348 419
#     4  11  23  43  70 100 139 177 227 299 340 397
#     4  10  23  40  66 104 132 180 230 280 342 414
#     4  11  21  43  73 101 128 187 234 271 353 421
#     4  10  23  40  66 104 132 180 230 280 342 414
#     4  11  22  39  69  94 136 170 228 281 341 400
#
# _framework density 25.173069000000002
#
# number of rings (size 3 to 8) (size 9 to 14) (size 15 to 20)
#    0.000    1.333    3.333    3.000    4.667    0.000 
#    0.000    3.333   14.667   10.000    0.000    0.000 
#    0.000    0.000    0.000    0.000    0.000    0.000 
#
# Total GULP energy -134113.156477 kJ/mol
# GULP energy per Si atom -5588.048187 kJ/mol
# Density = 2.511577 g / cm^3
# Si number density = 25.173069 Si / 1000 Ang^3
#
#
#
# Elastic Constant Matrix: (Units=GPa)
#
#
# Indices 1 2 3 4 5 6 
#
# 1 62.7125 39.7838 0.0550 0.0000 0.0000 0.0000
# 2 39.7838 119.9728 21.3270 0.0000 0.0000 0.0000
# 3 0.0550 21.3270 112.3514 0.0000 0.0000 0.0000
# 4 0.0000 0.0000 0.0000 33.3155 0.0000 0.0000
# 5 0.0000 0.0000 0.0000 0.0000 5.6876 0.0000
# 6 0.0000 0.0000 0.0000 0.0000 0.0000 29.8614
#
#
#
# Elastic Compliance Matrix: (Units=1/GPa)
#
#
# Indices 1 2 3 4 5 6 
#
# 1 0.020381 -0.006993 0.001317 0.000000 0.000000 0.000000
# 2 -0.006993 0.011025 -0.002089 0.000000 0.000000 0.000000
# 3 0.001317 -0.002089 0.009297 0.000000 0.000000 0.000000
# 4 0.000000 0.000000 0.000000 0.030016 0.000000 0.000000
# 5 0.000000 0.000000 0.000000 0.000000 0.175822 0.000000
# 6 0.000000 0.000000 0.000000 0.000000 0.000000 0.033488
#
#
# Mechanical properties :
#
#
# Convention : Reuss Voigt Hill
#
# Bulk Modulus (GPa) = 39.72451 46.37427 43.04939
# Shear Modulus (GPa) = 16.45011 29.36429 22.90720
#
# Velocity S-wave (km/s) = 2.55910 3.41911 3.01987
# Velocity P-wave (km/s) = 4.95447 5.83517 5.41276
#
# Compressibility (1/GPa) = 0.02517337
#
# Stress axis : x y z
#
# Youngs Moduli (GPa) = 49.06635 90.69941 107.56591
#
# Poissons Ratio (x) = 0.63422 -0.14170
# Poissons Ratio (y) = 0.34310 0.22475
# Poissons Ratio (z) = -0.06464 0.18951
#
# Static dielectric constant tensor:
#      x y z
#    x 1.878720 0.000000 0.000000 
#    y 0.000000 2.040790 0.000000 
#    z 0.000000 0.000000 1.996370 
# 
# From -- ./inp_files/3171.got.cif
#   From: 2010.05.17/outbox.cif.g08.bks.cpg/sg34_2_cif.got.tgz:3171.got - 2010.06.03 17:23:11.
