data_PCOD9347126
_publ_section_title
;
Structure prediction by ZEFSAII (Michael W. Deem and Ramdas Pophale) SiO2 
 PCOD9347126
Probable space group: P N N 2
;
_chemical_formula_sum "Si O2"
_cell_formula_units_Z 32
_cell_length_a 15.617258
_cell_length_b 8.733818
_cell_length_c 11.196992
_cell_angle_alpha 90.000000
_cell_angle_beta 90.000000
_cell_angle_gamma 90.000000
_cell_volume 1527.250551
_symmetry_space_group_name_H-M "P N N 2"
_symmetry_group_IT_number 34
_symmetry_cell_setting 'orthorhombic'
loop_
_space_group_symop_operation_xyz
x,y,z
-x,-y,z
1/2-x,1/2+y,1/2+z
1/2+x,1/2-y,1/2+z
loop_
_atom_site_type_symbol
_atom_site_label
_atom_site_fract_x
_atom_site_fract_y
_atom_site_fract_z
Si Si1 0.023100 0.817507 0.928830
Si Si2 0.344873 0.307059 0.642605
Si Si3 0.789673 0.463537 0.527413
Si Si4 0.158188 0.252389 0.423663
Si Si5 0.655518 0.230796 0.496895
Si Si6 0.675070 0.750410 0.251664
Si Si7 0.086997 0.083060 0.229141
Si Si8 0.239867 0.033022 0.607374
O O1 0.088795 0.762443 0.827642
O O2 0.074290 0.784136 0.053370
O O3 0.000000 0.000000 0.921481
O O4 0.931560 0.732726 0.922862
O O5 0.277872 0.402902 0.562095
O O6 0.357352 0.428982 0.748261
O O7 0.302774 0.148290 0.676222
O O8 0.855166 0.570128 0.456432
O O9 0.732732 0.340924 0.455284
O O10 0.823131 0.377515 0.646123
O O11 0.242473 0.230912 0.338439
O O12 0.081721 0.186991 0.343980
O O13 0.174895 0.138876 0.533723
O O14 0.625092 0.314893 0.621304
O O15 0.697342 0.067910 0.523186
O O16 0.691278 0.588003 0.188038
O O17 0.000000 0.000000 0.196049
#
# Coordination Sequence:
#
# PCOD9347126 Si02
#       8
#     4   4   4   4   4   4   4   4
#     4  12  19  36  65  95 128 165 198 270 339 373
#     4  10  17  34  59  89 126 147 202 259 318 366
#     4   9  18  36  60  87 129 159 211 255 300 397
#     4  11  20  39  63  86 123 173 210 257 314 378
#     4  10  18  36  61  92 127 151 203 270 328 368
#     4  11  21  38  62  96 124 169 212 258 324 380
#     4  11  19  37  63  89 118 160 204 261 323 368
#     4  10  22  37  58  95 125 157 213 261 303 403
#
# _framework density 20.952684999999999
#
# number of rings (size 3 to 8) (size 9 to 14) (size 15 to 20)
#    0.000    1.500   10.000    0.000    0.000    0.500 
#    6.750    0.625    0.000    1.500    3.250    0.000 
#    0.000    0.000    0.000    0.000    0.000    0.000 
#
# Total GULP energy -178251.227815 kJ/mol
# GULP energy per Si atom -5570.350869 kJ/mol
# Density = 2.090500 g / cm^3
# Si number density = 20.952685 Si / 1000 Ang^3
#
#
#
# Elastic Constant Matrix: (Units=GPa)
#
#
# Indices 1 2 3 4 5 6 
#
# 1 38.9872 5.9937 20.7705 0.0000 0.0000 0.0000
# 2 5.9937 96.3192 26.6371 0.0000 0.0000 0.0000
# 3 20.7705 26.6371 60.3576 0.0000 0.0000 0.0000
# 4 0.0000 0.0000 0.0000 33.8957 0.0000 0.0000
# 5 0.0000 0.0000 0.0000 0.0000 28.0321 0.0000
# 6 0.0000 0.0000 0.0000 0.0000 0.0000 18.2921
#
#
#
# Elastic Compliance Matrix: (Units=1/GPa)
#
#
# Indices 1 2 3 4 5 6 
#
# 1 0.031525 0.001183 -0.011371 0.000000 0.000000 0.000000
# 2 0.001183 0.011870 -0.005645 0.000000 0.000000 0.000000
# 3 -0.011371 -0.005645 0.022972 0.000000 0.000000 0.000000
# 4 0.000000 0.000000 0.000000 0.029502 0.000000 0.000000
# 5 0.000000 0.000000 0.000000 0.000000 0.035673 0.000000
# 6 0.000000 0.000000 0.000000 0.000000 0.000000 0.054668
#
#
# Mechanical properties :
#
#
# Convention : Reuss Voigt Hill
#
# Bulk Modulus (GPa) = 28.81767 33.60741 31.21254
# Shear Modulus (GPa) = 21.79171 25.52815 23.65993
#
# Velocity S-wave (km/s) = 3.22847 3.49430 3.36401
# Velocity P-wave (km/s) = 5.26126 5.68812 5.47885
#
# Compressibility (1/GPa) = 0.03470093
#
# Stress axis : x y z
#
# Youngs Moduli (GPa) = 31.72048 84.24751 43.53072
#
# Poissons Ratio (x) = -0.09965 0.49497
# Poissons Ratio (y) = -0.03752 0.24575
# Poissons Ratio (z) = 0.36068 0.47561
#
# Static dielectric constant tensor:
#      x y z
#    x 1.855290 0.000000 0.000000 
#    y 0.000000 1.790100 0.000000 
#    z 0.000000 0.000000 1.815000 
# 
# From -- ./inp_files/5812.got.cif
#   From: 2010.05.17/outbox.cif.g08.bks.cpg/sg34_3_cif.got.tgz:5812.got - 2010.06.03 17:23:11.
