data_PCOD9347255
_publ_section_title
;
Structure prediction by ZEFSAII (Michael W. Deem and Ramdas Pophale) SiO2 
 PCOD9347255
Probable space group: P N N 2
;
_chemical_formula_sum "Si O2"
_cell_formula_units_Z 30
_cell_length_a 7.448064
_cell_length_b 13.418210
_cell_length_c 12.699605
_cell_angle_alpha 90.000000
_cell_angle_beta 90.000000
_cell_angle_gamma 90.000000
_cell_volume 1269.194547
_symmetry_space_group_name_H-M "P N N 2"
_symmetry_group_IT_number 34
_symmetry_cell_setting 'orthorhombic'
loop_
_space_group_symop_operation_xyz
x,y,z
-x,-y,z
1/2-x,1/2+y,1/2+z
1/2+x,1/2-y,1/2+z
loop_
_atom_site_type_symbol
_atom_site_label
_atom_site_fract_x
_atom_site_fract_y
_atom_site_fract_z
Si Si1 0.418915 0.894208 0.495490
Si Si2 0.000000 0.000000 0.122501
Si Si3 0.998262 0.610563 0.235551
Si Si4 0.380228 0.672216 0.464104
Si Si5 0.964085 0.113675 0.526968
Si Si6 0.358661 0.910855 0.163690
Si Si7 0.057700 0.303406 0.448053
Si Si8 0.599599 0.306975 0.234881
O O1 0.408444 0.902140 0.622617
O O2 0.476736 0.779242 0.481684
O O3 0.214760 0.888809 0.458425
O O4 0.500000 0.000000 0.458469
O O5 0.927392 0.910246 0.049317
O O6 0.163889 0.954939 0.187131
O O7 0.904639 0.673515 0.326908
O O8 0.197032 0.654431 0.212184
O O9 0.000000 0.500000 0.283780
O O10 0.161239 0.683126 0.462095
O O11 0.441442 0.644755 0.346853
O O12 0.100399 0.187621 0.469395
O O13 0.965693 0.162059 0.642880
O O14 0.000000 0.000000 0.545033
O O15 0.398976 0.813324 0.233411
O O16 0.500000 0.000000 0.174014
O O17 0.360145 0.870985 0.041184
#
# Coordination Sequence:
#
# PCOD9347255 Si02
#       8
#     4   2   4   4   4   4   4   4
#     4  10  21  38  61  82 121 164 202 257 310 369
#     4  12  24  36  72  98 126 168 224 264 322 392
#     4  10  19  35  63  88 116 160 201 260 319 366
#     4  10  22  40  61  93 127 162 214 264 315 380
#     4  10  20  36  59  84 118 160 206 246 306 373
#     4  11  22  42  67  92 133 172 210 266 329 384
#     4   9  20  38  61  86 124 163 200 258 319 371
#     4  10  23  39  61  93 127 163 212 264 317 387
#
# _framework density 23.637039000000001
#
# number of rings (size 3 to 8) (size 9 to 14) (size 15 to 20)
#    0.000    1.867    1.333    2.800    2.800    2.667 
#    0.000    0.000   23.467    0.000    0.000    0.000 
#    0.000    0.000    0.000    0.000    0.000    0.000 
#
# Total GULP energy -167393.260501 kJ/mol
# GULP energy per Si atom -5579.775350 kJ/mol
# Density = 2.358324 g / cm^3
# Si number density = 23.637039 Si / 1000 Ang^3
#
#
#
# Elastic Constant Matrix: (Units=GPa)
#
#
# Indices 1 2 3 4 5 6 
#
# 1 67.7284 13.5509 -21.5541 0.0000 0.0000 0.0000
# 2 13.5509 139.9833 -10.6874 0.0000 0.0000 0.0000
# 3 -21.5541 -10.6874 48.1041 0.0000 0.0000 0.0000
# 4 0.0000 0.0000 0.0000 29.7432 0.0000 0.0000
# 5 0.0000 0.0000 0.0000 0.0000 76.7635 0.0000
# 6 0.0000 0.0000 0.0000 0.0000 0.0000 12.2155
#
#
#
# Elastic Compliance Matrix: (Units=1/GPa)
#
#
# Indices 1 2 3 4 5 6 
#
# 1 0.017387 -0.001107 0.007545 0.000000 0.000000 0.000000
# 2 -0.001107 0.007337 0.001134 0.000000 0.000000 0.000000
# 3 0.007545 0.001134 0.024421 0.000000 0.000000 0.000000
# 4 0.000000 0.000000 0.000000 0.033621 0.000000 0.000000
# 5 0.000000 0.000000 0.000000 0.000000 0.013027 0.000000
# 6 0.000000 0.000000 0.000000 0.000000 0.000000 0.081863
#
#
# Mechanical properties :
#
#
# Convention : Reuss Voigt Hill
#
# Bulk Modulus (GPa) = 15.55467 24.27052 19.91260
# Shear Modulus (GPa) = 27.18232 42.04487 34.61359
#
# Velocity S-wave (km/s) = 3.39483 4.22212 3.83087
# Velocity P-wave (km/s) = 4.68630 5.83599 5.29245
#
# Compressibility (1/GPa) = 0.06428938
#
# Stress axis : x y z
#
# Youngs Moduli (GPa) = 57.51274 136.28679 40.94863
#
# Poissons Ratio (x) = 0.15089 -0.30895
# Poissons Ratio (y) = 0.06367 -0.04644
# Poissons Ratio (z) = -0.43392 -0.15456
#
# Static dielectric constant tensor:
#      x y z
#    x 1.780480 0.000000 0.000000 
#    y 0.000000 1.852660 0.000000 
#    z 0.000000 0.000000 1.868020 
# 
# From -- ./inp_files/6514.got.cif
#   From: 2010.05.17/outbox.cif.g08.bks.cpg/sg34_4_cif.got.tgz:6514.got - 2010.06.03 17:23:11.
