data_PCOD9347096
_publ_section_title
;
Structure prediction by ZEFSAII (Michael W. Deem and Ramdas Pophale) SiO2 
 PCOD9347096
Probable space group: P N N 2
;
_chemical_formula_sum "Si O2"
_cell_formula_units_Z 26
_cell_length_a 9.923535
_cell_length_b 14.606273
_cell_length_c 8.906754
_cell_angle_alpha 90.000000
_cell_angle_beta 90.000000
_cell_angle_gamma 90.000000
_cell_volume 1290.997130
_symmetry_space_group_name_H-M "P N N 2"
_symmetry_group_IT_number 34
_symmetry_cell_setting 'orthorhombic'
loop_
_space_group_symop_operation_xyz
x,y,z
-x,-y,z
1/2-x,1/2+y,1/2+z
1/2+x,1/2-y,1/2+z
loop_
_atom_site_type_symbol
_atom_site_label
_atom_site_fract_x
_atom_site_fract_y
_atom_site_fract_z
Si Si1 0.292272 0.346909 0.290090
Si Si2 0.252252 0.993688 0.249995
Si Si3 0.000000 0.000000 0.070267
Si Si4 0.345916 0.518620 0.075728
Si Si5 0.567460 0.097496 0.028860
Si Si6 0.204088 0.685971 0.576359
Si Si7 0.401475 0.648207 0.336457
O O1 0.306611 0.438156 0.190295
O O2 0.190247 0.371053 0.423194
O O3 0.245289 0.265158 0.185060
O O4 0.445446 0.316295 0.331269
O O5 0.241685 0.012254 0.426093
O O6 0.369910 0.927735 0.191090
O O7 0.111660 0.956339 0.179339
O O8 0.272166 0.090987 0.166474
O O9 0.922867 0.935633 0.953242
O O10 0.500000 0.500000 0.028913
O O11 0.352169 0.610655 0.175878
O O12 0.454071 0.175445 0.038001
O O13 0.500000 0.000000 0.974661
O O14 0.284742 0.701470 0.421519
#
# Coordination Sequence:
#
# PCOD9347096 Si02
#       7
#     4   4   2   4   4   4   4
#     4  11  21  39  62  88 119 159 201 258 313 360
#     4  10  19  35  61  89 118 160 201 243 296 364
#     4  10  14  32  62  84 106 156 200 234 276 356
#     4  10  19  33  61  89 113 150 213 250 279 363
#     4  10  21  42  62  85 124 165 202 252 309 373
#     4  10  24  39  58  89 124 157 202 252 316 358
#     4  10  19  39  61  86 115 163 205 244 292 376
#
# _framework density 20.139472999999999
#
# number of rings (size 3 to 8) (size 9 to 14) (size 15 to 20)
#    0.000    1.846    4.615    1.846    0.000    3.692 
#    0.000   11.538    0.000    0.000    0.000    0.000 
#    0.000    0.000    0.000    0.000    0.000    0.000 
#
# Total GULP energy -144800.360636 kJ/mol
# GULP energy per Si atom -5569.244640 kJ/mol
# Density = 2.009363 g / cm^3
# Si number density = 20.139473 Si / 1000 Ang^3
#
#
#
# Elastic Constant Matrix: (Units=GPa)
#
#
# Indices 1 2 3 4 5 6 
#
# 1 95.7158 8.9222 57.6854 0.0000 0.0000 0.0000
# 2 8.9222 15.2474 1.6875 0.0000 0.0000 0.0000
# 3 57.6854 1.6875 100.6523 0.0000 0.0000 0.0000
# 4 0.0000 0.0000 0.0000 1.8426 0.0000 0.0000
# 5 0.0000 0.0000 0.0000 0.0000 29.8150 0.0000
# 6 0.0000 0.0000 0.0000 0.0000 0.0000 8.9064
#
#
#
# Elastic Compliance Matrix: (Units=1/GPa)
#
#
# Indices 1 2 3 4 5 6 
#
# 1 0.017095 -0.008935 -0.009647 0.000000 0.000000 0.000000
# 2 -0.008935 0.070377 0.003941 0.000000 0.000000 0.000000
# 3 -0.009647 0.003941 0.015398 0.000000 0.000000 0.000000
# 4 0.000000 0.000000 0.000000 0.542705 0.000000 0.000000
# 5 0.000000 0.000000 0.000000 0.000000 0.033540 0.000000
# 6 0.000000 0.000000 0.000000 0.000000 0.000000 0.112278
#
#
# Mechanical properties :
#
#
# Convention : Reuss Voigt Hill
#
# Bulk Modulus (GPa) = 13.58939 38.68951 26.13945
# Shear Modulus (GPa) = 5.91572 17.66751 11.79161
#
# Velocity S-wave (km/s) = 1.71574 2.96507 2.42233
# Velocity P-wave (km/s) = 3.26914 5.56549 4.56410
#
# Compressibility (1/GPa) = 0.07358679
#
# Stress axis : x y z
#
# Youngs Moduli (GPa) = 58.49731 14.20911 64.94244
#
# Poissons Ratio (x) = 0.12696 0.62653
# Poissons Ratio (y) = 0.52270 -0.25594
# Poissons Ratio (z) = 0.56435 -0.05600
#
# Static dielectric constant tensor:
#      x y z
#    x 1.828200 0.000000 0.000000 
#    y 0.000000 1.774560 0.000000 
#    z 0.000000 0.000000 1.725440 
# 
# From -- ./inp_files/2772.got.cif
#   From: 2010.05.17/outbox.cif.g08.bks.cpg/sg34_2_cif.got.tgz:2772.got - 2010.06.03 17:23:11.
