data_PCOD9347394
_publ_section_title
;
Structure prediction by ZEFSAII (Michael W. Deem and Ramdas Pophale) SiO2 
 PCOD9347394
Probable space group: P N N 2
;
_chemical_formula_sum "Si O2"
_cell_formula_units_Z 32
_cell_length_a 7.741987
_cell_length_b 14.198185
_cell_length_c 14.042978
_cell_angle_alpha 90.000000
_cell_angle_beta 90.000000
_cell_angle_gamma 90.000000
_cell_volume 1543.634526
_symmetry_space_group_name_H-M "P N N 2"
_symmetry_group_IT_number 34
_symmetry_cell_setting 'orthorhombic'
loop_
_space_group_symop_operation_xyz
x,y,z
-x,-y,z
1/2-x,1/2+y,1/2+z
1/2+x,1/2-y,1/2+z
loop_
_atom_site_type_symbol
_atom_site_label
_atom_site_fract_x
_atom_site_fract_y
_atom_site_fract_z
Si Si1 0.601743 0.272831 0.040980
Si Si2 0.489292 0.760144 0.547777
Si Si3 0.114169 0.247268 0.259076
Si Si4 0.318128 0.958999 0.558995
Si Si5 0.563103 0.624297 0.204809
Si Si6 0.442278 0.890735 0.915259
Si Si7 0.626873 0.421707 0.898367
Si Si8 0.528260 0.599372 0.413633
O O1 0.808126 0.276776 0.025946
O O2 0.565066 0.313059 0.143458
O O3 0.524377 0.172189 0.010263
O O4 0.526430 0.353474 0.971873
O O5 0.476354 0.728702 0.658020
O O6 0.373674 0.852548 0.533870
O O7 0.437604 0.680233 0.473146
O O8 0.285375 0.303752 0.232423
O O9 0.009071 0.321221 0.326958
O O10 0.171311 0.153743 0.316693
O O11 0.167607 0.952576 0.639628
O O12 0.500000 0.000000 0.598785
O O13 0.260006 0.021028 0.467288
O O14 0.473646 0.595850 0.303415
O O15 0.234448 0.891052 0.911545
O O16 0.500000 0.000000 0.912199
O O17 0.500000 0.500000 0.857416
O O18 0.500000 0.500000 0.462474
#
# Coordination Sequence:
#
# PCOD9347394 Si02
#       8
#     4   4   4   4   4   4   4   4
#     4  10  20  38  63  87 124 154 201 259 305 365
#     4  10  22  42  59  88 122 167 201 253 312 369
#     4   9  22  40  60  86 127 159 203 254 307 372
#     4  11  22  36  66  90 122 162 205 256 317 375
#     4  10  22  38  60  93 118 159 200 252 307 362
#     4   9  20  39  60  85 116 156 198 245 301 357
#     4  11  21  40  63  91 123 162 205 264 315 371
#     4  10  23  38  60  84 122 155 198 253 296 358
#
# _framework density 20.730298000000001
#
# number of rings (size 3 to 8) (size 9 to 14) (size 15 to 20)
#    0.000    2.000    2.500    0.750    1.750    8.000 
#    2.250    1.250    0.000    0.000    0.000    0.000 
#    0.000    0.000    0.000    0.000    0.000    0.000 
#
# Total GULP energy -178180.814286 kJ/mol
# GULP energy per Si atom -5568.150446 kJ/mol
# Density = 2.068311 g / cm^3
# Si number density = 20.730298 Si / 1000 Ang^3
#
#
#
# Elastic Constant Matrix: (Units=GPa)
#
#
# Indices 1 2 3 4 5 6 
#
# 1 40.7440 22.3196 11.3996 0.0000 0.0000 0.0000
# 2 22.3196 151.3173 77.8657 0.0000 0.0000 0.0000
# 3 11.3996 77.8657 102.6500 0.0000 0.0000 0.0000
# 4 0.0000 0.0000 0.0000 31.4080 0.0000 0.0000
# 5 0.0000 0.0000 0.0000 0.0000 11.6544 0.0000
# 6 0.0000 0.0000 0.0000 0.0000 0.0000 23.8966
#
#
#
# Elastic Compliance Matrix: (Units=1/GPa)
#
#
# Indices 1 2 3 4 5 6 
#
# 1 0.026701 -0.003957 0.000037 0.000000 0.000000 0.000000
# 2 -0.003957 0.011426 -0.008228 0.000000 0.000000 0.000000
# 3 0.000037 -0.008228 0.015979 0.000000 0.000000 0.000000
# 4 0.000000 0.000000 0.000000 0.031839 0.000000 0.000000
# 5 0.000000 0.000000 0.000000 0.000000 0.085804 0.000000
# 6 0.000000 0.000000 0.000000 0.000000 0.000000 0.041847
#
#
# Mechanical properties :
#
#
# Convention : Reuss Voigt Hill
#
# Bulk Modulus (GPa) = 33.54681 57.54236 45.54458
# Shear Modulus (GPa) = 20.17503 25.60023 22.88763
#
# Velocity S-wave (km/s) = 3.12302 3.51795 3.32635
# Velocity P-wave (km/s) = 5.40574 6.65727 6.06388
#
# Compressibility (1/GPa) = 0.02980909
#
# Stress axis : x y z
#
# Youngs Moduli (GPa) = 37.45173 87.51671 62.58123
#
# Poissons Ratio (x) = 0.34633 -0.00229
# Poissons Ratio (y) = 0.14821 0.51492
# Poissons Ratio (z) = -0.00137 0.72009
#
# Static dielectric constant tensor:
#      x y z
#    x 1.805480 0.000000 0.000000 
#    y 0.000000 1.810320 0.000000 
#    z 0.000000 0.000000 1.810640 
# 
# From -- ./inp_files/5092.got.cif
#   From: 2010.05.17/outbox.cif.g08.bks.cpg/sg34_3_cif.got.tgz:5092.got - 2010.06.03 17:23:11.
