data_PCOD9347193
_publ_section_title
;
Structure prediction by ZEFSAII (Michael W. Deem and Ramdas Pophale) SiO2 
 PCOD9347193
Probable space group: P N N 2
;
_chemical_formula_sum "Si O2"
_cell_formula_units_Z 32
_cell_length_a 13.123193
_cell_length_b 9.894741
_cell_length_c 10.547368
_cell_angle_alpha 90.000000
_cell_angle_beta 90.000000
_cell_angle_gamma 90.000000
_cell_volume 1369.582019
_symmetry_space_group_name_H-M "P N N 2"
_symmetry_group_IT_number 34
_symmetry_cell_setting 'orthorhombic'
loop_
_space_group_symop_operation_xyz
x,y,z
-x,-y,z
1/2-x,1/2+y,1/2+z
1/2+x,1/2-y,1/2+z
loop_
_atom_site_type_symbol
_atom_site_label
_atom_site_fract_x
_atom_site_fract_y
_atom_site_fract_z
Si Si1 0.203104 0.007673 0.577440
Si Si2 0.898244 0.576332 0.796657
Si Si3 0.586841 0.387715 0.642961
Si Si4 0.459598 0.630576 0.270144
Si Si5 0.289437 0.002049 0.042361
Si Si6 0.088312 0.410882 0.082955
Si Si7 0.649355 0.261999 0.907429
Si Si8 0.425035 0.267563 0.031150
O O1 0.300428 0.937093 0.640257
O O2 0.145378 0.894266 0.493132
O O3 0.123863 0.061268 0.680694
O O4 0.218175 0.140156 0.493264
O O5 0.909085 0.735729 0.821732
O O6 0.819298 0.554311 0.683094
O O7 0.000000 0.500000 0.749170
O O8 0.888973 0.529686 0.941806
O O9 0.500000 0.500000 0.667159
O O10 0.673715 0.449615 0.553133
O O11 0.550969 0.243289 0.587064
O O12 0.641565 0.332418 0.771128
O O13 0.500000 0.500000 0.346782
O O14 0.545266 0.697605 0.177189
O O15 0.361656 0.131177 0.018800
O O16 0.310375 0.887579 0.937934
O O17 0.000000 0.500000 0.143912
O O18 0.532116 0.262786 0.958583
#
# Coordination Sequence:
#
# PCOD9347193 Si02
#       8
#     4   4   4   4   4   4   4   4
#     4  10  19  40  62  98 129 168 228 288 345 419
#     4  11  20  39  65  99 133 175 228 299 360 415
#     4  12  29  51  67 101 152 198 236 295 372 443
#     4   9  18  32  62  96 128 158 211 295 356 393
#     4  12  22  43  74 106 139 178 248 302 359 427
#     4  11  27  44  63  90 141 196 236 280 361 450
#     4  11  23  42  76 106 136 187 236 298 363 430
#     4  10  18  37  71 102 131 162 232 308 349 403
#
# _framework density 23.364792000000001
#
# number of rings (size 3 to 8) (size 9 to 14) (size 15 to 20)
#    0.000    1.250    5.000    3.000    1.750    1.500 
#    2.250    0.000    0.000    0.000    0.000    0.000 
#    0.000    0.000    0.000    0.000    0.000    0.000 
#
# Total GULP energy -178530.068922 kJ/mol
# GULP energy per Si atom -5579.064654 kJ/mol
# Density = 2.331161 g / cm^3
# Si number density = 23.364792 Si / 1000 Ang^3
#
#
#
# Elastic Constant Matrix: (Units=GPa)
#
#
# Indices 1 2 3 4 5 6 
#
# 1 93.1475 86.5690 3.0175 0.0000 0.0000 0.0000
# 2 86.5690 172.8118 9.8748 0.0000 0.0000 0.0000
# 3 3.0175 9.8748 49.2599 0.0000 0.0000 0.0000
# 4 0.0000 0.0000 0.0000 21.8615 0.0000 0.0000
# 5 0.0000 0.0000 0.0000 0.0000 -86.6309 0.0000
# 6 0.0000 0.0000 0.0000 0.0000 0.0000 38.8610
#
#
#
# Elastic Compliance Matrix: (Units=1/GPa)
#
#
# Indices 1 2 3 4 5 6 
#
# 1 0.020119 -0.010124 0.000797 0.000000 0.000000 0.000000
# 2 -0.010124 0.010948 -0.001575 0.000000 0.000000 0.000000
# 3 0.000797 -0.001575 0.020567 0.000000 0.000000 0.000000
# 4 0.000000 0.000000 0.000000 0.045743 0.000000 0.000000
# 5 0.000000 0.000000 0.000000 0.000000 -0.011543 0.000000
# 6 0.000000 0.000000 0.000000 0.000000 0.000000 0.025733
#
#
# Mechanical properties :
#
#
# Convention : Reuss Voigt Hill
#
# Bulk Modulus (GPa) = 33.52169 57.12685 45.32427
# Shear Modulus (GPa) = 34.88874 9.20220 22.04547
#
# Velocity S-wave (km/s) = 3.86841 1.98672 3.07503
# Velocity P-wave (km/s) = 5.85927 5.45580 5.66113
#
# Compressibility (1/GPa) = 0.02983143
#
# Stress axis : x y z
#
# Youngs Moduli (GPa) = 49.70489 91.33992 48.62084
#
# Poissons Ratio (x) = 0.92472 -0.03875
# Poissons Ratio (y) = 0.50321 0.07656
# Poissons Ratio (z) = -0.03962 0.14382
#
# Static dielectric constant tensor:
#      x y z
#    x 3.013810 0.000000 0.000000 
#    y 0.000000 1.890060 0.000000 
#    z 0.000000 0.000000 1.995940 
# 
# From -- ./inp_files/5671.got.cif
#   From: 2010.05.17/outbox.cif.g08.bks.cpg/sg34_3_cif.got.tgz:5671.got - 2010.06.03 17:23:11.
