data_PCOD9347068
_publ_section_title
;
Structure prediction by ZEFSAII (Michael W. Deem and Ramdas Pophale) SiO2 
 PCOD9347068
Probable space group: P N A 21
;
_chemical_formula_sum "Si O2"
_cell_formula_units_Z 32
_cell_length_a 12.000000
_cell_length_b 15.000000
_cell_length_c 9.000000
_cell_angle_alpha 90.000000
_cell_angle_beta 90.000000
_cell_angle_gamma 90.000000
_cell_volume 1620.000000
_symmetry_space_group_name_H-M "P N A 21"
_symmetry_group_IT_number 33
_symmetry_cell_setting 'orthorhombic'
loop_
_space_group_symop_operation_xyz
x,y,z
-x,-y,1/2+z
1/2-x,1/2+y,1/2+z
1/2+x,1/2-y,z
loop_
_atom_site_type_symbol
_atom_site_label
_atom_site_fract_x
_atom_site_fract_y
_atom_site_fract_z
Si Si1 0.843199 0.879860 0.810550
Si Si2 0.704815 0.215125 0.797187
Si Si3 0.250231 0.455398 0.996188
Si Si4 0.399206 0.349531 0.218956
Si Si5 0.010540 0.524553 0.446263
Si Si6 0.190084 0.744550 0.999086
Si Si7 0.006362 0.374592 0.640768
Si Si8 0.319862 0.175706 0.043977
O O1 0.762503 0.863485 0.669320
O O2 0.970766 0.872636 0.752304
O O3 0.814990 0.971054 0.898273
O O4 0.797828 0.805309 0.927654
O O5 0.736041 0.133738 0.901543
O O6 0.775673 0.208128 0.649088
O O7 0.579729 0.198784 0.732763
O O8 0.745764 0.299104 0.897400
O O9 0.322523 0.427300 0.142554
O O10 0.118157 0.480937 0.005878
O O11 0.353636 0.312489 0.375545
O O12 0.380952 0.264056 0.109590
O O13 0.010911 0.550231 0.271227
O O14 0.061879 0.431229 0.505496
O O15 0.083961 0.604340 0.512861
O O16 0.096384 0.674700 0.058515
#
# Coordination Sequence:
#
# PCOD9347068 Si02
#       8
#     4   4   4   4   4   4   4   4
#     4  11  23  44  63  94 133 172 221 271 328 409
#     4  10  22  39  61  96 131 167 217 274 330 395
#     4  10  23  43  63  94 130 171 228 268 328 405
#     4  10  25  39  67  91 127 180 212 275 327 397
#     4  11  22  40  65  95 132 171 216 278 329 390
#     4  11  22  42  60  97 128 170 222 268 333 391
#     4  11  23  38  65  97 134 169 218 279 323 401
#     4  10  22  39  68  96 127 176 218 269 338 392
#
# _framework density 19.753086
#
# number of rings (size 3 to 8) (size 9 to 14) (size 15 to 20)
#    0.000    1.500    2.500    2.250    8.750    2.000 
#    0.000    2.500    0.000    0.000    0.000    0.000 
#    0.000    0.000    0.000    0.000    0.000    0.000 
#
# Total GULP energy -178242.064810 kJ/mol
# GULP energy per Si atom -5570.064525 kJ/mol
# Density = 1.970813 g / cm^3
# Si number density = 19.753086 Si / 1000 Ang^3
#
#
#
# Elastic Constant Matrix: (Units=GPa)
#
#
# Indices 1 2 3 4 5 6 
#
# 1 111.6258 39.8507 58.7076 0.0000 0.0000 0.0000
# 2 39.8507 34.8278 4.5528 0.0000 0.0000 0.0000
# 3 58.7076 4.5528 94.8346 0.0000 0.0000 0.0000
# 4 0.0000 0.0000 0.0000 36.4484 0.0000 0.0000
# 5 0.0000 0.0000 0.0000 0.0000 37.0256 0.0000
# 6 0.0000 0.0000 0.0000 0.0000 0.0000 26.9440
#
#
#
# Elastic Compliance Matrix: (Units=1/GPa)
#
#
# Indices 1 2 3 4 5 6 
#
# 1 0.028044 -0.030008 -0.015920 0.000000 0.000000 0.000000
# 2 -0.030008 0.061003 0.015648 0.000000 0.000000 0.000000
# 3 -0.015920 0.015648 0.019649 0.000000 0.000000 0.000000
# 4 0.000000 0.000000 0.000000 0.027436 0.000000 0.000000
# 5 0.000000 0.000000 0.000000 0.000000 0.027008 0.000000
# 6 0.000000 0.000000 0.000000 0.000000 0.000000 0.037114
#
#
# Mechanical properties :
#
#
# Convention : Reuss Voigt Hill
#
# Bulk Modulus (GPa) = 20.77478 49.72338 35.24908
# Shear Modulus (GPa) = 18.05966 29.29539 23.67753
#
# Velocity S-wave (km/s) = 3.02697 3.85525 3.46594
# Velocity P-wave (km/s) = 4.77041 6.71151 5.82242
#
# Compressibility (1/GPa) = 0.04813528
#
# Stress axis : x y z
#
# Youngs Moduli (GPa) = 35.65779 16.39275 50.89325
#
# Poissons Ratio (x) = 0.49191 0.81024
# Poissons Ratio (y) = 1.07001 -0.79636
# Poissons Ratio (z) = 0.56768 -0.25651
#
# Static dielectric constant tensor:
#      x y z
#    x 1.733840 0.000000 0.000000 
#    y 0.000000 1.735800 0.000000 
#    z 0.000000 0.000000 1.705780 
# 
# From -- ./inp_files/3970.got.cif
#   From: 2010.05.17/outbox.ucp.g08.bks.cvg/sg33_2_cif.got.tgz:3970.got - 2010.06.11 10:35:07.
