data_PCOD9347020
_publ_section_title
;
Structure prediction by ZEFSAII (Michael W. Deem and Ramdas Pophale) SiO2 
 PCOD9347020
Probable space group: P N A 21
;
_chemical_formula_sum "Si O2"
_cell_formula_units_Z 24
_cell_length_a 8.572804
_cell_length_b 9.110721
_cell_length_c 11.358742
_cell_angle_alpha 90.000000
_cell_angle_beta 90.000000
_cell_angle_gamma 90.000000
_cell_volume 887.168018
_symmetry_space_group_name_H-M "P N A 21"
_symmetry_group_IT_number 33
_symmetry_cell_setting 'orthorhombic'
loop_
_space_group_symop_operation_xyz
x,y,z
-x,-y,1/2+z
1/2-x,1/2+y,1/2+z
1/2+x,1/2-y,z
loop_
_atom_site_type_symbol
_atom_site_label
_atom_site_fract_x
_atom_site_fract_y
_atom_site_fract_z
Si Si1 0.799061 0.439651 0.835260
Si Si2 0.292209 0.311899 0.162744
Si Si3 0.585516 0.452316 0.057468
Si Si4 0.731267 0.849751 0.887341
Si Si5 0.516444 0.228256 0.554250
Si Si6 0.145637 0.370851 0.787696
O O1 0.792063 0.550726 0.725240
O O2 0.717904 0.286323 0.807240
O O3 0.982074 0.404289 0.854955
O O4 0.686195 0.493146 0.941124
O O5 0.415545 0.373657 0.068910
O O6 0.188110 0.180900 0.111161
O O7 0.357405 0.233746 0.281487
O O8 0.543826 0.615901 0.107193
O O9 0.765244 0.006627 0.831191
O O10 0.626045 0.860927 0.002155
O O11 0.879796 0.769498 0.941116
O O12 0.603125 0.131072 0.650200
#
# Coordination Sequence:
#
# PCOD9347020 Si02
#       6
#     4   4   4   4   4   4
#     4  12  27  50  78 128 162 224 280 351 421 505
#     4  12  27  51  80 118 166 219 281 342 422 498
#     4  12  28  50  82 118 167 220 278 348 423 500
#     4  12  29  51  82 118 166 218 277 352 411 505
#     4  12  28  54  82 121 167 221 278 349 425 499
#     4  12  29  48  84 117 168 214 286 346 428 501
#
# _framework density 27.052372999999999
#
# number of rings (size 3 to 8) (size 9 to 14) (size 15 to 20)
#    0.000    0.000    3.333    5.000    9.333    1.333 
#    0.000    0.000    0.000    0.000    0.000    0.000 
#    0.000    0.000    0.000    0.000    0.000    0.000 
#
# Total GULP energy -134303.776787 kJ/mol
# GULP energy per Si atom -5595.990699 kJ/mol
# Density = 2.699080 g / cm^3
# Si number density = 27.052373 Si / 1000 Ang^3
#
#
#
# Elastic Constant Matrix: (Units=GPa)
#
#
# Indices 1 2 3 4 5 6 
#
# 1 89.1150 25.6542 31.9746 0.0000 0.0000 0.0000
# 2 25.6542 153.2350 55.4574 0.0000 0.0000 0.0000
# 3 31.9746 55.4574 86.1608 0.0000 0.0000 0.0000
# 4 0.0000 0.0000 0.0000 65.0020 0.0000 0.0000
# 5 0.0000 0.0000 0.0000 0.0000 46.1887 0.0000
# 6 0.0000 0.0000 0.0000 0.0000 0.0000 44.1363
#
#
#
# Elastic Compliance Matrix: (Units=1/GPa)
#
#
# Indices 1 2 3 4 5 6 
#
# 1 0.012982 -0.000560 -0.004457 0.000000 0.000000 0.000000
# 2 -0.000560 0.008532 -0.005284 0.000000 0.000000 0.000000
# 3 -0.004457 -0.005284 0.016661 0.000000 0.000000 0.000000
# 4 0.000000 0.000000 0.000000 0.015384 0.000000 0.000000
# 5 0.000000 0.000000 0.000000 0.000000 0.021650 0.000000
# 6 0.000000 0.000000 0.000000 0.000000 0.000000 0.022657
#
#
# Mechanical properties :
#
#
# Convention : Reuss Voigt Hill
#
# Bulk Modulus (GPa) = 56.90562 61.63147 59.26854
# Shear Modulus (GPa) = 40.21684 45.42704 42.82194
#
# Velocity S-wave (km/s) = 3.85987 4.10228 3.98292
# Velocity P-wave (km/s) = 6.39889 6.72830 6.56566
#
# Compressibility (1/GPa) = 0.01757296
#
# Stress axis : x y z
#
# Youngs Moduli (GPa) = 77.03006 117.20660 60.02036
#
# Poissons Ratio (x) = 0.06568 0.26751
# Poissons Ratio (y) = 0.04317 0.31713
# Poissons Ratio (z) = 0.34332 0.61928
#
# Static dielectric constant tensor:
#      x y z
#    x 2.083910 0.000000 0.000000 
#    y 0.000000 2.083450 0.000000 
#    z 0.000000 0.000000 2.186080 
# 
# From -- ./inp_files/5748.got.cif
#   From: 2010.05.17/outbox.cif.g08.bks.cpg/sg33_3_cif.got.tgz:5748.got - 2010.06.03 17:15:25.
