data_PCOD9347894
_publ_section_title
;
Structure prediction by ZEFSAII (Michael W. Deem and Ramdas Pophale) SiO2 
 PCOD9347894
Probable space group: P N N 2
;
_chemical_formula_sum "Si O2"
_cell_formula_units_Z 22
_cell_length_a 11.145965
_cell_length_b 5.677484
_cell_length_c 14.221880
_cell_angle_alpha 90.000000
_cell_angle_beta 90.000000
_cell_angle_gamma 90.000000
_cell_volume 899.975328
_symmetry_space_group_name_H-M "P N N 2"
_symmetry_group_IT_number 34
_symmetry_cell_setting 'orthorhombic'
loop_
_space_group_symop_operation_xyz
x,y,z
-x,-y,z
1/2-x,1/2+y,1/2+z
1/2+x,1/2-y,1/2+z
loop_
_atom_site_type_symbol
_atom_site_label
_atom_site_fract_x
_atom_site_fract_y
_atom_site_fract_z
Si Si1 0.123302 0.483606 0.139110
Si Si2 0.787564 0.724800 0.746186
Si Si3 0.000000 0.500000 0.823982
Si Si4 0.108836 0.820666 0.965682
Si Si5 0.277572 0.104475 0.062431
Si Si6 0.427074 0.254371 0.902126
O O1 0.242485 0.537612 0.196953
O O2 0.097790 0.689941 0.065125
O O3 0.158716 0.257865 0.080248
O O4 0.000000 0.500000 0.196635
O O5 0.790124 0.530691 0.661120
O O6 0.686692 0.708854 0.829025
O O7 0.924820 0.706459 0.776173
O O8 0.100072 0.625540 0.886645
O O9 0.238512 0.934665 0.976339
O O10 0.000000 0.000000 0.950890
O O11 0.381556 0.250167 0.011932
O O12 0.500000 0.500000 0.888238
O O13 0.500000 0.000000 0.892834
#
# Coordination Sequence:
#
# PCOD9347894 Si02
#       6
#     4   4   2   4   4   4
#     4  11  22  43  73 108 147 194 268 329 404 490
#     4  11  29  45  79 114 157 214 274 340 416 503
#     4  12  26  46  70 112 152 196 266 334 404 492
#     4  11  20  40  73 102 140 190 252 322 391 466
#     4  11  27  46  78 111 155 210 269 335 419 490
#     4  12  31  54  83 118 173 224 277 345 428 510
#
# _framework density 24.445112000000002
#
# number of rings (size 3 to 8) (size 9 to 14) (size 15 to 20)
#    0.000    0.727    2.727    2.727   14.000    1.455 
#    0.000    0.000    0.000    0.000    0.000    0.000 
#    0.000    0.000    0.000    0.000    0.000    0.000 
#
# Total GULP energy -122502.396186 kJ/mol
# GULP energy per Si atom -5568.290736 kJ/mol
# Density = 2.438947 g / cm^3
# Si number density = 24.445112 Si / 1000 Ang^3
#
#
#
# Elastic Constant Matrix: (Units=GPa)
#
#
# Indices 1 2 3 4 5 6 
#
# 1 100.3442 23.4950 45.0057 0.0000 0.0000 0.0000
# 2 23.4950 71.1782 24.4218 0.0000 0.0000 0.0000
# 3 45.0057 24.4218 101.8729 0.0000 0.0000 0.0000
# 4 0.0000 0.0000 0.0000 317.0697 0.0000 0.0000
# 5 0.0000 0.0000 0.0000 0.0000 186.1772 0.0000
# 6 0.0000 0.0000 0.0000 0.0000 0.0000 38.8328
#
#
#
# Elastic Compliance Matrix: (Units=1/GPa)
#
#
# Indices 1 2 3 4 5 6 
#
# 1 0.012822 -0.002494 -0.005067 0.000000 0.000000 0.000000
# 2 -0.002494 0.015793 -0.002684 0.000000 0.000000 0.000000
# 3 -0.005067 -0.002684 0.012698 0.000000 0.000000 0.000000
# 4 0.000000 0.000000 0.000000 0.003154 0.000000 0.000000
# 5 0.000000 0.000000 0.000000 0.000000 0.005371 0.000000
# 6 0.000000 0.000000 0.000000 0.000000 0.000000 0.025751
#
#
# Mechanical properties :
#
#
# Convention : Reuss Voigt Hill
#
# Bulk Modulus (GPa) = 48.02247 51.02669 49.52458
# Shear Modulus (GPa) = 48.53355 120.44747 84.49051
#
# Velocity S-wave (km/s) = 4.46063 7.02706 5.88544
# Velocity P-wave (km/s) = 6.79833 9.31444 8.15402
#
# Compressibility (1/GPa) = 0.02082359
#
# Stress axis : x y z
#
# Youngs Moduli (GPa) = 77.99006 63.31722 78.75219
#
# Poissons Ratio (x) = 0.15791 0.39902
# Poissons Ratio (y) = 0.19451 0.21140
# Poissons Ratio (z) = 0.39515 0.16996
#
# Static dielectric constant tensor:
#      x y z
#    x 1.896990 0.000000 0.000000 
#    y 0.000000 1.961540 0.000000 
#    z 0.000000 0.000000 1.992700 
# 
# From -- ./inp_files/6686.got.cif
#   From: 2010.05.17/outbox.cif.g08.bks.cpg/sg34_4_cif.got.tgz:6686.got - 2010.06.03 17:23:11.
