data_PCOD9347459
_publ_section_title
;
Structure prediction by ZEFSAII (Michael W. Deem and Ramdas Pophale) SiO2 
 PCOD9347459
Probable space group: P N N 2
;
_chemical_formula_sum "Si O2"
_cell_formula_units_Z 32
_cell_length_a 9.143732
_cell_length_b 13.587719
_cell_length_c 11.720131
_cell_angle_alpha 90.000000
_cell_angle_beta 90.000000
_cell_angle_gamma 90.000000
_cell_volume 1456.137919
_symmetry_space_group_name_H-M "P N N 2"
_symmetry_group_IT_number 34
_symmetry_cell_setting 'orthorhombic'
loop_
_space_group_symop_operation_xyz
x,y,z
-x,-y,z
1/2-x,1/2+y,1/2+z
1/2+x,1/2-y,1/2+z
loop_
_atom_site_type_symbol
_atom_site_label
_atom_site_fract_x
_atom_site_fract_y
_atom_site_fract_z
Si Si1 0.018831 0.210738 0.782390
Si Si2 0.670431 0.975742 0.047269
Si Si3 0.187423 0.866399 0.602250
Si Si4 0.655044 0.942294 0.540043
Si Si5 0.077138 0.893939 0.014456
Si Si6 0.629123 0.919993 0.287693
Si Si7 0.826255 0.280614 0.393401
Si Si8 0.505363 0.223800 0.680671
O O1 0.957770 0.148443 0.676794
O O2 0.947251 0.316658 0.765135
O O3 0.189593 0.225023 0.806541
O O4 0.960730 0.163558 0.899509
O O5 0.719760 0.947544 0.175712
O O6 0.500000 0.000000 0.049140
O O7 0.754331 0.074649 0.014255
O O8 0.691459 0.882161 0.964446
O O9 0.175088 0.810295 0.481212
O O10 0.329585 0.813486 0.659428
O O11 0.231180 0.980227 0.590798
O O12 0.702474 0.915590 0.411548
O O13 0.607886 0.850056 0.616076
O O14 0.500000 0.000000 0.531543
O O15 0.025358 0.827682 0.119906
O O16 0.000000 0.000000 0.014256
O O17 0.500000 0.000000 0.295471
O O18 0.967860 0.278725 0.313709
#
# Coordination Sequence:
#
# PCOD9347459 Si02
#       8
#     4   4   4   4   4   4   4   4
#     4  12  24  44  72  98 144 185 228 299 359 416
#     4  11  26  42  69 103 139 186 243 292 345 435
#     4  11  24  45  68 102 138 185 232 295 355 419
#     4   9  19  40  68  95 131 175 230 278 347 413
#     4  12  25  46  69 101 145 188 230 295 373 411
#     4  10  20  41  70  99 133 181 235 286 350 420
#     4  12  25  46  68 105 141 182 236 290 354 426
#     4  11  25  43  70 100 136 183 235 289 350 431
#
# _framework density 21.975939
#
# number of rings (size 3 to 8) (size 9 to 14) (size 15 to 20)
#    0.000    1.000    5.000    1.500    8.750    0.500 
#    0.000    0.000    0.000    0.750    0.000    0.000 
#    0.000    0.000    0.000    0.000    0.000    0.000 
#
# Total GULP energy -178928.898276 kJ/mol
# GULP energy per Si atom -5591.528071 kJ/mol
# Density = 2.192592 g / cm^3
# Si number density = 21.975939 Si / 1000 Ang^3
#
#
#
# Elastic Constant Matrix: (Units=GPa)
#
#
# Indices 1 2 3 4 5 6 
#
# 1 46.5890 -7.3020 24.2585 0.0000 0.0000 0.0000
# 2 -7.3020 66.4218 -0.3039 0.0000 0.0000 0.0000
# 3 24.2585 -0.3039 90.4674 0.0000 0.0000 0.0000
# 4 0.0000 0.0000 0.0000 29.4916 0.0000 0.0000
# 5 0.0000 0.0000 0.0000 0.0000 28.4063 0.0000
# 6 0.0000 0.0000 0.0000 0.0000 0.0000 19.3640
#
#
#
# Elastic Compliance Matrix: (Units=1/GPa)
#
#
# Indices 1 2 3 4 5 6 
#
# 1 0.025446 0.002766 -0.006814 0.000000 0.000000 0.000000
# 2 0.002766 0.015356 -0.000690 0.000000 0.000000 0.000000
# 3 -0.006814 -0.000690 0.012879 0.000000 0.000000 0.000000
# 4 0.000000 0.000000 0.000000 0.033908 0.000000 0.000000
# 5 0.000000 0.000000 0.000000 0.000000 0.035203 0.000000
# 6 0.000000 0.000000 0.000000 0.000000 0.000000 0.051642
#
#
# Mechanical properties :
#
#
# Convention : Reuss Voigt Hill
#
# Bulk Modulus (GPa) = 22.62199 26.30926 24.46562
# Shear Modulus (GPa) = 25.17056 27.90743 26.53900
#
# Velocity S-wave (km/s) = 3.38800 3.56744 3.47888
# Velocity P-wave (km/s) = 5.06173 5.38207 5.22436
#
# Compressibility (1/GPa) = 0.04420478
#
# Stress axis : x y z
#
# Youngs Moduli (GPa) = 39.29929 65.12016 77.64879
#
# Poissons Ratio (x) = -0.18013 0.52909
# Poissons Ratio (y) = -0.10871 0.05359
# Poissons Ratio (z) = 0.26778 0.04494
#
# Static dielectric constant tensor:
#      x y z
#    x 1.873860 0.000000 0.000000 
#    y 0.000000 1.777040 0.000000 
#    z 0.000000 0.000000 1.803700 
# 
# From -- ./inp_files/5102.got.cif
#   From: 2010.05.17/outbox.cif.g08.bks.cpg/sg34_3_cif.got.tgz:5102.got - 2010.06.03 17:23:11.
