data_PCOD9347106
_publ_section_title
;
Structure prediction by ZEFSAII (Michael W. Deem and Ramdas Pophale) SiO2 
 PCOD9347106
Probable space group: P N N 2
;
_chemical_formula_sum "Si O2"
_cell_formula_units_Z 24
_cell_length_a 18.648159
_cell_length_b 5.405272
_cell_length_c 8.645673
_cell_angle_alpha 90.000000
_cell_angle_beta 90.000000
_cell_angle_gamma 90.000000
_cell_volume 871.469761
_symmetry_space_group_name_H-M "P N N 2"
_symmetry_group_IT_number 34
_symmetry_cell_setting 'orthorhombic'
loop_
_space_group_symop_operation_xyz
x,y,z
-x,-y,z
1/2-x,1/2+y,1/2+z
1/2+x,1/2-y,1/2+z
loop_
_atom_site_type_symbol
_atom_site_label
_atom_site_fract_x
_atom_site_fract_y
_atom_site_fract_z
Si Si1 0.202507 0.249636 0.211240
Si Si2 0.793028 0.114820 0.984266
Si Si3 0.026692 0.252057 0.841782
Si Si4 0.884101 0.249127 0.222157
Si Si5 0.928168 0.254214 0.535283
Si Si6 0.648387 0.255304 0.134386
O O1 0.271926 0.309938 0.313184
O O2 0.149702 0.477811 0.233696
O O3 0.164131 0.994514 0.267394
O O4 0.218668 0.170034 0.035457
O O5 0.732180 0.247398 0.093298
O O6 0.871401 0.201913 0.038257
O O7 0.111219 0.254451 0.804119
O O8 0.000000 0.500000 0.923588
O O9 0.987510 0.255759 0.671107
O O10 0.000000 0.000000 0.916693
O O11 0.946688 0.245690 0.351323
O O12 0.882207 0.502653 0.559276
O O13 0.883819 0.008303 0.570202
#
# Coordination Sequence:
#
# PCOD9347106 Si02
#       6
#     4   4   4   4   4   4
#     4  10  22  30  48  66  97 133 173 202 250 311
#     4  10  21  32  48  69  99 137 170 205 263 309
#     4   8  16  25  41  65  89 123 150 198 253 303
#     4  10  20  30  47  68  93 141 161 207 251 313
#     4  10  16  30  44  65  96 128 158 202 253 310
#     4  10  17  27  46  65  96 127 158 204 256 306
#
# _framework density 27.539681999999999
#
# number of rings (size 3 to 8) (size 9 to 14) (size 15 to 20)
#    1.000    1.333    3.333    0.000    4.667    0.000 
#    0.000    0.000    0.000    0.000    0.000    0.000 
#    0.000   12.000   21.000    0.000    0.000    0.333 
#
# Total GULP energy -133727.109616 kJ/mol
# GULP energy per Si atom -5571.962901 kJ/mol
# Density = 2.747700 g / cm^3
# Si number density = 27.539682 Si / 1000 Ang^3
#
#
#
# Elastic Constant Matrix: (Units=GPa)
#
#
# Indices 1 2 3 4 5 6 
#
# 1 101.9034 40.5956 35.9414 0.0000 0.0000 0.0000
# 2 40.5956 228.7662 34.1663 0.0000 0.0000 0.0000
# 3 35.9414 34.1663 47.9678 0.0000 0.0000 0.0000
# 4 0.0000 0.0000 0.0000 -5.6846 0.0000 0.0000
# 5 0.0000 0.0000 0.0000 0.0000 56.2114 0.0000
# 6 0.0000 0.0000 0.0000 0.0000 0.0000 6.4342
#
#
#
# Elastic Compliance Matrix: (Units=1/GPa)
#
#
# Indices 1 2 3 4 5 6 
#
# 1 0.013537 -0.000993 -0.009436 0.000000 0.000000 0.000000
# 2 -0.000993 0.004964 -0.002792 0.000000 0.000000 0.000000
# 3 -0.009436 -0.002792 0.029906 0.000000 0.000000 0.000000
# 4 0.000000 0.000000 0.000000 -0.175915 0.000000 0.000000
# 5 0.000000 0.000000 0.000000 0.000000 0.017790 0.000000
# 6 0.000000 0.000000 0.000000 0.000000 0.000000 0.155420
#
#
# Mechanical properties :
#
#
# Convention : Reuss Voigt Hill
#
# Bulk Modulus (GPa) = 45.52496 66.67154 56.09825
# Shear Modulus (GPa) = 62.91988 29.25447 46.08717
#
# Velocity S-wave (km/s) = 4.78504 3.26278 4.09526
# Velocity P-wave (km/s) = 6.86261 6.20130 6.54032
#
# Compressibility (1/GPa) = 0.02196597
#
# Stress axis : x y z
#
# Youngs Moduli (GPa) = 73.87325 201.43109 33.43817
#
# Poissons Ratio (x) = 0.20001 0.31551
# Poissons Ratio (y) = 0.07335 0.09336
# Poissons Ratio (z) = 0.69703 0.56241
#
# Static dielectric constant tensor:
#      x y z
#    x 2.157030 0.000000 0.000000 
#    y 0.000000 2.171940 0.000000 
#    z 0.000000 0.000000 2.276550 
# 
# From -- ./inp_files/5904.got.cif
#   From: 2010.05.17/outbox.cif.g08.bks.cpg/sg34_3_cif.got.tgz:5904.got - 2010.06.03 17:23:11.
