data_PCOD9347787
_publ_section_title
;
Structure prediction by ZEFSAII (Michael W. Deem and Ramdas Pophale) SiO2 
 PCOD9347787
Probable space group: P N N 2
;
_chemical_formula_sum "Si O2"
_cell_formula_units_Z 22
_cell_length_a 13.651559
_cell_length_b 5.011977
_cell_length_c 12.822074
_cell_angle_alpha 90.000000
_cell_angle_beta 90.000000
_cell_angle_gamma 90.000000
_cell_volume 877.302968
_symmetry_space_group_name_H-M "P N N 2"
_symmetry_group_IT_number 34
_symmetry_cell_setting 'orthorhombic'
loop_
_space_group_symop_operation_xyz
x,y,z
-x,-y,z
1/2-x,1/2+y,1/2+z
1/2+x,1/2-y,1/2+z
loop_
_atom_site_type_symbol
_atom_site_label
_atom_site_fract_x
_atom_site_fract_y
_atom_site_fract_z
Si Si1 0.302315 0.448971 0.642980
Si Si2 0.103726 0.853680 0.429373
Si Si3 0.842846 0.550046 0.266772
Si Si4 0.693242 0.332888 0.408930
Si Si5 0.906892 0.343650 0.650096
Si Si6 0.000000 0.000000 0.827335
O O1 0.359165 0.664733 0.715508
O O2 0.303048 0.532029 0.522740
O O3 0.187055 0.473341 0.670511
O O4 0.344848 0.163338 0.672813
O O5 0.098409 0.573970 0.364713
O O6 0.222501 0.901541 0.403818
O O7 0.114290 0.852799 0.554204
O O8 0.000000 0.000000 0.406321
O O9 0.735860 0.525245 0.318432
O O10 0.578071 0.317310 0.388590
O O11 0.000000 0.500000 0.606333
O O12 0.944344 0.200048 0.751371
#
# Coordination Sequence:
#
# PCOD9347787 Si02
#       6
#     4   4   4   4   4   2
#     4  11  23  46  65 103 145 191 241 296 385 453
#     4   9  20  42  65 106 135 188 244 309 375 446
#     4  10  23  43  72  96 141 196 235 308 368 450
#     4   9  23  40  71 100 143 193 242 312 373 460
#     4  11  22  35  71 101 138 181 245 313 365 443
#     4  12  20  46  62 106 140 188 246 306 378 442
#
# _framework density 25.076855999999999
#
# number of rings (size 3 to 8) (size 9 to 14) (size 15 to 20)
#    1.091    0.727    2.727    1.091    0.000    2.909 
#    4.909    0.000    0.000    0.000    0.000    0.000 
#    0.000    0.000    0.000    0.000    0.000    0.000 
#
# Total GULP energy -122478.382702 kJ/mol
# GULP energy per Si atom -5567.199214 kJ/mol
# Density = 2.501978 g / cm^3
# Si number density = 25.076856 Si / 1000 Ang^3
#
#
#
# Elastic Constant Matrix: (Units=GPa)
#
#
# Indices 1 2 3 4 5 6 
#
# 1 168.1285 26.6974 32.4333 0.0000 0.0000 0.0000
# 2 26.6974 69.2127 19.8466 0.0000 0.0000 0.0000
# 3 32.4333 19.8466 93.9599 0.0000 0.0000 0.0000
# 4 0.0000 0.0000 0.0000 248.3553 0.0000 0.0000
# 5 0.0000 0.0000 0.0000 0.0000 103.6394 0.0000
# 6 0.0000 0.0000 0.0000 0.0000 0.0000 27.7836
#
#
#
# Elastic Compliance Matrix: (Units=1/GPa)
#
#
# Indices 1 2 3 4 5 6 
#
# 1 0.006628 -0.002023 -0.001861 0.000000 0.000000 0.000000
# 2 -0.002023 0.015997 -0.002681 0.000000 0.000000 0.000000
# 3 -0.001861 -0.002681 0.011851 0.000000 0.000000 0.000000
# 4 0.000000 0.000000 0.000000 0.004026 0.000000 0.000000
# 5 0.000000 0.000000 0.000000 0.000000 0.009649 0.000000
# 6 0.000000 0.000000 0.000000 0.000000 0.000000 0.035992
#
#
# Mechanical properties :
#
#
# Convention : Reuss Voigt Hill
#
# Bulk Modulus (GPa) = 46.84298 54.36175 50.60236
# Shear Modulus (GPa) = 47.89780 92.77725 70.33753
#
# Velocity S-wave (km/s) = 4.37514 6.08913 5.30186
# Velocity P-wave (km/s) = 6.65153 8.43574 7.59620
#
# Compressibility (1/GPa) = 0.02134792
#
# Stress axis : x y z
#
# Youngs Moduli (GPa) = 150.87511 62.51064 84.37906
#
# Poissons Ratio (x) = 0.12647 0.15699
# Poissons Ratio (y) = 0.30524 0.22619
# Poissons Ratio (z) = 0.28071 0.16757
#
# Static dielectric constant tensor:
#      x y z
#    x 2.063080 0.000000 0.000000 
#    y 0.000000 2.046970 0.000000 
#    z 0.000000 0.000000 1.983590 
# 
# From -- ./inp_files/5585.got.cif
#   From: 2010.05.17/outbox.cif.g08.bks.cpg/sg34_3_cif.got.tgz:5585.got - 2010.06.03 17:23:11.
