data_PCOD9347837
_publ_section_title
;
Structure prediction by ZEFSAII (Michael W. Deem and Ramdas Pophale) SiO2 
 PCOD9347837
Probable space group: P N N 2
;
_chemical_formula_sum "Si O2"
_cell_formula_units_Z 22
_cell_length_a 13.759791
_cell_length_b 10.683709
_cell_length_c 5.922143
_cell_angle_alpha 90.000000
_cell_angle_beta 90.000000
_cell_angle_gamma 90.000000
_cell_volume 870.588202
_symmetry_space_group_name_H-M "P N N 2"
_symmetry_group_IT_number 34
_symmetry_cell_setting 'orthorhombic'
loop_
_space_group_symop_operation_xyz
x,y,z
-x,-y,z
1/2-x,1/2+y,1/2+z
1/2+x,1/2-y,1/2+z
loop_
_atom_site_type_symbol
_atom_site_label
_atom_site_fract_x
_atom_site_fract_y
_atom_site_fract_z
Si Si1 0.154631 0.558782 0.593180
Si Si2 0.164466 0.160940 0.885635
Si Si3 0.500000 0.500000 0.170796
Si Si4 0.151768 0.325306 0.268088
Si Si5 0.678223 0.796574 0.494497
Si Si6 0.545843 0.708948 0.866042
O O1 0.270304 0.580619 0.559843
O O2 0.128961 0.445529 0.424173
O O3 0.141225 0.580148 0.862275
O O4 0.092230 0.674510 0.497924
O O5 0.067804 0.090168 0.816839
O O6 0.239030 0.171513 0.677655
O O7 0.146576 0.297389 0.998570
O O8 0.565289 0.584367 0.004273
O O9 0.262727 0.292679 0.326686
O O10 0.069611 0.227282 0.349991
O O11 0.594020 0.722404 0.621435
#
# Coordination Sequence:
#
# PCOD9347837 Si02
#       6
#     4   4   2   4   4   4
#     4  10  25  46  72 107 154 206 264 337 396 483
#     4  10  25  44  70 113 149 210 257 335 403 476
#     4  12  26  46  76 112 166 200 276 326 394 508
#     4  11  24  45  74 109 152 205 274 320 411 485
#     4  10  24  45  70 111 153 205 264 326 418 464
#     4  11  26  45  71 115 152 211 260 331 405 474
#
# _framework density 25.27027
#
# number of rings (size 3 to 8) (size 9 to 14) (size 15 to 20)
#    0.000    1.455    1.818    0.545   12.727    2.182 
#    0.000    3.636    0.000    0.000    0.000    0.000 
#    0.000    0.000    0.000    0.000    0.000    0.000 
#
# Total GULP energy -122826.457881 kJ/mol
# GULP energy per Si atom -5583.020813 kJ/mol
# Density = 2.521275 g / cm^3
# Si number density = 25.270270 Si / 1000 Ang^3
#
#
#
# Elastic Constant Matrix: (Units=GPa)
#
#
# Indices 1 2 3 4 5 6 
#
# 1 111.6956 32.0313 45.1669 0.0000 0.0000 0.0000
# 2 32.0313 132.0703 66.3631 0.0000 0.0000 0.0000
# 3 45.1669 66.3631 136.1021 0.0000 0.0000 0.0000
# 4 0.0000 0.0000 0.0000 52.5079 0.0000 0.0000
# 5 0.0000 0.0000 0.0000 0.0000 46.8095 0.0000
# 6 0.0000 0.0000 0.0000 0.0000 0.0000 35.9640
#
#
#
# Elastic Compliance Matrix: (Units=1/GPa)
#
#
# Indices 1 2 3 4 5 6 
#
# 1 0.010449 -0.001049 -0.002956 0.000000 0.000000 0.000000
# 2 -0.001049 0.010134 -0.004593 0.000000 0.000000 0.000000
# 3 -0.002956 -0.004593 0.010568 0.000000 0.000000 0.000000
# 4 0.000000 0.000000 0.000000 0.019045 0.000000 0.000000
# 5 0.000000 0.000000 0.000000 0.000000 0.021363 0.000000
# 6 0.000000 0.000000 0.000000 0.000000 0.000000 0.027806
#
#
# Mechanical properties :
#
#
# Convention : Reuss Voigt Hill
#
# Bulk Modulus (GPa) = 71.66047 74.11007 72.88527
# Shear Modulus (GPa) = 41.24957 42.81004 42.02980
#
# Velocity S-wave (km/s) = 4.04460 4.12039 4.08267
# Velocity P-wave (km/s) = 7.08738 7.21301 7.15047
#
# Compressibility (1/GPa) = 0.01395470
#
# Stress axis : x y z
#
# Youngs Moduli (GPa) = 95.70201 98.67603 94.62345
#
# Poissons Ratio (x) = 0.10349 0.27973
# Poissons Ratio (y) = 0.10037 0.43464
# Poissons Ratio (z) = 0.28292 0.45325
#
# Static dielectric constant tensor:
#      x y z
#    x 1.941640 0.000000 0.000000 
#    y 0.000000 2.043100 0.000000 
#    z 0.000000 0.000000 2.266010 
# 
# From -- ./inp_files/884.got.cif
#   From: 2010.05.17/outbox.cif.g08.bks.cpg/sg34_1_cif.got.tgz:884.got - 2010.06.03 17:23:11.
