data_PCOD9347046
_publ_section_title
;
Structure prediction by ZEFSAII (Michael W. Deem and Ramdas Pophale) SiO2 
 PCOD9347046
Probable space group: P N A 21
;
_chemical_formula_sum "Si O2"
_cell_formula_units_Z 24
_cell_length_a 16.882850
_cell_length_b 6.822845
_cell_length_c 7.077146
_cell_angle_alpha 90.000000
_cell_angle_beta 90.000000
_cell_angle_gamma 90.000000
_cell_volume 815.209857
_symmetry_space_group_name_H-M "P N A 21"
_symmetry_group_IT_number 33
_symmetry_cell_setting 'orthorhombic'
loop_
_space_group_symop_operation_xyz
x,y,z
-x,-y,1/2+z
1/2-x,1/2+y,1/2+z
1/2+x,1/2-y,z
loop_
_atom_site_type_symbol
_atom_site_label
_atom_site_fract_x
_atom_site_fract_y
_atom_site_fract_z
Si Si1 0.938762 0.799678 0.182170
Si Si2 0.223290 0.230606 0.185868
Si Si3 0.605931 0.863427 0.619038
Si Si4 0.232548 0.154450 0.752184
Si Si5 0.940812 0.724208 0.629606
Si Si6 0.393937 0.233013 0.686441
O O1 0.920949 0.586479 0.095180
O O2 0.852204 0.894721 0.158548
O O3 0.946175 0.773555 0.408404
O O4 0.028352 0.855870 0.124061
O O5 0.308619 0.131134 0.218306
O O6 0.231244 0.440496 0.282161
O O7 0.133192 0.163813 0.226693
O O8 0.220213 0.250885 0.956482
O O9 0.529506 0.761021 0.714942
O O10 0.612174 0.767882 0.413838
O O11 0.301333 0.266632 0.634180
O O12 0.917007 0.492128 0.633613
#
# Coordination Sequence:
#
# PCOD9347046 Si02
#       6
#     4   4   4   4   4   4
#     4   9  16  28  49  71  90 122 167 210 248 303
#     4   9  17  31  49  70  98 134 168 207 258 313
#     4   9  16  28  49  71  90 122 167 210 248 303
#     4   9  17  31  49  70  98 134 168 207 258 313
#     4   8  15  29  47  65  92 128 162 197 251 314
#     4   8  15  29  47  65  92 128 162 197 251 314
#
# _framework density 29.440273999999999
#
# number of rings (size 3 to 8) (size 9 to 14) (size 15 to 20)
#    0.000    3.333    0.000    0.000    0.000    0.000 
#    0.000   16.667    0.000   28.000    0.000    0.000 
#    0.000    0.000    0.000    0.000    0.000    0.000 
#
# Total GULP energy -134075.560263 kJ/mol
# GULP energy per Si atom -5586.481678 kJ/mol
# Density = 2.937327 g / cm^3
# Si number density = 29.440274 Si / 1000 Ang^3
#
#
#
# Elastic Constant Matrix: (Units=GPa)
#
#
# Indices 1 2 3 4 5 6 
#
# 1 376.6582 43.8076 9.4777 0.0000 0.0000 0.0000
# 2 43.8076 56.9324 22.8983 0.0000 0.0000 0.0000
# 3 9.4777 22.8983 136.8324 0.0000 0.0000 0.0000
# 4 0.0000 0.0000 0.0000 26.5151 0.0000 0.0000
# 5 0.0000 0.0000 0.0000 0.0000 6.9529 0.0000
# 6 0.0000 0.0000 0.0000 0.0000 0.0000 62.7768
#
#
#
# Elastic Compliance Matrix: (Units=1/GPa)
#
#
# Indices 1 2 3 4 5 6 
#
# 1 0.002920 -0.002322 0.000186 0.000000 0.000000 0.000000
# 2 -0.002322 0.020679 -0.003300 0.000000 0.000000 0.000000
# 3 0.000186 -0.003300 0.007847 0.000000 0.000000 0.000000
# 4 0.000000 0.000000 0.000000 0.037714 0.000000 0.000000
# 5 0.000000 0.000000 0.000000 0.000000 0.143825 0.000000
# 6 0.000000 0.000000 0.000000 0.000000 0.000000 0.015929
#
#
# Mechanical properties :
#
#
# Convention : Reuss Voigt Hill
#
# Bulk Modulus (GPa) = 48.60115 80.31002 64.45558
# Shear Modulus (GPa) = 20.27207 52.19824 36.23516
#
# Velocity S-wave (km/s) = 2.62693 4.21529 3.51209
# Velocity P-wave (km/s) = 5.07398 7.14351 6.19577
#
# Compressibility (1/GPa) = 0.02057564
#
# Stress axis : x y z
#
# Youngs Moduli (GPa) = 342.43015 48.35932 127.42933
#
# Poissons Ratio (x) = 0.11229 -0.02374
# Poissons Ratio (y) = 0.79513 0.42047
# Poissons Ratio (z) = -0.06380 0.15957
#
# Static dielectric constant tensor:
#      x y z
#    x 2.472900 0.000000 0.000000 
#    y 0.000000 2.375290 0.000000 
#    z 0.000000 0.000000 2.136600 
# 
# From -- ./inp_files/4645.got.cif
#   From: 2010.05.17/outbox.cif.g08.bks.cpg/sg33_3_cif.got.tgz:4645.got - 2010.06.03 17:15:25.
