data_PCOD9347910
_publ_section_title
;
Structure prediction by ZEFSAII (Michael W. Deem and Ramdas Pophale) SiO2 
 PCOD9347910
Probable space group: P N N 2
;
_chemical_formula_sum "Si O2"
_cell_formula_units_Z 32
_cell_length_a 13.778430
_cell_length_b 8.636211
_cell_length_c 11.237538
_cell_angle_alpha 90.000000
_cell_angle_beta 90.000000
_cell_angle_gamma 90.000000
_cell_volume 1337.193177
_symmetry_space_group_name_H-M "P N N 2"
_symmetry_group_IT_number 34
_symmetry_cell_setting 'orthorhombic'
loop_
_space_group_symop_operation_xyz
x,y,z
-x,-y,z
1/2-x,1/2+y,1/2+z
1/2+x,1/2-y,1/2+z
loop_
_atom_site_type_symbol
_atom_site_label
_atom_site_fract_x
_atom_site_fract_y
_atom_site_fract_z
Si Si1 0.731625 0.647399 0.161050
Si Si2 0.758454 0.430674 0.934102
Si Si3 0.877136 0.872899 0.078518
Si Si4 0.218622 0.865370 0.216729
Si Si5 0.533626 0.821163 0.173245
Si Si6 0.373522 0.812237 0.005690
Si Si7 0.469572 0.180944 0.444502
Si Si8 0.720363 0.929151 0.869894
O O1 0.832623 0.736964 0.158633
O O2 0.644274 0.770275 0.156809
O O3 0.726077 0.542664 0.277322
O O4 0.734079 0.540139 0.044771
O O5 0.772948 0.531271 0.816502
O O6 0.854004 0.329064 0.958503
O O7 0.668923 0.316935 0.919789
O O8 0.863194 0.029495 0.153953
O O9 0.800436 0.883636 0.968203
O O10 0.976115 0.805188 0.025677
O O11 0.297466 0.823010 0.116419
O O12 0.184911 0.715074 0.290397
O O13 0.471973 0.754317 0.064739
O O14 0.506798 0.774817 0.307822
O O15 0.500000 0.000000 0.167086
O O16 0.364235 0.975658 0.937538
O O17 0.500000 0.000000 0.465020
#
# Coordination Sequence:
#
# PCOD9347910 Si02
#       8
#     4   4   4   4   4   4   4   4
#     4  12  24  43  78 106 146 203 245 309 383 450
#     4  12  24  44  75 103 150 196 247 314 383 452
#     4  11  23  42  75 108 146 197 257 316 375 444
#     4  11  22  43  71 104 148 199 250 308 384 448
#     4  11  24  43  76 114 141 190 257 309 368 457
#     4  11  24  43  73 103 148 192 251 314 374 443
#     4  11  21  42  72 108 140 190 259 314 367 450
#     4  11  22  43  72 106 148 207 245 309 392 448
#
# _framework density 23.930723
#
# number of rings (size 3 to 8) (size 9 to 14) (size 15 to 20)
#    0.000    0.750    3.750    6.000    0.000    0.500 
#    0.000    5.000   22.000    0.000    0.000    0.000 
#    0.000    0.000    0.000    0.000    0.000    0.000 
#
# Total GULP energy -179100.170673 kJ/mol
# GULP energy per Si atom -5596.880334 kJ/mol
# Density = 2.387626 g / cm^3
# Si number density = 23.930723 Si / 1000 Ang^3
#
#
#
# Elastic Constant Matrix: (Units=GPa)
#
#
# Indices 1 2 3 4 5 6 
#
# 1 88.9829 28.3971 27.4155 0.0000 0.0000 0.0000
# 2 28.3971 102.0216 52.3688 0.0000 0.0000 0.0000
# 3 27.4155 52.3688 128.1159 0.0000 0.0000 0.0000
# 4 0.0000 0.0000 0.0000 33.8848 0.0000 0.0000
# 5 0.0000 0.0000 0.0000 0.0000 26.3469 0.0000
# 6 0.0000 0.0000 0.0000 0.0000 0.0000 32.1130
#
#
#
# Elastic Compliance Matrix: (Units=1/GPa)
#
#
# Indices 1 2 3 4 5 6 
#
# 1 0.012586 -0.002684 -0.001596 0.000000 0.000000 0.000000
# 2 -0.002684 0.012977 -0.004730 0.000000 0.000000 0.000000
# 3 -0.001596 -0.004730 0.010081 0.000000 0.000000 0.000000
# 4 0.000000 0.000000 0.000000 0.029512 0.000000 0.000000
# 5 0.000000 0.000000 0.000000 0.000000 0.037955 0.000000
# 6 0.000000 0.000000 0.000000 0.000000 0.000000 0.031140
#
#
# Mechanical properties :
#
#
# Convention : Reuss Voigt Hill
#
# Bulk Modulus (GPa) = 56.74351 59.49814 58.12083
# Shear Modulus (GPa) = 31.61635 32.53153 32.07394
#
# Velocity S-wave (km/s) = 3.63872 3.69101 3.66496
# Velocity P-wave (km/s) = 6.43559 6.56364 6.49993
#
# Compressibility (1/GPa) = 0.01762316
#
# Stress axis : x y z
#
# Youngs Moduli (GPa) = 79.45042 77.05975 99.20128
#
# Poissons Ratio (x) = 0.20683 0.15835
# Poissons Ratio (y) = 0.21324 0.46923
# Poissons Ratio (z) = 0.12682 0.36450
#
# Static dielectric constant tensor:
#      x y z
#    x 1.896680 0.000000 0.000000 
#    y 0.000000 1.980740 0.000000 
#    z 0.000000 0.000000 1.895060 
# 
# From -- ./inp_files/5683.got.cif
#   From: 2010.05.17/outbox.cif.g08.bks.cpg/sg34_3_cif.got.tgz:5683.got - 2010.06.03 17:23:11.
