data_PCOD9347043
_publ_section_title
;
Structure prediction by ZEFSAII (Michael W. Deem and Ramdas Pophale) SiO2 
 PCOD9347043
Probable space group: P N A 21
;
_chemical_formula_sum "Si O2"
_cell_formula_units_Z 24
_cell_length_a 11.208214
_cell_length_b 11.116385
_cell_length_c 7.394676
_cell_angle_alpha 90.000000
_cell_angle_beta 90.000000
_cell_angle_gamma 90.000000
_cell_volume 921.338340
_symmetry_space_group_name_H-M "P N A 21"
_symmetry_group_IT_number 33
_symmetry_cell_setting 'orthorhombic'
loop_
_space_group_symop_operation_xyz
x,y,z
-x,-y,1/2+z
1/2-x,1/2+y,1/2+z
1/2+x,1/2-y,z
loop_
_atom_site_type_symbol
_atom_site_label
_atom_site_fract_x
_atom_site_fract_y
_atom_site_fract_z
Si Si1 0.834092 0.981601 0.751820
Si Si2 0.078183 0.529997 0.814819
Si Si3 0.165048 0.534307 0.203387
Si Si4 0.562808 0.243771 0.943733
Si Si5 0.314844 0.263046 0.962043
Si Si6 0.422107 0.558694 0.126933
O O1 0.697324 0.952752 0.693033
O O2 0.817062 0.115173 0.841636
O O3 0.947487 0.995492 0.619301
O O4 0.884001 0.905889 0.923504
O O5 0.066318 0.387235 0.853021
O O6 0.941351 0.555469 0.762867
O O7 0.119388 0.579781 0.007675
O O8 0.176562 0.651430 0.325135
O O9 0.301526 0.486210 0.190044
O O10 0.442574 0.259919 0.058014
O O11 0.686218 0.251362 0.051620
O O12 0.564860 0.336017 0.774553
#
# Coordination Sequence:
#
# PCOD9347043 Si02
#       6
#     4   4   4   4   4   4
#     4   9  17  29  47  71  96 124 160 198 237 285
#     4   9  17  29  47  71  96 124 160 198 237 285
#     4   9  17  29  47  71  96 124 160 198 237 285
#     4   8  14  26  44  64  88 118 150 188 232 274
#     4   8  14  26  44  64  88 118 150 188 232 274
#     4   9  17  29  47  71  96 124 160 198 237 285
#
# _framework density 26.049063
#
# number of rings (size 3 to 8) (size 9 to 14) (size 15 to 20)
#    0.000    3.333    0.000    0.000    0.000    1.333 
#    0.000    0.000    0.000   18.000    0.000  107.333 
#    0.000    0.000    0.000    0.000    0.000    0.000 
#
# Total GULP energy -133740.390738 kJ/mol
# GULP energy per Si atom -5572.516281 kJ/mol
# Density = 2.598977 g / cm^3
# Si number density = 26.049063 Si / 1000 Ang^3
#
#
#
# Elastic Constant Matrix: (Units=GPa)
#
#
# Indices 1 2 3 4 5 6 
#
# 1 273.5442 28.6816 11.6152 0.0000 0.0000 0.0000
# 2 28.6816 53.6023 33.5782 0.0000 0.0000 0.0000
# 3 11.6152 33.5782 56.6756 0.0000 0.0000 0.0000
# 4 0.0000 0.0000 0.0000 30.7719 0.0000 0.0000
# 5 0.0000 0.0000 0.0000 0.0000 44.7853 0.0000
# 6 0.0000 0.0000 0.0000 0.0000 0.0000 32.8605
#
#
#
# Elastic Compliance Matrix: (Units=1/GPa)
#
#
# Indices 1 2 3 4 5 6 
#
# 1 0.003890 -0.002516 0.000693 0.000000 0.000000 0.000000
# 2 -0.002516 0.031293 -0.018024 0.000000 0.000000 0.000000
# 3 0.000693 -0.018024 0.028181 0.000000 0.000000 0.000000
# 4 0.000000 0.000000 0.000000 0.032497 0.000000 0.000000
# 5 0.000000 0.000000 0.000000 0.000000 0.022329 0.000000
# 6 0.000000 0.000000 0.000000 0.000000 0.000000 0.030432
#
#
# Mechanical properties :
#
#
# Convention : Reuss Voigt Hill
#
# Bulk Modulus (GPa) = 42.24703 59.06357 50.65530
# Shear Modulus (GPa) = 25.48344 42.34668 33.91506
#
# Velocity S-wave (km/s) = 3.13115 4.03631 3.61219
# Velocity P-wave (km/s) = 5.41531 6.66675 6.07335
#
# Compressibility (1/GPa) = 0.02367030
#
# Stress axis : x y z
#
# Youngs Moduli (GPa) = 257.06523 31.95587 35.48488
#
# Poissons Ratio (x) = 0.08039 -0.02460
# Poissons Ratio (y) = 0.64672 0.63960
# Poissons Ratio (z) = -0.17822 0.57599
#
# Static dielectric constant tensor:
#      x y z
#    x 2.251730 0.000000 0.000000 
#    y 0.000000 2.088630 0.000000 
#    z 0.000000 0.000000 2.059310 
# 
# From -- ./inp_files/3794.got.cif
#   From: 2010.05.17/outbox.cif.g08.bks.cpg/sg33_2_cif.got.tgz:3794.got - 2010.06.03 17:15:25.
