data_PCOD9347284
_publ_section_title
;
Structure prediction by ZEFSAII (Michael W. Deem and Ramdas Pophale) SiO2 
 PCOD9347284
Probable space group: P N N 2
;
_chemical_formula_sum "Si O2"
_cell_formula_units_Z 32
_cell_length_a 11.900559
_cell_length_b 18.370333
_cell_length_c 7.719614
_cell_angle_alpha 90.000000
_cell_angle_beta 90.000000
_cell_angle_gamma 90.000000
_cell_volume 1687.640643
_symmetry_space_group_name_H-M "P N N 2"
_symmetry_group_IT_number 34
_symmetry_cell_setting 'orthorhombic'
loop_
_space_group_symop_operation_xyz
x,y,z
-x,-y,z
1/2-x,1/2+y,1/2+z
1/2+x,1/2-y,1/2+z
loop_
_atom_site_type_symbol
_atom_site_label
_atom_site_fract_x
_atom_site_fract_y
_atom_site_fract_z
Si Si1 0.560202 0.075188 0.520520
Si Si2 0.153195 0.218231 0.323630
Si Si3 0.059140 0.232155 0.679806
Si Si4 0.220033 0.358494 0.730700
Si Si5 0.787902 0.620608 0.311993
Si Si6 0.957400 0.148612 0.140119
Si Si7 0.465775 0.420100 0.290328
Si Si8 0.395764 0.202684 0.438947
O O1 0.647390 0.095488 0.366685
O O2 0.622908 0.073818 0.705421
O O3 0.466339 0.138475 0.523218
O O4 0.500000 0.000000 0.482304
O O5 0.190707 0.296135 0.250252
O O6 0.265778 0.185772 0.407691
O O7 0.065581 0.236636 0.475131
O O8 0.081936 0.166293 0.203154
O O9 0.043007 0.147642 0.728874
O O10 0.955643 0.277098 0.757902
O O11 0.169815 0.275998 0.745530
O O12 0.204968 0.379543 0.523970
O O13 0.353036 0.366385 0.767204
O O14 0.663938 0.597822 0.252057
O O15 0.967710 0.085748 0.998811
O O16 0.913131 0.222719 0.045746
O O17 0.500000 0.500000 0.229238
#
# Coordination Sequence:
#
# PCOD9347284 Si02
#       8
#     4   4   4   4   4   4   4   4
#     4  11  24  39  62  88 126 165 195 244 314 365
#     4  11  19  35  62  88 114 148 207 262 298 347
#     4   9  18  34  59  86 111 152 198 251 294 342
#     4   9  20  39  62  88 118 155 208 253 293 359
#     4  10  20  39  62  83 119 160 197 255 307 347
#     4  10  19  37  62  83 116 156 201 253 304 355
#     4  10  21  39  56  84 126 159 193 244 306 373
#     4  10  19  38  57  86 119 148 208 254 286 365
#
# _framework density 18.961383000000001
#
# number of rings (size 3 to 8) (size 9 to 14) (size 15 to 20)
#    0.000    2.000    6.250    0.000    1.750    1.500 
#    4.500    0.625    0.000    0.000    0.000    0.000 
#    0.000    0.000    0.000    0.000    0.000    0.000 
#
# Total GULP energy -178204.892228 kJ/mol
# GULP energy per Si atom -5568.902882 kJ/mol
# Density = 1.891823 g / cm^3
# Si number density = 18.961383 Si / 1000 Ang^3
#
#
#
# Elastic Constant Matrix: (Units=GPa)
#
#
# Indices 1 2 3 4 5 6 
#
# 1 83.3739 26.3732 29.7598 0.0000 0.0000 0.0000
# 2 26.3732 88.8893 12.9450 0.0000 0.0000 0.0000
# 3 29.7598 12.9450 35.0785 0.0000 0.0000 0.0000
# 4 0.0000 0.0000 0.0000 10.0345 0.0000 0.0000
# 5 0.0000 0.0000 0.0000 0.0000 23.1539 0.0000
# 6 0.0000 0.0000 0.0000 0.0000 0.0000 20.1262
#
#
#
# Elastic Compliance Matrix: (Units=1/GPa)
#
#
# Indices 1 2 3 4 5 6 
#
# 1 0.018080 -0.003308 -0.014118 0.000000 0.000000 0.000000
# 2 -0.003308 0.012494 -0.001804 0.000000 0.000000 0.000000
# 3 -0.014118 -0.001804 0.041150 0.000000 0.000000 0.000000
# 4 0.000000 0.000000 0.000000 0.099656 0.000000 0.000000
# 5 0.000000 0.000000 0.000000 0.000000 0.043189 0.000000
# 6 0.000000 0.000000 0.000000 0.000000 0.000000 0.049687
#
#
# Mechanical properties :
#
#
# Convention : Reuss Voigt Hill
#
# Bulk Modulus (GPa) = 30.06215 38.38863 34.22539
# Shear Modulus (GPa) = 15.93348 19.88050 17.90699
#
# Velocity S-wave (km/s) = 2.90196 3.24153 3.07643
# Velocity P-wave (km/s) = 5.20743 5.85659 5.54152
#
# Compressibility (1/GPa) = 0.03326443
#
# Stress axis : x y z
#
# Youngs Moduli (GPa) = 55.31008 80.03696 24.30108
#
# Poissons Ratio (x) = 0.26479 0.34308
# Poissons Ratio (y) = 0.18298 0.04384
# Poissons Ratio (z) = 0.78085 0.14439
#
# Static dielectric constant tensor:
#      x y z
#    x 1.698580 0.000000 0.000000 
#    y 0.000000 1.652590 0.000000 
#    z 0.000000 0.000000 1.709870 
# 
# From -- ./inp_files/3337.got.cif
#   From: 2010.05.17/outbox.cif.g08.bks.cpg/sg34_2_cif.got.tgz:3337.got - 2010.06.03 17:23:11.
