data_PCOD9347099
_publ_section_title
;
Structure prediction by ZEFSAII (Michael W. Deem and Ramdas Pophale) SiO2 
 PCOD9347099
Probable space group: P N N 2
;
_chemical_formula_sum "Si O2"
_cell_formula_units_Z 30
_cell_length_a 12.771963
_cell_length_b 14.452499
_cell_length_c 7.107147
_cell_angle_alpha 90.000000
_cell_angle_beta 90.000000
_cell_angle_gamma 90.000000
_cell_volume 1311.885397
_symmetry_space_group_name_H-M "P N N 2"
_symmetry_group_IT_number 34
_symmetry_cell_setting 'orthorhombic'
loop_
_space_group_symop_operation_xyz
x,y,z
-x,-y,z
1/2-x,1/2+y,1/2+z
1/2+x,1/2-y,1/2+z
loop_
_atom_site_type_symbol
_atom_site_label
_atom_site_fract_x
_atom_site_fract_y
_atom_site_fract_z
Si Si1 0.414837 0.431692 0.409100
Si Si2 0.088626 0.933919 0.483992
Si Si3 0.571124 0.117714 0.048736
Si Si4 0.278018 0.271825 0.421867
Si Si5 0.000000 0.500000 0.896453
Si Si6 0.715121 0.938701 0.434597
Si Si7 0.141070 0.735803 0.496246
Si Si8 0.792290 0.454292 0.477960
O O1 0.500000 0.500000 0.496227
O O2 0.451105 0.412484 0.195449
O O3 0.378074 0.332721 0.486549
O O4 0.308582 0.491124 0.410106
O O5 0.118460 0.834275 0.401121
O O6 0.193643 0.993606 0.494889
O O7 0.000000 0.000000 0.397689
O O8 0.673990 0.177894 0.998636
O O9 0.544227 0.081934 0.260664
O O10 0.470656 0.182233 0.010733
O O11 0.607117 0.020677 0.948636
O O12 0.269033 0.166987 0.484149
O O13 0.299646 0.263284 0.193883
O O14 0.100956 0.532941 0.007261
O O15 0.711953 0.945789 0.206155
O O16 0.206691 0.651213 0.407928
#
# Coordination Sequence:
#
# PCOD9347099 Si02
#       8
#     4   4   4   4   2   4   4   4
#     4   9  19  36  53  79 109 146 179 230 284 337
#     4  10  21  35  53  78 115 150 179 229 292 343
#     4  10  15  31  57  84 102 141 195 228 274 335
#     4   9  18  30  56  80 110 142 192 229 277 349
#     4  10  18  34  60  80 112 152 190 240 272 334
#     4  10  19  36  54  83 112 147 189 232 285 336
#     4  10  17  33  52  81 111 147 182 232 290 330
#     4   9  18  33  58  81 104 144 192 234 271 334
#
# _framework density 22.867851000000002
#
# number of rings (size 3 to 8) (size 9 to 14) (size 15 to 20)
#    0.000    2.400    4.000    0.800    0.000    0.533 
#    2.400    4.000    8.800    0.000    0.000    0.000 
#    0.000    0.000    0.000    0.000    0.000    0.000 
#
# Total GULP energy -167006.488618 kJ/mol
# GULP energy per Si atom -5566.882954 kJ/mol
# Density = 2.281580 g / cm^3
# Si number density = 22.867851 Si / 1000 Ang^3
#
#
#
# Elastic Constant Matrix: (Units=GPa)
#
#
# Indices 1 2 3 4 5 6 
#
# 1 109.1378 40.8289 0.3503 0.0000 0.0000 0.0000
# 2 40.8289 198.5646 4.6504 0.0000 0.0000 0.0000
# 3 0.3503 4.6504 93.9764 0.0000 0.0000 0.0000
# 4 0.0000 0.0000 0.0000 1.2954 0.0000 0.0000
# 5 0.0000 0.0000 0.0000 0.0000 16.2630 0.0000
# 6 0.0000 0.0000 0.0000 0.0000 0.0000 37.3929
#
#
#
# Elastic Compliance Matrix: (Units=1/GPa)
#
#
# Indices 1 2 3 4 5 6 
#
# 1 0.009927 -0.002043 0.000064 0.000000 0.000000 0.000000
# 2 -0.002043 0.005462 -0.000263 0.000000 0.000000 0.000000
# 3 0.000064 -0.000263 0.010654 0.000000 0.000000 0.000000
# 4 0.000000 0.000000 0.000000 0.771959 0.000000 0.000000
# 5 0.000000 0.000000 0.000000 0.000000 0.061489 0.000000
# 6 0.000000 0.000000 0.000000 0.000000 0.000000 0.026743
#
#
# Mechanical properties :
#
#
# Convention : Reuss Voigt Hill
#
# Bulk Modulus (GPa) = 46.38170 54.81535 50.59852
# Shear Modulus (GPa) = 5.56853 34.71353 20.14103
#
# Velocity S-wave (km/s) = 1.56217 3.90039 2.97098
# Velocity P-wave (km/s) = 4.85596 6.65632 5.82610
#
# Compressibility (1/GPa) = 0.02156023
#
# Stress axis : x y z
#
# Youngs Moduli (GPa) = 100.73859 183.07299 93.86382
#
# Poissons Ratio (x) = 0.37395 -0.00601
# Poissons Ratio (y) = 0.20577 0.02466
# Poissons Ratio (z) = -0.00645 0.04809
#
# Static dielectric constant tensor:
#      x y z
#    x 1.863850 0.000000 0.000000 
#    y 0.000000 1.865960 0.000000 
#    z 0.000000 0.000000 1.910200 
# 
# From -- ./inp_files/3306.got.cif
#   From: 2010.05.17/outbox.cif.g08.bks.cpg/sg34_2_cif.got.tgz:3306.got - 2010.06.03 17:23:11.
