data_PCOD9347529
_publ_section_title
;
Structure prediction by ZEFSAII (Michael W. Deem and Ramdas Pophale) SiO2 
 PCOD9347529
Probable space group: P N N 2
;
_chemical_formula_sum "Si O2"
_cell_formula_units_Z 32
_cell_length_a 7.088691
_cell_length_b 16.554285
_cell_length_c 11.460764
_cell_angle_alpha 90.000000
_cell_angle_beta 90.000000
_cell_angle_gamma 90.000000
_cell_volume 1344.900153
_symmetry_space_group_name_H-M "P N N 2"
_symmetry_group_IT_number 34
_symmetry_cell_setting 'orthorhombic'
loop_
_space_group_symop_operation_xyz
x,y,z
-x,-y,z
1/2-x,1/2+y,1/2+z
1/2+x,1/2-y,1/2+z
loop_
_atom_site_type_symbol
_atom_site_label
_atom_site_fract_x
_atom_site_fract_y
_atom_site_fract_z
Si Si1 0.720464 0.626611 0.029200
Si Si2 0.167070 0.668471 0.012756
Si Si3 0.804598 0.190554 0.192961
Si Si4 0.121473 0.069775 0.108971
Si Si5 0.721098 0.978069 0.667509
Si Si6 0.602918 0.916292 0.910558
Si Si7 0.688008 0.041649 0.302375
Si Si8 0.525872 0.252569 0.911127
O O1 0.686823 0.564848 0.137068
O O2 0.940682 0.655990 0.018307
O O3 0.692333 0.572436 0.912125
O O4 0.585666 0.703489 0.017613
O O5 0.223800 0.743714 0.094856
O O6 0.254940 0.587329 0.066800
O O7 0.279596 0.696716 0.897349
O O8 0.649513 0.123528 0.227538
O O9 0.875128 0.235407 0.307711
O O10 0.979618 0.136179 0.153480
O O11 0.215826 0.022209 0.216648
O O12 0.265573 0.105466 0.017955
O O13 0.000000 0.000000 0.045150
O O14 0.725472 0.934779 0.793623
O O15 0.500000 0.000000 0.658883
O O16 0.451535 0.843824 0.906083
O O17 0.500000 0.000000 0.937785
O O18 0.500000 0.000000 0.348673
#
# Coordination Sequence:
#
# PCOD9347529 Si02
#       8
#     4   4   4   4   4   4   4   4
#     4  10  23  44  68 102 131 168 234 286 340 412
#     4  11  22  42  67  95 136 176 216 280 351 400
#     4  10  23  42  61  97 137 169 227 280 343 413
#     4  10  23  39  62  90 130 175 216 279 329 404
#     4   9  20  41  69  91 131 175 216 280 336 403
#     4  11  23  44  66  91 135 179 227 270 341 417
#     4  10  21  38  65  95 126 168 225 280 341 401
#     4  11  25  42  69 100 135 178 220 292 342 405
#
# _framework density 23.793588
#
# number of rings (size 3 to 8) (size 9 to 14) (size 15 to 20)
#    0.000    1.750    1.250    2.250    8.750    0.500 
#    2.250    0.000    0.000    0.000    0.000    0.000 
#    0.000    0.000    0.000    0.000    0.000    0.000 
#
# Total GULP energy -178622.481599 kJ/mol
# GULP energy per Si atom -5581.952550 kJ/mol
# Density = 2.373943 g / cm^3
# Si number density = 23.793588 Si / 1000 Ang^3
#
#
#
# Elastic Constant Matrix: (Units=GPa)
#
#
# Indices 1 2 3 4 5 6 
#
# 1 56.2499 22.0761 6.5583 0.0000 0.0000 0.0000
# 2 22.0761 139.8749 22.7491 0.0000 0.0000 0.0000
# 3 6.5583 22.7491 61.6166 0.0000 0.0000 0.0000
# 4 0.0000 0.0000 0.0000 21.0561 0.0000 0.0000
# 5 0.0000 0.0000 0.0000 0.0000 18.3307 0.0000
# 6 0.0000 0.0000 0.0000 0.0000 0.0000 29.4285
#
#
#
# Elastic Compliance Matrix: (Units=1/GPa)
#
#
# Indices 1 2 3 4 5 6 
#
# 1 0.019006 -0.002841 -0.000974 0.000000 0.000000 0.000000
# 2 -0.002841 0.008031 -0.002663 0.000000 0.000000 0.000000
# 3 -0.000974 -0.002663 0.017316 0.000000 0.000000 0.000000
# 4 0.000000 0.000000 0.000000 0.047492 0.000000 0.000000
# 5 0.000000 0.000000 0.000000 0.000000 0.054553 0.000000
# 6 0.000000 0.000000 0.000000 0.000000 0.000000 0.033981
#
#
# Mechanical properties :
#
#
# Convention : Reuss Voigt Hill
#
# Bulk Modulus (GPa) = 31.84956 40.05646 35.95301
# Shear Modulus (GPa) = 24.53376 27.52026 26.02701
#
# Velocity S-wave (km/s) = 3.21457 3.40461 3.31095
# Velocity P-wave (km/s) = 5.21467 5.68566 5.45525
#
# Compressibility (1/GPa) = 0.03139761
#
# Stress axis : x y z
#
# Youngs Moduli (GPa) = 52.61362 124.52180 57.74974
#
# Poissons Ratio (x) = 0.35381 0.05625
# Poissons Ratio (y) = 0.14949 0.15376
# Poissons Ratio (z) = 0.05124 0.33155
#
# Static dielectric constant tensor:
#      x y z
#    x 1.960670 0.000000 0.000000 
#    y 0.000000 1.940460 0.000000 
#    z 0.000000 0.000000 1.964810 
# 
# From -- ./inp_files/5090.got.cif
#   From: 2010.05.17/outbox.cif.g08.bks.cpg/sg34_3_cif.got.tgz:5090.got - 2010.06.03 17:23:11.
