data_PCOD9347416
_publ_section_title
;
Structure prediction by ZEFSAII (Michael W. Deem and Ramdas Pophale) SiO2 
 PCOD9347416
Probable space group: P N N 2
;
_chemical_formula_sum "Si O2"
_cell_formula_units_Z 26
_cell_length_a 11.119947
_cell_length_b 6.769918
_cell_length_c 15.819479
_cell_angle_alpha 90.000000
_cell_angle_beta 90.000000
_cell_angle_gamma 90.000000
_cell_volume 1190.908245
_symmetry_space_group_name_H-M "P N N 2"
_symmetry_group_IT_number 34
_symmetry_cell_setting 'orthorhombic'
loop_
_space_group_symop_operation_xyz
x,y,z
-x,-y,z
1/2-x,1/2+y,1/2+z
1/2+x,1/2-y,1/2+z
loop_
_atom_site_type_symbol
_atom_site_label
_atom_site_fract_x
_atom_site_fract_y
_atom_site_fract_z
Si Si1 0.605846 0.873813 0.389660
Si Si2 0.585725 0.677219 0.666137
Si Si3 0.500000 0.000000 0.782006
Si Si4 0.309415 0.800667 0.288815
Si Si5 0.280272 0.755167 0.025396
Si Si6 0.500000 0.500000 0.003670
Si Si7 0.159786 0.642492 0.428635
Si Si8 0.500000 0.500000 0.303572
O O1 0.727332 0.843248 0.440884
O O2 0.561647 0.659636 0.363754
O O3 0.500000 0.000000 0.434684
O O4 0.627430 0.991858 0.303025
O O5 0.500000 0.500000 0.638987
O O6 0.496226 0.819436 0.717704
O O7 0.690978 0.651367 0.735982
O O8 0.667078 0.750046 0.588460
O O9 0.608395 0.977968 0.847763
O O10 0.276768 0.736833 0.385533
O O11 0.397285 0.628055 0.255785
O O12 0.394583 0.621897 0.050801
O O13 0.317673 0.981687 0.002167
O O14 0.431706 0.320807 0.952860
#
# Coordination Sequence:
#
# PCOD9347416 Si02
#       8
#     4   4   2   4   4   2   4   2
#     4  10  22  37  67  98 130 176 227 282 343 417
#     4  11  29  43  66 101 149 184 232 310 376 429
#     4  10  24  44  70 104 132 186 238 290 356 432
#     4  10  22  40  65  97 131 185 234 295 351 429
#     4  12  25  43  68 105 141 189 232 301 363 435
#     4  12  24  43  72 101 136 184 248 304 348 429
#     4  11  22  40  73 101 133 181 250 290 349 431
#     4  10  20  39  64  95 126 170 232 286 334 427
#
# _framework density 21.832077000000002
#
# number of rings (size 3 to 8) (size 9 to 14) (size 15 to 20)
#    0.000    1.231    4.615    0.000    8.615    1.846 
#    0.000    4.615    0.000    0.000    0.000    0.000 
#    0.000    0.000    0.000    0.000    0.000    0.000 
#
# Total GULP energy -144758.971991 kJ/mol
# GULP energy per Si atom -5567.652769 kJ/mol
# Density = 2.178239 g / cm^3
# Si number density = 21.832077 Si / 1000 Ang^3
#
#
#
# Elastic Constant Matrix: (Units=GPa)
#
#
# Indices 1 2 3 4 5 6 
#
# 1 90.5922 41.1671 11.8951 0.0000 0.0000 0.0000
# 2 41.1671 115.3655 27.7466 0.0000 0.0000 0.0000
# 3 11.8951 27.7466 50.5534 0.0000 0.0000 0.0000
# 4 0.0000 0.0000 0.0000 16.6365 0.0000 0.0000
# 5 0.0000 0.0000 0.0000 0.0000 -45.8061 0.0000
# 6 0.0000 0.0000 0.0000 0.0000 0.0000 58.2529
#
#
#
# Elastic Compliance Matrix: (Units=1/GPa)
#
#
# Indices 1 2 3 4 5 6 
#
# 1 0.013191 -0.004563 -0.000599 0.000000 0.000000 0.000000
# 2 -0.004563 0.011565 -0.005274 0.000000 0.000000 0.000000
# 3 -0.000599 -0.005274 0.022817 0.000000 0.000000 0.000000
# 4 0.000000 0.000000 0.000000 0.060109 0.000000 0.000000
# 5 0.000000 0.000000 0.000000 0.000000 -0.021831 0.000000
# 6 0.000000 0.000000 0.000000 0.000000 0.000000 0.017167
#
#
# Mechanical properties :
#
#
# Convention : Reuss Voigt Hill
#
# Bulk Modulus (GPa) = 37.45309 46.45873 41.95591
# Shear Modulus (GPa) = 37.65399 17.53014 27.59206
#
# Velocity S-wave (km/s) = 4.15747 2.83672 3.55890
# Velocity P-wave (km/s) = 6.34337 5.66176 6.01223
#
# Compressibility (1/GPa) = 0.02670006
#
# Stress axis : x y z
#
# Youngs Moduli (GPa) = 75.81150 86.47016 43.82767
#
# Poissons Ratio (x) = 0.39454 0.02627
# Poissons Ratio (y) = 0.34591 0.23114
# Poissons Ratio (z) = 0.04544 0.45602
#
# Static dielectric constant tensor:
#      x y z
#    x 1.976770 0.000000 0.000000 
#    y 0.000000 1.865190 0.000000 
#    z 0.000000 0.000000 1.808710 
# 
# From -- ./inp_files/7684.got.cif
#   From: 2010.05.17/outbox.cif.g08.bks.cpg/sg34_4_cif.got.tgz:7684.got - 2010.06.03 17:23:11.
