data_PCOD9347014
_publ_section_title
;
Structure prediction by ZEFSAII (Michael W. Deem and Ramdas Pophale) SiO2 
 PCOD9347014
Probable space group: P N A 21
;
_chemical_formula_sum "Si O2"
_cell_formula_units_Z 16
_cell_length_a 24.077840
_cell_length_b 5.105014
_cell_length_c 5.154682
_cell_angle_alpha 90.000000
_cell_angle_beta 90.000000
_cell_angle_gamma 90.000000
_cell_volume 633.601709
_symmetry_space_group_name_H-M "P N A 21"
_symmetry_group_IT_number 33
_symmetry_cell_setting 'orthorhombic'
loop_
_space_group_symop_operation_xyz
x,y,z
-x,-y,1/2+z
1/2-x,1/2+y,1/2+z
1/2+x,1/2-y,z
loop_
_atom_site_type_symbol
_atom_site_label
_atom_site_fract_x
_atom_site_fract_y
_atom_site_fract_z
Si Si1 0.035890 0.495858 0.858450
Si Si2 0.608248 0.498888 0.737790
Si Si3 0.322404 0.792340 0.877840
Si Si4 0.696118 0.864327 0.882678
O O1 0.073804 0.238507 0.856803
O O2 0.987994 0.453276 0.643901
O O3 0.070342 0.745475 0.757572
O O4 0.628166 0.405052 0.452595
O O5 0.665850 0.582912 0.879023
O O6 0.320688 0.994473 0.117913
O O7 0.262452 0.652876 0.886293
O O8 0.324948 0.967006 0.623120
#
# Coordination Sequence:
#
# PCOD9347014 Si02
#       4
#     4   4   4   4
#     4  12  30  54  79 112 151 204 278 342 394 464
#     4  12  28  52  83 114 157 212 260 332 410 468
#     4  12  27  46  76 118 164 208 255 314 393 493
#     4  12  27  46  76 118 164 208 255 314 393 493
#
# _framework density 25.252461
#
# number of rings (size 3 to 8) (size 9 to 14) (size 15 to 20)
#    0.000    0.000    5.000    3.000    3.500    4.000 
#    0.000    0.000    0.000    0.000    0.000    0.000 
#    0.000    0.000    0.000    0.000    0.000    0.000 
#
# Total GULP energy -89819.159118 kJ/mol
# GULP energy per Si atom -5613.697445 kJ/mol
# Density = 2.519499 g / cm^3
# Si number density = 25.252461 Si / 1000 Ang^3
#
#
#
# Elastic Constant Matrix: (Units=GPa)
#
#
# Indices 1 2 3 4 5 6 
#
# 1 71.1586 32.9450 -6.1904 0.0000 0.0000 0.0000
# 2 32.9450 158.6774 33.2976 0.0000 0.0000 0.0000
# 3 -6.1904 33.2976 132.7045 0.0000 0.0000 0.0000
# 4 0.0000 0.0000 0.0000 41.7414 0.0000 0.0000
# 5 0.0000 0.0000 0.0000 0.0000 43.3370 0.0000
# 6 0.0000 0.0000 0.0000 0.0000 0.0000 63.8560
#
#
#
# Elastic Compliance Matrix: (Units=1/GPa)
#
#
# Indices 1 2 3 4 5 6 
#
# 1 0.015885 -0.003646 0.001656 0.000000 0.000000 0.000000
# 2 -0.003646 0.007489 -0.002049 0.000000 0.000000 0.000000
# 3 0.001656 -0.002049 0.008127 0.000000 0.000000 0.000000
# 4 0.000000 0.000000 0.000000 0.023957 0.000000 0.000000
# 5 0.000000 0.000000 0.000000 0.000000 0.023075 0.000000
# 6 0.000000 0.000000 0.000000 0.000000 0.000000 0.015660
#
#
# Mechanical properties :
#
#
# Convention : Reuss Voigt Hill
#
# Bulk Modulus (GPa) = 42.69311 53.62719 48.16015
# Shear Modulus (GPa) = 45.42205 49.95278 47.68742
#
# Velocity S-wave (km/s) = 4.24573 4.45245 4.35032
# Velocity P-wave (km/s) = 6.40142 6.90760 6.65932
#
# Compressibility (1/GPa) = 0.02342298
#
# Stress axis : x y z
#
# Youngs Moduli (GPa) = 62.95260 133.52934 123.04755
#
# Poissons Ratio (x) = 0.48678 -0.20373
# Poissons Ratio (y) = 0.22949 0.25214
# Poissons Ratio (z) = -0.10423 0.27362
#
# Static dielectric constant tensor:
#      x y z
#    x 2.013720 0.000000 0.000000 
#    y 0.000000 1.998590 0.000000 
#    z 0.000000 0.000000 1.971640 
# 
# From -- ./inp_files/2155.got.cif
#   From: 2010.05.17/outbox.cif.g08.bks.cpg/sg33_2_cif.got.tgz:2155.got - 2010.06.03 17:15:25.
