data_PCOD9347739
_publ_section_title
;
Structure prediction by ZEFSAII (Michael W. Deem and Ramdas Pophale) SiO2 
 PCOD9347739
Probable space group: P N N 2
;
_chemical_formula_sum "Si O2"
_cell_formula_units_Z 22
_cell_length_a 14.706182
_cell_length_b 13.136560
_cell_length_c 5.232723
_cell_angle_alpha 90.000000
_cell_angle_beta 90.000000
_cell_angle_gamma 90.000000
_cell_volume 1010.902651
_symmetry_space_group_name_H-M "P N N 2"
_symmetry_group_IT_number 34
_symmetry_cell_setting 'orthorhombic'
loop_
_space_group_symop_operation_xyz
x,y,z
-x,-y,z
1/2-x,1/2+y,1/2+z
1/2+x,1/2-y,1/2+z
loop_
_atom_site_type_symbol
_atom_site_label
_atom_site_fract_x
_atom_site_fract_y
_atom_site_fract_z
Si Si1 0.490607 0.189967 0.286050
Si Si2 0.570387 0.632909 0.575840
Si Si3 0.839527 0.039836 0.577468
Si Si4 0.500000 0.000000 0.999181
Si Si5 0.594592 0.329126 0.894413
Si Si6 0.857343 0.626896 0.165350
O O1 0.428326 0.247835 0.491420
O O2 0.584703 0.153540 0.414481
O O3 0.451412 0.087760 0.165020
O O4 0.520869 0.272530 0.075259
O O5 0.602965 0.573102 0.325905
O O6 0.465066 0.622389 0.663982
O O7 0.627547 0.598565 0.821361
O O8 0.735840 0.070059 0.622152
O O9 0.854944 0.920506 0.530839
O O10 0.574107 0.059055 0.832678
O O11 0.656987 0.237030 0.797398
#
# Coordination Sequence:
#
# PCOD9347739 Si02
#       6
#     4   4   4   2   4   4
#     4  10  22  47  71 104 142 196 250 290 368 446
#     4  11  25  44  73 107 143 191 241 301 370 433
#     4  12  27  45  75 114 146 187 251 306 368 428
#     4  10  22  48  76  98 152 206 240 296 376 432
#     4  10  24  46  74 102 152 188 240 305 362 445
#     4  10  25  48  69 110 150 193 249 306 363 440
#
# _framework density 21.762730000000001
#
# number of rings (size 3 to 8) (size 9 to 14) (size 15 to 20)
#    0.000    1.455    1.818    1.091   12.727    0.000 
#   16.364    0.000    0.000    0.000    0.000    0.000 
#    0.000    0.000    0.000    0.000    0.000    0.000 
#
# Total GULP energy -122951.098742 kJ/mol
# GULP energy per Si atom -5588.686306 kJ/mol
# Density = 2.171320 g / cm^3
# Si number density = 21.762730 Si / 1000 Ang^3
#
#
#
# Elastic Constant Matrix: (Units=GPa)
#
#
# Indices 1 2 3 4 5 6 
#
# 1 62.9305 85.5020 32.5612 0.0000 0.0000 0.0000
# 2 85.5020 165.4292 71.3036 0.0000 0.0000 0.0000
# 3 32.5612 71.3036 126.2244 0.0000 0.0000 0.0000
# 4 0.0000 0.0000 0.0000 37.4594 0.0000 0.0000
# 5 0.0000 0.0000 0.0000 0.0000 7.0100 0.0000
# 6 0.0000 0.0000 0.0000 0.0000 0.0000 29.1499
#
#
#
# Elastic Compliance Matrix: (Units=1/GPa)
#
#
# Indices 1 2 3 4 5 6 
#
# 1 0.053920 -0.028913 0.002424 0.000000 0.000000 0.000000
# 2 -0.028913 0.023494 -0.005813 0.000000 0.000000 0.000000
# 3 0.002424 -0.005813 0.010581 0.000000 0.000000 0.000000
# 4 0.000000 0.000000 0.000000 0.026696 0.000000 0.000000
# 5 0.000000 0.000000 0.000000 0.000000 0.142653 0.000000
# 6 0.000000 0.000000 0.000000 0.000000 0.000000 0.034305
#
#
# Mechanical properties :
#
#
# Convention : Reuss Voigt Hill
#
# Bulk Modulus (GPa) = 42.75386 81.47974 62.11680
# Shear Modulus (GPa) = 13.73430 25.73834 19.73632
#
# Velocity S-wave (km/s) = 2.51488 3.44274 3.01472
# Velocity P-wave (km/s) = 5.30292 7.30237 6.38144
#
# Compressibility (1/GPa) = 0.02338970
#
# Stress axis : x y z
#
# Youngs Moduli (GPa) = 18.54590 42.56342 94.50791
#
# Poissons Ratio (x) = 1.23065 -0.22904
# Poissons Ratio (y) = 0.53622 0.54940
# Poissons Ratio (z) = -0.04495 0.24743
#
# Static dielectric constant tensor:
#      x y z
#    x 1.740710 0.000000 0.000000 
#    y 0.000000 1.807270 0.000000 
#    z 0.000000 0.000000 1.859880 
# 
# From -- ./inp_files/1198.got.cif
#   From: 2010.05.17/outbox.cif.g08.bks.cpg/sg34_1_cif.got.tgz:1198.got - 2010.06.03 17:23:11.
