data_PCOD9347177
_publ_section_title
;
Structure prediction by ZEFSAII (Michael W. Deem and Ramdas Pophale) SiO2 
 PCOD9347177
Probable space group: P N N 2
;
_chemical_formula_sum "Si O2"
_cell_formula_units_Z 32
_cell_length_a 22.246227
_cell_length_b 13.417329
_cell_length_c 5.012752
_cell_angle_alpha 90.000000
_cell_angle_beta 90.000000
_cell_angle_gamma 90.000000
_cell_volume 1496.231013
_symmetry_space_group_name_H-M "P N N 2"
_symmetry_group_IT_number 34
_symmetry_cell_setting 'orthorhombic'
loop_
_space_group_symop_operation_xyz
x,y,z
-x,-y,z
1/2-x,1/2+y,1/2+z
1/2+x,1/2-y,1/2+z
loop_
_atom_site_type_symbol
_atom_site_label
_atom_site_fract_x
_atom_site_fract_y
_atom_site_fract_z
Si Si1 0.314074 0.422403 0.494240
Si Si2 0.044803 0.409184 0.407621
Si Si3 0.995044 0.195349 0.591791
Si Si4 0.623155 0.122345 0.375786
Si Si5 0.741181 0.665056 0.974821
Si Si6 0.797752 0.871113 0.055614
Si Si7 0.373078 0.665936 0.068364
Si Si8 0.548044 0.590217 0.597331
O O1 0.296529 0.390075 0.200078
O O2 0.292350 0.336379 0.693597
O O3 0.327895 0.611457 0.265830
O O4 0.384690 0.442624 0.527867
O O5 0.089917 0.442493 0.648249
O O6 0.000000 0.500000 0.348960
O O7 0.009004 0.309672 0.508988
O O8 0.082879 0.380227 0.143071
O O9 0.951452 0.141198 0.385980
O O10 0.058071 0.134924 0.562695
O O11 0.972797 0.175641 0.889152
O O12 0.692791 0.113425 0.455988
O O13 0.624621 0.227110 0.214232
O O14 0.752096 0.780601 0.048316
O O15 0.722434 0.482603 0.612226
O O16 0.846901 0.837483 0.273520
O O17 0.500000 0.500000 0.583129
#
# Coordination Sequence:
#
# PCOD9347177 Si02
#       8
#     4   4   4   4   4   4   4   4
#     4  12  25  42  63  94 126 166 217 261 318 398
#     4  11  22  39  63  96 131 168 211 257 315 387
#     4  11  21  38  60  89 124 159 197 250 312 376
#     4  10  20  38  63  90 119 164 216 264 301 354
#     4  11  23  43  64  88 121 161 213 267 308 360
#     4  11  22  40  64  90 119 158 200 258 313 363
#     4  10  18  35  64  91 115 153 204 252 302 364
#     4  12  25  41  62  92 128 165 204 261 333 392
#
# _framework density 21.387070999999999
#
# number of rings (size 3 to 8) (size 9 to 14) (size 15 to 20)
#    0.000    1.000    0.000   11.250    0.000    0.000 
#    0.000    7.500    0.000    0.000    0.000    0.000 
#    0.000    0.000    0.000    0.000    0.000    0.000 
#
# Total GULP energy -178624.234079 kJ/mol
# GULP energy per Si atom -5582.007315 kJ/mol
# Density = 2.133839 g / cm^3
# Si number density = 21.387071 Si / 1000 Ang^3
#
#
#
# Elastic Constant Matrix: (Units=GPa)
#
#
# Indices 1 2 3 4 5 6 
#
# 1 61.6174 19.8449 1.2307 0.0000 0.0000 0.0000
# 2 19.8449 66.6816 -3.9605 0.0000 0.0000 0.0000
# 3 1.2307 -3.9605 77.8403 0.0000 0.0000 0.0000
# 4 0.0000 0.0000 0.0000 16.0431 0.0000 0.0000
# 5 0.0000 0.0000 0.0000 0.0000 47.4853 0.0000
# 6 0.0000 0.0000 0.0000 0.0000 0.0000 26.5772
#
#
#
# Elastic Compliance Matrix: (Units=1/GPa)
#
#
# Indices 1 2 3 4 5 6 
#
# 1 0.017974 -0.005382 -0.000558 0.000000 0.000000 0.000000
# 2 -0.005382 0.016654 0.000932 0.000000 0.000000 0.000000
# 3 -0.000558 0.000932 0.012903 0.000000 0.000000 0.000000
# 4 0.000000 0.000000 0.000000 0.062332 0.000000 0.000000
# 5 0.000000 0.000000 0.000000 0.000000 0.021059 0.000000
# 6 0.000000 0.000000 0.000000 0.000000 0.000000 0.037626
#
#
# Mechanical properties :
#
#
# Convention : Reuss Voigt Hill
#
# Bulk Modulus (GPa) = 26.65602 26.70773 26.68188
# Shear Modulus (GPa) = 26.16857 30.62272 28.39564
#
# Velocity S-wave (km/s) = 3.50175 3.78806 3.64772
# Velocity P-wave (km/s) = 5.37032 5.62561 5.49945
#
# Compressibility (1/GPa) = 0.03751497
#
# Stress axis : x y z
#
# Youngs Moduli (GPa) = 55.63661 60.04631 77.50086
#
# Poissons Ratio (x) = 0.32319 0.04325
# Poissons Ratio (y) = 0.29945 -0.07226
# Poissons Ratio (z) = 0.03105 -0.05599
#
# Static dielectric constant tensor:
#      x y z
#    x 1.804180 0.000000 0.000000 
#    y 0.000000 1.890230 0.000000 
#    z 0.000000 0.000000 1.788140 
# 
# From -- ./inp_files/1699.got.cif
#   From: 2010.05.17/outbox.cif.g08.bks.cpg/sg34_1_cif.got.tgz:1699.got - 2010.06.03 17:23:11.
