data_PCOD9347816
_publ_section_title
;
Structure prediction by ZEFSAII (Michael W. Deem and Ramdas Pophale) SiO2 
 PCOD9347816
Probable space group: P N N 2
;
_chemical_formula_sum "Si O2"
_cell_formula_units_Z 32
_cell_length_a 16.545223
_cell_length_b 12.036033
_cell_length_c 6.700327
_cell_angle_alpha 90.000000
_cell_angle_beta 90.000000
_cell_angle_gamma 90.000000
_cell_volume 1334.295414
_symmetry_space_group_name_H-M "P N N 2"
_symmetry_group_IT_number 34
_symmetry_cell_setting 'orthorhombic'
loop_
_space_group_symop_operation_xyz
x,y,z
-x,-y,z
1/2-x,1/2+y,1/2+z
1/2+x,1/2-y,1/2+z
loop_
_atom_site_type_symbol
_atom_site_label
_atom_site_fract_x
_atom_site_fract_y
_atom_site_fract_z
Si Si1 0.069885 0.418491 0.161800
Si Si2 0.825537 0.252102 0.167069
Si Si3 0.885353 0.426841 0.835461
Si Si4 0.573227 0.422472 0.478977
Si Si5 0.491356 0.315661 0.795624
Si Si6 0.684368 0.186071 0.901312
Si Si7 0.743756 0.362112 0.556392
Si Si8 0.029400 0.270230 0.686859
O O1 0.153102 0.420642 0.282065
O O2 0.029137 0.301063 0.215047
O O3 0.091549 0.455620 0.936973
O O4 0.963172 0.364427 0.740508
O O5 0.903166 0.176331 0.204319
O O6 0.786133 0.296834 0.372335
O O7 0.856133 0.352871 0.024907
O O8 0.761726 0.185325 0.037712
O O9 0.813277 0.427659 0.676874
O O10 0.000000 0.500000 0.233552
O O11 0.500000 0.500000 0.402835
O O12 0.552105 0.405988 0.712439
O O13 0.669540 0.435110 0.469291
O O14 0.556407 0.305544 0.368900
O O15 0.482467 0.308555 0.030157
O O16 0.705239 0.275977 0.723126
O O17 0.610535 0.205482 0.058571
#
# Coordination Sequence:
#
# PCOD9347816 Si02
#       8
#     4   4   4   4   4   4   4   4
#     4  11  21  43  70 102 147 180 233 294 360 434
#     4  11  21  43  70  97 143 181 233 295 352 425
#     4  11  24  41  72 108 145 183 231 306 364 440
#     4  12  25  46  69  98 139 188 245 297 349 430
#     4  11  23  46  71 101 137 190 236 292 357 431
#     4  10  24  42  72  97 140 193 232 286 362 429
#     4  11  23  46  68 101 141 188 235 301 360 422
#     4  11  21  44  73 101 135 190 239 286 365 429
#
# _framework density 23.982696000000001
#
# number of rings (size 3 to 8) (size 9 to 14) (size 15 to 20)
#    0.000    1.000    7.500    0.000    0.000    0.500 
#    4.500   15.000    0.000    0.000    0.000    0.000 
#    0.000    0.000    0.000    0.000    0.000    0.000 
#
# Total GULP energy -178552.953836 kJ/mol
# GULP energy per Si atom -5579.779807 kJ/mol
# Density = 2.392811 g / cm^3
# Si number density = 23.982696 Si / 1000 Ang^3
#
#
#
# Elastic Constant Matrix: (Units=GPa)
#
#
# Indices 1 2 3 4 5 6 
#
# 1 170.6068 11.9578 42.3435 0.0000 0.0000 0.0000
# 2 11.9578 41.2418 12.4035 0.0000 0.0000 0.0000
# 3 42.3435 12.4035 121.4817 0.0000 0.0000 0.0000
# 4 0.0000 0.0000 0.0000 27.6549 0.0000 0.0000
# 5 0.0000 0.0000 0.0000 0.0000 52.8320 0.0000
# 6 0.0000 0.0000 0.0000 0.0000 0.0000 28.3976
#
#
#
# Elastic Compliance Matrix: (Units=1/GPa)
#
#
# Indices 1 2 3 4 5 6 
#
# 1 0.006477 -0.001237 -0.002131 0.000000 0.000000 0.000000
# 2 -0.001237 0.025252 -0.002147 0.000000 0.000000 0.000000
# 3 -0.002131 -0.002147 0.009194 0.000000 0.000000 0.000000
# 4 0.000000 0.000000 0.000000 0.036160 0.000000 0.000000
# 5 0.000000 0.000000 0.000000 0.000000 0.018928 0.000000
# 6 0.000000 0.000000 0.000000 0.000000 0.000000 0.035214
#
#
# Mechanical properties :
#
#
# Convention : Reuss Voigt Hill
#
# Bulk Modulus (GPa) = 33.45406 51.85999 42.65702
# Shear Modulus (GPa) = 32.84730 39.55193 36.19962
#
# Velocity S-wave (km/s) = 3.70486 4.06542 3.88932
# Velocity P-wave (km/s) = 5.68162 6.61118 6.16395
#
# Compressibility (1/GPa) = 0.02989174
#
# Stress axis : x y z
#
# Youngs Moduli (GPa) = 154.38960 39.60138 108.76876
#
# Poissons Ratio (x) = 0.04899 0.23183
# Poissons Ratio (y) = 0.19098 0.23353
# Poissons Ratio (z) = 0.32906 0.08503
#
# Static dielectric constant tensor:
#      x y z
#    x 1.930840 0.000000 0.000000 
#    y 0.000000 2.003080 0.000000 
#    z 0.000000 0.000000 2.012160 
# 
# From -- ./inp_files/1508.got.cif
#   From: 2010.05.17/outbox.cif.g08.bks.cpg/sg34_1_cif.got.tgz:1508.got - 2010.06.03 17:23:11.
