data_PCOD9347618
_publ_section_title
;
Structure prediction by ZEFSAII (Michael W. Deem and Ramdas Pophale) SiO2 
 PCOD9347618
Probable space group: P N N 2
;
_chemical_formula_sum "Si O2"
_cell_formula_units_Z 14
_cell_length_a 5.409778
_cell_length_b 5.232988
_cell_length_c 19.758682
_cell_angle_alpha 90.000000
_cell_angle_beta 90.000000
_cell_angle_gamma 90.000000
_cell_volume 559.354523
_symmetry_space_group_name_H-M "P N N 2"
_symmetry_group_IT_number 34
_symmetry_cell_setting 'orthorhombic'
loop_
_space_group_symop_operation_xyz
x,y,z
-x,-y,z
1/2-x,1/2+y,1/2+z
1/2+x,1/2-y,1/2+z
loop_
_atom_site_type_symbol
_atom_site_label
_atom_site_fract_x
_atom_site_fract_y
_atom_site_fract_z
Si Si1 0.653080 0.268105 0.108380
Si Si2 0.000000 0.000000 0.012901
Si Si3 0.153715 0.237727 0.886612
Si Si4 0.263385 0.348649 0.748124
O O1 0.500000 0.500000 0.078894
O O2 0.720583 0.341376 0.185789
O O3 0.500000 0.000000 0.111200
O O4 0.882322 0.209158 0.060755
O O5 0.798770 0.875905 0.961123
O O6 0.339184 0.274658 0.824778
O O7 0.000000 0.500000 0.897085
O O8 0.000000 0.000000 0.855975
O O9 0.500000 0.500000 0.721635
O O10 0.000000 0.500000 0.755823
#
# Coordination Sequence:
#
# PCOD9347618 Si02
#       4
#     4   2   4   4
#     4  11  25  43  72 107 145 196 258 316 390 465
#     4  10  24  46  68 102 154 196 254 324 392 468
#     4   9  21  41  68  98 142 187 248 300 390 444
#     4  10  21  46  72 107 142 196 251 317 380 465
#
# _framework density 25.028848
#
# number of rings (size 3 to 8) (size 9 to 14) (size 15 to 20)
#    0.857    1.143    1.429    0.857    4.000    0.000 
#   10.286   14.286    0.000    0.000    0.000    0.000 
#    0.000    0.000    0.000    0.000    0.000    0.000 
#
# Total GULP energy -77961.717041 kJ/mol
# GULP energy per Si atom -5568.694074 kJ/mol
# Density = 2.497188 g / cm^3
# Si number density = 25.028848 Si / 1000 Ang^3
#
#
#
# Elastic Constant Matrix: (Units=GPa)
#
#
# Indices 1 2 3 4 5 6 
#
# 1 77.8636 24.5890 17.9723 0.0000 0.0000 0.0000
# 2 24.5890 116.3420 11.3036 0.0000 0.0000 0.0000
# 3 17.9723 11.3036 197.5474 0.0000 0.0000 0.0000
# 4 0.0000 0.0000 0.0000 -282.2367 0.0000 0.0000
# 5 0.0000 0.0000 0.0000 0.0000 67.7974 0.0000
# 6 0.0000 0.0000 0.0000 0.0000 0.0000 57.6511
#
#
#
# Elastic Compliance Matrix: (Units=1/GPa)
#
#
# Indices 1 2 3 4 5 6 
#
# 1 0.014000 -0.002851 -0.001111 0.000000 0.000000 0.000000
# 2 -0.002851 0.009224 -0.000268 0.000000 0.000000 0.000000
# 3 -0.001111 -0.000268 0.005178 0.000000 0.000000 0.000000
# 4 0.000000 0.000000 0.000000 -0.003543 0.000000 0.000000
# 5 0.000000 0.000000 0.000000 0.000000 0.014750 0.000000
# 6 0.000000 0.000000 0.000000 0.000000 0.000000 0.017346
#
#
# Mechanical properties :
#
#
# Convention : Reuss Voigt Hill
#
# Bulk Modulus (GPa) = 50.14466 55.49810 52.82138
# Shear Modulus (GPa) = 69.38502 -8.83176 30.27663
#
# Velocity S-wave (km/s) = 5.27088 -1.88050 3.48180
# Velocity P-wave (km/s) = 7.55786 4.18410 6.10851
#
# Compressibility (1/GPa) = 0.01994230
#
# Stress axis : x y z
#
# Youngs Moduli (GPa) = 71.43052 108.41313 193.10736
#
# Poissons Ratio (x) = 0.30908 0.21445
# Poissons Ratio (y) = 0.20364 0.05183
# Poissons Ratio (z) = 0.07932 0.02910
#
# Static dielectric constant tensor:
#      x y z
#    x 1.681630 0.000000 0.000000 
#    y 0.000000 2.072470 0.000000 
#    z 0.000000 0.000000 1.980550 
# 
# From -- ./inp_files/7840.got.cif
#   From: 2010.05.17/outbox.cif.g08.bks.cpg/sg34_4_cif.got.tgz:7840.got - 2010.06.03 17:23:11.
