data_PCOD9347593
_publ_section_title
;
Structure prediction by ZEFSAII (Michael W. Deem and Ramdas Pophale) SiO2 
 PCOD9347593
Probable space group: P N N 2
;
_chemical_formula_sum "Si O2"
_cell_formula_units_Z 32
_cell_length_a 12.188726
_cell_length_b 8.659401
_cell_length_c 15.000008
_cell_angle_alpha 90.000000
_cell_angle_beta 90.000000
_cell_angle_gamma 90.000000
_cell_volume 1583.206836
_symmetry_space_group_name_H-M "P N N 2"
_symmetry_group_IT_number 34
_symmetry_cell_setting 'orthorhombic'
loop_
_space_group_symop_operation_xyz
x,y,z
-x,-y,z
1/2-x,1/2+y,1/2+z
1/2+x,1/2-y,1/2+z
loop_
_atom_site_type_symbol
_atom_site_label
_atom_site_fract_x
_atom_site_fract_y
_atom_site_fract_z
Si Si1 0.114747 0.312359 0.955600
Si Si2 0.989237 0.820168 0.316462
Si Si3 0.231098 0.579688 0.046200
Si Si4 0.298008 0.816702 0.915270
Si Si5 0.907951 0.132746 0.623979
Si Si6 0.475618 0.182771 0.629520
Si Si7 0.556511 0.668284 0.330649
Si Si8 0.852944 0.339344 0.458132
O O1 0.227431 0.218476 0.946783
O O2 0.031441 0.284711 0.874764
O O3 0.155824 0.486048 0.975469
O O4 0.050318 0.268609 0.046150
O O5 0.870563 0.748181 0.335393
O O6 0.009834 0.788901 0.213649
O O7 0.075238 0.728133 0.377583
O O8 0.000000 0.000000 0.338820
O O9 0.293547 0.458825 0.108426
O O10 0.150393 0.686315 0.101182
O O11 0.310881 0.687385 0.991084
O O12 0.171666 0.830480 0.884008
O O13 0.346161 0.977064 0.950663
O O14 0.922056 0.191525 0.725089
O O15 0.902378 0.266217 0.549034
O O16 0.000000 0.000000 0.608138
O O17 0.500000 0.000000 0.649096
O O18 0.500000 0.500000 0.339968
#
# Coordination Sequence:
#
# PCOD9347593 Si02
#       8
#     4   4   4   4   4   4   4   4
#     4  10  21  42  69  96 132 173 219 275 345 399
#     4  12  27  43  64  97 136 175 226 279 338 400
#     4  10  22  40  68  95 134 178 221 276 339 409
#     4  12  24  41  70  97 133 175 228 275 347 401
#     4  10  23  42  69  93 140 183 226 273 349 408
#     4  10  22  40  66  98 130 171 220 276 333 398
#     4  11  23  41  68 105 135 177 226 288 339 412
#     4  11  23  42  71  94 133 176 226 283 335 401
#
# _framework density 20.212140999999999
#
# number of rings (size 3 to 8) (size 9 to 14) (size 15 to 20)
#    0.000    1.250    2.500    3.750    7.000    1.500 
#    0.000    0.000   11.000    0.000    0.000    0.000 
#    0.000    0.000    0.000    0.000    0.000    0.000 
#
# Total GULP energy -178775.336790 kJ/mol
# GULP energy per Si atom -5586.729275 kJ/mol
# Density = 2.016614 g / cm^3
# Si number density = 20.212141 Si / 1000 Ang^3
#
#
#
# Elastic Constant Matrix: (Units=GPa)
#
#
# Indices 1 2 3 4 5 6 
#
# 1 93.7887 27.2833 42.4496 0.0000 0.0000 0.0000
# 2 27.2833 71.4122 49.2580 0.0000 0.0000 0.0000
# 3 42.4496 49.2580 109.7127 0.0000 0.0000 0.0000
# 4 0.0000 0.0000 0.0000 12.6366 0.0000 0.0000
# 5 0.0000 0.0000 0.0000 0.0000 37.2751 0.0000
# 6 0.0000 0.0000 0.0000 0.0000 0.0000 30.8727
#
#
#
# Elastic Compliance Matrix: (Units=1/GPa)
#
#
# Indices 1 2 3 4 5 6 
#
# 1 0.013159 -0.002195 -0.004106 0.000000 0.000000 0.000000
# 2 -0.002195 0.020652 -0.008423 0.000000 0.000000 0.000000
# 3 -0.004106 -0.008423 0.014485 0.000000 0.000000 0.000000
# 4 0.000000 0.000000 0.000000 0.079135 0.000000 0.000000
# 5 0.000000 0.000000 0.000000 0.000000 0.026828 0.000000
# 6 0.000000 0.000000 0.000000 0.000000 0.000000 0.032391
#
#
# Mechanical properties :
#
#
# Convention : Reuss Voigt Hill
#
# Bulk Modulus (GPa) = 53.05598 56.98837 55.02217
# Shear Modulus (GPa) = 22.48406 26.55175 24.51790
#
# Velocity S-wave (km/s) = 3.33889 3.62837 3.48663
# Velocity P-wave (km/s) = 6.41645 6.76829 6.59471
#
# Compressibility (1/GPa) = 0.01884802
#
# Stress axis : x y z
#
# Youngs Moduli (GPa) = 75.99212 48.42235 69.03779
#
# Poissons Ratio (x) = 0.10631 0.28346
# Poissons Ratio (y) = 0.16684 0.58147
# Poissons Ratio (z) = 0.31201 0.40784
#
# Static dielectric constant tensor:
#      x y z
#    x 1.720580 0.000000 0.000000 
#    y 0.000000 1.712670 0.000000 
#    z 0.000000 0.000000 1.695830 
# 
# From -- ./inp_files/6831.got.cif
#   From: 2010.05.17/outbox.cif.g08.bks.cpg/sg34_4_cif.got.tgz:6831.got - 2010.06.03 17:23:11.
