data_PCOD9347990
_publ_section_title
;
Structure prediction by ZEFSAII (Michael W. Deem and Ramdas Pophale) SiO2 
 PCOD9347990
Probable space group: P N N 2
;
_chemical_formula_sum "Si O2"
_cell_formula_units_Z 10
_cell_length_a 5.101311
_cell_length_b 5.014469
_cell_length_c 16.219463
_cell_angle_alpha 90.000000
_cell_angle_beta 90.000000
_cell_angle_gamma 90.000000
_cell_volume 414.899798
_symmetry_space_group_name_H-M "P N N 2"
_symmetry_group_IT_number 34
_symmetry_cell_setting 'orthorhombic'
loop_
_space_group_symop_operation_xyz
x,y,z
-x,-y,z
1/2-x,1/2+y,1/2+z
1/2+x,1/2-y,1/2+z
loop_
_atom_site_type_symbol
_atom_site_label
_atom_site_fract_x
_atom_site_fract_y
_atom_site_fract_z
Si Si1 0.000000 0.000000 0.816391
Si Si2 0.000000 0.500000 0.925800
Si Si3 0.318648 0.756952 0.667668
Si Si4 0.000000 0.000000 0.535266
O O1 0.801099 0.151802 0.754869
O O2 0.094506 0.244048 0.872939
O O3 0.253794 0.581793 0.979031
O O4 0.500000 0.500000 0.673789
O O5 0.096500 0.768452 0.597795
O O6 0.500000 0.000000 0.641591
#
# Coordination Sequence:
#
# PCOD9347990 Si02
#       4
#     2   2   4   2
#     4  11  28  46  76 115 156 206 262 319 396 462
#     4  12  28  48  76 112 160 202 256 332 388 464
#     4  11  25  49  80 110 152 207 262 318 381 474
#     4  11  28  50  76 115 156 206 262 319 396 462
#
# _framework density 24.102201999999998
#
# number of rings (size 3 to 8) (size 9 to 14) (size 15 to 20)
#    0.000    0.800    2.000    2.400   11.200    8.000 
#    0.000    0.000    0.000    0.000    0.000    0.000 
#    0.000    0.000    0.000    0.000    0.000    0.000 
#
# Total GULP energy -55937.225159 kJ/mol
# GULP energy per Si atom -5593.722516 kJ/mol
# Density = 2.404734 g / cm^3
# Si number density = 24.102202 Si / 1000 Ang^3
#
#
#
# Elastic Constant Matrix: (Units=GPa)
#
#
# Indices 1 2 3 4 5 6 
#
# 1 152.9203 73.8334 76.6016 0.0000 0.0000 0.0000
# 2 73.8334 217.0950 71.5461 0.0000 0.0000 0.0000
# 3 76.6016 71.5461 147.9577 0.0000 0.0000 0.0000
# 4 0.0000 0.0000 0.0000 -34.0196 0.0000 0.0000
# 5 0.0000 0.0000 0.0000 0.0000 29.3541 0.0000
# 6 0.0000 0.0000 0.0000 0.0000 0.0000 56.8450
#
#
#
# Elastic Compliance Matrix: (Units=1/GPa)
#
#
# Indices 1 2 3 4 5 6 
#
# 1 0.009448 -0.001905 -0.003970 0.000000 0.000000 0.000000
# 2 -0.001905 0.005863 -0.001849 0.000000 0.000000 0.000000
# 3 -0.003970 -0.001849 0.009708 0.000000 0.000000 0.000000
# 4 0.000000 0.000000 0.000000 -0.029395 0.000000 0.000000
# 5 0.000000 0.000000 0.000000 0.000000 0.034067 0.000000
# 6 0.000000 0.000000 0.000000 0.000000 0.000000 0.017592
#
#
# Mechanical properties :
#
#
# Convention : Reuss Voigt Hill
#
# Bulk Modulus (GPa) = 104.47995 106.88167 105.68081
# Shear Modulus (GPa) = 75.84671 30.16870 53.00771
#
# Velocity S-wave (km/s) = 5.61579 3.54177 4.69475
# Velocity P-wave (km/s) = 9.24620 7.82093 8.56327
#
# Compressibility (1/GPa) = 0.00957121
#
# Stress axis : x y z
#
# Youngs Moduli (GPa) = 105.84429 170.54674 103.00305
#
# Poissons Ratio (x) = 0.32484 0.40896
# Poissons Ratio (y) = 0.20160 0.19048
# Poissons Ratio (z) = 0.42024 0.31538
#
# Static dielectric constant tensor:
#      x y z
#    x 1.771700 0.000000 0.000000 
#    y 0.000000 1.871040 0.000000 
#    z 0.000000 0.000000 1.996870 
# 
# From -- ./inp_files/6992.got.cif
#   From: 2010.05.17/outbox.cif.g08.bks.cpg/sg34_4_cif.got.tgz:6992.got - 2010.06.03 17:23:11.
