data_PCOD9347964
_publ_section_title
;
Structure prediction by ZEFSAII (Michael W. Deem and Ramdas Pophale) SiO2 
 PCOD9347964
Probable space group: P N N 2
;
_chemical_formula_sum "Si O2"
_cell_formula_units_Z 16
_cell_length_a 22.695553
_cell_length_b 5.287181
_cell_length_c 5.339436
_cell_angle_alpha 90.000000
_cell_angle_beta 90.000000
_cell_angle_gamma 90.000000
_cell_volume 640.708274
_symmetry_space_group_name_H-M "P N N 2"
_symmetry_group_IT_number 34
_symmetry_cell_setting 'orthorhombic'
loop_
_space_group_symop_operation_xyz
x,y,z
-x,-y,z
1/2-x,1/2+y,1/2+z
1/2+x,1/2-y,1/2+z
loop_
_atom_site_type_symbol
_atom_site_label
_atom_site_fract_x
_atom_site_fract_y
_atom_site_fract_z
Si Si1 0.187360 0.913810 0.640130
Si Si2 0.064612 0.599745 0.101901
Si Si3 0.563374 0.623139 0.096594
Si Si4 0.314362 0.902286 0.414120
O O1 0.249917 0.969330 0.517719
O O2 0.189287 0.102636 0.873944
O O3 0.125630 0.003206 0.515747
O O4 0.180949 0.613897 0.691755
O O5 0.070493 0.822107 0.892589
O O6 0.124771 0.447794 0.059199
O O7 0.000000 0.500000 0.028738
O O8 0.061184 0.651994 0.396271
O O9 0.500000 0.500000 0.061432
#
# Coordination Sequence:
#
# PCOD9347964 Si02
#       4
#     4   4   4   4
#     4  11  24  43  69 102 140 182 231 285 345 411
#     4  11  24  43  68 102 139 184 232 287 347 413
#     4  11  24  43  68 102 139 184 232 287 347 413
#     4  11  24  43  69 102 140 182 231 285 345 411
#
# _framework density 24.972363999999999
#
# number of rings (size 3 to 8) (size 9 to 14) (size 15 to 20)
#    0.000    1.000    0.000    6.000    0.000   10.000 
#    0.000    0.000    0.000    0.000    0.000    0.000 
#    0.000    0.000    0.000    0.000    0.000    0.000 
#
# Total GULP energy -89075.922522 kJ/mol
# GULP energy per Si atom -5567.245158 kJ/mol
# Density = 2.491553 g / cm^3
# Si number density = 24.972364 Si / 1000 Ang^3
#
#
#
# Elastic Constant Matrix: (Units=GPa)
#
#
# Indices 1 2 3 4 5 6 
#
# 1 295.8332 19.7002 23.8968 0.0000 0.0000 0.0000
# 2 19.7002 39.3888 13.8816 0.0000 0.0000 0.0000
# 3 23.8968 13.8816 39.5521 0.0000 0.0000 0.0000
# 4 0.0000 0.0000 0.0000 28.2517 0.0000 0.0000
# 5 0.0000 0.0000 0.0000 0.0000 37.7166 0.0000
# 6 0.0000 0.0000 0.0000 0.0000 0.0000 45.6509
#
#
#
# Elastic Compliance Matrix: (Units=1/GPa)
#
#
# Indices 1 2 3 4 5 6 
#
# 1 0.003601 -0.001180 -0.001762 0.000000 0.000000 0.000000
# 2 -0.001180 0.029358 -0.009591 0.000000 0.000000 0.000000
# 3 -0.001762 -0.009591 0.029713 0.000000 0.000000 0.000000
# 4 0.000000 0.000000 0.000000 0.035396 0.000000 0.000000
# 5 0.000000 0.000000 0.000000 0.000000 0.026514 0.000000
# 6 0.000000 0.000000 0.000000 0.000000 0.000000 0.021905
#
#
# Mechanical properties :
#
#
# Convention : Reuss Voigt Hill
#
# Bulk Modulus (GPa) = 26.59025 54.41458 40.50241
# Shear Modulus (GPa) = 27.16079 43.47688 35.31883
#
# Velocity S-wave (km/s) = 3.30151 4.17706 3.76482
# Velocity P-wave (km/s) = 5.02038 6.71572 5.92896
#
# Compressibility (1/GPa) = 0.03760776
#
# Stress axis : x y z
#
# Youngs Moduli (GPa) = 277.68715 34.06192 33.65484
#
# Poissons Ratio (x) = 0.04020 0.05928
# Poissons Ratio (y) = 0.32776 0.32277
# Poissons Ratio (z) = 0.48915 0.32668
#
# Static dielectric constant tensor:
#      x y z
#    x 2.085340 0.000000 0.000000 
#    y 0.000000 2.075570 0.000000 
#    z 0.000000 0.000000 2.050500 
# 
# From -- ./inp_files/94.got.cif
#   From: 2010.05.17/outbox.cif.g08.bks.cpg/sg34_1_cif.got.tgz:94.got - 2010.06.03 17:23:11.
