data_PCOD9347040
_publ_section_title
;
Structure prediction by ZEFSAII (Michael W. Deem and Ramdas Pophale) SiO2 
 PCOD9347040
Probable space group: P N A 21
;
_chemical_formula_sum "Si O2"
_cell_formula_units_Z 16
_cell_length_a 5.910498
_cell_length_b 20.974303
_cell_length_c 4.646688
_cell_angle_alpha 90.000000
_cell_angle_beta 90.000000
_cell_angle_gamma 90.000000
_cell_volume 576.043294
_symmetry_space_group_name_H-M "P N A 21"
_symmetry_group_IT_number 33
_symmetry_cell_setting 'orthorhombic'
loop_
_space_group_symop_operation_xyz
x,y,z
-x,-y,1/2+z
1/2-x,1/2+y,1/2+z
1/2+x,1/2-y,z
loop_
_atom_site_type_symbol
_atom_site_label
_atom_site_fract_x
_atom_site_fract_y
_atom_site_fract_z
Si Si1 0.166645 0.498595 0.428040
Si Si2 0.029657 0.898247 0.260961
Si Si3 0.684437 0.801657 0.003219
Si Si4 0.873406 0.691599 0.567605
O O1 0.311385 0.441057 0.560008
O O2 0.941812 0.510921 0.615682
O O3 0.684532 0.644021 0.465568
O O4 0.890140 0.844568 0.094840
O O5 0.525001 0.786760 0.285930
O O6 0.845285 0.943539 0.410651
O O7 0.537404 0.843907 0.787175
O O8 0.770282 0.745836 0.783835
#
# Coordination Sequence:
#
# PCOD9347040 Si02
#       4
#     4   4   4   4
#     4  12  30  60  88 134 172 234 310 382 466 546
#     4  12  32  58  96 126 188 236 306 388 468 544
#     4  12  32  57  87 135 182 243 306 376 468 571
#     4  12  32  57  87 135 182 243 306 376 468 571
#
# _framework density 27.775690000000001
#
# number of rings (size 3 to 8) (size 9 to 14) (size 15 to 20)
#    0.000    0.000    0.000    4.500   10.500   20.000 
#    9.000    0.000    0.000    0.000    0.000    0.000 
#    0.000    0.000    0.000    0.000    0.000    0.000 
#
# Total GULP energy -89832.039177 kJ/mol
# GULP energy per Si atom -5614.502449 kJ/mol
# Density = 2.771247 g / cm^3
# Si number density = 27.775690 Si / 1000 Ang^3
#
#
#
# Elastic Constant Matrix: (Units=GPa)
#
#
# Indices 1 2 3 4 5 6 
#
# 1 186.5334 86.1065 89.3728 0.0000 0.0000 0.0000
# 2 86.1065 174.3590 76.5665 0.0000 0.0000 0.0000
# 3 89.3728 76.5665 195.1688 0.0000 0.0000 0.0000
# 4 0.0000 0.0000 0.0000 52.3004 0.0000 0.0000
# 5 0.0000 0.0000 0.0000 0.0000 98.8411 0.0000
# 6 0.0000 0.0000 0.0000 0.0000 0.0000 45.7622
#
#
#
# Elastic Compliance Matrix: (Units=1/GPa)
#
#
# Indices 1 2 3 4 5 6 
#
# 1 0.007840 -0.002773 -0.002502 0.000000 0.000000 0.000000
# 2 -0.002773 0.007910 -0.001833 0.000000 0.000000 0.000000
# 3 -0.002502 -0.001833 0.006989 0.000000 0.000000 0.000000
# 4 0.000000 0.000000 0.000000 0.019120 0.000000 0.000000
# 5 0.000000 0.000000 0.000000 0.000000 0.010117 0.000000
# 6 0.000000 0.000000 0.000000 0.000000 0.000000 0.021852
#
#
# Mechanical properties :
#
#
# Convention : Reuss Voigt Hill
#
# Bulk Modulus (GPa) = 117.34893 117.79476 117.57185
# Shear Modulus (GPa) = 55.01433 59.64842 57.33137
#
# Velocity S-wave (km/s) = 4.45529 4.63914 4.54815
# Velocity P-wave (km/s) = 8.29498 8.43783 8.36671
#
# Compressibility (1/GPa) = 0.00852159
#
# Stress axis : x y z
#
# Youngs Moduli (GPa) = 127.55336 126.42672 143.08544
#
# Poissons Ratio (x) = 0.35056 0.35804
# Poissons Ratio (y) = 0.35369 0.26232
# Poissons Ratio (z) = 0.31917 0.23178
#
# Static dielectric constant tensor:
#      x y z
#    x 2.272290 0.000000 0.000000 
#    y 0.000000 2.127230 0.000000 
#    z 0.000000 0.000000 2.157100 
# 
# From -- ./inp_files/407.got.cif
#   From: 2010.05.17/outbox.cif.g08.bks.cpg/sg33_1_cif.got.tgz:407.got - 2010.06.03 17:15:25.
