data_PCOD9347191
_publ_section_title
;
Structure prediction by ZEFSAII (Michael W. Deem and Ramdas Pophale) SiO2 
 PCOD9347191
Probable space group: P N N 2
;
_chemical_formula_sum "Si O2"
_cell_formula_units_Z 24
_cell_length_a 12.215092
_cell_length_b 8.983975
_cell_length_c 8.379677
_cell_angle_alpha 90.000000
_cell_angle_beta 90.000000
_cell_angle_gamma 90.000000
_cell_volume 919.586434
_symmetry_space_group_name_H-M "P N N 2"
_symmetry_group_IT_number 34
_symmetry_cell_setting 'orthorhombic'
loop_
_space_group_symop_operation_xyz
x,y,z
-x,-y,z
1/2-x,1/2+y,1/2+z
1/2+x,1/2-y,1/2+z
loop_
_atom_site_type_symbol
_atom_site_label
_atom_site_fract_x
_atom_site_fract_y
_atom_site_fract_z
Si Si1 0.370728 0.315206 0.160970
Si Si2 0.885934 0.423234 0.407914
Si Si3 0.465824 0.150781 0.563941
Si Si4 0.354701 0.668085 0.754756
Si Si5 0.207670 0.882758 0.085867
Si Si6 0.114123 0.164461 0.631298
O O1 0.373223 0.238572 0.985336
O O2 0.268400 0.228959 0.236040
O O3 0.356465 0.492687 0.160615
O O4 0.498380 0.295939 0.210259
O O5 0.900954 0.413272 0.219310
O O6 0.783777 0.520489 0.467608
O O7 0.000000 0.500000 0.467248
O O8 0.569446 0.236603 0.637106
O O9 0.382169 0.276593 0.504835
O O10 0.500000 0.000000 0.470994
O O11 0.354300 0.498621 0.697547
O O12 0.391090 0.678585 0.938030
O O13 0.293134 0.779882 0.181334
#
# Coordination Sequence:
#
# PCOD9347191 Si02
#       6
#     4   4   4   4   4   4
#     4  10  21  36  68  96 129 174 232 276 336 412
#     4  10  18  37  62  95 126 171 226 276 333 405
#     4  11  21  38  64  96 132 177 223 273 345 404
#     4  11  23  39  69  98 133 179 228 278 343 415
#     4  11  23  36  68  98 134 173 231 278 339 409
#     4  11  21  41  65  95 135 177 225 285 340 403
#
# _framework density 26.098687000000002
#
# number of rings (size 3 to 8) (size 9 to 14) (size 15 to 20)
#    0.000    1.333    3.333    3.500    2.333    0.000 
#    0.000    0.000   29.333    0.000    0.000    0.000 
#    0.000    0.000    0.000    0.000    0.000    0.000 
#
# Total GULP energy -134415.602470 kJ/mol
# GULP energy per Si atom -5600.650103 kJ/mol
# Density = 2.603929 g / cm^3
# Si number density = 26.098687 Si / 1000 Ang^3
#
#
#
# Elastic Constant Matrix: (Units=GPa)
#
#
# Indices 1 2 3 4 5 6 
#
# 1 179.3578 75.5346 49.2235 0.0000 0.0000 0.0000
# 2 75.5346 171.1597 5.8965 0.0000 0.0000 0.0000
# 3 49.2235 5.8965 37.7125 0.0000 0.0000 0.0000
# 4 0.0000 0.0000 0.0000 29.3507 0.0000 0.0000
# 5 0.0000 0.0000 0.0000 0.0000 44.6535 0.0000
# 6 0.0000 0.0000 0.0000 0.0000 0.0000 66.8317
#
#
#
# Elastic Compliance Matrix: (Units=1/GPa)
#
#
# Indices 1 2 3 4 5 6 
#
# 1 0.011354 -0.004524 -0.014112 0.000000 0.000000 0.000000
# 2 -0.004524 0.007677 0.004705 0.000000 0.000000 0.000000
# 3 -0.014112 0.004705 0.044200 0.000000 0.000000 0.000000
# 4 0.000000 0.000000 0.000000 0.034071 0.000000 0.000000
# 5 0.000000 0.000000 0.000000 0.000000 0.022395 0.000000
# 6 0.000000 0.000000 0.000000 0.000000 0.000000 0.014963
#
#
# Mechanical properties :
#
#
# Convention : Reuss Voigt Hill
#
# Bulk Modulus (GPa) = 28.27384 72.17104 50.22244
# Shear Modulus (GPa) = 28.68436 45.33887 37.01161
#
# Velocity S-wave (km/s) = 3.31882 4.17251 3.76991
# Velocity P-wave (km/s) = 5.05402 7.13626 6.18342
#
# Compressibility (1/GPa) = 0.03536838
#
# Stress axis : x y z
#
# Youngs Moduli (GPa) = 88.07674 130.25823 22.62442
#
# Poissons Ratio (x) = 0.58934 0.31927
# Poissons Ratio (y) = 0.39849 -0.10645
# Poissons Ratio (z) = 1.24293 -0.61286
#
# Static dielectric constant tensor:
#      x y z
#    x 2.036650 0.000000 0.000000 
#    y 0.000000 2.067920 0.000000 
#    z 0.000000 0.000000 2.115230 
# 
# From -- ./inp_files/4923.got.cif
#   From: 2010.05.17/outbox.cif.g08.bks.cpg/sg34_3_cif.got.tgz:4923.got - 2010.06.03 17:23:11.
