data_PCOD9347539
_publ_section_title
;
Structure prediction by ZEFSAII (Michael W. Deem and Ramdas Pophale) SiO2 
 PCOD9347539
Probable space group: P N N 2
;
_chemical_formula_sum "Si O2"
_cell_formula_units_Z 24
_cell_length_a 10.775320
_cell_length_b 10.922346
_cell_length_c 9.301494
_cell_angle_alpha 90.000000
_cell_angle_beta 90.000000
_cell_angle_gamma 90.000000
_cell_volume 1094.709323
_symmetry_space_group_name_H-M "P N N 2"
_symmetry_group_IT_number 34
_symmetry_cell_setting 'orthorhombic'
loop_
_space_group_symop_operation_xyz
x,y,z
-x,-y,z
1/2-x,1/2+y,1/2+z
1/2+x,1/2-y,1/2+z
loop_
_atom_site_type_symbol
_atom_site_label
_atom_site_fract_x
_atom_site_fract_y
_atom_site_fract_z
Si Si1 0.437035 0.733148 0.950800
Si Si2 0.226496 0.789907 0.728561
Si Si3 0.215101 0.676403 0.432284
Si Si4 0.129323 0.567156 0.899196
Si Si5 0.856830 0.543396 0.625967
Si Si6 0.680633 0.432545 0.155700
O O1 0.350220 0.750847 0.813335
O O2 0.574055 0.776555 0.908706
O O3 0.369326 0.824814 0.061687
O O4 0.427777 0.610531 0.046005
O O5 0.257704 0.761148 0.562762
O O6 0.128412 0.695984 0.807385
O O7 0.180954 0.930117 0.722461
O O8 0.204902 0.544015 0.509427
O O9 0.295765 0.656627 0.291463
O O10 0.198903 0.478381 0.783290
O O11 0.000000 0.500000 0.929757
O O12 0.201955 0.579097 0.047225
O O13 0.000000 0.500000 0.638781
#
# Coordination Sequence:
#
# PCOD9347539 Si02
#       6
#     4   4   4   4   4   4
#     4  10  21  39  62  94 132 171 216 272 333 392
#     4  10  22  40  60  97 125 168 226 264 322 402
#     4  10  21  39  62  89 131 174 206 281 333 382
#     4   9  20  36  59  92 123 161 217 267 318 392
#     4   8  15  33  59  82 115 160 204 253 322 377
#     4  11  23  36  65  97 126 170 223 268 327 401
#
# _framework density 21.923628999999998
#
# number of rings (size 3 to 8) (size 9 to 14) (size 15 to 20)
#    0.000    2.333    1.667    1.000    4.667    0.667 
#    0.000    0.000    0.000    0.000    0.000    0.000 
#    0.000    0.000    0.000    0.000    0.000    0.000 
#
# Total GULP energy -133638.305470 kJ/mol
# GULP energy per Si atom -5568.262728 kJ/mol
# Density = 2.187373 g / cm^3
# Si number density = 21.923629 Si / 1000 Ang^3
#
#
#
# Elastic Constant Matrix: (Units=GPa)
#
#
# Indices 1 2 3 4 5 6 
#
# 1 31.0162 13.5466 18.2296 0.0000 0.0000 0.0000
# 2 13.5466 88.2051 6.7906 0.0000 0.0000 0.0000
# 3 18.2296 6.7906 78.2773 0.0000 0.0000 0.0000
# 4 0.0000 0.0000 0.0000 1.6495 0.0000 0.0000
# 5 0.0000 0.0000 0.0000 0.0000 8.5318 0.0000
# 6 0.0000 0.0000 0.0000 0.0000 0.0000 24.0700
#
#
#
# Elastic Compliance Matrix: (Units=1/GPa)
#
#
# Indices 1 2 3 4 5 6 
#
# 1 0.039782 -0.005433 -0.008793 0.000000 0.000000 0.000000
# 2 -0.005433 0.012155 0.000211 0.000000 0.000000 0.000000
# 3 -0.008793 0.000211 0.014805 0.000000 0.000000 0.000000
# 4 0.000000 0.000000 0.000000 0.606236 0.000000 0.000000
# 5 0.000000 0.000000 0.000000 0.000000 0.117208 0.000000
# 6 0.000000 0.000000 0.000000 0.000000 0.000000 0.041545
#
#
# Mechanical properties :
#
#
# Convention : Reuss Voigt Hill
#
# Bulk Modulus (GPa) = 25.83220 30.51468 28.17344
# Shear Modulus (GPa) = 5.72957 17.44573 11.58765
#
# Velocity S-wave (km/s) = 1.61836 2.82396 2.30151
# Velocity P-wave (km/s) = 3.91159 4.95801 4.46556
#
# Compressibility (1/GPa) = 0.03871138
#
# Stress axis : x y z
#
# Youngs Moduli (GPa) = 25.13680 82.26819 67.54624
#
# Poissons Ratio (x) = 0.44695 0.59396
# Poissons Ratio (y) = 0.13656 -0.01423
# Poissons Ratio (z) = 0.22104 -0.01734
#
# Static dielectric constant tensor:
#      x y z
#    x 1.913230 0.000000 0.000000 
#    y 0.000000 1.958000 0.000000 
#    z 0.000000 0.000000 1.831700 
# 
# From -- ./inp_files/3145.got.cif
#   From: 2010.05.17/outbox.cif.g08.bks.cpg/sg34_2_cif.got.tgz:3145.got - 2010.06.03 17:23:11.
