data_PCOD9347568
_publ_section_title
;
Structure prediction by ZEFSAII (Michael W. Deem and Ramdas Pophale) SiO2 
 PCOD9347568
Probable space group: P N N 2
;
_chemical_formula_sum "Si O2"
_cell_formula_units_Z 30
_cell_length_a 18.796306
_cell_length_b 11.314284
_cell_length_c 6.540536
_cell_angle_alpha 90.000000
_cell_angle_beta 90.000000
_cell_angle_gamma 90.000000
_cell_volume 1390.954497
_symmetry_space_group_name_H-M "P N N 2"
_symmetry_group_IT_number 34
_symmetry_cell_setting 'orthorhombic'
loop_
_space_group_symop_operation_xyz
x,y,z
-x,-y,z
1/2-x,1/2+y,1/2+z
1/2+x,1/2-y,1/2+z
loop_
_atom_site_type_symbol
_atom_site_label
_atom_site_fract_x
_atom_site_fract_y
_atom_site_fract_z
Si Si1 0.759945 0.812546 0.366170
Si Si2 0.267134 0.885201 0.165375
Si Si3 0.881845 0.165926 0.373950
Si Si4 0.354212 0.719739 0.474036
Si Si5 0.967716 0.740879 0.304581
Si Si6 0.119650 0.074600 0.592030
Si Si7 0.640142 0.886963 0.167169
Si Si8 0.500000 0.000000 0.044407
O O1 0.774655 0.684519 0.455329
O O2 0.799484 0.903931 0.513748
O O3 0.675408 0.829458 0.366085
O O4 0.797881 0.817352 0.146962
O O5 0.185566 0.876570 0.240739
O O6 0.315721 0.815675 0.330784
O O7 0.302478 0.010617 0.129953
O O8 0.861103 0.283780 0.499366
O O9 0.954887 0.202494 0.263477
O O10 0.899459 0.058222 0.530114
O O11 0.421258 0.766937 0.600531
O O12 0.379744 0.613163 0.327384
O O13 0.927356 0.831033 0.461745
O O14 0.974743 0.611975 0.408685
O O15 0.564311 0.947966 0.176663
#
# Coordination Sequence:
#
# PCOD9347568 Si02
#       8
#     4   4   4   4   4   4   4   2
#     4  10  21  40  67  98 131 175 230 280 346 417
#     4  11  23  44  68 100 138 180 228 293 345 422
#     4  11  23  44  69 102 139 182 234 294 348 429
#     4  10  21  43  70  99 131 188 224 284 358 410
#     4  10  23  46  68  99 139 184 234 289 351 420
#     4  10  21  43  70  97 137 179 231 286 350 412
#     4  11  22  43  67  97 135 182 227 288 353 415
#     4  10  22  44  70  96 146 182 228 298 354 428
#
# _framework density 21.567920999999998
#
# number of rings (size 3 to 8) (size 9 to 14) (size 15 to 20)
#    0.000    1.600    2.667    2.800    0.000    1.067 
#   16.800    3.333    0.000    0.000    0.000    0.000 
#    0.000    0.000    0.000    0.000    0.000    0.000 
#
# Total GULP energy -167479.032534 kJ/mol
# GULP energy per Si atom -5582.634418 kJ/mol
# Density = 2.151883 g / cm^3
# Si number density = 21.567921 Si / 1000 Ang^3
#
#
#
# Elastic Constant Matrix: (Units=GPa)
#
#
# Indices 1 2 3 4 5 6 
#
# 1 149.2815 40.4817 38.8302 0.0000 0.0000 0.0000
# 2 40.4817 120.5881 27.5925 0.0000 0.0000 0.0000
# 3 38.8302 27.5925 54.7837 0.0000 0.0000 0.0000
# 4 0.0000 0.0000 0.0000 3.6052 0.0000 0.0000
# 5 0.0000 0.0000 0.0000 0.0000 34.0420 0.0000
# 6 0.0000 0.0000 0.0000 0.0000 0.0000 35.4294
#
#
#
# Elastic Compliance Matrix: (Units=1/GPa)
#
#
# Indices 1 2 3 4 5 6 
#
# 1 0.008499 -0.001667 -0.005185 0.000000 0.000000 0.000000
# 2 -0.001667 0.009700 -0.003704 0.000000 0.000000 0.000000
# 3 -0.005185 -0.003704 0.023794 0.000000 0.000000 0.000000
# 4 0.000000 0.000000 0.000000 0.277381 0.000000 0.000000
# 5 0.000000 0.000000 0.000000 0.000000 0.029376 0.000000
# 6 0.000000 0.000000 0.000000 0.000000 0.000000 0.028225
#
#
# Mechanical properties :
#
#
# Convention : Reuss Voigt Hill
#
# Bulk Modulus (GPa) = 47.88797 59.82911 53.85854
# Shear Modulus (GPa) = 12.34426 29.13189 20.73808
#
# Velocity S-wave (km/s) = 2.39497 3.67918 3.10421
# Velocity P-wave (km/s) = 5.46803 6.77116 6.15418
#
# Compressibility (1/GPa) = 0.02088207
#
# Stress axis : x y z
#
# Youngs Moduli (GPa) = 117.65536 103.09491 42.02733
#
# Poissons Ratio (x) = 0.17185 0.21790
# Poissons Ratio (y) = 0.19612 0.15567
# Poissons Ratio (z) = 0.61001 0.38186
#
# Static dielectric constant tensor:
#      x y z
#    x 1.861080 0.000000 0.000000 
#    y 0.000000 1.837220 0.000000 
#    z 0.000000 0.000000 1.766910 
# 
# From -- ./inp_files/1605.got.cif
#   From: 2010.05.17/outbox.cif.g08.bks.cpg/sg34_1_cif.got.tgz:1605.got - 2010.06.03 17:23:11.
