data_PCOD9347829
_publ_section_title
;
Structure prediction by ZEFSAII (Michael W. Deem and Ramdas Pophale) SiO2 
 PCOD9347829
Probable space group: P N N 2
;
_chemical_formula_sum "Si O2"
_cell_formula_units_Z 12
_cell_length_a 13.390042
_cell_length_b 7.404041
_cell_length_c 5.256667
_cell_angle_alpha 90.000000
_cell_angle_beta 90.000000
_cell_angle_gamma 90.000000
_cell_volume 521.148174
_symmetry_space_group_name_H-M "P N N 2"
_symmetry_group_IT_number 34
_symmetry_cell_setting 'orthorhombic'
loop_
_space_group_symop_operation_xyz
x,y,z
-x,-y,z
1/2-x,1/2+y,1/2+z
1/2+x,1/2-y,1/2+z
loop_
_atom_site_type_symbol
_atom_site_label
_atom_site_fract_x
_atom_site_fract_y
_atom_site_fract_z
Si Si1 0.290018 0.135132 0.629770
Si Si2 0.392822 0.081546 0.130144
Si Si3 0.389468 0.451675 0.903327
O O1 0.354549 0.038336 0.410158
O O2 0.329482 0.336383 0.691230
O O3 0.177940 0.109188 0.525684
O O4 0.316773 0.042104 0.898758
O O5 0.500000 0.000000 0.074077
O O6 0.402494 0.299035 0.119809
O O7 0.500000 0.500000 0.813688
#
# Coordination Sequence:
#
# PCOD9347829 Si02
#       3
#     4   4   4
#     4  10  25  43  70 105 147 184 246 295 369 421
#     4  10  24  44  70 105 142 191 238 301 356 436
#     4  10  26  45  75 105 144 195 243 302 359 440
#
# _framework density 23.026077000000001
#
# number of rings (size 3 to 8) (size 9 to 14) (size 15 to 20)
#    2.000    0.000    0.000    1.000    9.333    1.333 
#    0.000    0.000    0.000    0.000    0.000    0.000 
#    0.000    0.000    0.000    0.000    0.000    0.000 
#
# Total GULP energy -66815.735314 kJ/mol
# GULP energy per Si atom -5567.977943 kJ/mol
# Density = 2.297367 g / cm^3
# Si number density = 23.026077 Si / 1000 Ang^3
#
#
#
# Elastic Constant Matrix: (Units=GPa)
#
#
# Indices 1 2 3 4 5 6 
#
# 1 190.0176 68.9399 55.3627 0.0000 0.0000 0.0000
# 2 68.9399 60.9089 38.5686 0.0000 0.0000 0.0000
# 3 55.3627 38.5686 142.6740 0.0000 0.0000 0.0000
# 4 0.0000 0.0000 0.0000 20.4307 0.0000 0.0000
# 5 0.0000 0.0000 0.0000 0.0000 28.6095 0.0000
# 6 0.0000 0.0000 0.0000 0.0000 0.0000 44.4318
#
#
#
# Elastic Compliance Matrix: (Units=1/GPa)
#
#
# Indices 1 2 3 4 5 6 
#
# 1 0.009023 -0.009647 -0.000893 0.000000 0.000000 0.000000
# 2 -0.009647 0.030123 -0.004400 0.000000 0.000000 0.000000
# 3 -0.000893 -0.004400 0.008545 0.000000 0.000000 0.000000
# 4 0.000000 0.000000 0.000000 0.048946 0.000000 0.000000
# 5 0.000000 0.000000 0.000000 0.000000 0.034953 0.000000
# 6 0.000000 0.000000 0.000000 0.000000 0.000000 0.022506
#
#
# Mechanical properties :
#
#
# Convention : Reuss Voigt Hill
#
# Bulk Modulus (GPa) = 56.14572 79.92699 68.03635
# Shear Modulus (GPa) = 26.32778 34.07636 30.20207
#
# Velocity S-wave (km/s) = 3.38507 3.85112 3.62559
# Velocity P-wave (km/s) = 6.30197 7.38659 6.86573
#
# Compressibility (1/GPa) = 0.01781080
#
# Stress axis : x y z
#
# Youngs Moduli (GPa) = 110.82853 33.19745 117.02749
#
# Poissons Ratio (x) = 0.32025 0.10455
# Poissons Ratio (y) = 1.06915 0.51488
# Poissons Ratio (z) = 0.09902 0.14606
#
# Static dielectric constant tensor:
#      x y z
#    x 1.893970 0.000000 0.000000 
#    y 0.000000 1.928810 0.000000 
#    z 0.000000 0.000000 1.812220 
# 
# From -- ./inp_files/33.got.cif
#   From: 2010.05.17/outbox.cif.g08.bks.cpg/sg34_1_cif.got.tgz:33.got - 2010.06.03 17:23:11.
