data_PCOD9347436
_publ_section_title
;
Structure prediction by ZEFSAII (Michael W. Deem and Ramdas Pophale) SiO2 
 PCOD9347436
Probable space group: P N N 2
;
_chemical_formula_sum "Si O2"
_cell_formula_units_Z 24
_cell_length_a 11.620979
_cell_length_b 7.331140
_cell_length_c 11.658671
_cell_angle_alpha 90.000000
_cell_angle_beta 90.000000
_cell_angle_gamma 90.000000
_cell_volume 993.260755
_symmetry_space_group_name_H-M "P N N 2"
_symmetry_group_IT_number 34
_symmetry_cell_setting 'orthorhombic'
loop_
_space_group_symop_operation_xyz
x,y,z
-x,-y,z
1/2-x,1/2+y,1/2+z
1/2+x,1/2-y,1/2+z
loop_
_atom_site_type_symbol
_atom_site_label
_atom_site_fract_x
_atom_site_fract_y
_atom_site_fract_z
Si Si1 0.750000 0.492375 0.113520
Si Si2 0.750000 0.080212 0.373608
Si Si3 0.000000 0.000000 0.129908
Si Si4 0.062575 0.673804 0.281916
Si Si5 0.750000 0.428664 0.615919
Si Si6 0.500000 0.000000 0.129909
Si Si7 0.937426 0.826196 0.781916
O O1 0.856670 0.414986 0.184054
O O2 0.750000 0.711053 0.108214
O O3 0.643328 0.414986 0.184053
O O4 0.750000 0.443516 0.979329
O O5 0.861090 0.211752 0.370877
O O6 0.638910 0.211752 0.370876
O O7 0.750000 0.987275 0.249699
O O8 0.010533 0.176869 0.212932
O O9 0.126782 0.992554 0.071599
O O10 0.000000 0.500000 0.334250
O O11 0.873218 0.507447 0.571599
O O12 0.510534 0.823132 0.212933
O O13 0.000000 0.000000 0.834251
#
# Coordination Sequence:
#
# PCOD9347436 Si02
#       7
#     4   4   2   4   4   2   4
#     4  11  21  43  67  94 131 178 225 269 343 404
#     4   9  23  41  61  96 133 172 225 277 333 400
#     4  10  20  40  68  92 130 180 214 274 340 386
#     4  10  20  41  67  91 134 175 217 285 334 392
#     4  10  20  40  66  88 136 170 214 280 330 384
#     4  10  20  40  68  92 130 180 214 274 340 386
#     4  10  20  41  67  91 134 175 217 285 334 392
#
# _framework density 24.162842000000001
#
# number of rings (size 3 to 8) (size 9 to 14) (size 15 to 20)
#    0.000    2.000    3.333    1.000    0.000    0.000 
#   15.000   13.333    0.000    0.000    0.000    0.000 
#    0.000    0.000    0.000    0.000    0.000    0.000 
#
# Total GULP energy -134041.881275 kJ/mol
# GULP energy per Si atom -5585.078386 kJ/mol
# Density = 2.410785 g / cm^3
# Si number density = 24.162842 Si / 1000 Ang^3
#
#
#
# Elastic Constant Matrix: (Units=GPa)
#
#
# Indices 1 2 3 4 5 6 
#
# 1 156.6537 22.3178 23.3746 0.0000 0.0000 0.0000
# 2 22.3178 102.8029 -0.7634 0.0000 0.0000 0.0000
# 3 23.3746 -0.7634 106.7627 0.0000 0.0000 0.0000
# 4 0.0000 0.0000 0.0000 30.0222 0.0000 0.0000
# 5 0.0000 0.0000 0.0000 0.0000 -13.1246 0.0000
# 6 0.0000 0.0000 0.0000 0.0000 0.0000 5.8534
#
#
#
# Elastic Compliance Matrix: (Units=1/GPa)
#
#
# Indices 1 2 3 4 5 6 
#
# 1 0.006820 -0.001492 -0.001504 0.000000 0.000000 0.000000
# 2 -0.001492 0.010054 0.000399 0.000000 0.000000 0.000000
# 3 -0.001504 0.000399 0.009699 0.000000 0.000000 0.000000
# 4 0.000000 0.000000 0.000000 0.033309 0.000000 0.000000
# 5 0.000000 0.000000 0.000000 0.000000 -0.076193 0.000000
# 6 0.000000 0.000000 0.000000 0.000000 0.000000 0.170842
#
#
# Mechanical properties :
#
#
# Convention : Reuss Voigt Hill
#
# Bulk Modulus (GPa) = 46.77530 50.67524 48.72527
# Shear Modulus (GPa) = 29.96666 25.96954 27.96810
#
# Velocity S-wave (km/s) = 3.52546 3.28193 3.40587
# Velocity P-wave (km/s) = 5.99769 5.94805 5.97292
#
# Compressibility (1/GPa) = 0.02137881
#
# Stress axis : x y z
#
# Youngs Moduli (GPa) = 146.61788 99.46107 103.10672
#
# Poissons Ratio (x) = 0.14838 0.15507
# Poissons Ratio (y) = 0.21873 -0.04109
# Poissons Ratio (z) = 0.22050 -0.03964
#
# Static dielectric constant tensor:
#      x y z
#    x 2.057010 0.000000 0.000000 
#    y 0.000000 1.912270 0.000000 
#    z 0.000000 0.000000 1.903500 
# 
# From -- ./inp_files/5348.got.cif
#   From: 2010.05.17/outbox.cif.g08.bks.cpg/sg34_3_cif.got.tgz:5348.got - 2010.06.03 17:23:11.
