data_PCOD9347471
_publ_section_title
;
Structure prediction by ZEFSAII (Michael W. Deem and Ramdas Pophale) SiO2 
 PCOD9347471
Probable space group: P N N 2
;
_chemical_formula_sum "Si O2"
_cell_formula_units_Z 18
_cell_length_a 12.125472
_cell_length_b 7.353424
_cell_length_c 8.337802
_cell_angle_alpha 90.000000
_cell_angle_beta 90.000000
_cell_angle_gamma 90.000000
_cell_volume 743.429583
_symmetry_space_group_name_H-M "P N N 2"
_symmetry_group_IT_number 34
_symmetry_cell_setting 'orthorhombic'
loop_
_space_group_symop_operation_xyz
x,y,z
-x,-y,z
1/2-x,1/2+y,1/2+z
1/2+x,1/2-y,1/2+z
loop_
_atom_site_type_symbol
_atom_site_label
_atom_site_fract_x
_atom_site_fract_y
_atom_site_fract_z
Si Si1 0.245882 0.631506 0.035470
Si Si2 0.325240 0.280438 0.204883
Si Si3 0.000000 0.000000 0.913810
Si Si4 0.481227 0.719835 0.990728
Si Si5 0.512391 0.802998 0.632665
O O1 0.252149 0.424438 0.103082
O O2 0.362066 0.728918 0.072624
O O3 0.143790 0.730093 0.121537
O O4 0.228791 0.653742 0.841807
O O5 0.406337 0.410179 0.308405
O O6 0.414560 0.194830 0.082844
O O7 0.048156 0.153186 0.029308
O O8 0.500000 0.500000 0.972618
O O9 0.474778 0.799468 0.813873
O O10 0.500000 0.000000 0.556031
#
# Coordination Sequence:
#
# PCOD9347471 Si02
#       5
#     4   4   2   4   4
#     4  10  21  40  68  97 132 185 229 280 360 417
#     4  10  20  42  68  96 137 180 235 282 352 422
#     4  10  20  42  68  90 136 186 204 290 346 406
#     4  10  20  43  66  92 138 180 221 285 353 415
#     4  11  23  41  65 103 136 167 236 285 333 420
#
# _framework density 24.212109999999999
#
# number of rings (size 3 to 8) (size 9 to 14) (size 15 to 20)
#    0.000    1.778    4.444    1.333    0.000    0.000 
#   12.000    8.889    0.000    0.000    0.000    0.000 
#    0.000    0.000    0.000    0.000    0.000    0.000 
#
# Total GULP energy -100543.140832 kJ/mol
# GULP energy per Si atom -5585.730046 kJ/mol
# Density = 2.415700 g / cm^3
# Si number density = 24.212110 Si / 1000 Ang^3
#
#
#
# Elastic Constant Matrix: (Units=GPa)
#
#
# Indices 1 2 3 4 5 6 
#
# 1 58.1432 -15.0938 -12.6220 0.0000 0.0000 0.0000
# 2 -15.0938 74.7168 27.7142 0.0000 0.0000 0.0000
# 3 -12.6220 27.7142 104.1239 0.0000 0.0000 0.0000
# 4 0.0000 0.0000 0.0000 -41.4043 0.0000 0.0000
# 5 0.0000 0.0000 0.0000 0.0000 14.4574 0.0000
# 6 0.0000 0.0000 0.0000 0.0000 0.0000 12.5445
#
#
#
# Elastic Compliance Matrix: (Units=1/GPa)
#
#
# Indices 1 2 3 4 5 6 
#
# 1 0.018326 0.003193 0.001372 0.000000 0.000000 0.000000
# 2 0.003193 0.015406 -0.003714 0.000000 0.000000 0.000000
# 3 0.001372 -0.003714 0.010759 0.000000 0.000000 0.000000
# 4 0.000000 0.000000 0.000000 -0.024152 0.000000 0.000000
# 5 0.000000 0.000000 0.000000 0.000000 0.069169 0.000000
# 6 0.000000 0.000000 0.000000 0.000000 0.000000 0.079716
#
#
# Mechanical properties :
#
#
# Convention : Reuss Voigt Hill
#
# Bulk Modulus (GPa) = 21.64822 26.33117 23.98969
# Shear Modulus (GPa) = 27.33456 12.91856 20.12656
#
# Velocity S-wave (km/s) = 3.36365 2.31239 2.88629
# Velocity P-wave (km/s) = 4.90367 4.24598 4.58663
#
# Compressibility (1/GPa) = 0.04619318
#
# Stress axis : x y z
#
# Youngs Moduli (GPa) = 54.56837 64.90808 92.94877
#
# Poissons Ratio (x) = -0.20727 -0.12748
# Poissons Ratio (y) = -0.17425 0.34517
# Poissons Ratio (z) = -0.07484 0.24104
#
# Static dielectric constant tensor:
#      x y z
#    x 2.021690 0.000000 0.000000 
#    y 0.000000 1.984750 0.000000 
#    z 0.000000 0.000000 1.925750 
# 
# From -- ./inp_files/2419.got.cif
#   From: 2010.05.17/outbox.cif.g08.bks.cpg/sg34_2_cif.got.tgz:2419.got - 2010.06.03 17:23:11.
