data_PCOD9347840
_publ_section_title
;
Structure prediction by ZEFSAII (Michael W. Deem and Ramdas Pophale) SiO2 
 PCOD9347840
Probable space group: P N N 2
;
_chemical_formula_sum "Si O2"
_cell_formula_units_Z 22
_cell_length_a 6.837376
_cell_length_b 13.302258
_cell_length_c 10.997899
_cell_angle_alpha 90.000000
_cell_angle_beta 90.000000
_cell_angle_gamma 90.000000
_cell_volume 1000.286844
_symmetry_space_group_name_H-M "P N N 2"
_symmetry_group_IT_number 34
_symmetry_cell_setting 'orthorhombic'
loop_
_space_group_symop_operation_xyz
x,y,z
-x,-y,z
1/2-x,1/2+y,1/2+z
1/2+x,1/2-y,1/2+z
loop_
_atom_site_type_symbol
_atom_site_label
_atom_site_fract_x
_atom_site_fract_y
_atom_site_fract_z
Si Si1 0.075830 0.390947 0.429140
Si Si2 0.091129 0.390722 0.782076
Si Si3 0.308672 0.444242 0.023408
Si Si4 0.669503 0.767395 0.118006
Si Si5 0.000000 0.500000 0.195611
Si Si6 0.569620 0.615532 0.587787
O O1 0.300328 0.374479 0.465616
O O2 0.000000 0.500000 0.478156
O O3 0.948395 0.311048 0.501302
O O4 0.036912 0.406443 0.286555
O O5 0.172165 0.398549 0.918066
O O6 0.275691 0.369647 0.695968
O O7 0.000000 0.500000 0.755839
O O8 0.925860 0.312556 0.740393
O O9 0.500000 0.500000 0.973943
O O10 0.359041 0.350831 0.108933
O O11 0.182284 0.518080 0.107706
O O12 0.888550 0.809606 0.102129
O O13 0.500000 0.500000 0.593124
#
# Coordination Sequence:
#
# PCOD9347840 Si02
#       6
#     4   4   4   4   2   4
#     4   9  20  39  66  99 137 168 226 290 346 414
#     4  11  23  45  71 102 138 179 234 290 352 428
#     4  12  29  46  66  98 146 196 231 290 364 424
#     4  11  24  42  73 106 132 182 241 285 351 432
#     4  10  24  46  62  92 144 184 228 294 348 426
#     4  11  17  36  72 101 126 173 225 290 345 405
#
# _framework density 21.993690999999998
#
# number of rings (size 3 to 8) (size 9 to 14) (size 15 to 20)
#    0.545    0.727    4.545    1.636    0.000    9.455 
#    0.000    0.000    0.000    0.000    0.000    0.000 
#    0.000    0.000    0.000    0.000    0.000    0.000 
#
# Total GULP energy -122847.548596 kJ/mol
# GULP energy per Si atom -5583.979482 kJ/mol
# Density = 2.194363 g / cm^3
# Si number density = 21.993691 Si / 1000 Ang^3
#
#
#
# Elastic Constant Matrix: (Units=GPa)
#
#
# Indices 1 2 3 4 5 6 
#
# 1 134.2198 27.7966 34.6149 0.0000 0.0000 0.0000
# 2 27.7966 61.9370 4.8659 0.0000 0.0000 0.0000
# 3 34.6149 4.8659 113.6932 0.0000 0.0000 0.0000
# 4 0.0000 0.0000 0.0000 7.1987 0.0000 0.0000
# 5 0.0000 0.0000 0.0000 0.0000 18.6728 0.0000
# 6 0.0000 0.0000 0.0000 0.0000 0.0000 13.8488
#
#
#
# Elastic Compliance Matrix: (Units=1/GPa)
#
#
# Indices 1 2 3 4 5 6 
#
# 1 0.008892 -0.003791 -0.002545 0.000000 0.000000 0.000000
# 2 -0.003791 0.017816 0.000392 0.000000 0.000000 0.000000
# 3 -0.002545 0.000392 0.009554 0.000000 0.000000 0.000000
# 4 0.000000 0.000000 0.000000 0.138915 0.000000 0.000000
# 5 0.000000 0.000000 0.000000 0.000000 0.053554 0.000000
# 6 0.000000 0.000000 0.000000 0.000000 0.000000 0.072208
#
#
# Mechanical properties :
#
#
# Convention : Reuss Voigt Hill
#
# Bulk Modulus (GPa) = 41.02836 49.37832 45.20334
# Shear Modulus (GPa) = 15.57872 24.11557 19.84715
#
# Velocity S-wave (km/s) = 2.66433 3.31490 3.00726
# Velocity P-wave (km/s) = 5.30660 6.09519 5.71451
#
# Compressibility (1/GPa) = 0.02437339
#
# Stress axis : x y z
#
# Youngs Moduli (GPa) = 112.46286 56.12981 104.67179
#
# Poissons Ratio (x) = 0.21277 0.26639
# Poissons Ratio (y) = 0.42630 -0.04099
# Poissons Ratio (z) = 0.28621 -0.02198
#
# Static dielectric constant tensor:
#      x y z
#    x 1.817490 0.000000 0.000000 
#    y 0.000000 1.771550 0.000000 
#    z 0.000000 0.000000 1.839540 
# 
# From -- ./inp_files/4400.got.cif
#   From: 2010.05.17/outbox.cif.g08.bks.cpg/sg34_3_cif.got.tgz:4400.got - 2010.06.03 17:23:11.
