data_PCOD9347797
_publ_section_title
;
Structure prediction by ZEFSAII (Michael W. Deem and Ramdas Pophale) SiO2 
 PCOD9347797
Probable space group: P N N 2
;
_chemical_formula_sum "Si O2"
_cell_formula_units_Z 20
_cell_length_a 8.059538
_cell_length_b 5.172087
_cell_length_c 18.962175
_cell_angle_alpha 90.000000
_cell_angle_beta 90.000000
_cell_angle_gamma 90.000000
_cell_volume 790.431281
_symmetry_space_group_name_H-M "P N N 2"
_symmetry_group_IT_number 34
_symmetry_cell_setting 'orthorhombic'
loop_
_space_group_symop_operation_xyz
x,y,z
-x,-y,z
1/2-x,1/2+y,1/2+z
1/2+x,1/2-y,1/2+z
loop_
_atom_site_type_symbol
_atom_site_label
_atom_site_fract_x
_atom_site_fract_y
_atom_site_fract_z
Si Si1 0.760177 0.760876 0.965650
Si Si2 0.500000 0.000000 0.858650
Si Si3 0.500000 0.500000 0.367039
Si Si4 0.000000 0.000000 0.561860
Si Si5 0.500000 0.500000 0.566790
Si Si6 0.500000 0.000000 0.163829
Si Si7 0.239823 0.260876 0.260039
Si Si8 0.000000 0.500000 0.158899
O O1 0.631301 0.877380 0.911168
O O2 0.924679 0.768596 0.915526
O O3 0.660635 0.544236 0.010018
O O4 0.831770 0.956919 0.023496
O O5 0.575321 0.231404 0.810163
O O6 0.368699 0.377381 0.314521
O O7 0.987061 0.750000 0.612845
O O8 0.479460 0.250000 0.612845
O O9 0.339365 0.044236 0.215672
O O10 0.168231 0.456918 0.202193
#
# Coordination Sequence:
#
# PCOD9347797 Si02
#       8
#     4   2   2   2   2   2   4   2
#     4  10  23  44  73 107 148 194 250 308 374 446
#     4   9  21  46  74 108 147 197 250 310 374 445
#     4   9  21  46  74 108 147 197 250 310 374 445
#     4  12  27  46  76 112 153 198 252 314 380 450
#     4  11  26  46  72 106 150 197 248 308 376 449
#     4  12  27  46  76 112 153 198 252 314 380 450
#     4  10  23  44  73 107 148 194 250 308 374 446
#     4  11  26  46  72 106 150 197 248 308 376 449
#
# _framework density 25.30264
#
# number of rings (size 3 to 8) (size 9 to 14) (size 15 to 20)
#    0.000    1.600    0.000    2.400    0.000   14.400 
#    0.000   14.000    0.000    0.000    0.000    0.000 
#    0.000    0.000    0.000    0.000    0.000    0.000 
#
# Total GULP energy -111602.520082 kJ/mol
# GULP energy per Si atom -5580.126004 kJ/mol
# Density = 2.524505 g / cm^3
# Si number density = 25.302640 Si / 1000 Ang^3
#
#
#
# Elastic Constant Matrix: (Units=GPa)
#
#
# Indices 1 2 3 4 5 6 
#
# 1 142.2949 72.7810 80.8692 0.0000 0.0000 0.0000
# 2 72.7810 166.5928 99.4682 0.0000 0.0000 0.0000
# 3 80.8692 99.4682 179.5506 0.0000 0.0000 0.0000
# 4 0.0000 0.0000 0.0000 4.0967 0.0000 0.0000
# 5 0.0000 0.0000 0.0000 0.0000 69.9105 0.0000
# 6 0.0000 0.0000 0.0000 0.0000 0.0000 36.2818
#
#
#
# Elastic Compliance Matrix: (Units=1/GPa)
#
#
# Indices 1 2 3 4 5 6 
#
# 1 0.010116 -0.002539 -0.003150 0.000000 0.000000 0.000000
# 2 -0.002539 0.009607 -0.004178 0.000000 0.000000 0.000000
# 3 -0.003150 -0.004178 0.009303 0.000000 0.000000 0.000000
# 4 0.000000 0.000000 0.000000 0.244096 0.000000 0.000000
# 5 0.000000 0.000000 0.000000 0.000000 0.014304 0.000000
# 6 0.000000 0.000000 0.000000 0.000000 0.000000 0.027562
#
#
# Mechanical properties :
#
#
# Convention : Reuss Voigt Hill
#
# Bulk Modulus (GPa) = 107.62452 110.51946 109.07199
# Shear Modulus (GPa) = 14.80078 37.74579 26.27329
#
# Velocity S-wave (km/s) = 2.42120 3.86654 3.22586
# Velocity P-wave (km/s) = 7.10236 7.98169 7.55483
#
# Compressibility (1/GPa) = 0.00929156
#
# Stress axis : x y z
#
# Youngs Moduli (GPa) = 98.84923 104.09394 107.49289
#
# Poissons Ratio (x) = 0.26429 0.33859
# Poissons Ratio (y) = 0.25097 0.44915
# Poissons Ratio (z) = 0.31136 0.43495
#
# Static dielectric constant tensor:
#      x y z
#    x 2.138000 0.000000 0.000000 
#    y 0.000000 1.904080 0.000000 
#    z 0.000000 0.000000 2.027120 
# 
# From -- ./inp_files/7395.got.cif
#   From: 2010.05.17/outbox.cif.g08.bks.cpg/sg34_4_cif.got.tgz:7395.got - 2010.06.03 17:23:11.
