data_PCOD9347854
_publ_section_title
;
Structure prediction by ZEFSAII (Michael W. Deem and Ramdas Pophale) SiO2 
 PCOD9347854
Probable space group: P N N 2
;
_chemical_formula_sum "Si O2"
_cell_formula_units_Z 14
_cell_length_a 5.135613
_cell_length_b 5.681088
_cell_length_c 19.685588
_cell_angle_alpha 90.000000
_cell_angle_beta 90.000000
_cell_angle_gamma 90.000000
_cell_volume 574.344144
_symmetry_space_group_name_H-M "P N N 2"
_symmetry_group_IT_number 34
_symmetry_cell_setting 'orthorhombic'
loop_
_space_group_symop_operation_xyz
x,y,z
-x,-y,z
1/2-x,1/2+y,1/2+z
1/2+x,1/2-y,1/2+z
loop_
_atom_site_type_symbol
_atom_site_label
_atom_site_fract_x
_atom_site_fract_y
_atom_site_fract_z
Si Si1 0.757954 0.158304 0.164630
Si Si2 0.343295 0.750368 0.315694
Si Si3 0.000000 0.500000 0.064901
Si Si4 0.239207 0.653932 0.461657
O O1 0.795355 0.235389 0.242933
O O2 0.793204 0.373241 0.114131
O O3 0.500000 0.000000 0.160272
O O4 0.000000 0.000000 0.144161
O O5 0.500000 0.500000 0.312560
O O6 0.178065 0.740738 0.385076
O O7 0.500000 0.000000 0.320635
O O8 0.178058 0.349282 0.014384
O O9 0.500000 0.500000 0.455270
O O10 0.000000 0.500000 0.486760
#
# Coordination Sequence:
#
# PCOD9347854 Si02
#       4
#     4   4   2   4
#     4  11  29  49  80 116 158 208 274 333 412 488
#     4  10  24  51  83 118 158 210 276 343 403 494
#     4  12  28  52  78 118 164 224 260 358 406 506
#     4  11  27  50  78 114 159 210 272 332 412 491
#
# _framework density 24.375632
#
# number of rings (size 3 to 8) (size 9 to 14) (size 15 to 20)
#    0.000    1.143    1.429    0.857   10.000   12.571 
#    0.000    0.000    0.000    0.000    0.000    0.000 
#    0.000    0.000    0.000    0.000    0.000    0.000 
#
# Total GULP energy -78373.502627 kJ/mol
# GULP energy per Si atom -5598.107330 kJ/mol
# Density = 2.432015 g / cm^3
# Si number density = 24.375632 Si / 1000 Ang^3
#
#
#
# Elastic Constant Matrix: (Units=GPa)
#
#
# Indices 1 2 3 4 5 6 
#
# 1 118.2886 36.8392 25.1558 0.0000 0.0000 0.0000
# 2 36.8392 123.3899 62.7394 0.0000 0.0000 0.0000
# 3 25.1558 62.7394 207.3873 0.0000 0.0000 0.0000
# 4 0.0000 0.0000 0.0000 84.5463 0.0000 0.0000
# 5 0.0000 0.0000 0.0000 0.0000 68.6807 0.0000
# 6 0.0000 0.0000 0.0000 0.0000 0.0000 39.0892
#
#
#
# Elastic Compliance Matrix: (Units=1/GPa)
#
#
# Indices 1 2 3 4 5 6 
#
# 1 0.009341 -0.002615 -0.000342 0.000000 0.000000 0.000000
# 2 -0.002615 0.010310 -0.002802 0.000000 0.000000 0.000000
# 3 -0.000342 -0.002802 0.005711 0.000000 0.000000 0.000000
# 4 0.000000 0.000000 0.000000 0.011828 0.000000 0.000000
# 5 0.000000 0.000000 0.000000 0.000000 0.014560 0.000000
# 6 0.000000 0.000000 0.000000 0.000000 0.000000 0.025582
#
#
# Mechanical properties :
#
#
# Convention : Reuss Voigt Hill
#
# Bulk Modulus (GPa) = 72.23164 77.61496 74.92330
# Shear Modulus (GPa) = 53.49641 60.08535 56.79088
#
# Velocity S-wave (km/s) = 4.68981 4.97024 4.83206
# Velocity P-wave (km/s) = 7.68263 8.05283 7.86991
#
# Compressibility (1/GPa) = 0.01384435
#
# Stress axis : x y z
#
# Youngs Moduli (GPa) = 107.05479 96.99610 175.10184
#
# Poissons Ratio (x) = 0.25364 0.05988
# Poissons Ratio (y) = 0.27994 0.49059
# Poissons Ratio (z) = 0.03661 0.27176
#
# Static dielectric constant tensor:
#      x y z
#    x 1.878770 0.000000 0.000000 
#    y 0.000000 1.957270 0.000000 
#    z 0.000000 0.000000 1.930770 
# 
# From -- ./inp_files/7836.got.cif
#   From: 2010.05.17/outbox.cif.g08.bks.cpg/sg34_4_cif.got.tgz:7836.got - 2010.06.03 17:23:11.
