data_PCOD9347859
_publ_section_title
;
Structure prediction by ZEFSAII (Michael W. Deem and Ramdas Pophale) SiO2 
 PCOD9347859
Probable space group: P N N 2
;
_chemical_formula_sum "Si O2"
_cell_formula_units_Z 16
_cell_length_a 5.207029
_cell_length_b 16.640837
_cell_length_c 8.046939
_cell_angle_alpha 90.000000
_cell_angle_beta 90.000000
_cell_angle_gamma 90.000000
_cell_volume 697.261799
_symmetry_space_group_name_H-M "P N N 2"
_symmetry_group_IT_number 34
_symmetry_cell_setting 'orthorhombic'
loop_
_space_group_symop_operation_xyz
x,y,z
-x,-y,z
1/2-x,1/2+y,1/2+z
1/2+x,1/2-y,1/2+z
loop_
_atom_site_type_symbol
_atom_site_label
_atom_site_fract_x
_atom_site_fract_y
_atom_site_fract_z
Si Si1 0.500000 0.500000 0.258821
Si Si2 0.475862 0.641416 0.521428
Si Si3 0.001649 0.262204 0.579486
Si Si4 0.000000 0.500000 0.030878
Si Si5 0.236576 0.644397 0.856346
O O1 0.498791 0.576395 0.379706
O O2 0.249897 0.496015 0.145039
O O3 0.742936 0.685055 0.559337
O O4 0.389224 0.606079 0.701487
O O5 0.235600 0.699899 0.477557
O O6 0.082981 0.176796 0.504449
O O7 0.890968 0.277745 0.764418
O O8 0.034806 0.580490 0.922840
#
# Coordination Sequence:
#
# PCOD9347859 Si02
#       5
#     2   4   4   2   4
#     4  12  28  48  74 110 158 192 256 310 400 448
#     4  10  26  45  77 104 150 198 247 314 377 459
#     4  10  25  43  80 105 147 197 256 311 376 459
#     4  12  30  44  80 114 156 200 254 328 382 466
#     4  10  28  48  78 110 153 198 264 309 392 448
#
# _framework density 22.946904
#
# number of rings (size 3 to 8) (size 9 to 14) (size 15 to 20)
#    1.500    0.000    0.000    1.500   14.000    2.000 
#    0.000    0.000    0.000    0.000    0.000    0.000 
#    0.000    0.000    0.000    0.000    0.000    0.000 
#
# Total GULP energy -89358.240201 kJ/mol
# GULP energy per Si atom -5584.890013 kJ/mol
# Density = 2.289468 g / cm^3
# Si number density = 22.946904 Si / 1000 Ang^3
#
#
#
# Elastic Constant Matrix: (Units=GPa)
#
#
# Indices 1 2 3 4 5 6 
#
# 1 132.7163 0.7984 29.3877 0.0000 0.0000 0.0000
# 2 0.7984 44.6662 31.4520 0.0000 0.0000 0.0000
# 3 29.3877 31.4520 122.4015 0.0000 0.0000 0.0000
# 4 0.0000 0.0000 0.0000 48.1191 0.0000 0.0000
# 5 0.0000 0.0000 0.0000 0.0000 36.1378 0.0000
# 6 0.0000 0.0000 0.0000 0.0000 0.0000 39.5072
#
#
#
# Elastic Compliance Matrix: (Units=1/GPa)
#
#
# Indices 1 2 3 4 5 6 
#
# 1 0.008038 0.001484 -0.002311 0.000000 0.000000 0.000000
# 2 0.001484 0.027608 -0.007450 0.000000 0.000000 0.000000
# 3 -0.002311 -0.007450 0.010639 0.000000 0.000000 0.000000
# 4 0.000000 0.000000 0.000000 0.020782 0.000000 0.000000
# 5 0.000000 0.000000 0.000000 0.000000 0.027672 0.000000
# 6 0.000000 0.000000 0.000000 0.000000 0.000000 0.025312
#
#
# Mechanical properties :
#
#
# Convention : Reuss Voigt Hill
#
# Bulk Modulus (GPa) = 33.63670 47.00668 40.32169
# Shear Modulus (GPa) = 34.12612 40.62923 37.37767
#
# Velocity S-wave (km/s) = 3.86058 4.21239 4.04031
# Velocity P-wave (km/s) = 5.87898 6.64743 6.27498
#
# Compressibility (1/GPa) = 0.02972943
#
# Stress axis : x y z
#
# Youngs Moduli (GPa) = 124.41406 36.22141 93.99286
#
# Poissons Ratio (x) = -0.05374 0.21722
# Poissons Ratio (y) = -0.18459 0.70027
# Poissons Ratio (z) = 0.28752 0.26986
#
# Static dielectric constant tensor:
#      x y z
#    x 1.809130 0.000000 0.000000 
#    y 0.000000 1.882150 0.000000 
#    z 0.000000 0.000000 1.879480 
# 
# From -- ./inp_files/1987.got.cif
#   From: 2010.05.17/outbox.cif.g08.bks.cpg/sg34_1_cif.got.tgz:1987.got - 2010.06.03 17:23:11.
