data_PCOD9347531
_publ_section_title
;
Structure prediction by ZEFSAII (Michael W. Deem and Ramdas Pophale) SiO2 
 PCOD9347531
Probable space group: P N N 2
;
_chemical_formula_sum "Si O2"
_cell_formula_units_Z 32
_cell_length_a 15.015772
_cell_length_b 9.473944
_cell_length_c 10.595990
_cell_angle_alpha 90.000000
_cell_angle_beta 90.000000
_cell_angle_gamma 90.000000
_cell_volume 1507.370523
_symmetry_space_group_name_H-M "P N N 2"
_symmetry_group_IT_number 34
_symmetry_cell_setting 'orthorhombic'
loop_
_space_group_symop_operation_xyz
x,y,z
-x,-y,z
1/2-x,1/2+y,1/2+z
1/2+x,1/2-y,1/2+z
loop_
_atom_site_type_symbol
_atom_site_label
_atom_site_fract_x
_atom_site_fract_y
_atom_site_fract_z
Si Si1 0.698249 0.851910 0.720420
Si Si2 0.066180 0.781725 0.742060
Si Si3 0.910291 0.581525 0.345130
Si Si4 0.593494 0.915586 0.484525
Si Si5 0.100065 0.513504 0.629850
Si Si6 0.105874 0.093995 0.654163
Si Si7 0.760246 0.574302 0.835639
Si Si8 0.580930 0.404822 0.858518
O O1 0.623979 0.835154 0.611609
O O2 0.792829 0.862001 0.653461
O O3 0.714449 0.728281 0.823044
O O4 0.671802 0.999225 0.784786
O O5 0.106764 0.683629 0.630843
O O6 0.959619 0.801239 0.728879
O O7 0.099504 0.940554 0.719533
O O8 0.089245 0.699277 0.870726
O O9 0.901676 0.559737 0.495360
O O10 0.920540 0.744261 0.313047
O O11 0.000000 0.500000 0.307975
O O12 0.500000 0.000000 0.495786
O O13 0.672071 0.028686 0.447928
O O14 0.177620 0.451250 0.714098
O O15 0.000000 0.500000 0.686755
O O16 0.072671 0.095119 0.510750
O O17 0.677129 0.469326 0.831572
O O18 0.500000 0.500000 0.807862
#
# Coordination Sequence:
#
# PCOD9347531 Si02
#       8
#     4   4   4   4   4   4   4   4
#     4  12  25  41  68  98 142 181 229 277 354 410
#     4  10  21  39  67 101 130 176 232 285 332 406
#     4  11  25  42  67  97 134 179 226 277 334 414
#     4  11  24  44  71  98 145 181 230 285 352 410
#     4  10  21  38  69  96 133 170 233 274 333 399
#     4  11  22  38  69  99 134 175 228 283 341 402
#     4  11  24  42  69 101 136 181 226 284 342 405
#     4  12  24  43  68  98 136 174 223 286 340 402
#
# _framework density 21.229020999999999
#
# number of rings (size 3 to 8) (size 9 to 14) (size 15 to 20)
#    0.000    1.000    2.500    6.375    5.250    0.000 
#    0.000    0.000   16.500    0.000    0.000    0.000 
#    0.000    0.000    0.000    0.000    0.000    0.000 
#
# Total GULP energy -178665.930913 kJ/mol
# GULP energy per Si atom -5583.310341 kJ/mol
# Density = 2.118070 g / cm^3
# Si number density = 21.229021 Si / 1000 Ang^3
#
#
#
# Elastic Constant Matrix: (Units=GPa)
#
#
# Indices 1 2 3 4 5 6 
#
# 1 115.0017 45.8904 15.1821 0.0000 0.0000 0.0000
# 2 45.8904 158.2433 16.0837 0.0000 0.0000 0.0000
# 3 15.1821 16.0837 43.9120 0.0000 0.0000 0.0000
# 4 0.0000 0.0000 0.0000 14.6197 0.0000 0.0000
# 5 0.0000 0.0000 0.0000 0.0000 31.7424 0.0000
# 6 0.0000 0.0000 0.0000 0.0000 0.0000 39.5373
#
#
#
# Elastic Compliance Matrix: (Units=1/GPa)
#
#
# Indices 1 2 3 4 5 6 
#
# 1 0.010093 -0.002672 -0.002511 0.000000 0.000000 0.000000
# 2 -0.002672 0.007271 -0.001739 0.000000 0.000000 0.000000
# 3 -0.002511 -0.001739 0.024278 0.000000 0.000000 0.000000
# 4 0.000000 0.000000 0.000000 0.068401 0.000000 0.000000
# 5 0.000000 0.000000 0.000000 0.000000 0.031504 0.000000
# 6 0.000000 0.000000 0.000000 0.000000 0.000000 0.025293
#
#
# Mechanical properties :
#
#
# Convention : Reuss Voigt Hill
#
# Bulk Modulus (GPa) = 35.97405 52.38549 44.17977
# Shear Modulus (GPa) = 26.32277 33.17993 29.75135
#
# Velocity S-wave (km/s) = 3.52510 3.95771 3.74765
# Velocity P-wave (km/s) = 5.79232 6.75385 6.29148
#
# Compressibility (1/GPa) = 0.02779781
#
# Stress axis : x y z
#
# Youngs Moduli (GPa) = 99.07686 137.53272 41.18946
#
# Poissons Ratio (x) = 0.36746 0.10343
# Poissons Ratio (y) = 0.26471 0.07165
# Poissons Ratio (z) = 0.24878 0.23923
#
# Static dielectric constant tensor:
#      x y z
#    x 1.773750 0.000000 0.000000 
#    y 0.000000 1.878160 0.000000 
#    z 0.000000 0.000000 1.781490 
# 
# From -- ./inp_files/5695.got.cif
#   From: 2010.05.17/outbox.cif.g08.bks.cpg/sg34_3_cif.got.tgz:5695.got - 2010.06.03 17:23:11.
