data_PCOD9347660
_publ_section_title
;
Structure prediction by ZEFSAII (Michael W. Deem and Ramdas Pophale) SiO2 
 PCOD9347660
Probable space group: P N N 2
;
_chemical_formula_sum "Si O2"
_cell_formula_units_Z 18
_cell_length_a 9.847945
_cell_length_b 9.572320
_cell_length_c 9.070883
_cell_angle_alpha 90.000000
_cell_angle_beta 90.000000
_cell_angle_gamma 90.000000
_cell_volume 855.091104
_symmetry_space_group_name_H-M "P N N 2"
_symmetry_group_IT_number 34
_symmetry_cell_setting 'orthorhombic'
loop_
_space_group_symop_operation_xyz
x,y,z
-x,-y,z
1/2-x,1/2+y,1/2+z
1/2+x,1/2-y,1/2+z
loop_
_atom_site_type_symbol
_atom_site_label
_atom_site_fract_x
_atom_site_fract_y
_atom_site_fract_z
Si Si1 0.393121 0.623574 0.436830
Si Si2 0.196862 0.153412 0.616498
Si Si3 0.494022 0.217151 0.702438
Si Si4 0.000000 0.000000 0.394887
Si Si5 0.134771 0.439268 0.467294
O O1 0.500000 0.500000 0.462189
O O2 0.393202 0.658517 0.264436
O O3 0.429106 0.743284 0.552193
O O4 0.244806 0.560211 0.463945
O O5 0.354483 0.138873 0.660736
O O6 0.125786 0.046869 0.501127
O O7 0.194206 0.307059 0.548814
O O8 0.467892 0.363660 0.793321
O O9 0.585487 0.125431 0.811759
O O10 0.000000 0.500000 0.541073
#
# Coordination Sequence:
#
# PCOD9347660 Si02
#       5
#     4   4   4   2   4
#     4  12  23  43  67  95 135 175 224 274 333 398
#     4  11  23  41  67  97 131 181 218 274 342 391
#     4  11  23  44  66  98 135 173 220 283 335 390
#     4  10  22  40  68  94 134 176 226 270 336 404
#     4  11  24  43  67  97 135 173 224 281 330 396
#
# _framework density 21.050388999999999
#
# number of rings (size 3 to 8) (size 9 to 14) (size 15 to 20)
#    0.000    0.889    6.667    0.000    0.000    3.556 
#    4.000    0.000    0.000    0.000    0.000    0.000 
#    0.000    0.000    0.000    0.000    0.000    0.000 
#
# Total GULP energy -100517.588171 kJ/mol
# GULP energy per Si atom -5584.310454 kJ/mol
# Density = 2.100248 g / cm^3
# Si number density = 21.050389 Si / 1000 Ang^3
#
#
#
# Elastic Constant Matrix: (Units=GPa)
#
#
# Indices 1 2 3 4 5 6 
#
# 1 108.3608 9.5682 23.7455 0.0000 0.0000 0.0000
# 2 9.5682 65.0406 17.8019 0.0000 0.0000 0.0000
# 3 23.7455 17.8019 92.6209 0.0000 0.0000 0.0000
# 4 0.0000 0.0000 0.0000 17.4623 0.0000 0.0000
# 5 0.0000 0.0000 0.0000 0.0000 249.9447 0.0000
# 6 0.0000 0.0000 0.0000 0.0000 0.0000 32.9286
#
#
#
# Elastic Compliance Matrix: (Units=1/GPa)
#
#
# Indices 1 2 3 4 5 6 
#
# 1 0.009817 -0.000797 -0.002364 0.000000 0.000000 0.000000
# 2 -0.000797 0.016294 -0.002927 0.000000 0.000000 0.000000
# 3 -0.002364 -0.002927 0.011965 0.000000 0.000000 0.000000
# 4 0.000000 0.000000 0.000000 0.057266 0.000000 0.000000
# 5 0.000000 0.000000 0.000000 0.000000 0.004001 0.000000
# 6 0.000000 0.000000 0.000000 0.000000 0.000000 0.030369
#
#
# Mechanical properties :
#
#
# Convention : Reuss Voigt Hill
#
# Bulk Modulus (GPa) = 38.61082 40.91708 39.76395
# Shear Modulus (GPa) = 33.21804 74.39423 53.80613
#
# Velocity S-wave (km/s) = 3.97675 5.95128 5.06124
# Velocity P-wave (km/s) = 6.28235 8.16722 7.28600
#
# Compressibility (1/GPa) = 0.02589948
#
# Stress axis : x y z
#
# Youngs Moduli (GPa) = 101.86671 61.37416 83.57525
#
# Poissons Ratio (x) = 0.04893 0.19753
# Poissons Ratio (y) = 0.08121 0.24465
# Poissons Ratio (z) = 0.24076 0.17966
#
# Static dielectric constant tensor:
#      x y z
#    x 1.576590 0.000000 0.000000 
#    y 0.000000 1.809460 0.000000 
#    z 0.000000 0.000000 1.769630 
# 
# From -- ./inp_files/2405.got.cif
#   From: 2010.05.17/outbox.cif.g08.bks.cpg/sg34_2_cif.got.tgz:2405.got - 2010.06.03 17:23:11.
