data_PCOD9347478
_publ_section_title
;
Structure prediction by ZEFSAII (Michael W. Deem and Ramdas Pophale) SiO2 
 PCOD9347478
Probable space group: P N N 2
;
_chemical_formula_sum "Si O2"
_cell_formula_units_Z 30
_cell_length_a 10.403845
_cell_length_b 20.155230
_cell_length_c 7.514618
_cell_angle_alpha 90.000000
_cell_angle_beta 90.000000
_cell_angle_gamma 90.000000
_cell_volume 1575.754442
_symmetry_space_group_name_H-M "P N N 2"
_symmetry_group_IT_number 34
_symmetry_cell_setting 'orthorhombic'
loop_
_space_group_symop_operation_xyz
x,y,z
-x,-y,z
1/2-x,1/2+y,1/2+z
1/2+x,1/2-y,1/2+z
loop_
_atom_site_type_symbol
_atom_site_label
_atom_site_fract_x
_atom_site_fract_y
_atom_site_fract_z
Si Si1 0.916651 0.432844 0.595210
Si Si2 0.733354 0.417762 0.285223
Si Si3 0.131514 0.864531 0.912074
Si Si4 0.894740 0.777536 0.845042
Si Si5 0.000000 0.000000 0.837423
Si Si6 0.955823 0.424330 0.000050
Si Si7 0.393649 0.816929 0.012797
Si Si8 0.325988 0.823259 0.631351
O O1 0.789641 0.439968 0.477004
O O2 0.902111 0.413353 0.801450
O O3 0.000000 0.500000 0.585088
O O4 0.000351 0.373881 0.511938
O O5 0.680751 0.343953 0.300227
O O6 0.618357 0.467100 0.233247
O O7 0.846279 0.417278 0.144822
O O8 0.198997 0.858210 0.714798
O O9 0.029292 0.804743 0.924887
O O10 0.061977 0.935439 0.935743
O O11 0.253454 0.851625 0.039334
O O12 0.918347 0.735252 0.667048
O O13 0.815022 0.732787 0.982986
O O14 0.000000 0.500000 0.006943
O O15 0.074530 0.376552 0.049889
O O16 0.384543 0.790313 0.811337
#
# Coordination Sequence:
#
# PCOD9347478 Si02
#       8
#     4   4   4   4   2   4   4   4
#     4  11  22  37  64  95 118 156 208 255 302 358
#     4  11  23  39  66  86 125 168 198 256 300 376
#     4   9  22  38  61  85 117 160 195 248 293 367
#     4  11  24  38  58  90 120 161 199 248 308 350
#     4  10  20  44  64  84 122 160 206 236 318 352
#     4  11  22  37  64  95 118 156 208 255 302 358
#     4  10  22  38  60  87 123 156 197 253 300 358
#     4  10  22  38  60  87 123 156 197 253 300 358
#
# _framework density 19.038498000000001
#
# number of rings (size 3 to 8) (size 9 to 14) (size 15 to 20)
#    0.800    0.800    2.667    2.000    3.733    1.067 
#    0.000    0.667    2.933    0.000    0.000    0.000 
#    0.000    0.000    0.000    0.000    0.000    0.000 
#
# Total GULP energy -167176.027646 kJ/mol
# GULP energy per Si atom -5572.534255 kJ/mol
# Density = 1.899517 g / cm^3
# Si number density = 19.038498 Si / 1000 Ang^3
#
#
#
# Elastic Constant Matrix: (Units=GPa)
#
#
# Indices 1 2 3 4 5 6 
#
# 1 67.9872 12.6250 0.8551 0.0000 0.0000 0.0000
# 2 12.6250 79.4693 11.4072 0.0000 0.0000 0.0000
# 3 0.8551 11.4072 65.6290 0.0000 0.0000 0.0000
# 4 0.0000 0.0000 0.0000 332.4064 0.0000 0.0000
# 5 0.0000 0.0000 0.0000 0.0000 11.1927 0.0000
# 6 0.0000 0.0000 0.0000 0.0000 0.0000 25.1534
#
#
#
# Elastic Compliance Matrix: (Units=1/GPa)
#
#
# Indices 1 2 3 4 5 6 
#
# 1 0.015159 -0.002441 0.000227 0.000000 0.000000 0.000000
# 2 -0.002441 0.013298 -0.002280 0.000000 0.000000 0.000000
# 3 0.000227 -0.002280 0.015630 0.000000 0.000000 0.000000
# 4 0.000000 0.000000 0.000000 0.003008 0.000000 0.000000
# 5 0.000000 0.000000 0.000000 0.000000 0.089344 0.000000
# 6 0.000000 0.000000 0.000000 0.000000 0.000000 0.039756
#
#
# Mechanical properties :
#
#
# Convention : Reuss Voigt Hill
#
# Bulk Modulus (GPa) = 28.48962 29.20668 28.84815
# Shear Modulus (GPa) = 25.39566 86.29704 55.84635
#
# Velocity S-wave (km/s) = 3.65624 6.73989 5.42191
# Velocity P-wave (km/s) = 5.72894 8.71448 7.37438
#
# Compressibility (1/GPa) = 0.03510050
#
# Stress axis : x y z
#
# Youngs Moduli (GPa) = 65.96715 75.19664 63.97776
#
# Poissons Ratio (x) = 0.18354 -0.01451
# Poissons Ratio (y) = 0.16101 0.14585
# Poissons Ratio (z) = -0.01496 0.17142
#
# Static dielectric constant tensor:
#      x y z
#    x 1.563770 0.000000 0.000000 
#    y 0.000000 1.630820 0.000000 
#    z 0.000000 0.000000 1.662240 
# 
# From -- ./inp_files/2875.got.cif
#   From: 2010.05.17/outbox.cif.g08.bks.cpg/sg34_2_cif.got.tgz:2875.got - 2010.06.03 17:23:11.
