data_PCOD9347246
_publ_section_title
;
Structure prediction by ZEFSAII (Michael W. Deem and Ramdas Pophale) SiO2 
 PCOD9347246
Probable space group: P N N 2
;
_chemical_formula_sum "Si O2"
_cell_formula_units_Z 32
_cell_length_a 7.240032
_cell_length_b 14.752956
_cell_length_c 15.261787
_cell_angle_alpha 90.000000
_cell_angle_beta 90.000000
_cell_angle_gamma 90.000000
_cell_volume 1630.140063
_symmetry_space_group_name_H-M "P N N 2"
_symmetry_group_IT_number 34
_symmetry_cell_setting 'orthorhombic'
loop_
_space_group_symop_operation_xyz
x,y,z
-x,-y,z
1/2-x,1/2+y,1/2+z
1/2+x,1/2-y,1/2+z
loop_
_atom_site_type_symbol
_atom_site_label
_atom_site_fract_x
_atom_site_fract_y
_atom_site_fract_z
Si Si1 0.203494 0.050092 0.340420
Si Si2 0.309290 0.894786 0.616022
Si Si3 0.540985 0.709561 0.811257
Si Si4 0.680803 0.563915 0.684791
Si Si5 0.374872 0.911153 0.001395
Si Si6 0.788996 0.418861 0.032320
Si Si7 0.385696 0.906564 0.809513
Si Si8 0.449128 0.283149 0.009057
O O1 0.316231 0.057991 0.429526
O O2 0.151047 0.152543 0.312447
O O3 0.286845 0.994317 0.259595
O O4 0.000000 0.000000 0.358079
O O5 0.524460 0.893250 0.585043
O O6 0.276734 0.901539 0.719225
O O7 0.209075 0.808835 0.575999
O O8 0.227404 0.986077 0.573863
O O9 0.647151 0.660165 0.732897
O O10 0.512577 0.816396 0.803647
O O11 0.615244 0.692977 0.909886
O O12 0.500000 0.500000 0.674626
O O13 0.756034 0.579626 0.588547
O O14 0.496895 0.821255 0.010774
O O15 0.500000 0.000000 0.997914
O O16 0.285319 0.903083 0.904047
O O17 0.631064 0.342524 0.032082
O O18 0.500000 0.000000 0.805987
#
# Coordination Sequence:
#
# PCOD9347246 Si02
#       8
#     4   4   4   4   4   4   4   4
#     4   8  15  32  57  86 118 146 179 244 309 351
#     4  11  21  34  61  91 114 152 192 246 293 356
#     4   8  17  34  60  80 114 156 180 237 305 345
#     4   9  18  35  62  87 110 155 199 240 302 355
#     4  10  23  41  58  79 120 167 197 243 292 351
#     4  10  19  35  59  93 117 149 186 238 313 354
#     4  10  20  37  55  77 117 162 196 230 294 349
#     4  10  21  39  61  87 121 150 191 245 302 352
#
# _framework density 19.630216999999998
#
# number of rings (size 3 to 8) (size 9 to 14) (size 15 to 20)
#    0.000    2.750    1.250    2.625    1.750    2.000 
#    4.500    1.250    0.000    0.000    0.000    0.000 
#    0.000    0.000    0.000    0.000    0.000    0.000 
#
# Total GULP energy -178137.705901 kJ/mol
# GULP energy per Si atom -5566.803309 kJ/mol
# Density = 1.958554 g / cm^3
# Si number density = 19.630217 Si / 1000 Ang^3
#
#
#
# Elastic Constant Matrix: (Units=GPa)
#
#
# Indices 1 2 3 4 5 6 
#
# 1 35.3583 9.0519 23.9922 0.0000 0.0000 0.0000
# 2 9.0519 104.6454 37.7817 0.0000 0.0000 0.0000
# 3 23.9922 37.7817 191.2962 0.0000 0.0000 0.0000
# 4 0.0000 0.0000 0.0000 8.0238 0.0000 0.0000
# 5 0.0000 0.0000 0.0000 0.0000 33.8807 0.0000
# 6 0.0000 0.0000 0.0000 0.0000 0.0000 10.4485
#
#
#
# Elastic Compliance Matrix: (Units=1/GPa)
#
#
# Indices 1 2 3 4 5 6 
#
# 1 0.031097 -0.001380 -0.003628 0.000000 0.000000 0.000000
# 2 -0.001380 0.010351 -0.001871 0.000000 0.000000 0.000000
# 3 -0.003628 -0.001871 0.006052 0.000000 0.000000 0.000000
# 4 0.000000 0.000000 0.000000 0.124629 0.000000 0.000000
# 5 0.000000 0.000000 0.000000 0.000000 0.029515 0.000000
# 6 0.000000 0.000000 0.000000 0.000000 0.000000 0.095708
#
#
# Mechanical properties :
#
#
# Convention : Reuss Voigt Hill
#
# Bulk Modulus (GPa) = 29.63684 52.55019 41.09351
# Shear Modulus (GPa) = 15.51074 27.83553 21.67314
#
# Velocity S-wave (km/s) = 2.81400 3.76971 3.32636
# Velocity P-wave (km/s) = 5.06838 6.76578 5.97764
#
# Compressibility (1/GPa) = 0.03374179
#
# Stress axis : x y z
#
# Youngs Moduli (GPa) = 32.15782 96.60825 165.23357
#
# Poissons Ratio (x) = 0.13334 0.59939
# Poissons Ratio (y) = 0.04438 0.30920
# Poissons Ratio (z) = 0.11665 0.18078
#
# Static dielectric constant tensor:
#      x y z
#    x 1.707920 0.000000 0.000000 
#    y 0.000000 1.704120 0.000000 
#    z 0.000000 0.000000 1.745330 
# 
# From -- ./inp_files/6631.got.cif
#   From: 2010.05.17/outbox.cif.g08.bks.cpg/sg34_4_cif.got.tgz:6631.got - 2010.06.03 17:23:11.
