data_PCOD9347039
_publ_section_title
;
Structure prediction by ZEFSAII (Michael W. Deem and Ramdas Pophale) SiO2 
 PCOD9347039
Probable space group: P N A 21
;
_chemical_formula_sum "Si O2"
_cell_formula_units_Z 12
_cell_length_a 9.554909
_cell_length_b 5.325272
_cell_length_c 7.904523
_cell_angle_alpha 90.000000
_cell_angle_beta 90.000000
_cell_angle_gamma 90.000000
_cell_volume 402.201807
_symmetry_space_group_name_H-M "P N A 21"
_symmetry_group_IT_number 33
_symmetry_cell_setting 'orthorhombic'
loop_
_space_group_symop_operation_xyz
x,y,z
-x,-y,1/2+z
1/2-x,1/2+y,1/2+z
1/2+x,1/2-y,z
loop_
_atom_site_type_symbol
_atom_site_label
_atom_site_fract_x
_atom_site_fract_y
_atom_site_fract_z
Si Si1 0.434467 0.529348 0.787480
Si Si2 0.258556 0.786266 0.025158
Si Si3 0.520964 0.105512 0.975544
O O1 0.311523 0.383832 0.692185
O O2 0.453195 0.766904 0.660609
O O3 0.374492 0.581816 0.976178
O O4 0.549920 0.320463 0.834373
O O5 0.121631 0.637120 0.949452
O O6 0.358503 0.018815 0.967908
#
# Coordination Sequence:
#
# PCOD9347039 Si02
#       3
#     4   4   4
#     4  12  30  54  94 134 180 246 314 390 466 558
#     4  12  30  54  92 130 178 244 306 390 454 560
#     4  12  30  58  92 132 186 240 318 386 470 556
#
# _framework density 29.835764000000001
#
# number of rings (size 3 to 8) (size 9 to 14) (size 15 to 20)
#    0.000    0.000    0.000    6.000   18.667    0.000 
#    0.000    0.000    0.000    0.000    0.000    0.000 
#    0.000    0.000    0.000    0.000    0.000    0.000 
#
# Total GULP energy -66832.186410 kJ/mol
# GULP energy per Si atom -5569.348867 kJ/mol
# Density = 2.976786 g / cm^3
# Si number density = 29.835764 Si / 1000 Ang^3
#
#
#
# Elastic Constant Matrix: (Units=GPa)
#
#
# Indices 1 2 3 4 5 6 
#
# 1 182.8010 48.1797 26.9093 0.0000 0.0000 0.0000
# 2 48.1797 166.9660 67.2962 0.0000 0.0000 0.0000
# 3 26.9093 67.2962 143.2461 0.0000 0.0000 0.0000
# 4 0.0000 0.0000 0.0000 36.8914 0.0000 0.0000
# 5 0.0000 0.0000 0.0000 0.0000 47.6337 0.0000
# 6 0.0000 0.0000 0.0000 0.0000 0.0000 50.5243
#
#
#
# Elastic Compliance Matrix: (Units=1/GPa)
#
#
# Indices 1 2 3 4 5 6 
#
# 1 0.005938 -0.001559 -0.000383 0.000000 0.000000 0.000000
# 2 -0.001559 0.007798 -0.003370 0.000000 0.000000 0.000000
# 3 -0.000383 -0.003370 0.008636 0.000000 0.000000 0.000000
# 4 0.000000 0.000000 0.000000 0.027107 0.000000 0.000000
# 5 0.000000 0.000000 0.000000 0.000000 0.020994 0.000000
# 6 0.000000 0.000000 0.000000 0.000000 0.000000 0.019792
#
#
# Mechanical properties :
#
#
# Convention : Reuss Voigt Hill
#
# Bulk Modulus (GPa) = 85.12960 86.42039 85.77499
# Shear Modulus (GPa) = 47.70784 50.38507 49.04646
#
# Velocity S-wave (km/s) = 4.00311 4.11390 4.05888
# Velocity P-wave (km/s) = 7.06832 7.18288 7.12583
#
# Compressibility (1/GPa) = 0.01174680
#
# Stress axis : x y z
#
# Youngs Moduli (GPa) = 168.41507 128.24531 115.78993
#
# Poissons Ratio (x) = 0.19994 0.04435
# Poissons Ratio (y) = 0.26256 0.39026
# Poissons Ratio (z) = 0.06450 0.43224
#
# Static dielectric constant tensor:
#      x y z
#    x 2.272700 0.000000 0.000000 
#    y 0.000000 2.419910 0.000000 
#    z 0.000000 0.000000 2.373980 
# 
# From -- ./inp_files/2882.got.cif
#   From: 2010.05.17/outbox.cif.g08.bks.cpg/sg33_2_cif.got.tgz:2882.got - 2010.06.03 17:15:25.
