data_PCOD9347879
_publ_section_title
;
Structure prediction by ZEFSAII (Michael W. Deem and Ramdas Pophale) SiO2 
 PCOD9347879
Probable space group: P N N 2
;
_chemical_formula_sum "Si O2"
_cell_formula_units_Z 32
_cell_length_a 8.923977
_cell_length_b 16.268048
_cell_length_c 8.672604
_cell_angle_alpha 90.000000
_cell_angle_beta 90.000000
_cell_angle_gamma 90.000000
_cell_volume 1259.051237
_symmetry_space_group_name_H-M "P N N 2"
_symmetry_group_IT_number 34
_symmetry_cell_setting 'orthorhombic'
loop_
_space_group_symop_operation_xyz
x,y,z
-x,-y,z
1/2-x,1/2+y,1/2+z
1/2+x,1/2-y,1/2+z
loop_
_atom_site_type_symbol
_atom_site_label
_atom_site_fract_x
_atom_site_fract_y
_atom_site_fract_z
Si Si1 0.001849 0.395890 0.037680
Si Si2 0.260296 0.430900 0.610822
Si Si3 0.273108 0.121885 0.779474
Si Si4 0.265097 0.581359 0.833725
Si Si5 0.789724 0.059557 0.745789
Si Si6 0.010995 0.820310 0.539703
Si Si7 0.448636 0.138772 0.088147
Si Si8 0.786990 0.708012 0.820621
O O1 0.887134 0.347370 0.148222
O O2 0.126672 0.424993 0.163602
O O3 0.873923 0.448615 0.943456
O O4 0.086913 0.344382 0.908696
O O5 0.314189 0.505164 0.723026
O O6 0.298939 0.429373 0.430631
O O7 0.297663 0.344796 0.689770
O O8 0.079866 0.426252 0.619016
O O9 0.164701 0.197456 0.805075
O O10 0.193526 0.038511 0.731357
O O11 0.369199 0.108885 0.932411
O O12 0.182637 0.642492 0.714554
O O13 0.609459 0.371196 0.935031
O O14 0.907108 0.116877 0.657375
O O15 0.963618 0.726239 0.585124
O O16 0.152426 0.788963 0.442103
#
# Coordination Sequence:
#
# PCOD9347879 Si02
#       8
#     4   4   4   4   4   4   4   4
#     4  11  25  42  79 112 154 202 268 323 388 487
#     4  12  25  48  81 112 150 206 282 323 397 479
#     4  11  24  44  76 116 151 202 268 332 398 474
#     4  12  27  46  82 117 159 210 263 332 405 485
#     4  11  25  49  82 112 158 205 267 333 400 483
#     4  10  28  50  77 117 171 204 258 337 423 478
#     4  11  24  45  81 122 153 208 271 336 394 484
#     4  10  26  47  73 112 154 209 262 330 402 481
#
# _framework density 25.415962
#
# number of rings (size 3 to 8) (size 9 to 14) (size 15 to 20)
#    0.000    1.000    3.750    0.750    8.750    3.500 
#    0.000    1.250    2.750    0.000    0.000    0.000 
#    0.000    0.000    0.000    0.000    0.000    0.000 
#
# Total GULP energy -178500.513526 kJ/mol
# GULP energy per Si atom -5578.141048 kJ/mol
# Density = 2.535811 g / cm^3
# Si number density = 25.415962 Si / 1000 Ang^3
#
#
#
# Elastic Constant Matrix: (Units=GPa)
#
#
# Indices 1 2 3 4 5 6 
#
# 1 56.5878 19.7121 -5.7539 0.0000 0.0000 0.0000
# 2 19.7121 161.5884 28.7428 0.0000 0.0000 0.0000
# 3 -5.7539 28.7428 94.6922 0.0000 0.0000 0.0000
# 4 0.0000 0.0000 0.0000 57.6671 0.0000 0.0000
# 5 0.0000 0.0000 0.0000 0.0000 50.8353 0.0000
# 6 0.0000 0.0000 0.0000 0.0000 0.0000 33.0422
#
#
#
# Elastic Compliance Matrix: (Units=1/GPa)
#
#
# Indices 1 2 3 4 5 6 
#
# 1 0.018788 -0.002637 0.001942 0.000000 0.000000 0.000000
# 2 -0.002637 0.006912 -0.002258 0.000000 0.000000 0.000000
# 3 0.001942 -0.002258 0.011364 0.000000 0.000000 0.000000
# 4 0.000000 0.000000 0.000000 0.017341 0.000000 0.000000
# 5 0.000000 0.000000 0.000000 0.000000 0.019671 0.000000
# 6 0.000000 0.000000 0.000000 0.000000 0.000000 0.030264
#
#
# Mechanical properties :
#
#
# Convention : Reuss Voigt Hill
#
# Bulk Modulus (GPa) = 32.09571 44.25228 38.17399
# Shear Modulus (GPa) = 41.44795 46.32006 43.88400
#
# Velocity S-wave (km/s) = 4.04268 4.27368 4.15978
# Velocity P-wave (km/s) = 5.86912 6.46541 6.17447
#
# Compressibility (1/GPa) = 0.03115682
#
# Stress axis : x y z
#
# Youngs Moduli (GPa) = 53.22587 144.67591 87.99690
#
# Poissons Ratio (x) = 0.38157 -0.17091
# Poissons Ratio (y) = 0.14038 0.19873
# Poissons Ratio (z) = -0.10337 0.32673
#
# Static dielectric constant tensor:
#      x y z
#    x 2.006200 0.000000 0.000000 
#    y 0.000000 2.125980 0.000000 
#    z 0.000000 0.000000 2.186970 
# 
# From -- ./inp_files/3344.got.cif
#   From: 2010.05.17/outbox.cif.g08.bks.cpg/sg34_2_cif.got.tgz:3344.got - 2010.06.03 17:23:11.
