data_PCOD9347132
_publ_section_title
;
Structure prediction by ZEFSAII (Michael W. Deem and Ramdas Pophale) SiO2 
 PCOD9347132
Probable space group: P N N 2
;
_chemical_formula_sum "Si O2"
_cell_formula_units_Z 24
_cell_length_a 14.884861
_cell_length_b 5.560611
_cell_length_c 11.061278
_cell_angle_alpha 90.000000
_cell_angle_beta 90.000000
_cell_angle_gamma 90.000000
_cell_volume 915.530054
_symmetry_space_group_name_H-M "P N N 2"
_symmetry_group_IT_number 34
_symmetry_cell_setting 'orthorhombic'
loop_
_space_group_symop_operation_xyz
x,y,z
-x,-y,z
1/2-x,1/2+y,1/2+z
1/2+x,1/2-y,1/2+z
loop_
_atom_site_type_symbol
_atom_site_label
_atom_site_fract_x
_atom_site_fract_y
_atom_site_fract_z
Si Si1 0.290513 0.600428 0.751600
Si Si2 0.461066 0.747810 0.348466
Si Si3 0.103168 0.024847 0.502534
Si Si4 0.760909 0.898869 0.803994
Si Si5 0.963213 0.750765 0.131045
Si Si6 0.104139 0.523582 0.502169
O O1 0.338015 0.560097 0.882481
O O2 0.271897 0.321549 0.716884
O O3 0.358029 0.722646 0.656066
O O4 0.221490 0.820686 0.771819
O O5 0.500000 0.500000 0.293169
O O6 0.353195 0.717699 0.352553
O O7 0.489324 0.749735 0.490237
O O8 0.500000 0.000000 0.297029
O O9 0.116059 0.273715 0.572296
O O10 0.118354 0.774515 0.568077
O O11 0.000000 0.000000 0.464686
O O12 0.677380 0.942816 0.896502
O O13 0.000000 0.500000 0.182816
O O14 0.000000 0.000000 0.185075
O O15 0.000000 0.500000 0.460459
#
# Coordination Sequence:
#
# PCOD9347132 Si02
#       6
#     4   4   4   4   4   4
#     4  10  18  28  46  73 102 129 169 218 266 318
#     4  10  21  37  54  74 107 149 188 224 269 325
#     4   8  13  20  32  53  85 118 141 173 226 290
#     4  10  19  31  49  74 103 137 180 224 265 317
#     4  10  20  33  51  77 112 147 174 214 278 342
#     4   8  14  23  36  59  89 118 148 189 246 300
#
# _framework density 26.214324000000001
#
# number of rings (size 3 to 8) (size 9 to 14) (size 15 to 20)
#    0.000    2.667    0.000    2.500    0.000    6.667 
#    0.000    0.000    0.000    0.000    0.000    3.500 
#    0.000   25.333    0.000    0.000    0.000    0.000 
#
# Total GULP energy -133672.691286 kJ/mol
# GULP energy per Si atom -5569.695470 kJ/mol
# Density = 2.615466 g / cm^3
# Si number density = 26.214324 Si / 1000 Ang^3
#
#
#
# Elastic Constant Matrix: (Units=GPa)
#
#
# Indices 1 2 3 4 5 6 
#
# 1 124.3652 38.8528 32.0811 0.0000 0.0000 0.0000
# 2 38.8528 333.6304 29.1269 0.0000 0.0000 0.0000
# 3 32.0811 29.1269 56.8856 0.0000 0.0000 0.0000
# 4 0.0000 0.0000 0.0000 -68.7549 0.0000 0.0000
# 5 0.0000 0.0000 0.0000 0.0000 76.7651 0.0000
# 6 0.0000 0.0000 0.0000 0.0000 0.0000 -7.0097
#
#
#
# Elastic Compliance Matrix: (Units=1/GPa)
#
#
# Indices 1 2 3 4 5 6 
#
# 1 0.009552 -0.000672 -0.005043 0.000000 0.000000 0.000000
# 2 -0.000672 0.003185 -0.001252 0.000000 0.000000 0.000000
# 3 -0.005043 -0.001252 0.021064 0.000000 0.000000 0.000000
# 4 0.000000 0.000000 0.000000 -0.014544 0.000000 0.000000
# 5 0.000000 0.000000 0.000000 0.000000 0.013027 0.000000
# 6 0.000000 0.000000 0.000000 0.000000 0.000000 -0.142659
#
#
# Mechanical properties :
#
#
# Convention : Reuss Voigt Hill
#
# Bulk Modulus (GPa) = 50.33328 79.44477 64.88902
# Shear Modulus (GPa) = -55.66631 27.85478 -13.90576
#
# Velocity S-wave (km/s) = -4.61315 3.26326 -2.30568
# Velocity P-wave (km/s) = 3.02201 6.67609 4.20937
#
# Compressibility (1/GPa) = 0.01986757
#
# Stress axis : x y z
#
# Youngs Moduli (GPa) = 104.69477 313.98402 47.47472
#
# Poissons Ratio (x) = 0.21103 0.23939
# Poissons Ratio (y) = 0.07036 0.05942
# Poissons Ratio (z) = 0.52793 0.39302
#
# Static dielectric constant tensor:
#      x y z
#    x 2.076780 0.000000 0.000000 
#    y 0.000000 2.208460 0.000000 
#    z 0.000000 0.000000 1.992990 
# 
# From -- ./inp_files/6884.got.cif
#   From: 2010.05.17/outbox.cif.g08.bks.cpg/sg34_4_cif.got.tgz:6884.got - 2010.06.03 17:23:11.
