data_PCOD9347882
_publ_section_title
;
Structure prediction by ZEFSAII (Michael W. Deem and Ramdas Pophale) SiO2 
 PCOD9347882
Probable space group: P N N 2
;
_chemical_formula_sum "Si O2"
_cell_formula_units_Z 20
_cell_length_a 16.365903
_cell_length_b 10.480415
_cell_length_c 5.137382
_cell_angle_alpha 90.000000
_cell_angle_beta 90.000000
_cell_angle_gamma 90.000000
_cell_volume 881.171237
_symmetry_space_group_name_H-M "P N N 2"
_symmetry_group_IT_number 34
_symmetry_cell_setting 'orthorhombic'
loop_
_space_group_symop_operation_xyz
x,y,z
-x,-y,z
1/2-x,1/2+y,1/2+z
1/2+x,1/2-y,1/2+z
loop_
_atom_site_type_symbol
_atom_site_label
_atom_site_fract_x
_atom_site_fract_y
_atom_site_fract_z
Si Si1 0.500000 0.000000 0.266220
Si Si2 0.623230 0.226946 0.668990
Si Si3 0.162185 0.125630 0.682746
Si Si4 0.464489 0.230958 0.883562
Si Si5 0.654738 0.954909 0.650266
Si Si6 0.500000 0.500000 0.143533
O O1 0.414396 0.017994 0.426307
O O2 0.500890 0.126063 0.083966
O O3 0.668648 0.267351 0.407164
O O4 0.525220 0.224213 0.636021
O O5 0.651565 0.092349 0.784492
O O6 0.635439 0.325104 0.901463
O O7 0.249505 0.065796 0.617788
O O8 0.084133 0.043033 0.784034
O O9 0.379249 0.168482 0.801311
O O10 0.467716 0.374274 0.988705
#
# Coordination Sequence:
#
# PCOD9347882 Si02
#       6
#     2   4   4   4   4   2
#     4  12  22  46  78 110 148 202 258 314 370 452
#     4  11  24  50  68 106 144 194 252 313 362 452
#     4  11  29  44  75 104 155 192 251 313 378 447
#     4  11  24  46  74 105 149 200 247 311 381 442
#     4  12  25  43  76 111 139 202 256 306 373 454
#     4  10  26  50  66 108 152 200 238 316 384 438
#
# _framework density 22.697066
#
# number of rings (size 3 to 8) (size 9 to 14) (size 15 to 20)
#    0.000    0.800    4.000    2.400    5.600    3.200 
#    3.600    0.000    0.000    0.000    0.000    0.000 
#    0.000    0.000    0.000    0.000    0.000    0.000 
#
# Total GULP energy -111380.007613 kJ/mol
# GULP energy per Si atom -5569.000381 kJ/mol
# Density = 2.264541 g / cm^3
# Si number density = 22.697066 Si / 1000 Ang^3
#
#
#
# Elastic Constant Matrix: (Units=GPa)
#
#
# Indices 1 2 3 4 5 6 
#
# 1 168.9302 37.0303 18.8211 0.0000 0.0000 0.0000
# 2 37.0303 125.6137 7.2637 0.0000 0.0000 0.0000
# 3 18.8211 7.2637 67.4924 0.0000 0.0000 0.0000
# 4 0.0000 0.0000 0.0000 25.9292 0.0000 0.0000
# 5 0.0000 0.0000 0.0000 0.0000 16.2220 0.0000
# 6 0.0000 0.0000 0.0000 0.0000 0.0000 27.6319
#
#
#
# Elastic Compliance Matrix: (Units=1/GPa)
#
#
# Indices 1 2 3 4 5 6 
#
# 1 0.006499 -0.001822 -0.001616 0.000000 0.000000 0.000000
# 2 -0.001822 0.008522 -0.000409 0.000000 0.000000 0.000000
# 3 -0.001616 -0.000409 0.015311 0.000000 0.000000 0.000000
# 4 0.000000 0.000000 0.000000 0.038567 0.000000 0.000000
# 5 0.000000 0.000000 0.000000 0.000000 0.061645 0.000000
# 6 0.000000 0.000000 0.000000 0.000000 0.000000 0.036190
#
#
# Mechanical properties :
#
#
# Convention : Reuss Voigt Hill
#
# Bulk Modulus (GPa) = 44.17557 54.25183 49.21370
# Shear Modulus (GPa) = 27.47642 33.88471 30.68056
#
# Velocity S-wave (km/s) = 3.48310 3.86801 3.68059
# Velocity P-wave (km/s) = 5.97339 6.62595 6.30811
#
# Compressibility (1/GPa) = 0.02263694
#
# Stress axis : x y z
#
# Youngs Moduli (GPa) = 153.86587 117.34594 65.31164
#
# Poissons Ratio (x) = 0.21386 0.10556
# Poissons Ratio (y) = 0.28041 0.02671
# Poissons Ratio (z) = 0.24868 0.04799
#
# Static dielectric constant tensor:
#      x y z
#    x 1.944600 0.000000 0.000000 
#    y 0.000000 1.898650 0.000000 
#    z 0.000000 0.000000 1.893560 
# 
# From -- ./inp_files/458.got.cif
#   From: 2010.05.17/outbox.cif.g08.bks.cpg/sg34_1_cif.got.tgz:458.got - 2010.06.03 17:23:11.
