data_PCOD9347608
_publ_section_title
;
Structure prediction by ZEFSAII (Michael W. Deem and Ramdas Pophale) SiO2 
 PCOD9347608
Probable space group: P N N 2
;
_chemical_formula_sum "Si O2"
_cell_formula_units_Z 30
_cell_length_a 11.722908
_cell_length_b 7.619259
_cell_length_c 14.253125
_cell_angle_alpha 90.000000
_cell_angle_beta 90.000000
_cell_angle_gamma 90.000000
_cell_volume 1273.087305
_symmetry_space_group_name_H-M "P N N 2"
_symmetry_group_IT_number 34
_symmetry_cell_setting 'orthorhombic'
loop_
_space_group_symop_operation_xyz
x,y,z
-x,-y,z
1/2-x,1/2+y,1/2+z
1/2+x,1/2-y,1/2+z
loop_
_atom_site_type_symbol
_atom_site_label
_atom_site_fract_x
_atom_site_fract_y
_atom_site_fract_z
Si Si1 0.371025 0.763904 0.480080
Si Si2 0.543751 0.197631 0.129412
Si Si3 0.738692 0.945589 0.384450
Si Si4 0.044715 0.803958 0.831135
Si Si5 0.717990 0.695119 0.711802
Si Si6 0.461284 0.733683 0.925115
Si Si7 0.000000 0.000000 0.121168
Si Si8 0.325379 0.081177 0.867631
O O1 0.466477 0.803255 0.402357
O O2 0.433783 0.654100 0.561951
O O3 0.276494 0.633519 0.436291
O O4 0.306665 0.953270 0.478091
O O5 0.486748 0.271143 0.223472
O O6 0.681143 0.201823 0.135770
O O7 0.500000 0.000000 0.121348
O O8 0.508729 0.288314 0.033500
O O9 0.669753 0.767257 0.357951
O O10 0.872180 0.909713 0.394231
O O11 0.728526 0.072297 0.294064
O O12 0.000000 0.000000 0.851433
O O13 0.601491 0.605408 0.675149
O O14 0.711206 0.890066 0.759495
O O15 0.576750 0.770276 0.871431
O O16 0.387269 0.910191 0.905224
#
# Coordination Sequence:
#
# PCOD9347608 Si02
#       8
#     4   4   4   4   4   4   2   4
#     4  11  23  43  70  96 138 187 239 288 353 424
#     4  12  22  45  67 101 131 184 231 296 343 413
#     4  11  24  44  72  99 139 187 236 290 364 430
#     4  12  23  43  70  99 137 181 237 293 356 420
#     4  11  24  43  70  96 140 184 232 283 354 425
#     4  11  24  41  71 101 140 181 231 296 356 419
#     4  12  26  42  72 106 144 190 240 302 360 418
#     4  10  21  44  68  96 137 188 231 275 363 431
#
# _framework density 23.56476
#
# number of rings (size 3 to 8) (size 9 to 14) (size 15 to 20)
#    0.000    0.800    6.000    2.800    1.867    1.600 
#    7.200    2.667    0.000    0.000    0.000    0.000 
#    0.000    0.000    0.000    0.000    0.000    0.000 
#
# Total GULP energy -167422.727729 kJ/mol
# GULP energy per Si atom -5580.757591 kJ/mol
# Density = 2.351113 g / cm^3
# Si number density = 23.564760 Si / 1000 Ang^3
#
#
#
# Elastic Constant Matrix: (Units=GPa)
#
#
# Indices 1 2 3 4 5 6 
#
# 1 92.2435 -8.7156 8.4785 0.0000 0.0000 0.0000
# 2 -8.7156 97.6826 9.3610 0.0000 0.0000 0.0000
# 3 8.4785 9.3610 64.7917 0.0000 0.0000 0.0000
# 4 0.0000 0.0000 0.0000 27.4654 0.0000 0.0000
# 5 0.0000 0.0000 0.0000 0.0000 -11.9207 0.0000
# 6 0.0000 0.0000 0.0000 0.0000 0.0000 41.2740
#
#
#
# Elastic Compliance Matrix: (Units=1/GPa)
#
#
# Indices 1 2 3 4 5 6 
#
# 1 0.011098 0.001145 -0.001618 0.000000 0.000000 0.000000
# 2 0.001145 0.010499 -0.001667 0.000000 0.000000 0.000000
# 3 -0.001618 -0.001667 0.015887 0.000000 0.000000 0.000000
# 4 0.000000 0.000000 0.000000 0.036409 0.000000 0.000000
# 5 0.000000 0.000000 0.000000 0.000000 -0.083888 0.000000
# 6 0.000000 0.000000 0.000000 0.000000 0.000000 0.024228
#
#
# Mechanical properties :
#
#
# Convention : Reuss Voigt Hill
#
# Bulk Modulus (GPa) = 30.11595 30.32952 30.22273
# Shear Modulus (GPa) = 169.03244 27.73668 98.38456
#
# Velocity S-wave (km/s) = 8.47861 3.43452 6.46849
# Velocity P-wave (km/s) = 10.42386 5.35038 8.28503
#
# Compressibility (1/GPa) = 0.03320500
#
# Stress axis : x y z
#
# Youngs Moduli (GPa) = 90.10827 95.24580 62.94628
#
# Poissons Ratio (x) = -0.10908 0.10183
# Poissons Ratio (y) = -0.10319 0.10492
# Poissons Ratio (z) = 0.14577 0.15875
#
# Static dielectric constant tensor:
#      x y z
#    x 2.099100 0.000000 0.000000 
#    y 0.000000 1.989180 0.000000 
#    z 0.000000 0.000000 1.860870 
# 
# From -- ./inp_files/6772.got.cif
#   From: 2010.05.17/outbox.cif.g08.bks.cpg/sg34_4_cif.got.tgz:6772.got - 2010.06.03 17:23:11.
