data_PCOD9347134
_publ_section_title
;
Structure prediction by ZEFSAII (Michael W. Deem and Ramdas Pophale) SiO2 
 PCOD9347134
Probable space group: P N N 2
;
_chemical_formula_sum "Si O2"
_cell_formula_units_Z 26
_cell_length_a 18.132935
_cell_length_b 9.626972
_cell_length_c 5.648724
_cell_angle_alpha 90.000000
_cell_angle_beta 90.000000
_cell_angle_gamma 90.000000
_cell_volume 986.070960
_symmetry_space_group_name_H-M "P N N 2"
_symmetry_group_IT_number 34
_symmetry_cell_setting 'orthorhombic'
loop_
_space_group_symop_operation_xyz
x,y,z
-x,-y,z
1/2-x,1/2+y,1/2+z
1/2+x,1/2-y,1/2+z
loop_
_atom_site_type_symbol
_atom_site_label
_atom_site_fract_x
_atom_site_fract_y
_atom_site_fract_z
Si Si1 0.001342 0.811999 0.536200
Si Si2 0.698376 0.581456 0.490055
Si Si3 0.543372 0.297947 0.559045
Si Si4 0.000000 0.500000 0.637921
Si Si5 0.104806 0.635026 0.995912
Si Si6 0.334751 0.425710 0.999745
Si Si7 0.684414 0.127308 0.676061
O O1 0.962587 0.878759 0.308318
O O2 0.981242 0.648281 0.526136
O O3 0.025241 0.689416 0.082427
O O4 0.782683 0.626121 0.442082
O O5 0.473715 0.642688 0.297622
O O6 0.651112 0.723854 0.473666
O O7 0.673845 0.496298 0.253474
O O8 0.679718 0.512551 0.739598
O O9 0.411474 0.342780 0.010486
O O10 0.620150 0.222172 0.581652
O O11 0.074999 0.545714 0.774344
O O12 0.153305 0.528413 0.142732
O O13 0.259064 0.336841 0.029805
#
# Coordination Sequence:
#
# PCOD9347134 Si02
#       7
#     4   4   4   2   4   4   4
#     4  11  20  33  52  76 117 148 178 229 284 356
#     4  10  22  37  50  76 118 159 187 227 284 356
#     4  11  21  32  53  85 111 145 185 233 296 343
#     4  10  18  28  54  84 112 144 192 212 304 346
#     4  11  18  38  54  86 118 154 183 247 297 359
#     4  10  20  39  49  72 123 154 187 223 283 353
#     4  10  22  34  55  83 118 148 195 232 289 361
#
# _framework density 26.367267999999999
#
# number of rings (size 3 to 8) (size 9 to 14) (size 15 to 20)
#    0.923    0.615    7.692    0.000    4.308    0.000 
#    5.538    0.000    0.000    0.000    0.000    1.077 
#    0.000    0.000    0.000    0.000    0.000    0.000 
#
# Total GULP energy -144819.349396 kJ/mol
# GULP energy per Si atom -5569.974977 kJ/mol
# Density = 2.630726 g / cm^3
# Si number density = 26.367268 Si / 1000 Ang^3
#
#
#
# Elastic Constant Matrix: (Units=GPa)
#
#
# Indices 1 2 3 4 5 6 
#
# 1 211.3121 30.6272 35.9199 0.0000 0.0000 0.0000
# 2 30.6272 95.0529 9.8651 0.0000 0.0000 0.0000
# 3 35.9199 9.8651 225.0072 0.0000 0.0000 0.0000
# 4 0.0000 0.0000 0.0000 136.3870 0.0000 0.0000
# 5 0.0000 0.0000 0.0000 0.0000 63.5093 0.0000
# 6 0.0000 0.0000 0.0000 0.0000 0.0000 39.6504
#
#
#
# Elastic Compliance Matrix: (Units=1/GPa)
#
#
# Indices 1 2 3 4 5 6 
#
# 1 0.005085 -0.001561 -0.000743 0.000000 0.000000 0.000000
# 2 -0.001561 0.011048 -0.000235 0.000000 0.000000 0.000000
# 3 -0.000743 -0.000235 0.004573 0.000000 0.000000 0.000000
# 4 0.000000 0.000000 0.000000 0.007332 0.000000 0.000000
# 5 0.000000 0.000000 0.000000 0.000000 0.015746 0.000000
# 6 0.000000 0.000000 0.000000 0.000000 0.000000 0.025220
#
#
# Mechanical properties :
#
#
# Convention : Reuss Voigt Hill
#
# Bulk Modulus (GPa) = 63.99305 76.02185 70.00745
# Shear Modulus (GPa) = 63.05744 78.24001 70.64872
#
# Velocity S-wave (km/s) = 4.89561 5.45322 5.18192
# Velocity P-wave (km/s) = 7.50190 8.27917 7.90010
#
# Compressibility (1/GPa) = 0.01562670
#
# Stress axis : x y z
#
# Youngs Moduli (GPa) = 196.65761 90.51471 218.66184
#
# Poissons Ratio (x) = 0.14132 0.16253
# Poissons Ratio (y) = 0.30704 0.05142
# Poissons Ratio (z) = 0.14618 0.02128
#
# Static dielectric constant tensor:
#      x y z
#    x 2.025240 0.000000 0.000000 
#    y 0.000000 2.086470 0.000000 
#    z 0.000000 0.000000 2.344030 
# 
# From -- ./inp_files/1521.got.cif
#   From: 2010.05.17/outbox.cif.g08.bks.cpg/sg34_1_cif.got.tgz:1521.got - 2010.06.03 17:23:11.
