data_PCOD9347971
_publ_section_title
;
Structure prediction by ZEFSAII (Michael W. Deem and Ramdas Pophale) SiO2 
 PCOD9347971
Probable space group: P N N 2
;
_chemical_formula_sum "Si O2"
_cell_formula_units_Z 22
_cell_length_a 12.188855
_cell_length_b 8.146980
_cell_length_c 9.258589
_cell_angle_alpha 90.000000
_cell_angle_beta 90.000000
_cell_angle_gamma 90.000000
_cell_volume 919.399719
_symmetry_space_group_name_H-M "P N N 2"
_symmetry_group_IT_number 34
_symmetry_cell_setting 'orthorhombic'
loop_
_space_group_symop_operation_xyz
x,y,z
-x,-y,z
1/2-x,1/2+y,1/2+z
1/2+x,1/2-y,1/2+z
loop_
_atom_site_type_symbol
_atom_site_label
_atom_site_fract_x
_atom_site_fract_y
_atom_site_fract_z
Si Si1 0.390035 0.379326 0.269140
Si Si2 0.744248 0.927956 0.192601
Si Si3 0.678209 0.972957 0.907746
Si Si4 0.889073 0.092779 0.432185
Si Si5 0.500000 0.000000 0.682642
Si Si6 0.544400 0.325197 0.523733
O O1 0.336472 0.200868 0.261276
O O2 0.301072 0.490340 0.353232
O O3 0.503884 0.341702 0.355581
O O4 0.386366 0.439320 0.103972
O O5 0.832674 0.828327 0.090875
O O6 0.798756 0.021535 0.324053
O O7 0.680507 0.036595 0.072768
O O8 0.628355 0.788520 0.915858
O O9 0.598971 0.049678 0.789082
O O10 0.000000 0.000000 0.387410
O O11 0.515540 0.836897 0.585926
O O12 0.500000 0.500000 0.580857
#
# Coordination Sequence:
#
# PCOD9347971 Si02
#       6
#     4   4   4   4   2   4
#     4  11  26  45  73 109 148 197 254 314 389 460
#     4  11  24  46  73 104 148 199 253 314 390 462
#     4  11  25  44  71 106 143 193 256 311 385 470
#     4  11  26  47  70 107 144 197 255 317 385 463
#     4  12  26  46  76 110 150 206 250 322 396 454
#     4  12  24  46  78 107 150 201 251 316 384 465
#
# _framework density 23.928656
#
# number of rings (size 3 to 8) (size 9 to 14) (size 15 to 20)
#    0.000    0.727    3.636    3.273    2.545    0.000 
#    0.000    5.455    0.000    0.000    0.000    0.000 
#    0.000    0.000    0.000    0.000    0.000    0.000 
#
# Total GULP energy -122574.857426 kJ/mol
# GULP energy per Si atom -5571.584428 kJ/mol
# Density = 2.387419 g / cm^3
# Si number density = 23.928656 Si / 1000 Ang^3
#
#
#
# Elastic Constant Matrix: (Units=GPa)
#
#
# Indices 1 2 3 4 5 6 
#
# 1 56.0785 -2.7222 12.0175 0.0000 0.0000 0.0000
# 2 -2.7222 62.8777 43.9011 0.0000 0.0000 0.0000
# 3 12.0175 43.9011 184.2394 0.0000 0.0000 0.0000
# 4 0.0000 0.0000 0.0000 30.7645 0.0000 0.0000
# 5 0.0000 0.0000 0.0000 0.0000 32.9944 0.0000
# 6 0.0000 0.0000 0.0000 0.0000 0.0000 28.6863
#
#
#
# Elastic Compliance Matrix: (Units=1/GPa)
#
#
# Indices 1 2 3 4 5 6 
#
# 1 0.018282 0.001948 -0.001657 0.000000 0.000000 0.000000
# 2 0.001948 0.019285 -0.004722 0.000000 0.000000 0.000000
# 3 -0.001657 -0.004722 0.006661 0.000000 0.000000 0.000000
# 4 0.000000 0.000000 0.000000 0.032505 0.000000 0.000000
# 5 0.000000 0.000000 0.000000 0.000000 0.030308 0.000000
# 6 0.000000 0.000000 0.000000 0.000000 0.000000 0.034860
#
#
# Mechanical properties :
#
#
# Convention : Reuss Voigt Hill
#
# Bulk Modulus (GPa) = 28.27548 45.50981 36.89265
# Shear Modulus (GPa) = 30.75937 35.15564 32.95751
#
# Velocity S-wave (km/s) = 3.58922 3.83715 3.71526
# Velocity P-wave (km/s) = 5.38692 6.22028 5.81854
#
# Compressibility (1/GPa) = 0.03536633
#
# Stress axis : x y z
#
# Youngs Moduli (GPa) = 54.69934 51.85252 150.12607
#
# Poissons Ratio (x) = -0.10102 0.24871
# Poissons Ratio (y) = -0.10656 0.70897
# Poissons Ratio (z) = 0.09062 0.24487
#
# Static dielectric constant tensor:
#      x y z
#    x 2.036800 0.000000 0.000000 
#    y 0.000000 1.947720 0.000000 
#    z 0.000000 0.000000 1.979500 
# 
# From -- ./inp_files/3546.got.cif
#   From: 2010.05.17/outbox.cif.g08.bks.cpg/sg34_2_cif.got.tgz:3546.got - 2010.06.03 17:23:11.
