data_PCOD9347253
_publ_section_title
;
Structure prediction by ZEFSAII (Michael W. Deem and Ramdas Pophale) SiO2 
 PCOD9347253
Probable space group: P N N 2
;
_chemical_formula_sum "Si O2"
_cell_formula_units_Z 32
_cell_length_a 12.188876
_cell_length_b 15.452982
_cell_length_c 6.993858
_cell_angle_alpha 90.000000
_cell_angle_beta 90.000000
_cell_angle_gamma 90.000000
_cell_volume 1317.324497
_symmetry_space_group_name_H-M "P N N 2"
_symmetry_group_IT_number 34
_symmetry_cell_setting 'orthorhombic'
loop_
_space_group_symop_operation_xyz
x,y,z
-x,-y,z
1/2-x,1/2+y,1/2+z
1/2+x,1/2-y,1/2+z
loop_
_atom_site_type_symbol
_atom_site_label
_atom_site_fract_x
_atom_site_fract_y
_atom_site_fract_z
Si Si1 0.869470 0.512776 0.703730
Si Si2 0.116416 0.665338 0.133192
Si Si3 0.780639 0.501983 0.140231
Si Si4 0.060561 0.083628 0.791034
Si Si5 0.633855 0.650468 0.058585
Si Si6 0.731359 0.179208 0.241928
Si Si7 0.595535 0.263669 0.584290
Si Si8 0.189178 0.668308 0.708749
O O1 0.830555 0.605650 0.621235
O O2 0.813643 0.426771 0.617384
O O3 0.000000 0.500000 0.697350
O O4 0.823490 0.513519 0.922117
O O5 0.127261 0.567352 0.211580
O O6 0.218476 0.730779 0.169484
O O7 0.120893 0.660602 0.902258
O O8 0.002669 0.711771 0.180467
O O9 0.673723 0.444423 0.191988
O O10 0.727692 0.597406 0.180520
O O11 0.061599 0.154682 0.955853
O O12 0.981975 0.117215 0.623705
O O13 0.000000 0.000000 0.873482
O O14 0.638018 0.753304 0.089751
O O15 0.662142 0.634229 0.838521
O O16 0.652632 0.204443 0.419828
O O17 0.686320 0.299517 0.730304
#
# Coordination Sequence:
#
# PCOD9347253 Si02
#       8
#     4   4   4   4   4   4   4   4
#     4  10  21  38  61  86 120 166 202 256 320 378
#     4  11  21  38  61  90 122 165 204 260 319 374
#     4   9  19  35  60  89 117 160 214 251 306 391
#     4  10  19  35  62  89 120 164 208 267 329 375
#     4   9  19  37  59  88 120 163 206 260 315 376
#     4  10  21  37  59  88 121 153 211 252 306 381
#     4  11  22  39  61  91 124 166 205 262 320 375
#     4  10  22  39  60  90 125 159 216 256 309 384
#
# _framework density 24.291661000000001
#
# number of rings (size 3 to 8) (size 9 to 14) (size 15 to 20)
#    0.000    2.000    2.500    1.500    0.000    3.000 
#    0.000    1.250    0.000    0.750    0.000    0.000 
#    0.000    0.000    0.000    0.000    0.000    0.000 
#
# Total GULP energy -178225.212048 kJ/mol
# GULP energy per Si atom -5569.537877 kJ/mol
# Density = 2.423637 g / cm^3
# Si number density = 24.291661 Si / 1000 Ang^3
#
#
#
# Elastic Constant Matrix: (Units=GPa)
#
#
# Indices 1 2 3 4 5 6 
#
# 1 69.6026 13.0769 -3.9607 0.0000 0.0000 0.0000
# 2 13.0769 148.0174 -17.6364 0.0000 0.0000 0.0000
# 3 -3.9607 -17.6364 34.3715 0.0000 0.0000 0.0000
# 4 0.0000 0.0000 0.0000 12.3470 0.0000 0.0000
# 5 0.0000 0.0000 0.0000 0.0000 25.7977 0.0000
# 6 0.0000 0.0000 0.0000 0.0000 0.0000 37.5044
#
#
#
# Elastic Compliance Matrix: (Units=1/GPa)
#
#
# Indices 1 2 3 4 5 6 
#
# 1 0.014648 -0.001164 0.001091 0.000000 0.000000 0.000000
# 2 -0.001164 0.007288 0.003606 0.000000 0.000000 0.000000
# 3 0.001091 0.003606 0.031070 0.000000 0.000000 0.000000
# 4 0.000000 0.000000 0.000000 0.080991 0.000000 0.000000
# 5 0.000000 0.000000 0.000000 0.000000 0.038763 0.000000
# 6 0.000000 0.000000 0.000000 0.000000 0.000000 0.026664
#
#
# Mechanical properties :
#
#
# Convention : Reuss Voigt Hill
#
# Bulk Modulus (GPa) = 16.64721 26.10567 21.37644
# Shear Modulus (GPa) = 23.54235 32.49727 28.01981
#
# Velocity S-wave (km/s) = 3.11650 3.66156 3.39997
# Velocity P-wave (km/s) = 4.45174 5.35220 4.92261
#
# Compressibility (1/GPa) = 0.06007013
#
# Stress axis : x y z
#
# Youngs Moduli (GPa) = 68.26839 137.20375 32.18581
#
# Poissons Ratio (x) = 0.15973 -0.03510
# Poissons Ratio (y) = 0.07948 -0.11605
# Poissons Ratio (z) = -0.07445 -0.49471
#
# Static dielectric constant tensor:
#      x y z
#    x 1.962780 0.000000 0.000000 
#    y 0.000000 2.029030 0.000000 
#    z 0.000000 0.000000 1.961090 
# 
# From -- ./inp_files/3320.got.cif
#   From: 2010.05.17/outbox.cif.g08.bks.cpg/sg34_2_cif.got.tgz:3320.got - 2010.06.03 17:23:11.
