data_PCOD9347195
_publ_section_title
;
Structure prediction by ZEFSAII (Michael W. Deem and Ramdas Pophale) SiO2 
 PCOD9347195
Probable space group: P N N 2
;
_chemical_formula_sum "Si O2"
_cell_formula_units_Z 24
_cell_length_a 7.854302
_cell_length_b 10.157153
_cell_length_c 15.526437
_cell_angle_alpha 90.000000
_cell_angle_beta 90.000000
_cell_angle_gamma 90.000000
_cell_volume 1238.657954
_symmetry_space_group_name_H-M "P N N 2"
_symmetry_group_IT_number 34
_symmetry_cell_setting 'orthorhombic'
loop_
_space_group_symop_operation_xyz
x,y,z
-x,-y,z
1/2-x,1/2+y,1/2+z
1/2+x,1/2-y,1/2+z
loop_
_atom_site_type_symbol
_atom_site_label
_atom_site_fract_x
_atom_site_fract_y
_atom_site_fract_z
Si Si1 0.280425 0.388926 0.846460
Si Si2 0.865053 0.822598 0.278337
Si Si3 0.138508 0.391266 0.030834
Si Si4 0.131165 0.882129 0.694282
Si Si5 0.034247 0.863864 0.095834
Si Si6 0.593619 0.139556 0.177843
O O1 0.450827 0.308237 0.822144
O O2 0.293651 0.545233 0.822933
O O3 0.135939 0.342670 0.779704
O O4 0.252708 0.375949 0.946975
O O5 0.745320 0.694422 0.267213
O O6 0.914498 0.865513 0.181103
O O7 0.241126 0.427033 0.118035
O O8 0.000000 0.500000 0.011209
O O9 0.031415 0.259551 0.044785
O O10 0.022919 0.762190 0.653527
O O11 0.000000 0.000000 0.718762
O O12 0.228007 0.855088 0.127629
O O13 0.000000 0.000000 0.048254
O O14 0.500000 0.000000 0.165001
#
# Coordination Sequence:
#
# PCOD9347195 Si02
#       6
#     4   4   4   4   4   4
#     4  10  19  37  66  91 113 162 225 266 295 369
#     4   9  18  37  64  88 117 165 218 251 299 378
#     4  11  24  38  58  95 133 161 199 271 334 362
#     4  11  23  37  58  99 131 163 201 260 325 385
#     4  10  18  38  61  88 124 166 204 254 303 376
#     4  11  18  35  66  91 113 168 228 243 288 391
#
# _framework density 19.375809
#
# number of rings (size 3 to 8) (size 9 to 14) (size 15 to 20)
#    0.000    1.667    5.000    2.500    2.333    0.000 
#    0.000    0.833    0.000    4.000    0.000    0.000 
#    0.000    0.000    0.000    0.000    0.000    0.000 
#
# Total GULP energy -133789.119303 kJ/mol
# GULP energy per Si atom -5574.546638 kJ/mol
# Density = 1.933171 g / cm^3
# Si number density = 19.375809 Si / 1000 Ang^3
#
#
#
# Elastic Constant Matrix: (Units=GPa)
#
#
# Indices 1 2 3 4 5 6 
#
# 1 93.3230 40.4690 21.8908 0.0000 0.0000 0.0000
# 2 40.4690 105.5908 19.3941 0.0000 0.0000 0.0000
# 3 21.8908 19.3941 56.6404 0.0000 0.0000 0.0000
# 4 0.0000 0.0000 0.0000 -15.0289 0.0000 0.0000
# 5 0.0000 0.0000 0.0000 0.0000 0.5425 0.0000
# 6 0.0000 0.0000 0.0000 0.0000 0.0000 44.7207
#
#
#
# Elastic Compliance Matrix: (Units=1/GPa)
#
#
# Indices 1 2 3 4 5 6 
#
# 1 0.013536 -0.004511 -0.003687 0.000000 0.000000 0.000000
# 2 -0.004511 0.011609 -0.002232 0.000000 0.000000 0.000000
# 3 -0.003687 -0.002232 0.019844 0.000000 0.000000 0.000000
# 4 0.000000 0.000000 0.000000 -0.066538 0.000000 0.000000
# 5 0.000000 0.000000 0.000000 0.000000 1.843451 0.000000
# 6 0.000000 0.000000 0.000000 0.000000 0.000000 0.022361
#
#
# Mechanical properties :
#
#
# Convention : Reuss Voigt Hill
#
# Bulk Modulus (GPa) = 41.44080 46.56247 44.00163
# Shear Modulus (GPa) = 2.66928 17.63352 10.15140
#
# Velocity S-wave (km/s) = 1.17500 3.02002 2.29142
# Velocity P-wave (km/s) = 4.82443 6.02031 5.45524
#
# Compressibility (1/GPa) = 0.02413081
#
# Stress axis : x y z
#
# Youngs Moduli (GPa) = 73.87462 86.13823 50.39191
#
# Poissons Ratio (x) = 0.38855 0.18580
# Poissons Ratio (y) = 0.33323 0.11246
# Poissons Ratio (z) = 0.27239 0.19224
#
# Static dielectric constant tensor:
#      x y z
#    x 1.749240 0.000000 0.000000 
#    y 0.000000 1.705390 0.000000 
#    z 0.000000 0.000000 1.652170 
# 
# From -- ./inp_files/6392.got.cif
#   From: 2010.05.17/outbox.cif.g08.bks.cpg/sg34_4_cif.got.tgz:6392.got - 2010.06.03 17:23:11.
