data_PCOD9347793
_publ_section_title
;
Structure prediction by ZEFSAII (Michael W. Deem and Ramdas Pophale) SiO2 
 PCOD9347793
Probable space group: P N N 2
;
_chemical_formula_sum "Si O2"
_cell_formula_units_Z 30
_cell_length_a 12.857244
_cell_length_b 11.614113
_cell_length_c 8.556012
_cell_angle_alpha 90.000000
_cell_angle_beta 90.000000
_cell_angle_gamma 90.000000
_cell_volume 1277.630639
_symmetry_space_group_name_H-M "P N N 2"
_symmetry_group_IT_number 34
_symmetry_cell_setting 'orthorhombic'
loop_
_space_group_symop_operation_xyz
x,y,z
-x,-y,z
1/2-x,1/2+y,1/2+z
1/2+x,1/2-y,1/2+z
loop_
_atom_site_type_symbol
_atom_site_label
_atom_site_fract_x
_atom_site_fract_y
_atom_site_fract_z
Si Si1 0.580865 0.757186 0.790130
Si Si2 0.267816 0.203170 0.226318
Si Si3 0.998373 0.676236 0.599635
Si Si4 0.500000 0.000000 0.324057
Si Si5 0.714312 0.586170 0.012998
Si Si6 0.073195 0.111366 0.087253
Si Si7 0.090504 0.089595 0.736144
Si Si8 0.150920 0.619272 0.013180
O O1 0.505961 0.704667 0.658384
O O2 0.653412 0.844685 0.692665
O O3 0.509618 0.824473 0.914176
O O4 0.644479 0.657807 0.887398
O O5 0.380738 0.168803 0.157518
O O6 0.243297 0.319996 0.135465
O O7 0.174994 0.114558 0.196139
O O8 0.288144 0.213586 0.410746
O O9 0.938931 0.577418 0.692524
O O10 0.952386 0.799057 0.648164
O O11 0.462982 0.100731 0.441830
O O12 0.656004 0.487973 0.115895
O O13 0.806455 0.505079 0.955573
O O14 0.120039 0.127146 0.912412
O O15 0.000000 0.000000 0.097808
O O16 0.000000 0.000000 0.772600
#
# Coordination Sequence:
#
# PCOD9347793 Si02
#       8
#     4   4   4   2   4   4   4   4
#     4  11  25  44  69 103 141 180 247 302 366 435
#     4  10  23  45  63 101 140 175 236 301 361 429
#     4  10  23  44  69  98 143 186 239 299 366 440
#     4  10  24  48  68  96 146 194 236 290 382 438
#     4  11  26  44  70 103 144 186 241 307 365 436
#     4  11  25  40  73 101 136 191 246 293 367 446
#     4  11  22  43  70  98 141 191 236 297 370 422
#     4  11  26  44  69 101 142 188 238 297 366 443
#
# _framework density 23.480964
#
# number of rings (size 3 to 8) (size 9 to 14) (size 15 to 20)
#    0.000    1.333    2.667    2.400   13.067    0.533 
#    0.000    0.000    0.000    0.000    0.000    0.000 
#    0.000    0.000    0.000    0.000    0.000    0.000 
#
# Total GULP energy -167052.837524 kJ/mol
# GULP energy per Si atom -5568.427917 kJ/mol
# Density = 2.342752 g / cm^3
# Si number density = 23.480964 Si / 1000 Ang^3
#
#
#
# Elastic Constant Matrix: (Units=GPa)
#
#
# Indices 1 2 3 4 5 6 
#
# 1 46.2405 23.4863 20.4605 0.0000 0.0000 0.0000
# 2 23.4863 107.4222 68.3943 0.0000 0.0000 0.0000
# 3 20.4605 68.3943 154.7144 0.0000 0.0000 0.0000
# 4 0.0000 0.0000 0.0000 -813.8870 0.0000 0.0000
# 5 0.0000 0.0000 0.0000 0.0000 23.4208 0.0000
# 6 0.0000 0.0000 0.0000 0.0000 0.0000 34.4866
#
#
#
# Elastic Compliance Matrix: (Units=1/GPa)
#
#
# Indices 1 2 3 4 5 6 
#
# 1 0.024490 -0.004582 -0.001213 0.000000 0.000000 0.000000
# 2 -0.004582 0.013813 -0.005500 0.000000 0.000000 0.000000
# 3 -0.001213 -0.005500 0.009055 0.000000 0.000000 0.000000
# 4 0.000000 0.000000 0.000000 -0.001229 0.000000 0.000000
# 5 0.000000 0.000000 0.000000 0.000000 0.042697 0.000000
# 6 0.000000 0.000000 0.000000 0.000000 0.000000 0.028997
#
#
# Mechanical properties :
#
#
# Convention : Reuss Voigt Hill
#
# Bulk Modulus (GPa) = 40.37545 59.22881 49.80213
# Shear Modulus (GPa) = 33.63149 -138.12686 -52.24768
#
# Velocity S-wave (km/s) = 3.78866 -7.67807 -4.72222
# Velocity P-wave (km/s) = 6.03083 7.30238 2.91151
#
# Compressibility (1/GPa) = 0.02476752
#
# Stress axis : x y z
#
# Youngs Moduli (GPa) = 40.83275 72.39671 110.43089
#
# Poissons Ratio (x) = 0.33172 0.13397
# Poissons Ratio (y) = 0.18710 0.60740
# Poissons Ratio (z) = 0.04954 0.39820
#
# Static dielectric constant tensor:
#      x y z
#    x 2.005650 0.000000 0.000000 
#    y 0.000000 3.189440 0.000000 
#    z 0.000000 0.000000 1.996330 
# 
# From -- ./inp_files/3646.got.cif
#   From: 2010.05.17/outbox.cif.g08.bks.cpg/sg34_2_cif.got.tgz:3646.got - 2010.06.03 17:23:11.
