data_PCOD9347543
_publ_section_title
;
Structure prediction by ZEFSAII (Michael W. Deem and Ramdas Pophale) SiO2 
 PCOD9347543
Probable space group: P N N 2
;
_chemical_formula_sum "Si O2"
_cell_formula_units_Z 24
_cell_length_a 14.722632
_cell_length_b 13.036585
_cell_length_c 5.133062
_cell_angle_alpha 90.000000
_cell_angle_beta 90.000000
_cell_angle_gamma 90.000000
_cell_volume 985.203185
_symmetry_space_group_name_H-M "P N N 2"
_symmetry_group_IT_number 34
_symmetry_cell_setting 'orthorhombic'
loop_
_space_group_symop_operation_xyz
x,y,z
-x,-y,z
1/2-x,1/2+y,1/2+z
1/2+x,1/2-y,1/2+z
loop_
_atom_site_type_symbol
_atom_site_label
_atom_site_fract_x
_atom_site_fract_y
_atom_site_fract_z
Si Si1 0.980848 0.617088 0.940620
Si Si2 0.817917 0.241151 0.352479
Si Si3 0.535172 0.222514 0.950114
Si Si4 0.407173 0.556636 0.142546
Si Si5 0.811923 0.343106 0.854743
Si Si6 0.803701 0.016374 0.146253
O O1 0.941750 0.631253 0.652422
O O2 0.080755 0.663736 0.891066
O O3 0.000000 0.500000 0.020421
O O4 0.933202 0.682735 0.166565
O O5 0.927245 0.254224 0.395939
O O6 0.779875 0.260597 0.640935
O O7 0.795882 0.135627 0.209635
O O8 0.779774 0.324228 0.147512
O O9 0.573775 0.323123 0.093169
O O10 0.500000 0.500000 0.217679
O O11 0.337394 0.515668 0.361210
O O12 0.378342 0.519901 0.856349
O O13 0.783708 0.451309 0.734555
#
# Coordination Sequence:
#
# PCOD9347543 Si02
#       6
#     4   4   4   4   4   4
#     4  10  21  41  67  91 125 172 218 260 323 387
#     4  10  21  41  66  87 124 176 206 253 335 386
#     4  10  21  39  63  92 127 162 211 271 319 390
#     4  12  24  39  66  99 129 162 217 268 333 384
#     4  10  23  42  62  91 128 168 217 257 321 396
#     4  12  24  41  65  95 131 170 214 272 320 393
#
# _framework density 24.360455999999999
#
# number of rings (size 3 to 8) (size 9 to 14) (size 15 to 20)
#    0.000    1.333    1.667    4.000    4.667    0.000 
#    9.000    0.000    0.000    0.000    0.000    0.000 
#    0.000    0.000    0.000    0.000    0.000    0.000 
#
# Total GULP energy -133988.363361 kJ/mol
# GULP energy per Si atom -5582.848473 kJ/mol
# Density = 2.430501 g / cm^3
# Si number density = 24.360456 Si / 1000 Ang^3
#
#
#
# Elastic Constant Matrix: (Units=GPa)
#
#
# Indices 1 2 3 4 5 6 
#
# 1 46.3571 0.6433 19.5523 0.0000 0.0000 0.0000
# 2 0.6433 111.2213 59.5680 0.0000 0.0000 0.0000
# 3 19.5523 59.5680 130.4916 0.0000 0.0000 0.0000
# 4 0.0000 0.0000 0.0000 30.5343 0.0000 0.0000
# 5 0.0000 0.0000 0.0000 0.0000 21.8544 0.0000
# 6 0.0000 0.0000 0.0000 0.0000 0.0000 64.2591
#
#
#
# Elastic Compliance Matrix: (Units=1/GPa)
#
#
# Indices 1 2 3 4 5 6 
#
# 1 0.023468 0.002313 -0.004572 0.000000 0.000000 0.000000
# 2 0.002313 0.012129 -0.005883 0.000000 0.000000 0.000000
# 3 -0.004572 -0.005883 0.011034 0.000000 0.000000 0.000000
# 4 0.000000 0.000000 0.000000 0.032750 0.000000 0.000000
# 5 0.000000 0.000000 0.000000 0.000000 0.045757 0.000000
# 6 0.000000 0.000000 0.000000 0.000000 0.000000 0.015562
#
#
# Mechanical properties :
#
#
# Convention : Reuss Voigt Hill
#
# Bulk Modulus (GPa) = 32.95330 49.73302 41.34316
# Shear Modulus (GPa) = 29.92217 37.21664 33.56940
#
# Velocity S-wave (km/s) = 3.50853 3.91288 3.71621
# Velocity P-wave (km/s) = 5.47446 6.39328 5.95163
#
# Compressibility (1/GPa) = 0.03034598
#
# Stress axis : x y z
#
# Youngs Moduli (GPa) = 42.61119 82.44962 90.62883
#
# Poissons Ratio (x) = -0.19071 0.41438
# Poissons Ratio (y) = -0.09856 0.53318
# Poissons Ratio (z) = 0.19483 0.48506
#
# Static dielectric constant tensor:
#      x y z
#    x 1.989280 0.000000 0.000000 
#    y 0.000000 2.084760 0.000000 
#    z 0.000000 0.000000 1.910580 
# 
# From -- ./inp_files/1424.got.cif
#   From: 2010.05.17/outbox.cif.g08.bks.cpg/sg34_1_cif.got.tgz:1424.got - 2010.06.03 17:23:11.
