data_PCOD9347911
_publ_section_title
;
Structure prediction by ZEFSAII (Michael W. Deem and Ramdas Pophale) SiO2 
 PCOD9347911
Probable space group: P N N 2
;
_chemical_formula_sum "Si O2"
_cell_formula_units_Z 32
_cell_length_a 13.182353
_cell_length_b 7.962009
_cell_length_c 12.443367
_cell_angle_alpha 90.000000
_cell_angle_beta 90.000000
_cell_angle_gamma 90.000000
_cell_volume 1306.031078
_symmetry_space_group_name_H-M "P N N 2"
_symmetry_group_IT_number 34
_symmetry_cell_setting 'orthorhombic'
loop_
_space_group_symop_operation_xyz
x,y,z
-x,-y,z
1/2-x,1/2+y,1/2+z
1/2+x,1/2-y,1/2+z
loop_
_atom_site_type_symbol
_atom_site_label
_atom_site_fract_x
_atom_site_fract_y
_atom_site_fract_z
Si Si1 0.740143 0.098453 0.242600
Si Si2 0.465566 0.193108 0.006106
Si Si3 0.264078 0.148227 0.902020
Si Si4 0.065309 0.657283 0.745286
Si Si5 0.616587 0.050634 0.718313
Si Si6 0.719236 0.854817 0.553785
Si Si7 0.121467 0.121936 0.359221
Si Si8 0.592137 0.612653 0.443033
O O1 0.699606 0.208103 0.343342
O O2 0.737408 0.218746 0.139249
O O3 0.673664 0.932636 0.225661
O O4 0.851406 0.040538 0.286264
O O5 0.345884 0.209863 0.987046
O O6 0.524421 0.324659 0.931335
O O7 0.500000 0.000000 0.980543
O O8 0.483731 0.213645 0.132662
O O9 0.334961 0.073412 0.807351
O O10 0.191961 0.002641 0.943530
O O11 0.074100 0.812178 0.824947
O O12 0.000000 0.500000 0.788397
O O13 0.688408 0.022981 0.615540
O O14 0.500000 0.000000 0.699704
O O15 0.624576 0.230664 0.771910
O O16 0.789956 0.872253 0.449977
O O17 0.614285 0.771647 0.516157
O O18 0.500000 0.500000 0.479627
#
# Coordination Sequence:
#
# PCOD9347911 Si02
#       8
#     4   4   4   4   4   4   4   4
#     4  11  25  42  72 102 144 187 245 302 362 451
#     4  11  21  42  79 102 138 188 245 308 369 425
#     4  11  21  45  69 100 139 193 241 301 368 428
#     4  11  23  43  69 106 139 187 243 301 372 443
#     4  11  22  43  76 101 139 195 247 295 368 449
#     4  11  25  46  68 109 146 189 238 302 373 444
#     4  12  22  49  74 107 144 188 249 312 359 442
#     4  12  25  46  67  98 152 195 234 303 378 451
#
# _framework density 24.501715000000001
#
# number of rings (size 3 to 8) (size 9 to 14) (size 15 to 20)
#    0.000    0.750    5.000    3.000    0.000    3.000 
#   13.500    0.000    0.000    0.000    0.000    0.000 
#    0.000    0.000    0.000    0.000    0.000    0.000 
#
# Total GULP energy -179028.405300 kJ/mol
# GULP energy per Si atom -5594.637666 kJ/mol
# Density = 2.444595 g / cm^3
# Si number density = 24.501715 Si / 1000 Ang^3
#
#
#
# Elastic Constant Matrix: (Units=GPa)
#
#
# Indices 1 2 3 4 5 6 
#
# 1 101.1015 9.0972 21.1617 0.0000 0.0000 0.0000
# 2 9.0972 67.6483 19.2304 0.0000 0.0000 0.0000
# 3 21.1617 19.2304 67.6912 0.0000 0.0000 0.0000
# 4 0.0000 0.0000 0.0000 35.6508 0.0000 0.0000
# 5 0.0000 0.0000 0.0000 0.0000 1.2691 0.0000
# 6 0.0000 0.0000 0.0000 0.0000 0.0000 28.8122
#
#
#
# Elastic Compliance Matrix: (Units=1/GPa)
#
#
# Indices 1 2 3 4 5 6 
#
# 1 0.010601 -0.000526 -0.003165 0.000000 0.000000 0.000000
# 2 -0.000526 0.016107 -0.004411 0.000000 0.000000 0.000000
# 3 -0.003165 -0.004411 0.017016 0.000000 0.000000 0.000000
# 4 0.000000 0.000000 0.000000 0.028050 0.000000 0.000000
# 5 0.000000 0.000000 0.000000 0.000000 0.787935 0.000000
# 6 0.000000 0.000000 0.000000 0.000000 0.000000 0.034707
#
#
# Mechanical properties :
#
#
# Convention : Reuss Voigt Hill
#
# Bulk Modulus (GPa) = 36.33800 37.26883 36.80342
# Shear Modulus (GPa) = 5.43601 25.60988 15.52294
#
# Velocity S-wave (km/s) = 1.49112 3.23651 2.51976
# Velocity P-wave (km/s) = 4.22227 5.40466 4.84964
#
# Compressibility (1/GPa) = 0.02751940
#
# Stress axis : x y z
#
# Youngs Moduli (GPa) = 94.33280 62.08443 58.76986
#
# Poissons Ratio (x) = 0.03265 0.18598
# Poissons Ratio (y) = 0.04962 0.25926
# Poissons Ratio (z) = 0.29853 0.27388
#
# Static dielectric constant tensor:
#      x y z
#    x 2.067740 0.000000 0.000000 
#    y 0.000000 1.989240 0.000000 
#    z 0.000000 0.000000 1.955250 
# 
# From -- ./inp_files/5680.got.cif
#   From: 2010.05.17/outbox.cif.g08.bks.cpg/sg34_3_cif.got.tgz:5680.got - 2010.06.03 17:23:11.
