data_PCOD9347153
_publ_section_title
;
Structure prediction by ZEFSAII (Michael W. Deem and Ramdas Pophale) SiO2 
 PCOD9347153
Probable space group: P N N 2
;
_chemical_formula_sum "Si O2"
_cell_formula_units_Z 30
_cell_length_a 8.721322
_cell_length_b 18.804347
_cell_length_c 9.533676
_cell_angle_alpha 90.000000
_cell_angle_beta 90.000000
_cell_angle_gamma 90.000000
_cell_volume 1563.511092
_symmetry_space_group_name_H-M "P N N 2"
_symmetry_group_IT_number 34
_symmetry_cell_setting 'orthorhombic'
loop_
_space_group_symop_operation_xyz
x,y,z
-x,-y,z
1/2-x,1/2+y,1/2+z
1/2+x,1/2-y,1/2+z
loop_
_atom_site_type_symbol
_atom_site_label
_atom_site_fract_x
_atom_site_fract_y
_atom_site_fract_z
Si Si1 0.331242 0.285323 0.445960
Si Si2 0.500000 0.000000 0.627525
Si Si3 0.815247 0.639306 0.188677
Si Si4 0.109553 0.655102 0.734965
Si Si5 0.772577 0.701945 0.744348
Si Si6 0.913191 0.104887 0.436797
Si Si7 0.762349 0.953959 0.416139
Si Si8 0.347274 0.719127 0.521175
O O1 0.240350 0.336475 0.341063
O O2 0.360282 0.214391 0.355655
O O3 0.249075 0.267512 0.590619
O O4 0.491787 0.319866 0.497113
O O5 0.581266 0.068514 0.698591
O O6 0.366503 0.034939 0.533172
O O7 0.887442 0.708504 0.109897
O O8 0.672041 0.624788 0.082356
O O9 0.179001 0.581094 0.784696
O O10 0.207383 0.682112 0.601870
O O11 0.925768 0.653801 0.728826
O O12 0.632119 0.658576 0.812831
O O13 0.800157 0.759840 0.864285
O O14 0.093803 0.095794 0.456598
O O15 0.837703 0.030380 0.391720
#
# Coordination Sequence:
#
# PCOD9347153 Si02
#       8
#     4   2   4   4   4   4   4   4
#     4  10  20  34  53  75 107 139 172 218 272 322
#     4  10  18  34  56  80 110 142 186 228 268 324
#     4   9  19  35  53  78 106 138 180 226 267 323
#     4  10  20  33  53  81 105 134 178 221 264 320
#     4  10  20  35  53  77 108 141 174 218 267 318
#     4   9  19  34  55  78 104 138 179 216 263 320
#     4  10  18  32  57  81 103 140 179 219 264 317
#     4   9  19  34  52  78 108 138 175 219 269 324
#
# _framework density 19.187581999999999
#
# number of rings (size 3 to 8) (size 9 to 14) (size 15 to 20)
#    0.000    2.400    0.000    4.000    0.000    6.400 
#    0.000    2.667    0.000   12.800    0.000    0.000 
#    0.000    0.000    0.000    0.000    0.000    0.000 
#
# Total GULP energy -167135.927506 kJ/mol
# GULP energy per Si atom -5571.197584 kJ/mol
# Density = 1.914391 g / cm^3
# Si number density = 19.187582 Si / 1000 Ang^3
#
#
#
# Elastic Constant Matrix: (Units=GPa)
#
#
# Indices 1 2 3 4 5 6 
#
# 1 84.4123 9.6073 30.6023 0.0000 0.0000 0.0000
# 2 9.6073 33.3799 18.4577 0.0000 0.0000 0.0000
# 3 30.6023 18.4577 121.0342 0.0000 0.0000 0.0000
# 4 0.0000 0.0000 0.0000 12.2739 0.0000 0.0000
# 5 0.0000 0.0000 0.0000 0.0000 13.2986 0.0000
# 6 0.0000 0.0000 0.0000 0.0000 0.0000 26.1196
#
#
#
# Elastic Compliance Matrix: (Units=1/GPa)
#
#
# Indices 1 2 3 4 5 6 
#
# 1 0.013179 -0.002130 -0.003007 0.000000 0.000000 0.000000
# 2 -0.002130 0.033061 -0.004503 0.000000 0.000000 0.000000
# 3 -0.003007 -0.004503 0.009709 0.000000 0.000000 0.000000
# 4 0.000000 0.000000 0.000000 0.081474 0.000000 0.000000
# 5 0.000000 0.000000 0.000000 0.000000 0.075196 0.000000
# 6 0.000000 0.000000 0.000000 0.000000 0.000000 0.038285
#
#
# Mechanical properties :
#
#
# Convention : Reuss Voigt Hill
#
# Bulk Modulus (GPa) = 27.27163 39.57346 33.42255
# Shear Modulus (GPa) = 17.70477 22.34902 20.02690
#
# Velocity S-wave (km/s) = 3.04093 3.41657 3.23421
# Velocity P-wave (km/s) = 5.15497 6.01940 5.60388
#
# Compressibility (1/GPa) = 0.03666814
#
# Stress axis : x y z
#
# Youngs Moduli (GPa) = 75.87623 30.24678 102.99439
#
# Poissons Ratio (x) = 0.06443 0.30975
# Poissons Ratio (y) = 0.16164 0.46381
# Poissons Ratio (z) = 0.22819 0.13621
#
# Static dielectric constant tensor:
#      x y z
#    x 1.739220 0.000000 0.000000 
#    y 0.000000 1.683800 0.000000 
#    z 0.000000 0.000000 1.645290 
# 
# From -- ./inp_files/2863.got.cif
#   From: 2010.05.17/outbox.cif.g08.bks.cpg/sg34_2_cif.got.tgz:2863.got - 2010.06.03 17:23:11.
