data_PCOD9347172
_publ_section_title
;
Structure prediction by ZEFSAII (Michael W. Deem and Ramdas Pophale) SiO2 
 PCOD9347172
Probable space group: P N N 2
;
_chemical_formula_sum "Si O2"
_cell_formula_units_Z 24
_cell_length_a 8.843927
_cell_length_b 10.057686
_cell_length_c 16.345105
_cell_angle_alpha 90.000000
_cell_angle_beta 90.000000
_cell_angle_gamma 90.000000
_cell_volume 1453.887949
_symmetry_space_group_name_H-M "P N N 2"
_symmetry_group_IT_number 34
_symmetry_cell_setting 'orthorhombic'
loop_
_space_group_symop_operation_xyz
x,y,z
-x,-y,z
1/2-x,1/2+y,1/2+z
1/2+x,1/2-y,1/2+z
loop_
_atom_site_type_symbol
_atom_site_label
_atom_site_fract_x
_atom_site_fract_y
_atom_site_fract_z
Si Si1 0.666055 0.753660 0.981480
Si Si2 0.147003 0.407634 0.689842
Si Si3 0.473021 0.646158 0.120809
Si Si4 0.821477 0.528730 0.873881
Si Si5 0.329052 0.715134 0.957493
Si Si6 0.822756 0.028469 0.024489
O O1 0.766324 0.647087 0.933130
O O2 0.500559 0.761086 0.938760
O O3 0.621095 0.700210 0.072404
O O4 0.739620 0.897261 0.990733
O O5 0.087803 0.256738 0.681798
O O6 0.208984 0.433951 0.779830
O O7 0.259686 0.439715 0.615490
O O8 0.000000 0.500000 0.677143
O O9 0.500000 0.500000 0.154386
O O10 0.352641 0.641819 0.045594
O O11 0.734033 0.394020 0.896749
O O12 0.000000 0.500000 0.883026
O O13 0.224109 0.842644 0.971326
O O14 0.000000 0.000000 0.025237
#
# Coordination Sequence:
#
# PCOD9347172 Si02
#       6
#     4   4   4   4   4   4
#     4  10  18  35  59  76 109 156 191 224 284 353
#     4  10  20  36  54  81 118 155 183 235 297 346
#     4   9  16  33  61  78  99 153 204 213 266 364
#     4  11  21  33  53  88 117 142 193 249 286 321
#     4   9  18  34  54  78 106 149 195 226 281 347
#     4  11  20  33  56  84 110 144 199 242 276 337
#
# _framework density 16.507462
#
# number of rings (size 3 to 8) (size 9 to 14) (size 15 to 20)
#    1.000    1.000    3.333    2.000    0.000    1.333 
#    0.000    4.167    0.000    0.000    0.000    0.000 
#    0.000    0.000    0.000    0.000    0.000    0.000 
#
# Total GULP energy -133626.643282 kJ/mol
# GULP energy per Si atom -5567.776803 kJ/mol
# Density = 1.646989 g / cm^3
# Si number density = 16.507462 Si / 1000 Ang^3
#
#
#
# Elastic Constant Matrix: (Units=GPa)
#
#
# Indices 1 2 3 4 5 6 
#
# 1 82.6394 61.1028 35.8495 0.0000 0.0000 0.0000
# 2 61.1028 171.9196 66.3470 0.0000 0.0000 0.0000
# 3 35.8495 66.3470 84.2558 0.0000 0.0000 0.0000
# 4 0.0000 0.0000 0.0000 12.5627 0.0000 0.0000
# 5 0.0000 0.0000 0.0000 0.0000 16.6201 0.0000
# 6 0.0000 0.0000 0.0000 0.0000 0.0000 34.1194
#
#
#
# Elastic Compliance Matrix: (Units=1/GPa)
#
#
# Indices 1 2 3 4 5 6 
#
# 1 0.017136 -0.004707 -0.003585 0.000000 0.000000 0.000000
# 2 -0.004707 0.009649 -0.005595 0.000000 0.000000 0.000000
# 3 -0.003585 -0.005595 0.017800 0.000000 0.000000 0.000000
# 4 0.000000 0.000000 0.000000 0.079601 0.000000 0.000000
# 5 0.000000 0.000000 0.000000 0.000000 0.060168 0.000000
# 6 0.000000 0.000000 0.000000 0.000000 0.000000 0.029309
#
#
# Mechanical properties :
#
#
# Convention : Reuss Voigt Hill
#
# Bulk Modulus (GPa) = 59.48470 73.93482 66.70976
# Shear Modulus (GPa) = 20.23961 24.36147 22.30054
#
# Velocity S-wave (km/s) = 3.50535 3.84576 3.67950
# Velocity P-wave (km/s) = 7.24545 8.03777 7.65188
#
# Compressibility (1/GPa) = 0.01681104
#
# Stress axis : x y z
#
# Youngs Moduli (GPa) = 58.35611 103.63817 56.18054
#
# Poissons Ratio (x) = 0.48784 0.20138
# Poissons Ratio (y) = 0.27469 0.31434
# Poissons Ratio (z) = 0.20918 0.57988
#
# Static dielectric constant tensor:
#      x y z
#    x 1.556610 0.000000 0.000000 
#    y 0.000000 1.556400 0.000000 
#    z 0.000000 0.000000 1.550600 
# 
# From -- ./inp_files/7465.got.cif
#   From: 2010.05.17/outbox.cif.g08.bks.cpg/sg34_4_cif.got.tgz:7465.got - 2010.06.03 17:23:11.
