data_PCOD9347662
_publ_section_title
;
Structure prediction by ZEFSAII (Michael W. Deem and Ramdas Pophale) SiO2 
 PCOD9347662
Probable space group: P N N 2
;
_chemical_formula_sum "Si O2"
_cell_formula_units_Z 32
_cell_length_a 9.170080
_cell_length_b 12.213280
_cell_length_c 12.359629
_cell_angle_alpha 90.000000
_cell_angle_beta 90.000000
_cell_angle_gamma 90.000000
_cell_volume 1384.238337
_symmetry_space_group_name_H-M "P N N 2"
_symmetry_group_IT_number 34
_symmetry_cell_setting 'orthorhombic'
loop_
_space_group_symop_operation_xyz
x,y,z
-x,-y,z
1/2-x,1/2+y,1/2+z
1/2+x,1/2-y,1/2+z
loop_
_atom_site_type_symbol
_atom_site_label
_atom_site_fract_x
_atom_site_fract_y
_atom_site_fract_z
Si Si1 0.461443 0.256672 0.681350
Si Si2 0.781718 0.636851 0.265745
Si Si3 0.365929 0.738653 0.457528
Si Si4 0.000271 0.241074 0.726521
Si Si5 0.275726 0.929789 0.194341
Si Si6 0.177647 0.004665 0.963506
Si Si7 0.781254 0.921347 0.628334
Si Si8 0.827694 0.516736 0.926837
O O1 0.564877 0.196943 0.766201
O O2 0.552558 0.277933 0.571299
O O3 0.372188 0.361730 0.719665
O O4 0.338361 0.170409 0.649862
O O5 0.670318 0.725695 0.215719
O O6 0.734158 0.586472 0.380411
O O7 0.771968 0.531751 0.186934
O O8 0.473908 0.746997 0.355348
O O9 0.277941 0.628325 0.431397
O O10 0.290555 0.856487 0.453721
O O11 0.089515 0.344284 0.681296
O O12 0.072477 0.130102 0.678059
O O13 0.310515 0.001772 0.299170
O O14 0.242077 0.985934 0.081743
O O15 0.000000 0.000000 0.962475
O O16 0.775448 0.943602 0.500811
O O17 0.000000 0.500000 0.955740
#
# Coordination Sequence:
#
# PCOD9347662 Si02
#       8
#     4   4   4   4   4   4   4   4
#     4  11  22  40  71 102 135 175 232 278 350 414
#     4  12  21  40  71 104 129 178 226 288 337 401
#     4  11  20  41  69  94 128 186 225 267 336 434
#     4  10  22  40  69  99 133 169 232 284 333 404
#     4  10  25  45  65 100 137 186 224 285 343 422
#     4  12  22  43  69  94 139 187 227 266 353 420
#     4  11  20  40  69 101 128 176 230 278 339 404
#     4  11  22  44  70  97 136 184 231 284 353 407
#
# _framework density 23.117405000000002
#
# number of rings (size 3 to 8) (size 9 to 14) (size 15 to 20)
#    0.000    1.000    6.250    0.750    0.000    0.000 
#    6.750    2.500    2.750    0.000    0.000    0.000 
#    0.000    0.000    0.000    0.000    0.000    0.000 
#
# Total GULP energy -178957.581112 kJ/mol
# GULP energy per Si atom -5592.424410 kJ/mol
# Density = 2.306479 g / cm^3
# Si number density = 23.117405 Si / 1000 Ang^3
#
#
#
# Elastic Constant Matrix: (Units=GPa)
#
#
# Indices 1 2 3 4 5 6 
#
# 1 41.7032 24.1103 17.0348 0.0000 0.0000 0.0000
# 2 24.1103 53.6555 9.5057 0.0000 0.0000 0.0000
# 3 17.0348 9.5057 90.8611 0.0000 0.0000 0.0000
# 4 0.0000 0.0000 0.0000 37.0977 0.0000 0.0000
# 5 0.0000 0.0000 0.0000 0.0000 24.0137 0.0000
# 6 0.0000 0.0000 0.0000 0.0000 0.0000 20.8204
#
#
#
# Elastic Compliance Matrix: (Units=1/GPa)
#
#
# Indices 1 2 3 4 5 6 
#
# 1 0.034432 -0.014599 -0.004928 0.000000 0.000000 0.000000
# 2 -0.014599 0.025179 0.000103 0.000000 0.000000 0.000000
# 3 -0.004928 0.000103 0.011919 0.000000 0.000000 0.000000
# 4 0.000000 0.000000 0.000000 0.026956 0.000000 0.000000
# 5 0.000000 0.000000 0.000000 0.000000 0.041643 0.000000
# 6 0.000000 0.000000 0.000000 0.000000 0.000000 0.048030
#
#
# Mechanical properties :
#
#
# Convention : Reuss Voigt Hill
#
# Bulk Modulus (GPa) = 30.59802 31.94680 31.27241
# Shear Modulus (GPa) = 21.01703 25.42430 23.22067
#
# Velocity S-wave (km/s) = 3.01847 3.31991 3.17277
# Velocity P-wave (km/s) = 5.04112 5.34276 5.19413
#
# Compressibility (1/GPa) = 0.03268186
#
# Stress axis : x y z
#
# Youngs Moduli (GPa) = 29.04240 39.71493 83.89980
#
# Poissons Ratio (x) = 0.57981 0.41347
# Poissons Ratio (y) = 0.42400 -0.00863
# Poissons Ratio (z) = 0.14312 -0.00409
#
# Static dielectric constant tensor:
#      x y z
#    x 1.879490 0.000000 0.000000 
#    y 0.000000 1.932030 0.000000 
#    z 0.000000 0.000000 1.873180 
# 
# From -- ./inp_files/5114.got.cif
#   From: 2010.05.17/outbox.cif.g08.bks.cpg/sg34_3_cif.got.tgz:5114.got - 2010.06.03 17:23:11.
