data_PCOD9347831
_publ_section_title
;
Structure prediction by ZEFSAII (Michael W. Deem and Ramdas Pophale) SiO2 
 PCOD9347831
Probable space group: P N N 2
;
_chemical_formula_sum "Si O2"
_cell_formula_units_Z 28
_cell_length_a 17.124775
_cell_length_b 11.489533
_cell_length_c 6.564970
_cell_angle_alpha 90.000000
_cell_angle_beta 90.000000
_cell_angle_gamma 90.000000
_cell_volume 1291.695054
_symmetry_space_group_name_H-M "P N N 2"
_symmetry_group_IT_number 34
_symmetry_cell_setting 'orthorhombic'
loop_
_space_group_symop_operation_xyz
x,y,z
-x,-y,z
1/2-x,1/2+y,1/2+z
1/2+x,1/2-y,1/2+z
loop_
_atom_site_type_symbol
_atom_site_label
_atom_site_fract_x
_atom_site_fract_y
_atom_site_fract_z
Si Si1 0.168749 0.815759 0.599180
Si Si2 0.572285 0.088393 0.800612
Si Si3 0.803251 0.447222 0.567233
Si Si4 0.828761 0.624585 0.913995
Si Si5 0.128735 0.018671 0.899233
Si Si6 0.107454 0.203941 0.586608
Si Si7 0.912127 0.006281 0.344493
O O1 0.159567 0.679000 0.603888
O O2 0.259932 0.838762 0.563841
O O3 0.138950 0.896864 0.781630
O O4 0.126241 0.873300 0.407012
O O5 0.597122 0.115587 0.566206
O O6 0.500000 0.000000 0.804972
O O7 0.560950 0.205119 0.941254
O O8 0.643269 0.020249 0.911058
O O9 0.805811 0.509600 0.787895
O O10 0.716882 0.441740 0.466429
O O11 0.838401 0.714969 0.726992
O O12 0.082254 0.113495 0.764577
O O13 0.085427 0.002484 0.106821
O O14 0.136859 0.104429 0.430341
O O15 0.000000 0.000000 0.425778
#
# Coordination Sequence:
#
# PCOD9347831 Si02
#       7
#     4   4   4   4   4   4   4
#     4  11  24  42  70 103 134 172 231 277 329 406
#     4  11  26  46  66 101 141 176 221 279 343 399
#     4  11  24  42  70 103 134 172 231 277 329 406
#     4  11  22  43  73 101 132 179 222 277 340 396
#     4  11  22  43  73 101 132 179 222 277 340 396
#     4  10  24  44  72  92 140 180 224 272 340 400
#     4  11  26  46  66 101 141 176 221 279 343 399
#
# _framework density 21.676942
#
# number of rings (size 3 to 8) (size 9 to 14) (size 15 to 20)
#    0.000    1.143    4.286    0.857    2.000    5.714 
#    0.000    0.000    0.000    0.000    0.000    0.000 
#    0.000    0.000    0.000    0.000    0.000    0.000 
#
# Total GULP energy -156042.418595 kJ/mol
# GULP energy per Si atom -5572.943521 kJ/mol
# Density = 2.162760 g / cm^3
# Si number density = 21.676942 Si / 1000 Ang^3
#
#
#
# Elastic Constant Matrix: (Units=GPa)
#
#
# Indices 1 2 3 4 5 6 
#
# 1 64.6873 0.3492 14.9804 0.0000 0.0000 0.0000
# 2 0.3492 154.3200 56.6650 0.0000 0.0000 0.0000
# 3 14.9804 56.6650 118.5074 0.0000 0.0000 0.0000
# 4 0.0000 0.0000 0.0000 -13.2652 0.0000 0.0000
# 5 0.0000 0.0000 0.0000 0.0000 26.9579 0.0000
# 6 0.0000 0.0000 0.0000 0.0000 0.0000 13.0151
#
#
#
# Elastic Compliance Matrix: (Units=1/GPa)
#
#
# Indices 1 2 3 4 5 6 
#
# 1 0.016018 0.000858 -0.002435 0.000000 0.000000 0.000000
# 2 0.000858 0.007906 -0.003889 0.000000 0.000000 0.000000
# 3 -0.002435 -0.003889 0.010606 0.000000 0.000000 0.000000
# 4 0.000000 0.000000 0.000000 -0.075385 0.000000 0.000000
# 5 0.000000 0.000000 0.000000 0.000000 0.037095 0.000000
# 6 0.000000 0.000000 0.000000 0.000000 0.000000 0.076834
#
#
# Mechanical properties :
#
#
# Convention : Reuss Voigt Hill
#
# Bulk Modulus (GPa) = 42.37651 53.50043 47.93847
# Shear Modulus (GPa) = 54.42401 23.04290 38.73345
#
# Velocity S-wave (km/s) = 5.01611 3.26393 4.23170
# Velocity P-wave (km/s) = 7.28972 6.24009 6.78523
#
# Compressibility (1/GPa) = 0.02359798
#
# Stress axis : x y z
#
# Youngs Moduli (GPa) = 62.42871 126.48595 94.29036
#
# Poissons Ratio (x) = -0.10851 0.22960
# Poissons Ratio (y) = -0.05356 0.36667
# Poissons Ratio (z) = 0.15202 0.49187
#
# Static dielectric constant tensor:
#      x y z
#    x 1.813280 0.000000 0.000000 
#    y 0.000000 1.807280 0.000000 
#    z 0.000000 0.000000 1.801630 
# 
# From -- ./inp_files/1587.got.cif
#   From: 2010.05.17/outbox.cif.g08.bks.cpg/sg34_1_cif.got.tgz:1587.got - 2010.06.03 17:23:11.
