data_PCOD9347819
_publ_section_title
;
Structure prediction by ZEFSAII (Michael W. Deem and Ramdas Pophale) SiO2 
 PCOD9347819
Probable space group: P N N 2
;
_chemical_formula_sum "Si O2"
_cell_formula_units_Z 20
_cell_length_a 15.393111
_cell_length_b 4.894709
_cell_length_c 11.099438
_cell_angle_alpha 90.000000
_cell_angle_beta 90.000000
_cell_angle_gamma 90.000000
_cell_volume 836.284925
_symmetry_space_group_name_H-M "P N N 2"
_symmetry_group_IT_number 34
_symmetry_cell_setting 'orthorhombic'
loop_
_space_group_symop_operation_xyz
x,y,z
-x,-y,z
1/2-x,1/2+y,1/2+z
1/2+x,1/2-y,1/2+z
loop_
_atom_site_type_symbol
_atom_site_label
_atom_site_fract_x
_atom_site_fract_y
_atom_site_fract_z
Si Si1 0.870597 0.441342 0.655860
Si Si2 0.555222 0.763742 0.400276
Si Si3 0.626456 0.439976 0.005674
Si Si4 0.700953 0.717737 0.581624
Si Si5 0.057996 0.764595 0.266774
O O1 0.904866 0.443761 0.790755
O O2 0.894100 0.144315 0.612138
O O3 0.767276 0.501426 0.642593
O O4 0.906989 0.650846 0.555226
O O5 0.500000 0.500000 0.362106
O O6 0.632181 0.637345 0.480566
O O7 0.500000 0.000000 0.469692
O O8 0.730985 0.410932 0.011330
O O9 0.592684 0.570334 0.883589
O O10 0.640855 0.828377 0.688887
O O11 0.000000 0.500000 0.293653
O O12 0.000000 0.000000 0.201503
#
# Coordination Sequence:
#
# PCOD9347819 Si02
#       5
#     4   4   4   4   4
#     4  10  24  43  72  95 138 185 242 281 345 427
#     4  12  26  43  69 106 146 181 235 298 355 407
#     4  10  24  43  72  95 138 185 242 281 345 427
#     4  10  26  44  74  98 142 192 240 280 350 428
#     4  12  26  43  69 106 146 181 235 298 355 407
#
# _framework density 23.915291
#
# number of rings (size 3 to 8) (size 9 to 14) (size 15 to 20)
#    1.200    0.000    0.000    4.800    5.600    4.800 
#    0.000    0.000    0.000    0.000    0.000    0.000 
#    0.000    0.000    0.000    0.000    0.000    0.000 
#
# Total GULP energy -111543.007695 kJ/mol
# GULP energy per Si atom -5577.150385 kJ/mol
# Density = 2.386086 g / cm^3
# Si number density = 23.915291 Si / 1000 Ang^3
#
#
#
# Elastic Constant Matrix: (Units=GPa)
#
#
# Indices 1 2 3 4 5 6 
#
# 1 160.7218 50.4687 66.7463 0.0000 0.0000 0.0000
# 2 50.4687 111.9620 14.7919 0.0000 0.0000 0.0000
# 3 66.7463 14.7919 93.0584 0.0000 0.0000 0.0000
# 4 0.0000 0.0000 0.0000 17.3960 0.0000 0.0000
# 5 0.0000 0.0000 0.0000 0.0000 42.1366 0.0000
# 6 0.0000 0.0000 0.0000 0.0000 0.0000 38.8625
#
#
#
# Elastic Compliance Matrix: (Units=1/GPa)
#
#
# Indices 1 2 3 4 5 6 
#
# 1 0.010167 -0.003697 -0.006705 0.000000 0.000000 0.000000
# 2 -0.003697 0.010468 0.000988 0.000000 0.000000 0.000000
# 3 -0.006705 0.000988 0.015398 0.000000 0.000000 0.000000
# 4 0.000000 0.000000 0.000000 0.057485 0.000000 0.000000
# 5 0.000000 0.000000 0.000000 0.000000 0.023732 0.000000
# 6 0.000000 0.000000 0.000000 0.000000 0.000000 0.025732
#
#
# Mechanical properties :
#
#
# Convention : Reuss Voigt Hill
#
# Bulk Modulus (GPa) = 58.12347 69.97285 64.04816
# Shear Modulus (GPa) = 29.84271 35.26135 32.55203
#
# Velocity S-wave (km/s) = 3.53633 3.84399 3.69336
# Velocity P-wave (km/s) = 6.40553 7.00170 6.71024
#
# Compressibility (1/GPa) = 0.01720475
#
# Stress axis : x y z
#
# Youngs Moduli (GPa) = 98.35338 95.53202 64.94354
#
# Poissons Ratio (x) = 0.35321 0.43544
# Poissons Ratio (y) = 0.36364 -0.06417
# Poissons Ratio (z) = 0.65945 -0.09439
#
# Static dielectric constant tensor:
#      x y z
#    x 2.007450 0.000000 0.000000 
#    y 0.000000 1.893690 0.000000 
#    z 0.000000 0.000000 1.907010 
# 
# From -- ./inp_files/5537.got.cif
#   From: 2010.05.17/outbox.cif.g08.bks.cpg/sg34_3_cif.got.tgz:5537.got - 2010.06.03 17:23:11.
