data_PCOD9347588
_publ_section_title
;
Structure prediction by ZEFSAII (Michael W. Deem and Ramdas Pophale) SiO2 
 PCOD9347588
Probable space group: P N N 2
;
_chemical_formula_sum "Si O2"
_cell_formula_units_Z 28
_cell_length_a 5.801439
_cell_length_b 11.261971
_cell_length_c 19.197500
_cell_angle_alpha 90.000000
_cell_angle_beta 90.000000
_cell_angle_gamma 90.000000
_cell_volume 1254.280906
_symmetry_space_group_name_H-M "P N N 2"
_symmetry_group_IT_number 34
_symmetry_cell_setting 'orthorhombic'
loop_
_space_group_symop_operation_xyz
x,y,z
-x,-y,z
1/2-x,1/2+y,1/2+z
1/2+x,1/2-y,1/2+z
loop_
_atom_site_type_symbol
_atom_site_label
_atom_site_fract_x
_atom_site_fract_y
_atom_site_fract_z
Si Si1 0.661959 0.820221 0.117030
Si Si2 0.645947 0.121287 0.840581
Si Si3 0.699757 0.182136 0.236529
Si Si4 0.969736 0.637749 0.190780
Si Si5 0.851910 0.296316 0.466861
Si Si6 0.000000 0.000000 0.927202
Si Si7 0.000000 0.000000 0.155252
Si Si8 0.742826 0.071875 0.389491
O O1 0.516547 0.840278 0.186994
O O2 0.842068 0.712782 0.131278
O O3 0.803609 0.941323 0.110033
O O4 0.535487 0.797655 0.043795
O O5 0.672442 0.163400 0.762167
O O6 0.517360 0.195351 0.899755
O O7 0.500000 0.000000 0.834090
O O8 0.884087 0.093062 0.875511
O O9 0.700267 0.144260 0.316584
O O10 0.782034 0.313935 0.216487
O O11 0.900398 0.101290 0.203925
O O12 0.000000 0.500000 0.173911
O O13 0.688314 0.414206 0.463576
O O14 0.741307 0.168134 0.452028
O O15 0.500000 0.000000 0.396024
O O16 0.000000 0.000000 0.387586
#
# Coordination Sequence:
#
# PCOD9347588 Si02
#       8
#     4   4   4   4   4   2   2   4
#     4  11  25  40  68 101 138 186 232 302 366 435
#     4   9  20  38  63  95 130 167 227 289 361 419
#     4  11  23  42  71 100 135 185 241 303 357 432
#     4  10  23  42  64  97 136 175 235 291 360 436
#     4  11  25  44  66 105 144 185 241 303 379 435
#     4  10  23  40  76  98 135 184 234 316 365 446
#     4  10  21  42  64  96 139 170 242 292 367 408
#     4  12  28  49  78 107 149 200 255 306 363 455
#
# _framework density 22.323547000000001
#
# number of rings (size 3 to 8) (size 9 to 14) (size 15 to 20)
#    0.000    1.429    2.143    1.714    6.000    6.857 
#    2.571    0.000    0.000    0.000    0.000    0.000 
#    0.000    0.000    0.000    0.000    0.000    0.000 
#
# Total GULP energy -155927.941464 kJ/mol
# GULP energy per Si atom -5568.855052 kJ/mol
# Density = 2.227274 g / cm^3
# Si number density = 22.323547 Si / 1000 Ang^3
#
#
#
# Elastic Constant Matrix: (Units=GPa)
#
#
# Indices 1 2 3 4 5 6 
#
# 1 62.7000 17.1347 0.1502 0.0000 0.0000 0.0000
# 2 17.1347 88.0079 10.1971 0.0000 0.0000 0.0000
# 3 0.1502 10.1971 86.8111 0.0000 0.0000 0.0000
# 4 0.0000 0.0000 0.0000 -5.6940 0.0000 0.0000
# 5 0.0000 0.0000 0.0000 0.0000 -9.1009 0.0000
# 6 0.0000 0.0000 0.0000 0.0000 0.0000 28.2119
#
#
#
# Elastic Compliance Matrix: (Units=1/GPa)
#
#
# Indices 1 2 3 4 5 6 
#
# 1 0.016856 -0.003324 0.000361 0.000000 0.000000 0.000000
# 2 -0.003324 0.012175 -0.001424 0.000000 0.000000 0.000000
# 3 0.000361 -0.001424 0.011686 0.000000 0.000000 0.000000
# 4 0.000000 0.000000 0.000000 -0.175623 0.000000 0.000000
# 5 0.000000 0.000000 0.000000 0.000000 -0.109879 0.000000
# 6 0.000000 0.000000 0.000000 0.000000 0.000000 0.035446
#
#
# Mechanical properties :
#
#
# Convention : Reuss Voigt Hill
#
# Bulk Modulus (GPa) = 31.30525 32.49809 31.90167
# Shear Modulus (GPa) = -26.32729 16.68586 -4.82071
#
# Velocity S-wave (km/s) = -3.43789 2.73693 -1.47111
# Velocity P-wave (km/s) = 1.30574 4.95753 3.38173
#
# Compressibility (1/GPa) = 0.03194353
#
# Stress axis : x y z
#
# Youngs Moduli (GPa) = 59.32465 82.13715 85.57285
#
# Poissons Ratio (x) = 0.27300 -0.03091
# Poissons Ratio (y) = 0.19718 0.12188
# Poissons Ratio (z) = -0.02143 0.11699
#
# Static dielectric constant tensor:
#      x y z
#    x 1.977370 0.000000 0.000000 
#    y 0.000000 2.035020 0.000000 
#    z 0.000000 0.000000 1.887660 
# 
# From -- ./inp_files/7950.got.cif
#   From: 2010.05.17/outbox.cif.g08.bks.cpg/sg34_4_cif.got.tgz:7950.got - 2010.06.03 17:23:11.
