data_PCOD9347690
_publ_section_title
;
Structure prediction by ZEFSAII (Michael W. Deem and Ramdas Pophale) SiO2 
 PCOD9347690
Probable space group: P N N 2
;
_chemical_formula_sum "Si O2"
_cell_formula_units_Z 32
_cell_length_a 11.688653
_cell_length_b 14.189086
_cell_length_c 8.246506
_cell_angle_alpha 90.000000
_cell_angle_beta 90.000000
_cell_angle_gamma 90.000000
_cell_volume 1367.693762
_symmetry_space_group_name_H-M "P N N 2"
_symmetry_group_IT_number 34
_symmetry_cell_setting 'orthorhombic'
loop_
_space_group_symop_operation_xyz
x,y,z
-x,-y,z
1/2-x,1/2+y,1/2+z
1/2+x,1/2-y,1/2+z
loop_
_atom_site_type_symbol
_atom_site_label
_atom_site_fract_x
_atom_site_fract_y
_atom_site_fract_z
Si Si1 0.671584 0.143256 0.048380
Si Si2 0.858911 0.819600 0.070735
Si Si3 0.982963 0.753580 0.343307
Si Si4 0.724092 0.963517 0.872388
Si Si5 0.408058 0.280805 0.393623
Si Si6 0.441150 0.100746 0.592251
Si Si7 0.269424 0.346710 0.895798
Si Si8 0.893076 0.061817 0.652086
O O1 0.698542 0.130680 0.236067
O O2 0.567661 0.212347 0.007703
O O3 0.787466 0.188375 0.972812
O O4 0.650925 0.045398 0.955330
O O5 0.890097 0.822072 0.259774
O O6 0.765915 0.893465 0.010400
O O7 0.803882 0.723377 0.005203
O O8 0.982239 0.828085 0.982556
O O9 0.985622 0.667660 0.213797
O O10 0.108108 0.798911 0.350829
O O11 0.664941 0.918309 0.715018
O O12 0.839226 0.009945 0.804826
O O13 0.418445 0.169064 0.437267
O O14 0.411021 0.330858 0.217043
O O15 0.500000 0.000000 0.556061
O O16 0.303167 0.434041 0.006688
O O17 0.000000 0.000000 0.599758
#
# Coordination Sequence:
#
# PCOD9347690 Si02
#       8
#     4   4   4   4   4   4   4   4
#     4  11  23  43  67 103 142 181 239 301 362 433
#     4  11  21  42  70  97 134 188 237 290 374 429
#     4  11  24  44  72  99 139 192 235 301 365 435
#     4  11  22  40  72 101 140 183 233 302 365 435
#     4  10  22  42  70 102 138 192 237 301 368 438
#     4  11  21  42  72 106 140 191 243 301 379 440
#     4  12  26  43  68 102 143 191 242 292 361 446
#     4  11  25  43  67 108 147 192 246 302 371 440
#
# _framework density 23.397051999999999
#
# number of rings (size 3 to 8) (size 9 to 14) (size 15 to 20)
#    0.000    1.000    6.250    1.500    3.500    2.000 
#    0.000    1.250    0.000    3.750    0.000    0.000 
#    0.000    0.000    0.000    0.000    0.000    0.000 
#
# Total GULP energy -178693.583762 kJ/mol
# GULP energy per Si atom -5584.174493 kJ/mol
# Density = 2.334380 g / cm^3
# Si number density = 23.397052 Si / 1000 Ang^3
#
#
#
# Elastic Constant Matrix: (Units=GPa)
#
#
# Indices 1 2 3 4 5 6 
#
# 1 60.6516 18.1734 21.9134 0.0000 0.0000 0.0000
# 2 18.1734 73.8886 23.9399 0.0000 0.0000 0.0000
# 3 21.9134 23.9399 81.0382 0.0000 0.0000 0.0000
# 4 0.0000 0.0000 0.0000 20.3486 0.0000 0.0000
# 5 0.0000 0.0000 0.0000 0.0000 35.8284 0.0000
# 6 0.0000 0.0000 0.0000 0.0000 0.0000 39.6208
#
#
#
# Elastic Compliance Matrix: (Units=1/GPa)
#
#
# Indices 1 2 3 4 5 6 
#
# 1 0.018983 -0.003324 -0.004151 0.000000 0.000000 0.000000
# 2 -0.003324 0.015548 -0.003694 0.000000 0.000000 0.000000
# 3 -0.004151 -0.003694 0.014554 0.000000 0.000000 0.000000
# 4 0.000000 0.000000 0.000000 0.049144 0.000000 0.000000
# 5 0.000000 0.000000 0.000000 0.000000 0.027911 0.000000
# 6 0.000000 0.000000 0.000000 0.000000 0.000000 0.025239
#
#
# Mechanical properties :
#
#
# Convention : Reuss Voigt Hill
#
# Bulk Modulus (GPa) = 37.38854 38.18131 37.78493
# Shear Modulus (GPa) = 27.37712 29.26300 28.32006
#
# Velocity S-wave (km/s) = 3.42440 3.54038 3.48287
# Velocity P-wave (km/s) = 5.62584 5.75036 5.68844
#
# Compressibility (1/GPa) = 0.02674616
#
# Stress axis : x y z
#
# Youngs Moduli (GPa) = 52.67738 64.31512 68.71064
#
# Poissons Ratio (x) = 0.21379 0.28524
# Poissons Ratio (y) = 0.17510 0.25384
# Poissons Ratio (z) = 0.21868 0.23761
#
# Static dielectric constant tensor:
#      x y z
#    x 1.893270 0.000000 0.000000 
#    y 0.000000 1.967310 0.000000 
#    z 0.000000 0.000000 1.891120 
# 
# From -- ./inp_files/3347.got.cif
#   From: 2010.05.17/outbox.cif.g08.bks.cpg/sg34_2_cif.got.tgz:3347.got - 2010.06.03 17:23:11.
