data_PCOD9347231
_publ_section_title
;
Structure prediction by ZEFSAII (Michael W. Deem and Ramdas Pophale) SiO2 
 PCOD9347231
Probable space group: P N N 2
;
_chemical_formula_sum "Si O2"
_cell_formula_units_Z 28
_cell_length_a 5.087874
_cell_length_b 12.834166
_cell_length_c 18.887056
_cell_angle_alpha 90.000000
_cell_angle_beta 90.000000
_cell_angle_gamma 90.000000
_cell_volume 1233.298683
_symmetry_space_group_name_H-M "P N N 2"
_symmetry_group_IT_number 34
_symmetry_cell_setting 'orthorhombic'
loop_
_space_group_symop_operation_xyz
x,y,z
-x,-y,z
1/2-x,1/2+y,1/2+z
1/2+x,1/2-y,1/2+z
loop_
_atom_site_type_symbol
_atom_site_label
_atom_site_fract_x
_atom_site_fract_y
_atom_site_fract_z
Si Si1 0.905772 0.882445 0.868530
Si Si2 0.302585 0.741964 0.501240
Si Si3 0.540227 0.380008 0.697695
Si Si4 0.619503 0.228077 0.823392
Si Si5 0.844297 0.395502 0.083032
Si Si6 0.438549 0.606050 0.933708
Si Si7 0.556992 0.204790 0.121367
O O1 0.606287 0.852418 0.848427
O O2 0.104777 0.828728 0.812653
O O3 0.936381 0.839396 0.949294
O O4 0.000000 0.000000 0.868866
O O5 0.456529 0.802862 0.562434
O O6 0.208116 0.836681 0.452244
O O7 0.045818 0.696600 0.540508
O O8 0.500000 0.500000 0.719257
O O9 0.502061 0.297621 0.760933
O O10 0.315656 0.359714 0.639601
O O11 0.824931 0.346719 0.667469
O O12 0.697195 0.310648 0.884533
O O13 0.632030 0.329490 0.129515
O O14 0.000000 0.500000 0.107580
O O15 0.707289 0.419955 0.007306
O O16 0.500000 0.500000 0.894798
#
# Coordination Sequence:
#
# PCOD9347231 Si02
#       7
#     4   4   4   4   4   4   4
#     4  11  24  44  70 100 137 177 219 285 357 419
#     4  10  21  40  65  99 136 175 224 277 342 413
#     4  12  26  49  71  98 133 186 236 295 345 408
#     4  11  24  44  70  97 135 173 233 288 338 418
#     4  11  20  39  68 100 142 178 220 283 351 408
#     4  10  19  33  63 103 133 171 210 279 349 407
#     4  11  25  44  67  99 143 181 235 288 336 421
#
# _framework density 22.703343
#
# number of rings (size 3 to 8) (size 9 to 14) (size 15 to 20)
#    0.000    1.143    4.286    2.143    0.000    0.571 
#    2.571    4.286    0.000    0.000    0.000    0.000 
#    0.000    0.000    0.000    0.000    0.000    0.000 
#
# Total GULP energy -156092.557180 kJ/mol
# GULP energy per Si atom -5574.734185 kJ/mol
# Density = 2.265167 g / cm^3
# Si number density = 22.703343 Si / 1000 Ang^3
#
#
#
# Elastic Constant Matrix: (Units=GPa)
#
#
# Indices 1 2 3 4 5 6 
#
# 1 97.5440 30.3912 9.8680 0.0000 0.0000 0.0000
# 2 30.3912 128.4462 33.3003 0.0000 0.0000 0.0000
# 3 9.8680 33.3003 33.4617 0.0000 0.0000 0.0000
# 4 0.0000 0.0000 0.0000 22.0419 0.0000 0.0000
# 5 0.0000 0.0000 0.0000 0.0000 9.6825 0.0000
# 6 0.0000 0.0000 0.0000 0.0000 0.0000 29.6362
#
#
#
# Elastic Compliance Matrix: (Units=1/GPa)
#
#
# Indices 1 2 3 4 5 6 
#
# 1 0.011087 -0.002393 -0.000888 0.000000 0.000000 0.000000
# 2 -0.002393 0.011009 -0.010250 0.000000 0.000000 0.000000
# 3 -0.000888 -0.010250 0.040348 0.000000 0.000000 0.000000
# 4 0.000000 0.000000 0.000000 0.045368 0.000000 0.000000
# 5 0.000000 0.000000 0.000000 0.000000 0.103279 0.000000
# 6 0.000000 0.000000 0.000000 0.000000 0.000000 0.033743
#
#
# Mechanical properties :
#
#
# Convention : Reuss Voigt Hill
#
# Bulk Modulus (GPa) = 28.26373 45.17453 36.71913
# Shear Modulus (GPa) = 17.62487 24.66494 21.14490
#
# Velocity S-wave (km/s) = 2.78926 3.29964 3.05512
# Velocity P-wave (km/s) = 4.78011 5.87007 5.35291
#
# Compressibility (1/GPa) = 0.03538103
#
# Stress axis : x y z
#
# Youngs Moduli (GPa) = 90.19390 90.83503 24.78465
#
# Poissons Ratio (x) = 0.21737 0.02201
# Poissons Ratio (y) = 0.21584 0.25405
# Poissons Ratio (z) = 0.08011 0.93107
#
# Static dielectric constant tensor:
#      x y z
#    x 1.969730 0.000000 0.000000 
#    y 0.000000 1.871430 0.000000 
#    z 0.000000 0.000000 1.883100 
# 
# From -- ./inp_files/7937.got.cif
#   From: 2010.05.17/outbox.cif.g08.bks.cpg/sg34_4_cif.got.tgz:7937.got - 2010.06.03 17:23:11.
