data_PCOD9347979
_publ_section_title
;
Structure prediction by ZEFSAII (Michael W. Deem and Ramdas Pophale) SiO2 
 PCOD9347979
Probable space group: P N N 2
;
_chemical_formula_sum "Si O2"
_cell_formula_units_Z 20
_cell_length_a 7.534816
_cell_length_b 18.328406
_cell_length_c 6.630118
_cell_angle_alpha 90.000000
_cell_angle_beta 90.000000
_cell_angle_gamma 90.000000
_cell_volume 915.627032
_symmetry_space_group_name_H-M "P N N 2"
_symmetry_group_IT_number 34
_symmetry_cell_setting 'orthorhombic'
loop_
_space_group_symop_operation_xyz
x,y,z
-x,-y,z
1/2-x,1/2+y,1/2+z
1/2+x,1/2-y,1/2+z
loop_
_atom_site_type_symbol
_atom_site_label
_atom_site_fract_x
_atom_site_fract_y
_atom_site_fract_z
Si Si1 0.707713 0.161856 0.557620
Si Si2 0.283328 0.706372 0.279743
Si Si3 0.063581 0.082866 0.538247
Si Si4 0.076412 0.317555 0.452381
Si Si5 0.926498 0.419924 0.797118
O O1 0.676394 0.244108 0.476221
O O2 0.726254 0.155227 0.799189
O O3 0.549635 0.112613 0.473770
O O4 0.890702 0.128691 0.468614
O O5 0.359139 0.626142 0.234074
O O6 0.072515 0.704902 0.292762
O O7 0.350823 0.753679 0.091164
O O8 0.223959 0.082340 0.374601
O O9 0.000000 0.000000 0.577085
O O10 0.975494 0.372490 0.601203
O O11 0.000000 0.500000 0.757958
#
# Coordination Sequence:
#
# PCOD9347979 Si02
#       5
#     4   4   4   4   4
#     4  11  25  47  73 107 148 195 248 307 372 452
#     4  11  25  44  73 110 145 191 253 308 374 448
#     4  12  25  45  76 109 150 197 250 315 380 444
#     4  11  26  44  77 103 148 194 251 305 374 447
#     4  11  25  48  72 104 150 194 242 308 377 443
#
# _framework density 21.842953999999999
#
# number of rings (size 3 to 8) (size 9 to 14) (size 15 to 20)
#    0.000    0.800    6.000    0.000    5.600    2.400 
#    3.600    1.000    0.000    0.000    0.000    0.000 
#    0.000    0.000    0.000    0.000    0.000    0.000 
#
# Total GULP energy -111596.872301 kJ/mol
# GULP energy per Si atom -5579.843615 kJ/mol
# Density = 2.179324 g / cm^3
# Si number density = 21.842954 Si / 1000 Ang^3
#
#
#
# Elastic Constant Matrix: (Units=GPa)
#
#
# Indices 1 2 3 4 5 6 
#
# 1 118.6607 43.1452 61.0960 0.0000 0.0000 0.0000
# 2 43.1452 135.7671 58.1947 0.0000 0.0000 0.0000
# 3 61.0960 58.1947 94.9682 0.0000 0.0000 0.0000
# 4 0.0000 0.0000 0.0000 7.4567 0.0000 0.0000
# 5 0.0000 0.0000 0.0000 0.0000 29.0684 0.0000
# 6 0.0000 0.0000 0.0000 0.0000 0.0000 31.5841
#
#
#
# Elastic Compliance Matrix: (Units=1/GPa)
#
#
# Indices 1 2 3 4 5 6 
#
# 1 0.012653 -0.000721 -0.007698 0.000000 0.000000 0.000000
# 2 -0.000721 0.010030 -0.005682 0.000000 0.000000 0.000000
# 3 -0.007698 -0.005682 0.018964 0.000000 0.000000 0.000000
# 4 0.000000 0.000000 0.000000 0.134108 0.000000 0.000000
# 5 0.000000 0.000000 0.000000 0.000000 0.034402 0.000000
# 6 0.000000 0.000000 0.000000 0.000000 0.000000 0.031662
#
#
# Mechanical properties :
#
#
# Convention : Reuss Voigt Hill
#
# Bulk Modulus (GPa) = 74.38141 74.91866 74.65003
# Shear Modulus (GPa) = 18.21464 26.08584 22.15024
#
# Velocity S-wave (km/s) = 2.89085 3.45953 3.18790
# Velocity P-wave (km/s) = 6.72826 7.09444 6.91377
#
# Compressibility (1/GPa) = 0.01344422
#
# Stress axis : x y z
#
# Youngs Moduli (GPa) = 79.03046 99.69611 52.73020
#
# Poissons Ratio (x) = 0.07191 0.40593
# Poissons Ratio (y) = 0.05701 0.29964
# Poissons Ratio (z) = 0.60840 0.56652
#
# Static dielectric constant tensor:
#      x y z
#    x 1.866280 0.000000 0.000000 
#    y 0.000000 1.834480 0.000000 
#    z 0.000000 0.000000 1.851080 
# 
# From -- ./inp_files/425.got.cif
#   From: 2010.05.17/outbox.cif.g08.bks.cpg/sg34_1_cif.got.tgz:425.got - 2010.06.03 17:23:11.
