data_PCOD9347343
_publ_section_title
;
Structure prediction by ZEFSAII (Michael W. Deem and Ramdas Pophale) SiO2 
 PCOD9347343
Probable space group: P N N 2
;
_chemical_formula_sum "Si O2"
_cell_formula_units_Z 26
_cell_length_a 14.806066
_cell_length_b 5.030901
_cell_length_c 18.396121
_cell_angle_alpha 90.000000
_cell_angle_beta 90.000000
_cell_angle_gamma 90.000000
_cell_volume 1370.287543
_symmetry_space_group_name_H-M "P N N 2"
_symmetry_group_IT_number 34
_symmetry_cell_setting 'orthorhombic'
loop_
_space_group_symop_operation_xyz
x,y,z
-x,-y,z
1/2-x,1/2+y,1/2+z
1/2+x,1/2-y,1/2+z
loop_
_atom_site_type_symbol
_atom_site_label
_atom_site_fract_x
_atom_site_fract_y
_atom_site_fract_z
Si Si1 0.398668 0.077035 0.477460
Si Si2 0.809993 0.637090 0.297551
Si Si3 0.332716 0.592065 0.397072
Si Si4 0.500000 0.000000 0.753810
Si Si5 0.561550 0.255113 0.249349
Si Si6 0.748112 0.632904 0.709133
Si Si7 0.417718 0.324775 0.623352
O O1 0.377646 0.364237 0.445106
O O2 0.396472 0.099180 0.564511
O O3 0.500000 0.000000 0.455800
O O4 0.332336 0.860333 0.443326
O O5 0.762111 0.522693 0.368764
O O6 0.780841 0.427808 0.234697
O O7 0.918050 0.625915 0.298639
O O8 0.771248 0.922714 0.273986
O O9 0.391146 0.647300 0.324175
O O10 0.540749 0.783867 0.698384
O O11 0.500000 0.500000 0.222417
O O12 0.644711 0.158970 0.198382
O O13 0.500000 0.000000 0.264091
O O14 0.678468 0.548469 0.645670
O O15 0.500000 0.500000 0.591641
#
# Coordination Sequence:
#
# PCOD9347343 Si02
#       7
#     4   4   4   2   4   4   4
#     4  12  23  34  53  79 115 154 183 221 284 362
#     4  10  20  35  56  80 112 147 183 247 288 349
#     4  11  22  35  51  80 114 149 189 222 283 346
#     4  10  20  36  58  84 116 142 196 242 310 348
#     4  11  20  34  54  77 108 145 186 234 277 337
#     4  10  21  34  54  82 111 143 186 239 298 341
#     4  11  21  36  55  84 121 144 192 237 305 364
#
# _framework density 18.974119999999999
#
# number of rings (size 3 to 8) (size 9 to 14) (size 15 to 20)
#    0.000    1.231    2.308    7.385    0.000    0.000 
#    0.000    0.000    0.000    0.000    6.000    0.000 
#    0.000    0.000    0.000    0.000    0.000    0.000 
#
# Total GULP energy -145086.718895 kJ/mol
# GULP energy per Si atom -5580.258419 kJ/mol
# Density = 1.893093 g / cm^3
# Si number density = 18.974120 Si / 1000 Ang^3
#
#
#
# Elastic Constant Matrix: (Units=GPa)
#
#
# Indices 1 2 3 4 5 6 
#
# 1 138.6716 28.7734 37.4644 0.0000 0.0000 0.0000
# 2 28.7734 83.5215 9.6458 0.0000 0.0000 0.0000
# 3 37.4644 9.6458 48.5847 0.0000 0.0000 0.0000
# 4 0.0000 0.0000 0.0000 26.0766 0.0000 0.0000
# 5 0.0000 0.0000 0.0000 0.0000 18.3353 0.0000
# 6 0.0000 0.0000 0.0000 0.0000 0.0000 24.5018
#
#
#
# Elastic Compliance Matrix: (Units=1/GPa)
#
#
# Indices 1 2 3 4 5 6 
#
# 1 0.009597 -0.002509 -0.006902 0.000000 0.000000 0.000000
# 2 -0.002509 0.012910 -0.000628 0.000000 0.000000 0.000000
# 3 -0.006902 -0.000628 0.026030 0.000000 0.000000 0.000000
# 4 0.000000 0.000000 0.000000 0.038349 0.000000 0.000000
# 5 0.000000 0.000000 0.000000 0.000000 0.054540 0.000000
# 6 0.000000 0.000000 0.000000 0.000000 0.000000 0.040813
#
#
# Mechanical properties :
#
#
# Convention : Reuss Voigt Hill
#
# Bulk Modulus (GPa) = 35.14021 46.94945 41.04483
# Shear Modulus (GPa) = 23.60699 26.77569 25.19134
#
# Velocity S-wave (km/s) = 3.53110 3.76063 3.64767
# Velocity P-wave (km/s) = 5.93171 6.60712 6.27851
#
# Compressibility (1/GPa) = 0.02845743
#
# Stress axis : x y z
#
# Youngs Moduli (GPa) = 104.20433 77.46013 38.41792
#
# Poissons Ratio (x) = 0.19434 0.26516
# Poissons Ratio (y) = 0.26144 0.02414
# Poissons Ratio (z) = 0.71921 0.04868
#
# Static dielectric constant tensor:
#      x y z
#    x 1.731330 0.000000 0.000000 
#    y 0.000000 1.701760 0.000000 
#    z 0.000000 0.000000 1.672640 
# 
# From -- ./inp_files/8176.got.cif
#   From: 2010.05.17/outbox.cif.g08.bks.cpg/sg34_5_cif.got.tgz:8176.got - 2010.06.03 17:23:11.
