data_PCOD9347773
_publ_section_title
;
Structure prediction by ZEFSAII (Michael W. Deem and Ramdas Pophale) SiO2 
 PCOD9347773
Probable space group: P N N 2
;
_chemical_formula_sum "Si O2"
_cell_formula_units_Z 20
_cell_length_a 9.277672
_cell_length_b 7.994580
_cell_length_c 10.620664
_cell_angle_alpha 90.000000
_cell_angle_beta 90.000000
_cell_angle_gamma 90.000000
_cell_volume 787.746236
_symmetry_space_group_name_H-M "P N N 2"
_symmetry_group_IT_number 34
_symmetry_cell_setting 'orthorhombic'
loop_
_space_group_symop_operation_xyz
x,y,z
-x,-y,z
1/2-x,1/2+y,1/2+z
1/2+x,1/2-y,1/2+z
loop_
_atom_site_type_symbol
_atom_site_label
_atom_site_fract_x
_atom_site_fract_y
_atom_site_fract_z
Si Si1 0.339122 0.970733 0.162040
Si Si2 0.354338 0.157434 0.635145
Si Si3 0.650578 0.799817 0.368185
Si Si4 0.818144 0.181650 0.609048
Si Si5 0.987090 0.812372 0.361039
O O1 0.348275 0.013163 0.310474
O O2 0.577370 0.671899 0.989963
O O3 0.500000 0.000000 0.109786
O O4 0.251231 0.129910 0.107036
O O5 0.425607 0.207609 0.501343
O O6 0.288347 0.973960 0.616310
O O7 0.053737 0.686100 0.259832
O O8 0.226502 0.292091 0.647265
O O9 0.602331 0.691932 0.246826
O O10 0.821508 0.763564 0.385079
O O11 0.000000 0.000000 0.304104
#
# Coordination Sequence:
#
# PCOD9347773 Si02
#       5
#     4   4   4   4   4
#     4  10  23  42  67 102 140 183 240 297 356 436
#     4  12  23  45  73  99 148 187 239 311 359 436
#     4  10  25  46  65 112 137 189 252 284 380 437
#     4  10  25  43  71 108 137 192 246 287 378 439
#     4  12  22  48  74 101 154 190 235 320 358 436
#
# _framework density 25.388887
#
# number of rings (size 3 to 8) (size 9 to 14) (size 15 to 20)
#    1.200    0.000    4.000    1.200    2.800    0.800 
#    7.200    1.000    0.000    0.000    0.000    0.000 
#    0.000    0.000    0.000    0.000    0.000    0.000 
#
# Total GULP energy -111693.011080 kJ/mol
# GULP energy per Si atom -5584.650554 kJ/mol
# Density = 2.533110 g / cm^3
# Si number density = 25.388887 Si / 1000 Ang^3
#
#
#
# Elastic Constant Matrix: (Units=GPa)
#
#
# Indices 1 2 3 4 5 6 
#
# 1 88.0875 70.5088 45.8425 0.0000 0.0000 0.0000
# 2 70.5088 112.2016 51.3303 0.0000 0.0000 0.0000
# 3 45.8425 51.3303 194.7192 0.0000 0.0000 0.0000
# 4 0.0000 0.0000 0.0000 29.6456 0.0000 0.0000
# 5 0.0000 0.0000 0.0000 0.0000 30.8958 0.0000
# 6 0.0000 0.0000 0.0000 0.0000 0.0000 33.2987
#
#
#
# Elastic Compliance Matrix: (Units=1/GPa)
#
#
# Indices 1 2 3 4 5 6 
#
# 1 0.023419 -0.013867 -0.001858 0.000000 0.000000 0.000000
# 2 -0.013867 0.018345 -0.001571 0.000000 0.000000 0.000000
# 3 -0.001858 -0.001571 0.005987 0.000000 0.000000 0.000000
# 4 0.000000 0.000000 0.000000 0.033732 0.000000 0.000000
# 5 0.000000 0.000000 0.000000 0.000000 0.032367 0.000000
# 6 0.000000 0.000000 0.000000 0.000000 0.000000 0.030031
#
#
# Mechanical properties :
#
#
# Convention : Reuss Voigt Hill
#
# Bulk Modulus (GPa) = 75.99246 81.15239 78.57243
# Shear Modulus (GPa) = 27.34338 33.92313 30.63325
#
# Velocity S-wave (km/s) = 3.28530 3.65929 3.47733
# Velocity P-wave (km/s) = 6.66238 7.06307 6.86565
#
# Compressibility (1/GPa) = 0.01315920
#
# Stress axis : x y z
#
# Youngs Moduli (GPa) = 42.70102 54.50978 167.02023
#
# Poissons Ratio (x) = 0.75586 0.31033
# Poissons Ratio (y) = 0.59211 0.26247
# Poissons Ratio (z) = 0.07934 0.08566
#
# Static dielectric constant tensor:
#      x y z
#    x 2.120150 0.000000 0.000000 
#    y 0.000000 2.037700 0.000000 
#    z 0.000000 0.000000 2.068110 
# 
# From -- ./inp_files/6706.got.cif
#   From: 2010.05.17/outbox.cif.g08.bks.cpg/sg34_4_cif.got.tgz:6706.got - 2010.06.03 17:23:11.
