data_PCOD9347609
_publ_section_title
;
Structure prediction by ZEFSAII (Michael W. Deem and Ramdas Pophale) SiO2 
 PCOD9347609
Probable space group: P N N 2
;
_chemical_formula_sum "Si O2"
_cell_formula_units_Z 24
_cell_length_a 17.474020
_cell_length_b 11.110217
_cell_length_c 5.305478
_cell_angle_alpha 90.000000
_cell_angle_beta 90.000000
_cell_angle_gamma 90.000000
_cell_volume 1030.006316
_symmetry_space_group_name_H-M "P N N 2"
_symmetry_group_IT_number 34
_symmetry_cell_setting 'orthorhombic'
loop_
_space_group_symop_operation_xyz
x,y,z
-x,-y,z
1/2-x,1/2+y,1/2+z
1/2+x,1/2-y,1/2+z
loop_
_atom_site_type_symbol
_atom_site_label
_atom_site_fract_x
_atom_site_fract_y
_atom_site_fract_z
Si Si1 0.603610 0.695880 0.079120
Si Si2 0.087400 0.485950 0.984382
Si Si3 0.648640 0.255818 0.223678
Si Si4 0.822612 0.264330 0.073314
Si Si5 0.525231 0.183897 0.853915
Si Si6 0.479858 0.619720 0.451120
O O1 0.666102 0.705173 0.298639
O O2 0.538134 0.614193 0.211737
O O3 0.643001 0.684772 0.806216
O O4 0.549726 0.813731 0.027200
O O5 0.132431 0.376989 0.845282
O O6 0.000000 0.500000 0.878132
O O7 0.136067 0.606152 0.028444
O O8 0.066795 0.434381 0.261152
O O9 0.734660 0.279194 0.149087
O O10 0.609102 0.359102 0.392834
O O11 0.592250 0.257746 0.985845
O O12 0.500811 0.259745 0.606247
O O13 0.500000 0.500000 0.601671
#
# Coordination Sequence:
#
# PCOD9347609 Si02
#       6
#     4   4   4   4   4   4
#     4  11  23  46  68 103 136 186 242 288 345 439
#     4  11  22  44  76 104 136 199 241 295 355 435
#     4  10  26  43  67 106 148 177 239 303 355 438
#     4  12  26  45  71 104 149 178 232 302 372 409
#     4  10  21  44  69 106 137 181 252 289 339 440
#     4  10  22  45  73  97 139 194 239 290 355 428
#
# _framework density 23.300825
#
# number of rings (size 3 to 8) (size 9 to 14) (size 15 to 20)
#    0.000    1.333    3.333    2.000    7.000    4.667 
#    6.000    0.000    0.000    0.000    0.000    0.000 
#    0.000    0.000    0.000    0.000    0.000    0.000 
#
# Total GULP energy -133603.656249 kJ/mol
# GULP energy per Si atom -5566.819010 kJ/mol
# Density = 2.324779 g / cm^3
# Si number density = 23.300825 Si / 1000 Ang^3
#
#
#
# Elastic Constant Matrix: (Units=GPa)
#
#
# Indices 1 2 3 4 5 6 
#
# 1 169.8467 22.1981 27.3264 0.0000 0.0000 0.0000
# 2 22.1981 75.6972 2.1560 0.0000 0.0000 0.0000
# 3 27.3264 2.1560 103.6460 0.0000 0.0000 0.0000
# 4 0.0000 0.0000 0.0000 16.7047 0.0000 0.0000
# 5 0.0000 0.0000 0.0000 0.0000 33.1597 0.0000
# 6 0.0000 0.0000 0.0000 0.0000 0.0000 25.6828
#
#
#
# Elastic Compliance Matrix: (Units=1/GPa)
#
#
# Indices 1 2 3 4 5 6 
#
# 1 0.006391 -0.001827 -0.001647 0.000000 0.000000 0.000000
# 2 -0.001827 0.013741 0.000196 0.000000 0.000000 0.000000
# 3 -0.001647 0.000196 0.010078 0.000000 0.000000 0.000000
# 4 0.000000 0.000000 0.000000 0.059863 0.000000 0.000000
# 5 0.000000 0.000000 0.000000 0.000000 0.030157 0.000000
# 6 0.000000 0.000000 0.000000 0.000000 0.000000 0.038937
#
#
# Mechanical properties :
#
#
# Convention : Reuss Voigt Hill
#
# Bulk Modulus (GPa) = 42.27675 50.28342 46.28009
# Shear Modulus (GPa) = 28.80028 34.94341 31.87185
#
# Velocity S-wave (km/s) = 3.51952 3.87675 3.70245
# Velocity P-wave (km/s) = 5.89061 6.45491 6.17921
#
# Compressibility (1/GPa) = 0.02365366
#
# Stress axis : x y z
#
# Youngs Moduli (GPa) = 156.45794 72.77585 99.22196
#
# Poissons Ratio (x) = 0.13299 0.16343
# Poissons Ratio (y) = 0.28591 -0.01944
# Poissons Ratio (z) = 0.25770 -0.01426
#
# Static dielectric constant tensor:
#      x y z
#    x 1.865240 0.000000 0.000000 
#    y 0.000000 1.986900 0.000000 
#    z 0.000000 0.000000 2.015580 
# 
# From -- ./inp_files/1428.got.cif
#   From: 2010.05.17/outbox.cif.g08.bks.cpg/sg34_1_cif.got.tgz:1428.got - 2010.06.03 17:23:11.
