data_PCOD9347897
_publ_section_title
;
Structure prediction by ZEFSAII (Michael W. Deem and Ramdas Pophale) SiO2 
 PCOD9347897
Probable space group: P N N 2
;
_chemical_formula_sum "Si O2"
_cell_formula_units_Z 22
_cell_length_a 5.241257
_cell_length_b 15.405065
_cell_length_c 12.275047
_cell_angle_alpha 90.000000
_cell_angle_beta 90.000000
_cell_angle_gamma 90.000000
_cell_volume 991.110676
_symmetry_space_group_name_H-M "P N N 2"
_symmetry_group_IT_number 34
_symmetry_cell_setting 'orthorhombic'
loop_
_space_group_symop_operation_xyz
x,y,z
-x,-y,z
1/2-x,1/2+y,1/2+z
1/2+x,1/2-y,1/2+z
loop_
_atom_site_type_symbol
_atom_site_label
_atom_site_fract_x
_atom_site_fract_y
_atom_site_fract_z
Si Si1 0.955982 0.671365 0.566810
Si Si2 0.887212 0.600384 0.324495
Si Si3 0.463293 0.773885 0.620766
Si Si4 0.000000 0.000000 0.335761
Si Si5 0.000000 0.500000 0.695401
Si Si6 0.804790 0.426518 0.007138
Si Si7 0.000000 0.000000 0.708799
O O1 0.918415 0.647235 0.439812
O O2 0.685332 0.701773 0.617245
O O3 0.180039 0.739839 0.594459
O O4 0.048710 0.583466 0.622707
O O5 0.973326 0.667979 0.230535
O O6 0.601479 0.576358 0.285238
O O7 0.000000 0.500000 0.327567
O O8 0.549911 0.838230 0.524369
O O9 0.245158 0.982355 0.263669
O O10 0.920463 0.923354 0.419479
O O11 0.701598 0.460984 0.123007
O O12 0.000000 0.500000 0.969799
#
# Coordination Sequence:
#
# PCOD9347897 Si02
#       7
#     4   4   4   2   2   4   2
#     4  12  31  48  76 109 158 198 268 319 385 461
#     4  12  26  49  82 110 153 214 256 307 399 469
#     4  12  27  48  74 119 150 192 261 338 363 453
#     4  11  26  41  80 100 148 207 238 307 384 484
#     4  12  26  54  68 102 152 222 254 304 398 484
#     4  11  22  44  76 115 149 198 253 317 390 463
#     4  11  20  41  84 112 144 201 268 307 360 484
#
# _framework density 22.197317000000002
#
# number of rings (size 3 to 8) (size 9 to 14) (size 15 to 20)
#    0.000    0.364    5.455    2.182    5.091    5.091 
#    0.000    0.000    0.000    0.000    0.000    0.000 
#    0.000    0.000    0.000    0.000    0.000    0.000 
#
# Total GULP energy -122865.763676 kJ/mol
# GULP energy per Si atom -5584.807440 kJ/mol
# Density = 2.214680 g / cm^3
# Si number density = 22.197317 Si / 1000 Ang^3
#
#
#
# Elastic Constant Matrix: (Units=GPa)
#
#
# Indices 1 2 3 4 5 6 
#
# 1 109.9713 17.5184 59.2917 0.0000 0.0000 0.0000
# 2 17.5184 84.2019 49.0887 0.0000 0.0000 0.0000
# 3 59.2917 49.0887 152.9170 0.0000 0.0000 0.0000
# 4 0.0000 0.0000 0.0000 17.9988 0.0000 0.0000
# 5 0.0000 0.0000 0.0000 0.0000 4.7833 0.0000
# 6 0.0000 0.0000 0.0000 0.0000 0.0000 47.9229
#
#
#
# Elastic Compliance Matrix: (Units=1/GPa)
#
#
# Indices 1 2 3 4 5 6 
#
# 1 0.011501 0.000255 -0.004541 0.000000 0.000000 0.000000
# 2 0.000255 0.014616 -0.004791 0.000000 0.000000 0.000000
# 3 -0.004541 -0.004791 0.009838 0.000000 0.000000 0.000000
# 4 0.000000 0.000000 0.000000 0.055559 0.000000 0.000000
# 5 0.000000 0.000000 0.000000 0.000000 0.209059 0.000000
# 6 0.000000 0.000000 0.000000 0.000000 0.000000 0.020867
#
#
# Mechanical properties :
#
#
# Convention : Reuss Voigt Hill
#
# Bulk Modulus (GPa) = 56.17691 66.54308 61.35999
# Shear Modulus (GPa) = 14.47059 28.88710 21.67885
#
# Velocity S-wave (km/s) = 2.55602 3.61138 3.12852
# Velocity P-wave (km/s) = 5.83728 6.88712 6.38382
#
# Compressibility (1/GPa) = 0.01780091
#
# Stress axis : x y z
#
# Youngs Moduli (GPa) = 86.94810 68.41725 101.64490
#
# Poissons Ratio (x) = -0.01742 0.46158
# Poissons Ratio (y) = -0.02214 0.48695
# Poissons Ratio (z) = 0.39484 0.32777
#
# Static dielectric constant tensor:
#      x y z
#    x 1.837300 0.000000 0.000000 
#    y 0.000000 1.805440 0.000000 
#    z 0.000000 0.000000 1.807140 
# 
# From -- ./inp_files/4410.got.cif
#   From: 2010.05.17/outbox.cif.g08.bks.cpg/sg34_3_cif.got.tgz:4410.got - 2010.06.03 17:23:11.
