data_PCOD9347168
_publ_section_title
;
Structure prediction by ZEFSAII (Michael W. Deem and Ramdas Pophale) SiO2 
 PCOD9347168
Probable space group: P N N 2
;
_chemical_formula_sum "Si O2"
_cell_formula_units_Z 32
_cell_length_a 15.486893
_cell_length_b 8.809645
_cell_length_c 11.074473
_cell_angle_alpha 90.000000
_cell_angle_beta 90.000000
_cell_angle_gamma 90.000000
_cell_volume 1510.934976
_symmetry_space_group_name_H-M "P N N 2"
_symmetry_group_IT_number 34
_symmetry_cell_setting 'orthorhombic'
loop_
_space_group_symop_operation_xyz
x,y,z
-x,-y,z
1/2-x,1/2+y,1/2+z
1/2+x,1/2-y,1/2+z
loop_
_atom_site_type_symbol
_atom_site_label
_atom_site_fract_x
_atom_site_fract_y
_atom_site_fract_z
Si Si1 0.021562 0.676902 0.985810
Si Si2 0.347113 0.265653 0.692073
Si Si3 0.788888 0.506250 0.574008
Si Si4 0.153957 0.209982 0.472834
Si Si5 0.662215 0.267758 0.538334
Si Si6 0.676775 0.793975 0.301346
Si Si7 0.089236 0.053976 0.266869
Si Si8 0.235359 0.993536 0.656550
O O1 0.089836 0.700752 0.878856
O O2 0.000000 0.500000 0.996340
O O3 0.070703 0.727111 0.108396
O O4 0.928278 0.756955 0.969495
O O5 0.281283 0.364729 0.609993
O O6 0.365720 0.391577 0.793312
O O7 0.299997 0.109918 0.722667
O O8 0.856454 0.613890 0.506731
O O9 0.736765 0.382394 0.495678
O O10 0.822050 0.419781 0.693998
O O11 0.240514 0.186300 0.389858
O O12 0.078773 0.149507 0.387097
O O13 0.167989 0.099085 0.585651
O O14 0.637045 0.342328 0.668381
O O15 0.705167 0.105022 0.563920
O O16 0.690618 0.630621 0.239811
O O17 0.000000 0.000000 0.211618
#
# Coordination Sequence:
#
# PCOD9347168 Si02
#       8
#     4   4   4   4   4   4   4   4
#     4  12  21  35  65  99 137 161 202 277 351 368
#     4  10  18  34  60  89 124 154 200 262 319 379
#     4   9  20  37  61  86 128 167 218 254 314 401
#     4  11  20  40  62  85 127 173 214 263 319 384
#     4  10  19  36  61  92 128 157 205 275 323 386
#     4  11  21  39  62  94 127 172 209 267 325 388
#     4  11  21  36  63  91 127 161 207 271 333 366
#     4  10  20  38  60  91 128 161 220 254 309 408
#
# _framework density 21.178939
#
# number of rings (size 3 to 8) (size 9 to 14) (size 15 to 20)
#    0.000    1.500    8.750    0.000    0.000    0.000 
#    4.500    2.500    0.000    0.000    0.000    0.000 
#    0.000    0.000    0.000    0.000    0.000    0.000 
#
# Total GULP energy -178376.451536 kJ/mol
# GULP energy per Si atom -5574.264111 kJ/mol
# Density = 2.113073 g / cm^3
# Si number density = 21.178939 Si / 1000 Ang^3
#
#
#
# Elastic Constant Matrix: (Units=GPa)
#
#
# Indices 1 2 3 4 5 6 
#
# 1 35.1777 13.4814 17.8260 0.0000 0.0000 0.0000
# 2 13.4814 140.9528 38.2012 0.0000 0.0000 0.0000
# 3 17.8260 38.2012 59.8431 0.0000 0.0000 0.0000
# 4 0.0000 0.0000 0.0000 36.2969 0.0000 0.0000
# 5 0.0000 0.0000 0.0000 0.0000 32.3841 0.0000
# 6 0.0000 0.0000 0.0000 0.0000 0.0000 25.0771
#
#
#
# Elastic Compliance Matrix: (Units=1/GPa)
#
#
# Indices 1 2 3 4 5 6 
#
# 1 0.033524 -0.000605 -0.009600 0.000000 0.000000 0.000000
# 2 -0.000605 0.008590 -0.005303 0.000000 0.000000 0.000000
# 3 -0.009600 -0.005303 0.022955 0.000000 0.000000 0.000000
# 4 0.000000 0.000000 0.000000 0.027551 0.000000 0.000000
# 5 0.000000 0.000000 0.000000 0.000000 0.030879 0.000000
# 6 0.000000 0.000000 0.000000 0.000000 0.000000 0.039877
#
#
# Mechanical properties :
#
#
# Convention : Reuss Voigt Hill
#
# Bulk Modulus (GPa) = 29.36598 41.66563 35.51581
# Shear Modulus (GPa) = 24.30228 29.84929 27.07579
#
# Velocity S-wave (km/s) = 3.39111 3.75825 3.57939
# Velocity P-wave (km/s) = 5.40635 6.20874 5.82139
#
# Compressibility (1/GPa) = 0.03405301
#
# Stress axis : x y z
#
# Youngs Moduli (GPa) = 29.82980 116.41896 43.56291
#
# Poissons Ratio (x) = 0.07038 0.41821
# Poissons Ratio (y) = 0.01803 0.23102
# Poissons Ratio (z) = 0.28637 0.61739
#
# Static dielectric constant tensor:
#      x y z
#    x 1.834600 0.000000 0.000000 
#    y 0.000000 1.794300 0.000000 
#    z 0.000000 0.000000 1.801450 
# 
# From -- ./inp_files/5813.got.cif
#   From: 2010.05.17/outbox.cif.g08.bks.cpg/sg34_3_cif.got.tgz:5813.got - 2010.06.03 17:23:11.
