data_PCOD9347415
_publ_section_title
;
Structure prediction by ZEFSAII (Michael W. Deem and Ramdas Pophale) SiO2 
 PCOD9347415
Probable space group: P N N 2
;
_chemical_formula_sum "Si O2"
_cell_formula_units_Z 26
_cell_length_a 11.299190
_cell_length_b 12.209629
_cell_length_c 7.155147
_cell_angle_alpha 90.000000
_cell_angle_beta 90.000000
_cell_angle_gamma 90.000000
_cell_volume 987.116338
_symmetry_space_group_name_H-M "P N N 2"
_symmetry_group_IT_number 34
_symmetry_cell_setting 'orthorhombic'
loop_
_space_group_symop_operation_xyz
x,y,z
-x,-y,z
1/2-x,1/2+y,1/2+z
1/2+x,1/2-y,1/2+z
loop_
_atom_site_type_symbol
_atom_site_label
_atom_site_fract_x
_atom_site_fract_y
_atom_site_fract_z
Si Si1 0.894433 0.083842 0.008880
Si Si2 0.634803 0.793481 0.834449
Si Si3 0.235585 0.589161 0.693672
Si Si4 0.560055 0.613578 0.123052
Si Si5 0.000000 0.500000 0.734706
Si Si6 0.631371 0.209343 0.235765
Si Si7 0.922905 0.734805 0.149974
O O1 0.970354 0.183122 0.089221
O O2 0.811672 0.019960 0.154061
O O3 0.000000 0.000000 0.962588
O O4 0.847808 0.104158 0.797479
O O5 0.739878 0.757878 0.692754
O O6 0.509056 0.841961 0.767644
O O7 0.691612 0.875462 0.986677
O O8 0.609747 0.683864 0.954837
O O9 0.116399 0.567007 0.813230
O O10 0.325042 0.687910 0.748902
O O11 0.500000 0.500000 0.062662
O O12 0.456448 0.691253 0.199645
O O13 0.074552 0.399090 0.646534
O O14 0.627487 0.185681 0.459552
#
# Coordination Sequence:
#
# PCOD9347415 Si02
#       7
#     4   4   4   4   2   4   4
#     4   8  16  36  63  83 112 162 204 257 307 359
#     4  11  21  40  62  93 125 164 215 260 313 382
#     4  10  21  39  62  88 129 163 213 259 317 381
#     4  10  20  39  64  92 122 162 217 260 310 371
#     4  12  22  42  60  94 132 170 200 270 326 380
#     4  10  23  43  61  91 130 163 208 265 317 382
#     4   9  20  40  64  88 120 166 215 258 308 380
#
# _framework density 26.339348000000001
#
# number of rings (size 3 to 8) (size 9 to 14) (size 15 to 20)
#    0.000    2.154    1.538    3.692    0.000    3.077 
#   13.846    0.000    0.000    0.000    0.000    0.000 
#    0.000    0.000    0.000    0.000    0.000    0.000 
#
# Total GULP energy -144941.807315 kJ/mol
# GULP energy per Si atom -5574.684897 kJ/mol
# Density = 2.627940 g / cm^3
# Si number density = 26.339348 Si / 1000 Ang^3
#
#
#
# Elastic Constant Matrix: (Units=GPa)
#
#
# Indices 1 2 3 4 5 6 
#
# 1 163.3399 15.7378 24.3906 0.0000 0.0000 0.0000
# 2 15.7378 77.0682 -12.4824 0.0000 0.0000 0.0000
# 3 24.3906 -12.4824 62.3799 0.0000 0.0000 0.0000
# 4 0.0000 0.0000 0.0000 -8.1573 0.0000 0.0000
# 5 0.0000 0.0000 0.0000 0.0000 33.0923 0.0000
# 6 0.0000 0.0000 0.0000 0.0000 0.0000 37.5778
#
#
#
# Elastic Compliance Matrix: (Units=1/GPa)
#
#
# Indices 1 2 3 4 5 6 
#
# 1 0.006752 -0.001867 -0.003014 0.000000 0.000000 0.000000
# 2 -0.001867 0.013926 0.003517 0.000000 0.000000 0.000000
# 3 -0.003014 0.003517 0.017913 0.000000 0.000000 0.000000
# 4 0.000000 0.000000 0.000000 -0.122590 0.000000 0.000000
# 5 0.000000 0.000000 0.000000 0.000000 0.030219 0.000000
# 6 0.000000 0.000000 0.000000 0.000000 0.000000 0.026611
#
#
# Mechanical properties :
#
#
# Convention : Reuss Voigt Hill
#
# Bulk Modulus (GPa) = 27.88353 39.78666 33.83509
# Shear Modulus (GPa) = -400.43597 30.84535 -184.79531
#
# Velocity S-wave (km/s) = -12.34340 3.42581 -8.38521
# Velocity P-wave (km/s) = 13.87577 5.54855 8.99307
#
# Compressibility (1/GPa) = 0.03586347
#
# Stress axis : x y z
#
# Youngs Moduli (GPa) = 148.10225 71.80638 55.82585
#
# Poissons Ratio (x) = 0.13406 0.16824
# Poissons Ratio (y) = 0.27650 -0.19632
# Poissons Ratio (z) = 0.44633 -0.25252
#
# Static dielectric constant tensor:
#      x y z
#    x 2.194990 0.000000 0.000000 
#    y 0.000000 2.185270 0.000000 
#    z 0.000000 0.000000 2.352220 
# 
# From -- ./inp_files/3272.got.cif
#   From: 2010.05.17/outbox.cif.g08.bks.cpg/sg34_2_cif.got.tgz:3272.got - 2010.06.03 17:23:11.
