data_PCOD9347905
_publ_section_title
;
Structure prediction by ZEFSAII (Michael W. Deem and Ramdas Pophale) SiO2 
 PCOD9347905
Probable space group: P N N 2
;
_chemical_formula_sum "Si O2"
_cell_formula_units_Z 32
_cell_length_a 7.763562
_cell_length_b 11.514523
_cell_length_c 15.474725
_cell_angle_alpha 90.000000
_cell_angle_beta 90.000000
_cell_angle_gamma 90.000000
_cell_volume 1383.343129
_symmetry_space_group_name_H-M "P N N 2"
_symmetry_group_IT_number 34
_symmetry_cell_setting 'orthorhombic'
loop_
_space_group_symop_operation_xyz
x,y,z
-x,-y,z
1/2-x,1/2+y,1/2+z
1/2+x,1/2-y,1/2+z
loop_
_atom_site_type_symbol
_atom_site_label
_atom_site_fract_x
_atom_site_fract_y
_atom_site_fract_z
Si Si1 0.165253 0.081087 0.632200
Si Si2 0.234461 0.275639 0.888252
Si Si3 0.393289 0.693259 0.801023
Si Si4 0.430453 0.813377 0.218236
Si Si5 0.233705 0.036476 0.171949
Si Si6 0.793014 0.973702 0.446703
Si Si7 0.203793 0.536535 0.478763
Si Si8 0.308607 0.951863 0.798907
O O1 0.115689 0.212894 0.651177
O O2 0.261508 0.071700 0.540747
O O3 0.246297 0.027516 0.718550
O O4 0.000000 0.000000 0.620401
O O5 0.421974 0.278993 0.842172
O O6 0.092024 0.258040 0.813579
O O7 0.205242 0.403042 0.927962
O O8 0.259273 0.171532 0.955984
O O9 0.413439 0.608856 0.719440
O O10 0.279718 0.621636 0.871031
O O11 0.311610 0.816567 0.777000
O O12 0.605905 0.874360 0.188646
O O13 0.294372 0.918581 0.216738
O O14 0.212987 0.012543 0.071155
O O15 0.000000 0.000000 0.445305
O O16 0.273682 0.470527 0.393525
O O17 0.000000 0.500000 0.490065
O O18 0.500000 0.000000 0.813208
#
# Coordination Sequence:
#
# PCOD9347905 Si02
#       8
#     4   4   4   4   4   4   4   4
#     4  11  23  38  61  88 120 156 197 250 302 361
#     4  11  21  41  65  85 124 156 204 251 299 361
#     4  11  21  39  63  90 120 157 203 254 299 360
#     4  11  22  40  59  88 123 157 200 249 305 356
#     4  11  25  37  65  89 122 161 204 251 304 361
#     4   9  22  34  60  91 112 153 199 244 293 353
#     4  11  21  39  65  93 116 168 208 246 296 373
#     4  11  22  39  62  87 118 158 201 247 301 357
#
# _framework density 23.132368
#
# number of rings (size 3 to 8) (size 9 to 14) (size 15 to 20)
#    0.000    1.250    6.250    0.750    8.750    0.000 
#    0.000    1.250    5.500    0.000    0.000    0.000 
#    0.000    0.000    0.000    0.000    0.000    0.000 
#
# Total GULP energy -178806.791939 kJ/mol
# GULP energy per Si atom -5587.712248 kJ/mol
# Density = 2.307972 g / cm^3
# Si number density = 23.132368 Si / 1000 Ang^3
#
#
#
# Elastic Constant Matrix: (Units=GPa)
#
#
# Indices 1 2 3 4 5 6 
#
# 1 35.1920 -0.4685 -4.3929 0.0000 0.0000 0.0000
# 2 -0.4685 147.1855 11.8650 0.0000 0.0000 0.0000
# 3 -4.3929 11.8650 114.0193 0.0000 0.0000 0.0000
# 4 0.0000 0.0000 0.0000 77.4406 0.0000 0.0000
# 5 0.0000 0.0000 0.0000 0.0000 17.7630 0.0000
# 6 0.0000 0.0000 0.0000 0.0000 0.0000 24.8322
#
#
#
# Elastic Compliance Matrix: (Units=1/GPa)
#
#
# Indices 1 2 3 4 5 6 
#
# 1 0.028553 0.000002 0.001100 0.000000 0.000000 0.000000
# 2 0.000002 0.006852 -0.000713 0.000000 0.000000 0.000000
# 3 0.001100 -0.000713 0.008887 0.000000 0.000000 0.000000
# 4 0.000000 0.000000 0.000000 0.012913 0.000000 0.000000
# 5 0.000000 0.000000 0.000000 0.000000 0.056297 0.000000
# 6 0.000000 0.000000 0.000000 0.000000 0.000000 0.040270
#
#
# Mechanical properties :
#
#
# Convention : Reuss Voigt Hill
#
# Bulk Modulus (GPa) = 22.18778 34.48932 28.33855
# Shear Modulus (GPa) = 29.75896 43.30005 36.52950
#
# Velocity S-wave (km/s) = 3.59062 4.33117 3.97816
# Velocity P-wave (km/s) = 5.17712 6.32091 5.77739
#
# Compressibility (1/GPa) = 0.04506986
#
# Stress axis : x y z
#
# Youngs Moduli (GPa) = 35.02274 145.95083 112.52387
#
# Poissons Ratio (x) = -0.00033 -0.12376
# Poissons Ratio (y) = -0.00008 0.08022
# Poissons Ratio (z) = -0.03852 0.10405
#
# Static dielectric constant tensor:
#      x y z
#    x 1.968620 0.000000 0.000000 
#    y 0.000000 1.825780 0.000000 
#    z 0.000000 0.000000 1.927310 
# 
# From -- ./inp_files/6548.got.cif
#   From: 2010.05.17/outbox.cif.g08.bks.cpg/sg34_4_cif.got.tgz:6548.got - 2010.06.03 17:23:11.
