data_PCOD9347792
_publ_section_title
;
Structure prediction by ZEFSAII (Michael W. Deem and Ramdas Pophale) SiO2 
 PCOD9347792
Probable space group: P N N 2
;
_chemical_formula_sum "Si O2"
_cell_formula_units_Z 14
_cell_length_a 6.465832
_cell_length_b 5.270527
_cell_length_c 18.164300
_cell_angle_alpha 90.000000
_cell_angle_beta 90.000000
_cell_angle_gamma 90.000000
_cell_volume 619.009230
_symmetry_space_group_name_H-M "P N N 2"
_symmetry_group_IT_number 34
_symmetry_cell_setting 'orthorhombic'
loop_
_space_group_symop_operation_xyz
x,y,z
-x,-y,z
1/2-x,1/2+y,1/2+z
1/2+x,1/2-y,1/2+z
loop_
_atom_site_type_symbol
_atom_site_label
_atom_site_fract_x
_atom_site_fract_y
_atom_site_fract_z
Si Si1 0.627412 0.748411 0.553760
Si Si2 0.500000 0.500000 0.333896
Si Si3 0.629213 0.250437 0.914552
Si Si4 0.372691 0.740733 0.192595
O O1 0.500000 0.500000 0.533041
O O2 0.827995 0.758238 0.502181
O O3 0.677714 0.734501 0.640241
O O4 0.500000 0.000000 0.538159
O O5 0.645874 0.694753 0.378014
O O6 0.353399 0.659588 0.277691
O O7 0.500000 0.500000 0.892650
O O8 0.500000 0.000000 0.897814
O O9 0.500000 0.500000 0.161060
O O10 0.500000 0.000000 0.188451
#
# Coordination Sequence:
#
# PCOD9347792 Si02
#       4
#     4   2   4   4
#     4  12  24  44  75 105 142 188 247 305 365 440
#     4  10  28  48  70 108 158 188 242 320 362 456
#     4  12  27  46  77 106 146 195 249 300 380 440
#     4  10  23  44  68  96 148 182 233 298 368 421
#
# _framework density 22.616789000000001
#
# number of rings (size 3 to 8) (size 9 to 14) (size 15 to 20)
#    0.857    0.000    1.429    5.143    4.000    1.143 
#    0.000    0.000    0.000    0.000    0.000    0.000 
#    0.000    0.000    0.000    0.000    0.000    0.000 
#
# Total GULP energy -78173.065010 kJ/mol
# GULP energy per Si atom -5583.790358 kJ/mol
# Density = 2.256531 g / cm^3
# Si number density = 22.616789 Si / 1000 Ang^3
#
#
#
# Elastic Constant Matrix: (Units=GPa)
#
#
# Indices 1 2 3 4 5 6 
#
# 1 68.0602 54.7062 39.1976 0.0000 0.0000 0.0000
# 2 54.7062 210.2543 32.9171 0.0000 0.0000 0.0000
# 3 39.1976 32.9171 100.9926 0.0000 0.0000 0.0000
# 4 0.0000 0.0000 0.0000 94.6168 0.0000 0.0000
# 5 0.0000 0.0000 0.0000 0.0000 50.4310 0.0000
# 6 0.0000 0.0000 0.0000 0.0000 0.0000 43.9890
#
#
#
# Elastic Compliance Matrix: (Units=1/GPa)
#
#
# Indices 1 2 3 4 5 6 
#
# 1 0.022709 -0.004772 -0.007259 0.000000 0.000000 0.000000
# 2 -0.004772 0.006015 -0.000108 0.000000 0.000000 0.000000
# 3 -0.007259 -0.000108 0.012754 0.000000 0.000000 0.000000
# 4 0.000000 0.000000 0.000000 0.010569 0.000000 0.000000
# 5 0.000000 0.000000 0.000000 0.000000 0.019829 0.000000
# 6 0.000000 0.000000 0.000000 0.000000 0.000000 0.022733
#
#
# Mechanical properties :
#
#
# Convention : Reuss Voigt Hill
#
# Bulk Modulus (GPa) = 58.13911 70.32766 64.23339
# Shear Modulus (GPa) = 40.12178 54.63976 47.38077
#
# Velocity S-wave (km/s) = 4.21644 4.92051 4.58201
# Velocity P-wave (km/s) = 7.03324 7.96522 7.51369
#
# Compressibility (1/GPa) = 0.01720012
#
# Stress axis : x y z
#
# Youngs Moduli (GPa) = 44.03500 166.25655 78.40572
#
# Poissons Ratio (x) = 0.79343 0.56911
# Poissons Ratio (y) = 0.21015 0.00848
# Poissons Ratio (z) = 0.31963 0.01799
#
# Static dielectric constant tensor:
#      x y z
#    x 1.833860 0.000000 0.000000 
#    y 0.000000 1.732540 0.000000 
#    z 0.000000 0.000000 1.831620 
# 
# From -- ./inp_files/7829.got.cif
#   From: 2010.05.17/outbox.cif.g08.bks.cpg/sg34_4_cif.got.tgz:7829.got - 2010.06.03 17:23:11.
