data_PCOD9347709
_publ_section_title
;
Structure prediction by ZEFSAII (Michael W. Deem and Ramdas Pophale) SiO2 
 PCOD9347709
Probable space group: P N N 2
;
_chemical_formula_sum "Si O2"
_cell_formula_units_Z 14
_cell_length_a 5.100109
_cell_length_b 5.158503
_cell_length_c 21.798192
_cell_angle_alpha 90.000000
_cell_angle_beta 90.000000
_cell_angle_gamma 90.000000
_cell_volume 573.487055
_symmetry_space_group_name_H-M "P N N 2"
_symmetry_group_IT_number 34
_symmetry_cell_setting 'orthorhombic'
loop_
_space_group_symop_operation_xyz
x,y,z
-x,-y,z
1/2-x,1/2+y,1/2+z
1/2+x,1/2-y,1/2+z
loop_
_atom_site_type_symbol
_atom_site_label
_atom_site_fract_x
_atom_site_fract_y
_atom_site_fract_z
Si Si1 0.753886 0.687647 0.587450
Si Si2 0.500000 0.000000 0.345280
Si Si3 0.748574 0.678775 0.453472
Si Si4 0.500000 0.500000 0.766411
Si Si5 0.000000 0.500000 0.187276
O O1 0.500000 0.500000 0.591076
O O2 0.771595 0.816300 0.519567
O O3 0.720587 0.893503 0.641040
O O4 0.000000 0.500000 0.594254
O O5 0.325679 0.165971 0.393085
O O6 0.739126 0.098467 0.302759
O O7 0.500000 0.500000 0.462457
O O8 0.000000 0.500000 0.443588
O O9 0.415990 0.752361 0.727470
#
# Coordination Sequence:
#
# PCOD9347709 Si02
#       5
#     4   2   4   2   2
#     4  10  23  44  77 114 146 193 247 321 394 457
#     4  12  27  48  68 112 145 212 250 330 360 476
#     4  10  22  43  76 110 145 188 247 319 394 455
#     4  12  32  44  80 100 156 208 268 298 392 440
#     4  12  27  54  70 114 149 210 254 328 364 474
#
# _framework density 24.412057999999998
#
# number of rings (size 3 to 8) (size 9 to 14) (size 15 to 20)
#    0.000    1.143    1.429    2.571    8.000    3.429 
#    0.000    8.571    0.000    0.000    0.000    0.000 
#    0.000    0.000    0.000    0.000    0.000    0.000 
#
# Total GULP energy -78263.254996 kJ/mol
# GULP energy per Si atom -5590.232500 kJ/mol
# Density = 2.435650 g / cm^3
# Si number density = 24.412058 Si / 1000 Ang^3
#
#
#
# Elastic Constant Matrix: (Units=GPa)
#
#
# Indices 1 2 3 4 5 6 
#
# 1 208.7336 43.0825 53.1061 0.0000 0.0000 0.0000
# 2 43.0825 95.4385 64.1463 0.0000 0.0000 0.0000
# 3 53.1061 64.1463 153.2139 0.0000 0.0000 0.0000
# 4 0.0000 0.0000 0.0000 25.7789 0.0000 0.0000
# 5 0.0000 0.0000 0.0000 0.0000 57.5168 0.0000
# 6 0.0000 0.0000 0.0000 0.0000 0.0000 46.3783
#
#
#
# Elastic Compliance Matrix: (Units=1/GPa)
#
#
# Indices 1 2 3 4 5 6 
#
# 1 0.005435 -0.001652 -0.001192 0.000000 0.000000 0.000000
# 2 -0.001652 0.015083 -0.005742 0.000000 0.000000 0.000000
# 3 -0.001192 -0.005742 0.009344 0.000000 0.000000 0.000000
# 4 0.000000 0.000000 0.000000 0.038791 0.000000 0.000000
# 5 0.000000 0.000000 0.000000 0.000000 0.017386 0.000000
# 6 0.000000 0.000000 0.000000 0.000000 0.000000 0.021562
#
#
# Mechanical properties :
#
#
# Convention : Reuss Voigt Hill
#
# Bulk Modulus (GPa) = 78.80659 86.45066 82.62862
# Shear Modulus (GPa) = 38.75816 45.73821 42.24818
#
# Velocity S-wave (km/s) = 3.98887 4.33320 4.16459
# Velocity P-wave (km/s) = 7.31893 7.77981 7.55288
#
# Compressibility (1/GPa) = 0.01268929
#
# Stress axis : x y z
#
# Youngs Moduli (GPa) = 183.98849 66.29856 107.01879
#
# Poissons Ratio (x) = 0.10954 0.12758
# Poissons Ratio (y) = 0.30399 0.61453
# Poissons Ratio (z) = 0.21934 0.38070
#
# Static dielectric constant tensor:
#      x y z
#    x 1.915840 0.000000 0.000000 
#    y 0.000000 1.980180 0.000000 
#    z 0.000000 0.000000 2.074290 
# 
# From -- ./inp_files/7854.got.cif
#   From: 2010.05.17/outbox.cif.g08.bks.cpg/sg34_4_cif.got.tgz:7854.got - 2010.06.03 17:23:11.
