data_PCOD9347265
_publ_section_title
;
Structure prediction by ZEFSAII (Michael W. Deem and Ramdas Pophale) SiO2 
 PCOD9347265
Probable space group: P N N 2
;
_chemical_formula_sum "Si O2"
_cell_formula_units_Z 32
_cell_length_a 16.508103
_cell_length_b 11.660261
_cell_length_c 8.997712
_cell_angle_alpha 90.000000
_cell_angle_beta 90.000000
_cell_angle_gamma 90.000000
_cell_volume 1731.958692
_symmetry_space_group_name_H-M "P N N 2"
_symmetry_group_IT_number 34
_symmetry_cell_setting 'orthorhombic'
loop_
_space_group_symop_operation_xyz
x,y,z
-x,-y,z
1/2-x,1/2+y,1/2+z
1/2+x,1/2-y,1/2+z
loop_
_atom_site_type_symbol
_atom_site_label
_atom_site_fract_x
_atom_site_fract_y
_atom_site_fract_z
Si Si1 0.442436 0.821039 0.895860
Si Si2 0.169764 0.249772 0.654946
Si Si3 0.062350 0.645747 0.976869
Si Si4 0.377061 0.910835 0.411824
Si Si5 0.398766 0.085920 0.820347
Si Si6 0.196909 0.812403 0.918802
Si Si7 0.287625 0.584187 0.396815
Si Si8 0.680825 0.239810 0.658447
O O1 0.538662 0.829918 0.902666
O O2 0.400438 0.754796 0.758762
O O3 0.415045 0.953892 0.868283
O O4 0.404025 0.769651 0.043192
O O5 0.165751 0.352385 0.773525
O O6 0.249816 0.261578 0.554779
O O7 0.166277 0.135524 0.753489
O O8 0.108810 0.544656 0.889300
O O9 0.107328 0.762528 0.938077
O O10 0.967630 0.640607 0.937871
O O11 0.076781 0.607295 0.148223
O O12 0.327472 0.875268 0.558569
O O13 0.306363 0.108702 0.858747
O O14 0.244033 0.771160 0.770597
O O15 0.200107 0.949695 0.920022
O O16 0.311544 0.656885 0.542282
#
# Coordination Sequence:
#
# PCOD9347265 Si02
#       8
#     4   4   4   4   4   4   4   4
#     4  10  19  36  60  86 115 148 191 253 305 340
#     4  10  22  36  55  87 124 151 194 254 287 358
#     4  11  20  35  62  91 117 154 193 255 294 347
#     4  10  20  37  60  88 119 147 203 245 293 339
#     4  11  18  34  62  87 117 144 198 250 298 350
#     4  11  23  37  59  90 120 159 199 235 311 352
#     4  11  22  38  57  89 119 156 197 241 298 368
#     4  10  20  37  56  82 121 155 187 246 297 355
#
# _framework density 18.476191
#
# number of rings (size 3 to 8) (size 9 to 14) (size 15 to 20)
#    0.000    1.500    6.250    0.750    1.750    3.000 
#    0.000    2.500    0.000    0.000    0.000    0.000 
#    0.000    0.000    0.000    0.000    0.000    0.000 
#
# Total GULP energy -178523.124428 kJ/mol
# GULP energy per Si atom -5578.847638 kJ/mol
# Density = 1.843414 g / cm^3
# Si number density = 18.476191 Si / 1000 Ang^3
#
#
#
# Elastic Constant Matrix: (Units=GPa)
#
#
# Indices 1 2 3 4 5 6 
#
# 1 64.9145 19.4502 16.8847 0.0000 0.0000 0.0000
# 2 19.4502 70.6556 28.0839 0.0000 0.0000 0.0000
# 3 16.8847 28.0839 89.7498 0.0000 0.0000 0.0000
# 4 0.0000 0.0000 0.0000 11.4808 0.0000 0.0000
# 5 0.0000 0.0000 0.0000 0.0000 14.9022 0.0000
# 6 0.0000 0.0000 0.0000 0.0000 0.0000 28.5623
#
#
#
# Elastic Compliance Matrix: (Units=1/GPa)
#
#
# Indices 1 2 3 4 5 6 
#
# 1 0.017096 -0.003915 -0.001991 0.000000 0.000000 0.000000
# 2 -0.003915 0.017060 -0.004602 0.000000 0.000000 0.000000
# 3 -0.001991 -0.004602 0.012957 0.000000 0.000000 0.000000
# 4 0.000000 0.000000 0.000000 0.087102 0.000000 0.000000
# 5 0.000000 0.000000 0.000000 0.000000 0.067104 0.000000
# 6 0.000000 0.000000 0.000000 0.000000 0.000000 0.035011
#
#
# Mechanical properties :
#
#
# Convention : Reuss Voigt Hill
#
# Bulk Modulus (GPa) = 38.31882 39.35084 38.83483
# Shear Modulus (GPa) = 18.79388 21.71579 20.25484
#
# Velocity S-wave (km/s) = 3.19281 3.43204 3.31458
# Velocity P-wave (km/s) = 5.86316 6.08684 5.97604
#
# Compressibility (1/GPa) = 0.02609683
#
# Stress axis : x y z
#
# Youngs Moduli (GPa) = 58.49403 58.61695 77.18030
#
# Poissons Ratio (x) = 0.22947 0.15369
# Poissons Ratio (y) = 0.22898 0.35517
# Poissons Ratio (z) = 0.11648 0.26974
#
# Static dielectric constant tensor:
#      x y z
#    x 1.642250 0.000000 0.000000 
#    y 0.000000 1.623790 0.000000 
#    z 0.000000 0.000000 1.676140 
# 
# From -- ./inp_files/3426.got.cif
#   From: 2010.05.17/outbox.cif.g08.bks.cpg/sg34_2_cif.got.tgz:3426.got - 2010.06.03 17:23:11.
