data_PCOD9347784
_publ_section_title
;
Structure prediction by ZEFSAII (Michael W. Deem and Ramdas Pophale) SiO2 
 PCOD9347784
Probable space group: P N N 2
;
_chemical_formula_sum "Si O2"
_cell_formula_units_Z 24
_cell_length_a 7.306765
_cell_length_b 9.980870
_cell_length_c 11.935653
_cell_angle_alpha 90.000000
_cell_angle_beta 90.000000
_cell_angle_gamma 90.000000
_cell_volume 870.441769
_symmetry_space_group_name_H-M "P N N 2"
_symmetry_group_IT_number 34
_symmetry_cell_setting 'orthorhombic'
loop_
_space_group_symop_operation_xyz
x,y,z
-x,-y,z
1/2-x,1/2+y,1/2+z
1/2+x,1/2-y,1/2+z
loop_
_atom_site_type_symbol
_atom_site_label
_atom_site_fract_x
_atom_site_fract_y
_atom_site_fract_z
Si Si1 0.708238 0.047211 0.260240
Si Si2 0.784372 0.468316 0.121655
Si Si3 0.285408 0.248711 0.065520
Si Si4 0.731814 0.264300 0.809917
Si Si5 0.836238 0.330721 0.334687
Si Si6 0.355247 0.316411 0.543726
O O1 0.729256 0.190496 0.320640
O O2 0.786132 0.074385 0.134079
O O3 0.500000 0.000000 0.262456
O O4 0.805066 0.923498 0.324611
O O5 0.689839 0.590839 0.058951
O O6 0.752587 0.445274 0.255573
O O7 0.750349 0.320741 0.075617
O O8 0.000000 0.500000 0.103620
O O9 0.342585 0.231912 0.193908
O O10 0.071405 0.206917 0.058055
O O11 0.370443 0.159592 0.967371
O O12 0.536551 0.197672 0.785406
O O13 0.820133 0.182352 0.911178
#
# Coordination Sequence:
#
# PCOD9347784 Si02
#       6
#     4   4   4   4   4   4
#     4  11  24  44  70 100 139 190 240 294 367 428
#     4   9  18  43  68  94 133 181 226 280 357 416
#     4  11  23  43  70  98 143 188 224 296 368 417
#     4  12  24  42  68 105 140 177 243 294 355 434
#     4  11  23  42  74 101 139 183 238 298 362 429
#     4  10  23  43  69  98 138 183 239 291 353 437
#
# _framework density 27.572206000000001
#
# number of rings (size 3 to 8) (size 9 to 14) (size 15 to 20)
#    0.000    1.333    5.000    2.500    2.333    2.667 
#    0.000    0.000    0.000    0.000    0.000    0.000 
#    0.000    0.000    0.000    0.000    0.000    0.000 
#
# Total GULP energy -134234.050463 kJ/mol
# GULP energy per Si atom -5593.085436 kJ/mol
# Density = 2.750945 g / cm^3
# Si number density = 27.572206 Si / 1000 Ang^3
#
#
#
# Elastic Constant Matrix: (Units=GPa)
#
#
# Indices 1 2 3 4 5 6 
#
# 1 50.9842 16.1832 -4.3136 0.0000 0.0000 0.0000
# 2 16.1832 71.4141 5.5437 0.0000 0.0000 0.0000
# 3 -4.3136 5.5437 173.7771 0.0000 0.0000 0.0000
# 4 0.0000 0.0000 0.0000 53.8538 0.0000 0.0000
# 5 0.0000 0.0000 0.0000 0.0000 31.2006 0.0000
# 6 0.0000 0.0000 0.0000 0.0000 0.0000 35.3450
#
#
#
# Elastic Compliance Matrix: (Units=1/GPa)
#
#
# Indices 1 2 3 4 5 6 
#
# 1 0.021214 -0.004860 0.000682 0.000000 0.000000 0.000000
# 2 -0.004860 0.015151 -0.000604 0.000000 0.000000 0.000000
# 3 0.000682 -0.000604 0.005791 0.000000 0.000000 0.000000
# 4 0.000000 0.000000 0.000000 0.018569 0.000000 0.000000
# 5 0.000000 0.000000 0.000000 0.000000 0.032051 0.000000
# 6 0.000000 0.000000 0.000000 0.000000 0.000000 0.028293
#
#
# Mechanical properties :
#
#
# Convention : Reuss Voigt Hill
#
# Bulk Modulus (GPa) = 30.68345 36.77798 33.73071
# Shear Modulus (GPa) = 35.33642 42.66402 39.00022
#
# Velocity S-wave (km/s) = 3.58382 3.93791 3.76503
# Velocity P-wave (km/s) = 5.31767 5.83472 5.58218
#
# Compressibility (1/GPa) = 0.03259086
#
# Stress axis : x y z
#
# Youngs Moduli (GPa) = 47.13797 66.00172 172.69110
#
# Poissons Ratio (x) = 0.32079 -0.11771
# Poissons Ratio (y) = 0.22910 0.10430
# Poissons Ratio (z) = -0.03213 0.03986
#
# Static dielectric constant tensor:
#      x y z
#    x 2.138420 0.000000 0.000000 
#    y 0.000000 2.277490 0.000000 
#    z 0.000000 0.000000 2.291800 
# 
# From -- ./inp_files/4927.got.cif
#   From: 2010.05.17/outbox.cif.g08.bks.cpg/sg34_3_cif.got.tgz:4927.got - 2010.06.03 17:23:11.
