data_PCOD9347841
_publ_section_title
;
Structure prediction by ZEFSAII (Michael W. Deem and Ramdas Pophale) SiO2 
 PCOD9347841
Probable space group: P N N 2
;
_chemical_formula_sum "Si O2"
_cell_formula_units_Z 20
_cell_length_a 13.610782
_cell_length_b 6.827142
_cell_length_c 9.714269
_cell_angle_alpha 90.000000
_cell_angle_beta 90.000000
_cell_angle_gamma 90.000000
_cell_volume 902.676507
_symmetry_space_group_name_H-M "P N N 2"
_symmetry_group_IT_number 34
_symmetry_cell_setting 'orthorhombic'
loop_
_space_group_symop_operation_xyz
x,y,z
-x,-y,z
1/2-x,1/2+y,1/2+z
1/2+x,1/2-y,1/2+z
loop_
_atom_site_type_symbol
_atom_site_label
_atom_site_fract_x
_atom_site_fract_y
_atom_site_fract_z
Si Si1 0.604534 0.572147 0.480450
Si Si2 0.432979 0.174594 0.218017
Si Si3 0.432979 0.325406 0.932015
Si Si4 0.104534 0.572147 0.169582
Si Si5 0.753078 0.750000 0.075016
O O1 0.500000 0.500000 0.538776
O O2 0.582011 0.658226 0.330384
O O3 0.641375 0.750000 0.575016
O O4 0.679509 0.392909 0.485974
O O5 0.322411 0.123436 0.168197
O O6 0.500000 0.000000 0.272168
O O7 0.480933 0.250000 0.075016
O O8 0.500000 0.500000 0.877864
O O9 0.417989 0.158226 0.819648
O O10 0.322411 0.376564 0.981835
O O11 0.179509 0.392909 0.164058
O O12 0.000000 0.500000 0.111256
#
# Coordination Sequence:
#
# PCOD9347841 Si02
#       5
#     4   4   4   4   4
#     4  12  24  45  72 102 143 187 239 290 354 420
#     4  10  24  46  71 103 143 184 237 295 352 419
#     4  10  24  46  71 103 143 184 237 295 352 419
#     4  12  24  45  72 102 143 187 239 290 354 420
#     4  10  26  46  72 106 138 192 232 296 346 436
#
# _framework density 22.156331000000002
#
# number of rings (size 3 to 8) (size 9 to 14) (size 15 to 20)
#    1.200    0.000    2.000    3.600    0.000    3.200 
#    0.000    0.000    0.000    0.000    0.000    0.000 
#    0.000    0.000    0.000    0.000    0.000    0.000 
#
# Total GULP energy -111630.060338 kJ/mol
# GULP energy per Si atom -5581.503017 kJ/mol
# Density = 2.210590 g / cm^3
# Si number density = 22.156331 Si / 1000 Ang^3
#
#
#
# Elastic Constant Matrix: (Units=GPa)
#
#
# Indices 1 2 3 4 5 6 
#
# 1 135.7875 65.8562 13.4662 0.0000 0.0000 0.0000
# 2 65.8562 98.6128 51.8479 0.0000 0.0000 0.0000
# 3 13.4662 51.8479 122.8631 0.0000 0.0000 0.0000
# 4 0.0000 0.0000 0.0000 30.1691 0.0000 0.0000
# 5 0.0000 0.0000 0.0000 0.0000 -10.0115 0.0000
# 6 0.0000 0.0000 0.0000 0.0000 0.0000 47.0602
#
#
#
# Elastic Compliance Matrix: (Units=1/GPa)
#
#
# Indices 1 2 3 4 5 6 
#
# 1 0.011478 -0.009001 0.002540 0.000000 0.000000 0.000000
# 2 -0.009001 0.020091 -0.007492 0.000000 0.000000 0.000000
# 3 0.002540 -0.007492 0.011022 0.000000 0.000000 0.000000
# 4 0.000000 0.000000 0.000000 0.033146 0.000000 0.000000
# 5 0.000000 0.000000 0.000000 0.000000 -0.099885 0.000000
# 6 0.000000 0.000000 0.000000 0.000000 0.000000 0.021249
#
#
# Mechanical properties :
#
#
# Convention : Reuss Voigt Hill
#
# Bulk Modulus (GPa) = 68.09084 68.84490 68.46787
# Shear Modulus (GPa) = 167.21968 28.51646 97.86807
#
# Velocity S-wave (km/s) = 8.69692 3.59145 6.65338
# Velocity P-wave (km/s) = 11.47377 6.95254 9.48644
#
# Compressibility (1/GPa) = 0.01468626
#
# Stress axis : x y z
#
# Youngs Moduli (GPa) = 87.12399 49.77455 90.72631
#
# Poissons Ratio (x) = 0.44801 -0.23047
# Poissons Ratio (y) = 0.78419 0.67969
# Poissons Ratio (z) = -0.22132 0.37289
#
# Static dielectric constant tensor:
#      x y z
#    x 1.818040 0.000000 0.000000 
#    y 0.000000 1.500940 0.000000 
#    z 0.000000 0.000000 1.849530 
# 
# From -- ./inp_files/5541.got.cif
#   From: 2010.05.17/outbox.cif.g08.bks.cpg/sg34_3_cif.got.tgz:5541.got - 2010.06.03 17:23:11.
