data_PCOD9347311
_publ_section_title
;
Structure prediction by ZEFSAII (Michael W. Deem and Ramdas Pophale) SiO2 
 PCOD9347311
Probable space group: P N N 2
;
_chemical_formula_sum "Si O2"
_cell_formula_units_Z 24
_cell_length_a 14.743439
_cell_length_b 6.424406
_cell_length_c 11.679489
_cell_angle_alpha 90.000000
_cell_angle_beta 90.000000
_cell_angle_gamma 90.000000
_cell_volume 1106.255947
_symmetry_space_group_name_H-M "P N N 2"
_symmetry_group_IT_number 34
_symmetry_cell_setting 'orthorhombic'
loop_
_space_group_symop_operation_xyz
x,y,z
-x,-y,z
1/2-x,1/2+y,1/2+z
1/2+x,1/2-y,1/2+z
loop_
_atom_site_type_symbol
_atom_site_label
_atom_site_fract_x
_atom_site_fract_y
_atom_site_fract_z
Si Si1 0.691423 0.178528 0.102960
Si Si2 0.149708 0.110218 0.173698
Si Si3 0.669652 0.016489 0.501544
Si Si4 0.915297 0.128028 0.972303
Si Si5 0.281481 0.643278 0.329102
Si Si6 0.600927 0.091016 0.865128
O O1 0.760795 0.347127 0.049743
O O2 0.661632 0.303766 0.215834
O O3 0.748324 0.980962 0.154404
O O4 0.624360 0.115745 0.000731
O O5 0.139957 0.315372 0.094875
O O6 0.118610 0.190860 0.297332
O O7 0.093514 0.932713 0.106958
O O8 0.587613 0.873164 0.458722
O O9 0.717032 0.149166 0.403764
O O10 0.830487 0.032424 0.903763
O O11 0.000000 0.000000 0.927618
O O12 0.178548 0.564526 0.314336
O O13 0.500000 0.000000 0.848780
#
# Coordination Sequence:
#
# PCOD9347311 Si02
#       6
#     4   4   4   4   4   4
#     4  11  22  43  67  92 133 181 223 274 357 415
#     4  10  22  39  70  95 131 179 225 281 346 402
#     4  10  19  40  70  90 130 171 234 272 344 404
#     4  10  23  41  68 103 128 173 243 284 341 415
#     4  11  23  42  67  94 133 190 220 291 351 415
#     4  12  25  43  66 104 141 177 233 292 352 420
#
# _framework density 21.694797999999999
#
# number of rings (size 3 to 8) (size 9 to 14) (size 15 to 20)
#    0.000    1.333    6.667    1.000    2.333    2.000 
#    3.000    2.500    0.000    0.000    0.000    0.000 
#    0.000    0.000    0.000    0.000    0.000    0.000 
#
# Total GULP energy -133794.920383 kJ/mol
# GULP energy per Si atom -5574.788349 kJ/mol
# Density = 2.164542 g / cm^3
# Si number density = 21.694798 Si / 1000 Ang^3
#
#
#
# Elastic Constant Matrix: (Units=GPa)
#
#
# Indices 1 2 3 4 5 6 
#
# 1 78.3436 11.2913 10.7462 0.0000 0.0000 0.0000
# 2 11.2913 91.7592 12.3770 0.0000 0.0000 0.0000
# 3 10.7462 12.3770 111.7547 0.0000 0.0000 0.0000
# 4 0.0000 0.0000 0.0000 33.6761 0.0000 0.0000
# 5 0.0000 0.0000 0.0000 0.0000 14.1793 0.0000
# 6 0.0000 0.0000 0.0000 0.0000 0.0000 21.2342
#
#
#
# Elastic Compliance Matrix: (Units=1/GPa)
#
#
# Indices 1 2 3 4 5 6 
#
# 1 0.013127 -0.001467 -0.001100 0.000000 0.000000 0.000000
# 2 -0.001467 0.011227 -0.001102 0.000000 0.000000 0.000000
# 3 -0.001100 -0.001102 0.009176 0.000000 0.000000 0.000000
# 4 0.000000 0.000000 0.000000 0.029695 0.000000 0.000000
# 5 0.000000 0.000000 0.000000 0.000000 0.070525 0.000000
# 6 0.000000 0.000000 0.000000 0.000000 0.000000 0.047094
#
#
# Mechanical properties :
#
#
# Convention : Reuss Voigt Hill
#
# Bulk Modulus (GPa) = 38.18000 38.96515 38.57258
# Shear Modulus (GPa) = 25.39198 30.31411 27.85305
#
# Velocity S-wave (km/s) = 3.42485 3.74210 3.58698
# Velocity P-wave (km/s) = 5.76857 6.05563 5.91384
#
# Compressibility (1/GPa) = 0.02619172
#
# Stress axis : x y z
#
# Youngs Moduli (GPa) = 76.18141 89.06861 108.97980
#
# Poissons Ratio (x) = 0.13066 0.11985
# Poissons Ratio (y) = 0.11175 0.12014
# Poissons Ratio (z) = 0.08378 0.09819
#
# Static dielectric constant tensor:
#      x y z
#    x 1.867690 0.000000 0.000000 
#    y 0.000000 1.794080 0.000000 
#    z 0.000000 0.000000 1.832600 
# 
# From -- ./inp_files/5736.got.cif
#   From: 2010.05.17/outbox.cif.g08.bks.cpg/sg34_3_cif.got.tgz:5736.got - 2010.06.03 17:23:11.
