data_PCOD9347365
_publ_section_title
;
Structure prediction by ZEFSAII (Michael W. Deem and Ramdas Pophale) SiO2 
 PCOD9347365
Probable space group: P N N 2
;
_chemical_formula_sum "Si O2"
_cell_formula_units_Z 32
_cell_length_a 11.563936
_cell_length_b 8.222034
_cell_length_c 16.448276
_cell_angle_alpha 90.000000
_cell_angle_beta 90.000000
_cell_angle_gamma 90.000000
_cell_volume 1563.886867
_symmetry_space_group_name_H-M "P N N 2"
_symmetry_group_IT_number 34
_symmetry_cell_setting 'orthorhombic'
loop_
_space_group_symop_operation_xyz
x,y,z
-x,-y,z
1/2-x,1/2+y,1/2+z
1/2+x,1/2-y,1/2+z
loop_
_atom_site_type_symbol
_atom_site_label
_atom_site_fract_x
_atom_site_fract_y
_atom_site_fract_z
Si Si1 0.734122 0.081756 0.099580
Si Si2 0.583186 0.761457 0.496897
Si Si3 0.775659 0.155874 0.850004
Si Si4 0.664873 0.878094 0.938964
Si Si5 0.200086 0.745468 0.667264
Si Si6 0.329197 0.874596 0.519531
Si Si7 0.456668 0.673904 0.112914
Si Si8 0.555037 0.331740 0.921181
O O1 0.651225 0.217179 0.139648
O O2 0.755887 0.932234 0.159292
O O3 0.849854 0.162408 0.065945
O O4 0.676117 0.000685 0.017193
O O5 0.616949 0.683920 0.410553
O O6 0.447769 0.773198 0.513713
O O7 0.636753 0.943186 0.497156
O O8 0.805967 0.190902 0.757792
O O9 0.672579 0.277371 0.878497
O O10 0.725008 0.977063 0.866902
O O11 0.538151 0.814225 0.917410
O O12 0.736569 0.716639 0.963123
O O13 0.272750 0.864439 0.608825
O O14 0.072760 0.724756 0.628287
O O15 0.500000 0.500000 0.147313
O O16 0.426703 0.643886 0.018108
O O17 0.500000 0.500000 0.889742
#
# Coordination Sequence:
#
# PCOD9347365 Si02
#       8
#     4   4   4   4   4   4   4   4
#     4  10  20  36  65  89 118 165 208 247 304 378
#     4  10  21  41  65  86 121 171 214 245 304 387
#     4  11  24  40  60  95 129 152 207 268 314 356
#     4  10  20  36  65  89 118 165 208 247 304 378
#     4  11  24  40  60  95 129 152 207 268 314 356
#     4  10  21  41  65  86 121 171 214 245 304 387
#     4  11  20  37  66  91 118 161 211 253 303 379
#     4  11  20  37  66  91 118 161 211 253 303 379
#
# _framework density 20.461839000000001
#
# number of rings (size 3 to 8) (size 9 to 14) (size 15 to 20)
#    0.000    1.500    5.000    2.250    0.000    4.500 
#   13.500    2.500    0.000    0.000    0.000    0.000 
#    0.000    0.000    0.000    0.000    0.000    0.000 
#
# Total GULP energy -178675.893912 kJ/mol
# GULP energy per Si atom -5583.621685 kJ/mol
# Density = 2.041527 g / cm^3
# Si number density = 20.461839 Si / 1000 Ang^3
#
#
#
# Elastic Constant Matrix: (Units=GPa)
#
#
# Indices 1 2 3 4 5 6 
#
# 1 60.4728 -28.7238 17.1129 0.0000 0.0000 0.0000
# 2 -28.7238 50.1028 -3.9582 0.0000 0.0000 0.0000
# 3 17.1129 -3.9582 56.7209 0.0000 0.0000 0.0000
# 4 0.0000 0.0000 0.0000 19.5229 0.0000 0.0000
# 5 0.0000 0.0000 0.0000 0.0000 10.9232 0.0000
# 6 0.0000 0.0000 0.0000 0.0000 0.0000 34.9494
#
#
#
# Elastic Compliance Matrix: (Units=1/GPa)
#
#
# Indices 1 2 3 4 5 6 
#
# 1 0.024938 0.013778 -0.006562 0.000000 0.000000 0.000000
# 2 0.013778 0.027682 -0.002225 0.000000 0.000000 0.000000
# 3 -0.006562 -0.002225 0.019455 0.000000 0.000000 0.000000
# 4 0.000000 0.000000 0.000000 0.051222 0.000000 0.000000
# 5 0.000000 0.000000 0.000000 0.000000 0.091548 0.000000
# 6 0.000000 0.000000 0.000000 0.000000 0.000000 0.028613
#
#
# Mechanical properties :
#
#
# Convention : Reuss Voigt Hill
#
# Bulk Modulus (GPa) = 12.18665 15.12868 13.65767
# Shear Modulus (GPa) = 19.16969 25.27015 22.21992
#
# Velocity S-wave (km/s) = 3.06412 3.51805 3.29890
# Velocity P-wave (km/s) = 4.29967 4.88998 4.60430
#
# Compressibility (1/GPa) = 0.08205698
#
# Stress axis : x y z
#
# Youngs Moduli (GPa) = 40.09944 36.12408 51.40123
#
# Poissons Ratio (x) = -0.49773 0.33731
# Poissons Ratio (y) = -0.55251 0.11438
# Poissons Ratio (z) = 0.26315 0.08038
#
# Static dielectric constant tensor:
#      x y z
#    x 1.743430 0.000000 0.000000 
#    y 0.000000 1.806580 0.000000 
#    z 0.000000 0.000000 1.700580 
# 
# From -- ./inp_files/7740.got.cif
#   From: 2010.05.17/outbox.cif.g08.bks.cpg/sg34_4_cif.got.tgz:7740.got - 2010.06.03 17:23:11.
