data_PCOD9347747
_publ_section_title
;
Structure prediction by ZEFSAII (Michael W. Deem and Ramdas Pophale) SiO2 
 PCOD9347747
Probable space group: P N N 2
;
_chemical_formula_sum "Si O2"
_cell_formula_units_Z 18
_cell_length_a 13.417804
_cell_length_b 9.439096
_cell_length_c 4.909921
_cell_angle_alpha 90.000000
_cell_angle_beta 90.000000
_cell_angle_gamma 90.000000
_cell_volume 621.851020
_symmetry_space_group_name_H-M "P N N 2"
_symmetry_group_IT_number 34
_symmetry_cell_setting 'orthorhombic'
loop_
_space_group_symop_operation_xyz
x,y,z
-x,-y,z
1/2-x,1/2+y,1/2+z
1/2+x,1/2-y,1/2+z
loop_
_atom_site_type_symbol
_atom_site_label
_atom_site_fract_x
_atom_site_fract_y
_atom_site_fract_z
Si Si1 0.699517 0.405325 0.490410
Si Si2 0.000507 0.823396 0.207801
Si Si3 0.665292 0.177128 0.063341
Si Si4 0.120178 0.751377 0.672985
Si Si5 0.000000 0.500000 0.674916
O O1 0.582311 0.217246 0.841907
O O2 0.700422 0.322341 0.204834
O O3 0.584262 0.424203 0.571627
O O4 0.764952 0.292611 0.667992
O O5 0.073373 0.864536 0.464375
O O6 0.074172 0.609589 0.532724
O O7 0.070995 0.764474 0.967651
O O8 0.748331 0.058791 0.997106
O O9 0.589817 0.099301 0.289425
#
# Coordination Sequence:
#
# PCOD9347747 Si02
#       5
#     4   4   4   4   2
#     4  11  24  46  73 112 151 205 260 340 397 489
#     4  11  22  45  68 107 143 196 255 322 389 486
#     4  10  23  43  72 110 152 203 267 330 403 484
#     4  10  23  38  70 102 142 189 252 318 396 466
#     4   8  16  40  60 102 130 186 246 314 368 474
#
# _framework density 28.945837999999998
#
# number of rings (size 3 to 8) (size 9 to 14) (size 15 to 20)
#    0.000    1.778    4.444    0.000    3.111    7.111 
#    0.000    1.111    0.000    0.000    0.000    0.000 
#    0.000    0.000    0.000    0.000    0.000    0.000 
#
# Total GULP energy -100247.191676 kJ/mol
# GULP energy per Si atom -5569.288426 kJ/mol
# Density = 2.887996 g / cm^3
# Si number density = 28.945838 Si / 1000 Ang^3
#
#
#
# Elastic Constant Matrix: (Units=GPa)
#
#
# Indices 1 2 3 4 5 6 
#
# 1 223.3955 48.3823 62.7249 0.0000 0.0000 0.0000
# 2 48.3823 117.0707 37.1842 0.0000 0.0000 0.0000
# 3 62.7249 37.1842 200.4683 0.0000 0.0000 0.0000
# 4 0.0000 0.0000 0.0000 43.4408 0.0000 0.0000
# 5 0.0000 0.0000 0.0000 0.0000 38.6418 0.0000
# 6 0.0000 0.0000 0.0000 0.0000 0.0000 50.4858
#
#
#
# Elastic Compliance Matrix: (Units=1/GPa)
#
#
# Indices 1 2 3 4 5 6 
#
# 1 0.005222 -0.001742 -0.001311 0.000000 0.000000 0.000000
# 2 -0.001742 0.009657 -0.001246 0.000000 0.000000 0.000000
# 3 -0.001311 -0.001246 0.005630 0.000000 0.000000 0.000000
# 4 0.000000 0.000000 0.000000 0.023020 0.000000 0.000000
# 5 0.000000 0.000000 0.000000 0.000000 0.025879 0.000000
# 6 0.000000 0.000000 0.000000 0.000000 0.000000 0.019808
#
#
# Mechanical properties :
#
#
# Convention : Reuss Voigt Hill
#
# Bulk Modulus (GPa) = 83.95471 93.05747 88.50609
# Shear Modulus (GPa) = 49.12423 52.68988 50.90706
#
# Velocity S-wave (km/s) = 4.12407 4.27112 4.19824
# Velocity P-wave (km/s) = 7.19335 7.51943 7.35820
#
# Compressibility (1/GPa) = 0.01191118
#
# Stress axis : x y z
#
# Youngs Moduli (GPa) = 191.51247 103.54652 177.63158
#
# Poissons Ratio (x) = 0.18034 0.23283
# Poissons Ratio (y) = 0.33354 0.22140
# Poissons Ratio (z) = 0.25102 0.12906
#
# Static dielectric constant tensor:
#      x y z
#    x 2.328360 0.000000 0.000000 
#    y 0.000000 2.729460 0.000000 
#    z 0.000000 0.000000 2.480160 
# 
# From -- ./inp_files/789.got.cif
#   From: 2010.05.17/outbox.cif.g08.bks.cpg/sg34_1_cif.got.tgz:789.got - 2010.06.03 17:23:11.
