data_PCOD9347631
_publ_section_title
;
Structure prediction by ZEFSAII (Michael W. Deem and Ramdas Pophale) SiO2 
 PCOD9347631
Probable space group: P N N 2
;
_chemical_formula_sum "Si O2"
_cell_formula_units_Z 24
_cell_length_a 5.144280
_cell_length_b 24.865159
_cell_length_c 8.695879
_cell_angle_alpha 90.000000
_cell_angle_beta 90.000000
_cell_angle_gamma 90.000000
_cell_volume 1112.318928
_symmetry_space_group_name_H-M "P N N 2"
_symmetry_group_IT_number 34
_symmetry_cell_setting 'orthorhombic'
loop_
_space_group_symop_operation_xyz
x,y,z
-x,-y,z
1/2-x,1/2+y,1/2+z
1/2+x,1/2-y,1/2+z
loop_
_atom_site_type_symbol
_atom_site_label
_atom_site_fract_x
_atom_site_fract_y
_atom_site_fract_z
Si Si1 0.276957 0.897938 0.345450
Si Si2 0.178020 0.329123 0.570099
Si Si3 0.753489 0.533782 0.109323
Si Si4 0.227469 0.164099 0.471952
Si Si5 0.651265 0.653936 0.223255
Si Si6 0.674296 0.269103 0.687711
O O1 0.320157 0.884772 0.167588
O O2 0.270304 0.955768 0.424757
O O3 0.513667 0.867298 0.429422
O O4 0.006828 0.870161 0.394100
O O5 0.289315 0.339890 0.402217
O O6 0.387886 0.290089 0.651397
O O7 0.893687 0.302128 0.591903
O O8 0.500000 0.500000 0.145589
O O9 0.731533 0.593334 0.180615
O O10 0.000000 0.500000 0.160851
O O11 0.230408 0.218193 0.368697
O O12 0.137271 0.163517 0.649866
O O13 0.797507 0.706251 0.152761
#
# Coordination Sequence:
#
# PCOD9347631 Si02
#       6
#     4   4   4   4   4   4
#     4   9  19  40  60  81 115 154 197 247 300 364
#     4  10  23  39  62  95 125 156 197 246 309 376
#     4  11  24  41  61  85 114 159 212 256 301 355
#     4   9  19  35  58  85 118 156 192 234 297 371
#     4  11  23  39  63  91 124 160 202 259 304 354
#     4  10  22  38  58  91 130 163 192 232 305 388
#
# _framework density 21.576549
#
# number of rings (size 3 to 8) (size 9 to 14) (size 15 to 20)
#    0.000    2.000    0.000    3.000    0.000   16.000 
#    0.000    1.667    0.000    0.000    0.000    0.000 
#    0.000    0.000    0.000    0.000    0.000    0.000 
#
# Total GULP energy -133893.558195 kJ/mol
# GULP energy per Si atom -5578.898258 kJ/mol
# Density = 2.152744 g / cm^3
# Si number density = 21.576549 Si / 1000 Ang^3
#
#
#
# Elastic Constant Matrix: (Units=GPa)
#
#
# Indices 1 2 3 4 5 6 
#
# 1 91.4137 20.7407 4.1738 0.0000 0.0000 0.0000
# 2 20.7407 101.6447 15.4671 0.0000 0.0000 0.0000
# 3 4.1738 15.4671 113.5159 0.0000 0.0000 0.0000
# 4 0.0000 0.0000 0.0000 38.7003 0.0000 0.0000
# 5 0.0000 0.0000 0.0000 0.0000 22.6622 0.0000
# 6 0.0000 0.0000 0.0000 0.0000 0.0000 25.4613
#
#
#
# Elastic Compliance Matrix: (Units=1/GPa)
#
#
# Indices 1 2 3 4 5 6 
#
# 1 0.011472 -0.002325 -0.000105 0.000000 0.000000 0.000000
# 2 -0.002325 0.010518 -0.001348 0.000000 0.000000 0.000000
# 3 -0.000105 -0.001348 0.008997 0.000000 0.000000 0.000000
# 4 0.000000 0.000000 0.000000 0.025840 0.000000 0.000000
# 5 0.000000 0.000000 0.000000 0.000000 0.044126 0.000000
# 6 0.000000 0.000000 0.000000 0.000000 0.000000 0.039275
#
#
# Mechanical properties :
#
#
# Convention : Reuss Voigt Hill
#
# Bulk Modulus (GPa) = 42.67823 43.03749 42.85786
# Shear Modulus (GPa) = 32.13521 35.11093 33.62307
#
# Velocity S-wave (km/s) = 3.86341 4.03832 3.95183
# Velocity P-wave (km/s) = 6.30270 6.46017 6.38192
#
# Compressibility (1/GPa) = 0.02343115
#
# Stress axis : x y z
#
# Youngs Moduli (GPa) = 87.17220 95.07843 111.15046
#
# Poissons Ratio (x) = 0.22104 0.01167
# Poissons Ratio (y) = 0.20266 0.14979
# Poissons Ratio (z) = 0.00916 0.12813
#
# Static dielectric constant tensor:
#      x y z
#    x 1.789350 0.000000 0.000000 
#    y 0.000000 1.787520 0.000000 
#    z 0.000000 0.000000 1.878390 
# 
# From -- ./inp_files/2104.got.cif
#   From: 2010.05.17/outbox.cif.g08.bks.cpg/sg34_2_cif.got.tgz:2104.got - 2010.06.03 17:23:11.
