data_PCOD9347992
_publ_section_title
;
Structure prediction by ZEFSAII (Michael W. Deem and Ramdas Pophale) SiO2 
 PCOD9347992
Probable space group: P N N 2
;
_chemical_formula_sum "Si O2"
_cell_formula_units_Z 14
_cell_length_a 5.385801
_cell_length_b 5.380879
_cell_length_c 19.255674
_cell_angle_alpha 90.000000
_cell_angle_beta 90.000000
_cell_angle_gamma 90.000000
_cell_volume 558.036047
_symmetry_space_group_name_H-M "P N N 2"
_symmetry_group_IT_number 34
_symmetry_cell_setting 'orthorhombic'
loop_
_space_group_symop_operation_xyz
x,y,z
-x,-y,z
1/2-x,1/2+y,1/2+z
1/2+x,1/2-y,1/2+z
loop_
_atom_site_type_symbol
_atom_site_label
_atom_site_fract_x
_atom_site_fract_y
_atom_site_fract_z
Si Si1 0.158861 0.245312 0.279360
Si Si2 0.754801 0.358732 0.471931
Si Si3 0.500000 0.000000 0.380520
Si Si4 0.751270 0.160798 0.622624
O O1 0.393913 0.213092 0.329660
O O2 0.238106 0.221094 0.198763
O O3 0.000000 0.500000 0.286175
O O4 0.000000 0.000000 0.294855
O O5 0.500000 0.500000 0.457729
O O6 0.713235 0.100952 0.431869
O O7 0.765806 0.329983 0.554923
O O8 0.000000 0.500000 0.448185
O O9 0.500000 0.000000 0.614954
O O10 0.000000 0.000000 0.621225
#
# Coordination Sequence:
#
# PCOD9347992 Si02
#       4
#     4   4   2   4
#     4  11  30  52  85 120 169 219 283 347 430 506
#     4  12  29  50  84 118 165 220 282 345 429 504
#     4  12  32  50  78 126 176 224 276 364 418 524
#     4  11  25  51  83 119 159 215 283 350 417 508
#
# _framework density 25.087980999999999
#
# number of rings (size 3 to 8) (size 9 to 14) (size 15 to 20)
#    0.000    0.571    1.429    2.571   18.000    0.000 
#    0.000    0.000    0.000    0.000    0.000    0.000 
#    0.000    0.000    0.000    0.000    0.000    0.000 
#
# Total GULP energy -78513.391586 kJ/mol
# GULP energy per Si atom -5608.099399 kJ/mol
# Density = 2.503088 g / cm^3
# Si number density = 25.087981 Si / 1000 Ang^3
#
#
#
# Elastic Constant Matrix: (Units=GPa)
#
#
# Indices 1 2 3 4 5 6 
#
# 1 173.3860 52.6201 41.7987 0.0000 0.0000 0.0000
# 2 52.6201 104.7986 43.4175 0.0000 0.0000 0.0000
# 3 41.7987 43.4175 200.7119 0.0000 0.0000 0.0000
# 4 0.0000 0.0000 0.0000 3.4393 0.0000 0.0000
# 5 0.0000 0.0000 0.0000 0.0000 46.4219 0.0000
# 6 0.0000 0.0000 0.0000 0.0000 0.0000 52.9920
#
#
#
# Elastic Compliance Matrix: (Units=1/GPa)
#
#
# Indices 1 2 3 4 5 6 
#
# 1 0.006907 -0.003155 -0.000756 0.000000 0.000000 0.000000
# 2 -0.003155 0.011923 -0.001922 0.000000 0.000000 0.000000
# 3 -0.000756 -0.001922 0.005555 0.000000 0.000000 0.000000
# 4 0.000000 0.000000 0.000000 0.290756 0.000000 0.000000
# 5 0.000000 0.000000 0.000000 0.000000 0.021542 0.000000
# 6 0.000000 0.000000 0.000000 0.000000 0.000000 0.018871
#
#
# Mechanical properties :
#
#
# Convention : Reuss Voigt Hill
#
# Bulk Modulus (GPa) = 78.62073 83.84100 81.23087
# Shear Modulus (GPa) = 13.46043 43.30800 28.38422
#
# Velocity S-wave (km/s) = 2.31882 4.15932 3.36726
# Velocity P-wave (km/s) = 6.21090 7.52050 6.89685
#
# Compressibility (1/GPa) = 0.01271929
#
# Stress axis : x y z
#
# Youngs Moduli (GPa) = 144.77635 83.87488 180.00295
#
# Poissons Ratio (x) = 0.26462 0.13608
# Poissons Ratio (y) = 0.45676 0.34597
# Poissons Ratio (z) = 0.10945 0.16121
#
# Static dielectric constant tensor:
#      x y z
#    x 1.001410 0.000000 0.000000 
#    y 0.000000 2.453100 0.000000 
#    z 0.000000 0.000000 1.967890 
# 
# From -- ./inp_files/7012.got.cif
#   From: 2010.05.17/outbox.cif.g08.bks.cpg/sg34_4_cif.got.tgz:7012.got - 2010.06.03 17:23:11.
