data_PCOD9347491
_publ_section_title
;
Structure prediction by ZEFSAII (Michael W. Deem and Ramdas Pophale) SiO2 
 PCOD9347491
Probable space group: P N N 2
;
_chemical_formula_sum "Si O2"
_cell_formula_units_Z 20
_cell_length_a 18.900705
_cell_length_b 6.800322
_cell_length_c 5.665118
_cell_angle_alpha 90.000000
_cell_angle_beta 90.000000
_cell_angle_gamma 90.000000
_cell_volume 728.142602
_symmetry_space_group_name_H-M "P N N 2"
_symmetry_group_IT_number 34
_symmetry_cell_setting 'orthorhombic'
loop_
_space_group_symop_operation_xyz
x,y,z
-x,-y,z
1/2-x,1/2+y,1/2+z
1/2+x,1/2-y,1/2+z
loop_
_atom_site_type_symbol
_atom_site_label
_atom_site_fract_x
_atom_site_fract_y
_atom_site_fract_z
Si Si1 0.134820 0.238130 0.801850
Si Si2 0.501249 0.263255 0.051004
Si Si3 0.289914 0.136588 0.801850
Si Si4 0.498751 0.736745 0.552697
Si Si5 0.683573 0.695959 0.301850
O O1 0.084198 0.292677 0.583185
O O2 0.084198 0.292677 0.020515
O O3 0.136252 0.999310 0.801850
O O4 0.217809 0.275637 0.801850
O O5 0.500000 0.500000 0.045579
O O6 0.472157 0.194906 0.801850
O O7 0.468687 0.198750 0.301850
O O8 0.323987 0.190898 0.054034
O O9 0.323987 0.190899 0.549666
O O10 0.260881 0.913485 0.801850
O O11 0.500000 0.500000 0.558121
#
# Coordination Sequence:
#
# PCOD9347491 Si02
#       5
#     4   4   4   4   4
#     4   8  19  26  50  58 104 116 161 178 258 254
#     4   8  14  24  40  64  90 112 144 191 245 279
#     4  10  21  32  48  68  96 132 163 196 230 278
#     4   8  14  24  40  64  90 112 144 191 245 279
#     4  10  21  32  48  68  96 132 163 196 230 278
#
# _framework density 27.467146
#
# number of rings (size 3 to 8) (size 9 to 14) (size 15 to 20)
#    2.400    0.800    0.000    1.200    5.600    0.000 
#    0.000    0.000    0.000    0.000    0.000    0.000 
#    0.000   38.400    0.000    0.000    0.000    0.000 
#
# Total GULP energy -111410.617316 kJ/mol
# GULP energy per Si atom -5570.530866 kJ/mol
# Density = 2.740463 g / cm^3
# Si number density = 27.467146 Si / 1000 Ang^3
#
#
#
# Elastic Constant Matrix: (Units=GPa)
#
#
# Indices 1 2 3 4 5 6 
#
# 1 95.0452 -7.5186 74.6023 0.0000 0.0000 0.0000
# 2 -7.5186 138.2603 38.1743 0.0000 0.0000 0.0000
# 3 74.6023 38.1743 321.4517 0.0000 0.0000 0.0000
# 4 0.0000 0.0000 0.0000 -0.8356 0.0000 0.0000
# 5 0.0000 0.0000 0.0000 0.0000 38.6844 0.0000
# 6 0.0000 0.0000 0.0000 0.0000 0.0000 30.4642
#
#
#
# Elastic Compliance Matrix: (Units=1/GPa)
#
#
# Indices 1 2 3 4 5 6 
#
# 1 0.013206 0.001617 -0.003257 0.000000 0.000000 0.000000
# 2 0.001617 0.007676 -0.001287 0.000000 0.000000 0.000000
# 3 -0.003257 -0.001287 0.004020 0.000000 0.000000 0.000000
# 4 0.000000 0.000000 0.000000 -1.196756 0.000000 0.000000
# 5 0.000000 0.000000 0.000000 0.000000 0.025850 0.000000
# 6 0.000000 0.000000 0.000000 0.000000 0.000000 0.032825
#
#
# Mechanical properties :
#
#
# Convention : Reuss Voigt Hill
#
# Bulk Modulus (GPa) = 52.49802 85.03037 68.76419
# Shear Modulus (GPa) = -4.54142 43.62922 19.54390
#
# Velocity S-wave (km/s) = -1.28724 3.98982 2.67036
# Velocity P-wave (km/s) = 4.11645 7.22836 5.88194
#
# Compressibility (1/GPa) = 0.01904834
#
# Stress axis : x y z
#
# Youngs Moduli (GPa) = 75.72568 130.27601 248.78374
#
# Poissons Ratio (x) = -0.21070 0.81024
# Poissons Ratio (y) = -0.12247 0.32017
# Poissons Ratio (z) = 0.24662 0.16766
#
# Static dielectric constant tensor:
#      x y z
#    x 2.246350 0.000000 0.000000 
#    y 0.000000 2.099360 0.000000 
#    z 0.000000 0.000000 2.095620 
# 
# From -- ./inp_files/1732.got.cif
#   From: 2010.05.17/outbox.cif.g08.bks.cpg/sg34_1_cif.got.tgz:1732.got - 2010.06.03 17:23:11.
