data_PCOD9347059
_publ_section_title
;
Structure prediction by ZEFSAII (Michael W. Deem and Ramdas Pophale) SiO2 
 PCOD9347059
Probable space group: P N A 21
;
_chemical_formula_sum "Si O2"
_cell_formula_units_Z 32
_cell_length_a 15.000000
_cell_length_b 12.000000
_cell_length_c 9.000000
_cell_angle_alpha 90.000000
_cell_angle_beta 90.000000
_cell_angle_gamma 90.000000
_cell_volume 1620.000000
_symmetry_space_group_name_H-M "P N A 21"
_symmetry_group_IT_number 33
_symmetry_cell_setting 'orthorhombic'
loop_
_space_group_symop_operation_xyz
x,y,z
-x,-y,1/2+z
1/2-x,1/2+y,1/2+z
1/2+x,1/2-y,z
loop_
_atom_site_type_symbol
_atom_site_label
_atom_site_fract_x
_atom_site_fract_y
_atom_site_fract_z
Si Si1 0.107704 0.568414 0.649360
Si Si2 0.796534 0.374519 0.663022
Si Si3 0.350174 0.316896 0.230521
Si Si4 0.466757 0.053145 0.481618
Si Si5 0.502595 0.299576 0.481710
Si Si6 0.354028 0.506563 0.981700
Si Si7 0.143191 0.874423 0.176442
Si Si8 0.747760 0.031708 0.434953
O O1 0.150566 0.692753 0.659434
O O2 0.077225 0.537929 0.818094
O O3 0.175332 0.485096 0.565518
O O4 0.021459 0.552520 0.542629
O O5 0.892197 0.417278 0.604901
O O6 0.730911 0.424384 0.539152
O O7 0.798639 0.239975 0.669014
O O8 0.768694 0.430184 0.820074
O O9 0.428830 0.308430 0.351532
O O10 0.263362 0.361594 0.323804
O O11 0.370989 0.412814 0.109365
O O12 0.525881 0.167845 0.476044
O O13 0.573746 0.396239 0.459586
O O14 0.455409 0.329056 0.638939
O O15 0.344125 0.438133 0.829682
O O16 0.165618 0.958154 0.040405
#
# Coordination Sequence:
#
# PCOD9347059 Si02
#       8
#     4   4   4   4   4   4   4   4
#     4  11  21  39  65  88 128 168 210 262 324 377
#     4  10  22  40  59  90 126 159 211 260 308 379
#     4   9  21  39  60  91 124 163 209 266 315 374
#     4  10  22  39  60  92 123 164 210 261 317 378
#     4   9  20  38  59  88 121 160 207 258 314 378
#     4  11  20  36  66  86 123 164 207 256 317 379
#     4  10  21  37  61  90 124 161 202 260 317 362
#     4  10  21  38  62  87 123 167 206 257 314 373
#
# _framework density 19.753086
#
# number of rings (size 3 to 8) (size 9 to 14) (size 15 to 20)
#    0.000    2.000    0.000    3.750    1.750    1.000 
#    0.000    0.000   24.750    0.000    0.000    0.000 
#    0.000    0.000    0.000    0.000    0.000    0.000 
#
# Total GULP energy -178173.943010 kJ/mol
# GULP energy per Si atom -5567.935719 kJ/mol
# Density = 1.970813 g / cm^3
# Si number density = 19.753086 Si / 1000 Ang^3
#
#
#
# Elastic Constant Matrix: (Units=GPa)
#
#
# Indices 1 2 3 4 5 6 
#
# 1 45.3891 44.6112 13.0010 0.0000 0.0000 0.0000
# 2 44.6112 124.1373 47.7677 0.0000 0.0000 0.0000
# 3 13.0010 47.7677 114.0147 0.0000 0.0000 0.0000
# 4 0.0000 0.0000 0.0000 41.2292 0.0000 0.0000
# 5 0.0000 0.0000 0.0000 0.0000 21.1727 0.0000
# 6 0.0000 0.0000 0.0000 0.0000 0.0000 31.1453
#
#
#
# Elastic Compliance Matrix: (Units=1/GPa)
#
#
# Indices 1 2 3 4 5 6 
#
# 1 0.034275 -0.012892 0.001493 0.000000 0.000000 0.000000
# 2 -0.012892 0.014453 -0.004585 0.000000 0.000000 0.000000
# 3 0.001493 -0.004585 0.010522 0.000000 0.000000 0.000000
# 4 0.000000 0.000000 0.000000 0.024255 0.000000 0.000000
# 5 0.000000 0.000000 0.000000 0.000000 0.047231 0.000000
# 6 0.000000 0.000000 0.000000 0.000000 0.000000 0.032108
#
#
# Mechanical properties :
#
#
# Convention : Reuss Voigt Hill
#
# Bulk Modulus (GPa) = 36.65535 54.92231 45.78883
# Shear Modulus (GPa) = 24.52130 30.58685 27.55407
#
# Velocity S-wave (km/s) = 3.52716 3.93932 3.73892
# Velocity P-wave (km/s) = 5.93168 6.96819 6.47073
#
# Compressibility (1/GPa) = 0.02728115
#
# Stress axis : x y z
#
# Youngs Moduli (GPa) = 29.17576 69.19027 95.04278
#
# Poissons Ratio (x) = 0.89199 -0.14188
# Poissons Ratio (y) = 0.37613 0.43579
# Poissons Ratio (z) = -0.04355 0.31725
#
# Static dielectric constant tensor:
#      x y z
#    x 1.778940 0.000000 0.000000 
#    y 0.000000 1.688400 0.000000 
#    z 0.000000 0.000000 1.695410 
# 
# From -- ./inp_files/4374.got.cif
#   From: 2010.05.17/outbox.ucp.g08.bks.cvg/sg33_3_cif.got.tgz:4374.got - 2010.06.11 10:35:07.
