data_PCOD9347989
_publ_section_title
;
Structure prediction by ZEFSAII (Michael W. Deem and Ramdas Pophale) SiO2 
 PCOD9347989
Probable space group: P N N 2
;
_chemical_formula_sum "Si O2"
_cell_formula_units_Z 18
_cell_length_a 12.275595
_cell_length_b 4.975003
_cell_length_c 11.566611
_cell_angle_alpha 90.000000
_cell_angle_beta 90.000000
_cell_angle_gamma 90.000000
_cell_volume 706.385911
_symmetry_space_group_name_H-M "P N N 2"
_symmetry_group_IT_number 34
_symmetry_cell_setting 'orthorhombic'
loop_
_space_group_symop_operation_xyz
x,y,z
-x,-y,z
1/2-x,1/2+y,1/2+z
1/2+x,1/2-y,1/2+z
loop_
_atom_site_type_symbol
_atom_site_label
_atom_site_fract_x
_atom_site_fract_y
_atom_site_fract_z
Si Si1 0.765664 0.623862 0.409520
Si Si2 0.110415 0.883995 0.450920
Si Si3 0.607500 0.382913 0.564917
Si Si4 0.500000 0.000000 0.364230
Si Si5 0.174869 0.817288 0.697860
O O1 0.864855 0.430830 0.443873
O O2 0.672802 0.624366 0.504623
O O3 0.716424 0.485874 0.296617
O O4 0.800524 0.927518 0.391731
O O5 0.117426 0.943348 0.587737
O O6 0.000000 0.000000 0.403920
O O7 0.500000 0.500000 0.625623
O O8 0.561883 0.199368 0.457531
O O9 0.706564 0.271852 0.643175
O O10 0.411696 0.137511 0.273966
#
# Coordination Sequence:
#
# PCOD9347989 Si02
#       5
#     4   4   4   2   4
#     4  11  25  49  71 112 152 200 257 324 383 470
#     4  11  27  47  74 112 154 193 264 318 381 476
#     4  11  26  49  77 111 161 200 272 322 384 479
#     4  12  26  54  78 118 156 214 254 336 392 468
#     4  11  26  45  83 108 154 210 258 313 414 455
#
# _framework density 25.481824
#
# number of rings (size 3 to 8) (size 9 to 14) (size 15 to 20)
#    0.000    0.889    2.222    3.333    9.333    4.444 
#    4.000    0.000    0.000    0.000    0.000    0.000 
#    0.000    0.000    0.000    0.000    0.000    0.000 
#
# Total GULP energy -100217.128613 kJ/mol
# GULP energy per Si atom -5567.618256 kJ/mol
# Density = 2.542383 g / cm^3
# Si number density = 25.481824 Si / 1000 Ang^3
#
#
#
# Elastic Constant Matrix: (Units=GPa)
#
#
# Indices 1 2 3 4 5 6 
#
# 1 204.9653 50.3121 32.0071 0.0000 0.0000 0.0000
# 2 50.3121 83.7982 8.1544 0.0000 0.0000 0.0000
# 3 32.0071 8.1544 107.7578 0.0000 0.0000 0.0000
# 4 0.0000 0.0000 0.0000 5.8159 0.0000 0.0000
# 5 0.0000 0.0000 0.0000 0.0000 35.7082 0.0000
# 6 0.0000 0.0000 0.0000 0.0000 0.0000 33.3656
#
#
#
# Elastic Compliance Matrix: (Units=1/GPa)
#
#
# Indices 1 2 3 4 5 6 
#
# 1 0.005956 -0.003429 -0.001510 0.000000 0.000000 0.000000
# 2 -0.003429 0.013996 -0.000041 0.000000 0.000000 0.000000
# 3 -0.001510 -0.000041 0.009732 0.000000 0.000000 0.000000
# 4 0.000000 0.000000 0.000000 0.171943 0.000000 0.000000
# 5 0.000000 0.000000 0.000000 0.000000 0.028005 0.000000
# 6 0.000000 0.000000 0.000000 0.000000 0.000000 0.029971
#
#
# Mechanical properties :
#
#
# Convention : Reuss Voigt Hill
#
# Bulk Modulus (GPa) = 50.69667 64.16318 57.42992
# Shear Modulus (GPa) = 18.10696 35.38110 26.74403
#
# Velocity S-wave (km/s) = 2.66857 3.73028 3.24316
# Velocity P-wave (km/s) = 5.42526 6.61725 6.05068
#
# Compressibility (1/GPa) = 0.01972516
#
# Stress axis : x y z
#
# Youngs Moduli (GPa) = 167.88649 71.44737 102.75836
#
# Poissons Ratio (x) = 0.24501 0.15514
# Poissons Ratio (y) = 0.57573 0.00417
# Poissons Ratio (z) = 0.25346 0.00290
#
# Static dielectric constant tensor:
#      x y z
#    x 2.140750 0.000000 0.000000 
#    y 0.000000 2.019460 0.000000 
#    z 0.000000 0.000000 2.090580 
# 
# From -- ./inp_files/4305.got.cif
#   From: 2010.05.17/outbox.cif.g08.bks.cpg/sg34_3_cif.got.tgz:4305.got - 2010.06.03 17:23:11.
