data_PCOD9347054
_publ_section_title
;
Structure prediction by ZEFSAII (Michael W. Deem and Ramdas Pophale) SiO2 
 PCOD9347054
Probable space group: P N A 21
;
_chemical_formula_sum "Si O2"
_cell_formula_units_Z 32
_cell_length_a 6.000000
_cell_length_b 30.000000
_cell_length_c 9.000000
_cell_angle_alpha 90.000000
_cell_angle_beta 90.000000
_cell_angle_gamma 90.000000
_cell_volume 1620.000000
_symmetry_space_group_name_H-M "P N A 21"
_symmetry_group_IT_number 33
_symmetry_cell_setting 'orthorhombic'
loop_
_space_group_symop_operation_xyz
x,y,z
-x,-y,1/2+z
1/2-x,1/2+y,1/2+z
1/2+x,1/2-y,z
loop_
_atom_site_type_symbol
_atom_site_label
_atom_site_fract_x
_atom_site_fract_y
_atom_site_fract_z
Si Si1 0.124681 0.472063 0.225590
Si Si2 0.647791 0.438787 0.751050
Si Si3 0.576190 0.730369 0.875649
Si Si4 0.125885 0.061775 0.106750
Si Si5 0.219540 0.928050 0.022411
Si Si6 0.905758 0.864822 0.830647
Si Si7 0.565460 0.760197 0.213855
Si Si8 0.401840 0.139491 0.602686
O O1 0.161253 0.525064 0.212368
O O2 0.368651 0.454371 0.156175
O O3 0.145938 0.457383 0.400199
O O4 0.873836 0.458555 0.163651
O O5 0.424960 0.450379 0.654889
O O6 0.728816 0.390192 0.697913
O O7 0.618439 0.440672 0.928249
O O8 0.828539 0.748055 0.832339
O O9 0.552114 0.679546 0.822748
O O10 0.571767 0.733665 0.055927
O O11 0.144035 0.111761 0.174613
O O12 0.378315 0.890347 0.089939
O O13 0.036318 0.902543 0.922895
O O14 0.693722 0.853964 0.935272
O O15 0.816778 0.750929 0.282041
O O16 0.561529 0.812560 0.174231
#
# Coordination Sequence:
#
# PCOD9347054 Si02
#       8
#     4   4   4   4   4   4   4   4
#     4  11  25  44  67  88 127 172 230 263 322 383
#     4  11  27  39  64  93 133 171 215 270 333 389
#     4  10  18  29  56  91 119 155 202 268 305 370
#     4  11  26  44  65  95 129 174 212 277 325 392
#     4  10  22  40  62  93 123 171 211 278 307 393
#     4  10  20  37  61  92 126 162 215 263 324 376
#     4  10  19  32  56  91 122 154 205 269 311 370
#     4  11  21  37  63  93 127 165 214 268 325 381
#
# _framework density 19.753086
#
# number of rings (size 3 to 8) (size 9 to 14) (size 15 to 20)
#    0.000    1.500    3.750    2.250    7.000    0.000 
#    0.000    0.000    0.000    1.500    0.000    0.000 
#    0.000    0.000    0.000    0.000    0.000    0.000 
#
# Total GULP energy -178171.789729 kJ/mol
# GULP energy per Si atom -5567.868429 kJ/mol
# Density = 1.970813 g / cm^3
# Si number density = 19.753086 Si / 1000 Ang^3
#
#
#
# Elastic Constant Matrix: (Units=GPa)
#
#
# Indices 1 2 3 4 5 6 
#
# 1 124.6725 3.4178 25.1036 0.0000 0.0000 0.0000
# 2 3.4178 62.1517 14.4172 0.0000 0.0000 0.0000
# 3 25.1036 14.4172 90.9692 0.0000 0.0000 0.0000
# 4 0.0000 0.0000 0.0000 16.9267 0.0000 0.0000
# 5 0.0000 0.0000 0.0000 0.0000 23.9226 0.0000
# 6 0.0000 0.0000 0.0000 0.0000 0.0000 40.4562
#
#
#
# Elastic Compliance Matrix: (Units=1/GPa)
#
#
# Indices 1 2 3 4 5 6 
#
# 1 0.008493 0.000080 -0.002356 0.000000 0.000000 0.000000
# 2 0.000080 0.016704 -0.002669 0.000000 0.000000 0.000000
# 3 -0.002356 -0.002669 0.012066 0.000000 0.000000 0.000000
# 4 0.000000 0.000000 0.000000 0.059078 0.000000 0.000000
# 5 0.000000 0.000000 0.000000 0.000000 0.041802 0.000000
# 6 0.000000 0.000000 0.000000 0.000000 0.000000 0.024718
#
#
# Mechanical properties :
#
#
# Convention : Reuss Voigt Hill
#
# Bulk Modulus (GPa) = 36.53441 40.40783 38.47112
# Shear Modulus (GPa) = 27.49097 31.91808 29.70453
#
# Velocity S-wave (km/s) = 3.73464 4.02413 3.88208
# Velocity P-wave (km/s) = 6.09363 6.48786 6.29384
#
# Compressibility (1/GPa) = 0.02737146
#
# Stress axis : x y z
#
# Youngs Moduli (GPa) = 117.73972 59.86414 82.87723
#
# Poissons Ratio (x) = -0.00476 0.19529
# Poissons Ratio (y) = -0.00937 0.22123
# Poissons Ratio (z) = 0.27744 0.15980
#
# Static dielectric constant tensor:
#      x y z
#    x 1.761440 0.000000 0.000000 
#    y 0.000000 1.730430 0.000000 
#    z 0.000000 0.000000 1.685870 
# 
# From -- ./inp_files/2832.got.cif
#   From: 2010.05.17/outbox.ucp.g08.bks.cvg/sg33_2_cif.got.tgz:2832.got - 2010.06.11 10:35:07.
