data_PCOD9347076
_publ_section_title
;
Structure prediction by ZEFSAII (Michael W. Deem and Ramdas Pophale) SiO2 
 PCOD9347076
Probable space group: P N A 21
;
_chemical_formula_sum "Si O2"
_cell_formula_units_Z 28
_cell_length_a 12.000000
_cell_length_b 9.000000
_cell_length_c 12.000000
_cell_angle_alpha 90.000000
_cell_angle_beta 90.000000
_cell_angle_gamma 90.000000
_cell_volume 1296.000000
_symmetry_space_group_name_H-M "P N A 21"
_symmetry_group_IT_number 33
_symmetry_cell_setting 'orthorhombic'
loop_
_space_group_symop_operation_xyz
x,y,z
-x,-y,1/2+z
1/2-x,1/2+y,1/2+z
1/2+x,1/2-y,z
loop_
_atom_site_type_symbol
_atom_site_label
_atom_site_fract_x
_atom_site_fract_y
_atom_site_fract_z
Si Si1 0.293587 0.200503 0.578650
Si Si2 0.643136 0.474705 0.755313
Si Si3 0.853780 0.816646 0.865623
Si Si4 0.677601 0.798145 0.692592
Si Si5 0.039219 0.612775 0.898702
Si Si6 0.176391 0.592459 0.435792
Si Si7 0.605026 0.635765 0.281000
O O1 0.221909 0.103951 0.664185
O O2 0.214053 0.238596 0.473930
O O3 0.389343 0.111310 0.511652
O O4 0.345191 0.329031 0.657495
O O5 0.619519 0.636756 0.701157
O O6 0.712858 0.471036 0.872490
O O7 0.527865 0.385541 0.769772
O O8 0.796833 0.759325 0.751261
O O9 0.980576 0.772771 0.886619
O O10 0.849217 0.990166 0.841883
O O11 0.612652 0.901064 0.785193
O O12 0.685911 0.866463 0.568250
O O13 0.932148 0.508965 0.912122
O O14 0.144147 0.736320 0.363848
#
# Coordination Sequence:
#
# PCOD9347076 Si02
#       7
#     4   4   4   4   4   4   4
#     4  10  25  42  71 100 142 185 235 295 355 423
#     4  11  23  47  67 106 141 180 248 287 358 434
#     4  11  23  44  69 100 140 182 242 284 361 425
#     4  11  25  43  71 101 142 189 229 299 354 426
#     4  11  24  44  69 102 145 184 236 294 359 421
#     4  11  27  43  72 105 142 185 236 299 354 426
#     4  11  25  45  71 104 140 189 236 300 355 429
#
# _framework density 21.604938000000001
#
# number of rings (size 3 to 8) (size 9 to 14) (size 15 to 20)
#    0.000    1.143    2.857    1.714    6.000    6.857 
#    2.571    0.000    0.000    0.000    0.000    0.000 
#    0.000    0.000    0.000    0.000    0.000    0.000 
#
# Total GULP energy -156198.966648 kJ/mol
# GULP energy per Si atom -5578.534523 kJ/mol
# Density = 2.155576 g / cm^3
# Si number density = 21.604938 Si / 1000 Ang^3
#
#
#
# Elastic Constant Matrix: (Units=GPa)
#
#
# Indices 1 2 3 4 5 6 
#
# 1 107.8791 12.6998 56.0719 0.0000 0.0000 0.0000
# 2 12.6998 72.8690 36.1346 0.0000 0.0000 0.0000
# 3 56.0719 36.1346 199.6565 0.0000 0.0000 0.0000
# 4 0.0000 0.0000 0.0000 13.3634 0.0000 0.0000
# 5 0.0000 0.0000 0.0000 0.0000 43.7684 0.0000
# 6 0.0000 0.0000 0.0000 0.0000 0.0000 37.0302
#
#
#
# Elastic Compliance Matrix: (Units=1/GPa)
#
#
# Indices 1 2 3 4 5 6 
#
# 1 0.010866 -0.000418 -0.002976 0.000000 0.000000 0.000000
# 2 -0.000418 0.015092 -0.002614 0.000000 0.000000 0.000000
# 3 -0.002976 -0.002614 0.006317 0.000000 0.000000 0.000000
# 4 0.000000 0.000000 0.000000 0.074831 0.000000 0.000000
# 5 0.000000 0.000000 0.000000 0.000000 0.022848 0.000000
# 6 0.000000 0.000000 0.000000 0.000000 0.000000 0.027005
#
#
# Mechanical properties :
#
#
# Convention : Reuss Voigt Hill
#
# Bulk Modulus (GPa) = 49.35945 65.57969 57.46957
# Shear Modulus (GPa) = 28.45298 37.19895 32.82596
#
# Velocity S-wave (km/s) = 3.63294 4.15394 3.90214
# Velocity P-wave (km/s) = 6.36346 7.30937 6.85275
#
# Compressibility (1/GPa) = 0.02025955
#
# Stress axis : x y z
#
# Youngs Moduli (GPa) = 92.03358 66.25854 158.29160
#
# Poissons Ratio (x) = 0.02770 0.47105
# Poissons Ratio (y) = 0.03847 0.41379
# Poissons Ratio (z) = 0.27388 0.17321
#
# Static dielectric constant tensor:
#      x y z
#    x 1.831560 0.000000 0.000000 
#    y 0.000000 1.913140 0.000000 
#    z 0.000000 0.000000 1.726600 
# 
# From -- ./inp_files/6323.got.cif
#   From: 2010.05.17/outbox.ucp.g08.bks.cvg/sg33_4_cif.got.tgz:6323.got - 2010.06.11 10:35:07.
