data_PCOD9347026
_publ_section_title
;
Structure prediction by ZEFSAII (Michael W. Deem and Ramdas Pophale) SiO2 
 PCOD9347026
Probable space group: P N A 21
;
_chemical_formula_sum "Si O2"
_cell_formula_units_Z 24
_cell_length_a 14.215790
_cell_length_b 4.901763
_cell_length_c 13.566033
_cell_angle_alpha 90.000000
_cell_angle_beta 90.000000
_cell_angle_gamma 90.000000
_cell_volume 945.314192
_symmetry_space_group_name_H-M "P N A 21"
_symmetry_group_IT_number 33
_symmetry_cell_setting 'orthorhombic'
loop_
_space_group_symop_operation_xyz
x,y,z
-x,-y,1/2+z
1/2-x,1/2+y,1/2+z
1/2+x,1/2-y,z
loop_
_atom_site_type_symbol
_atom_site_label
_atom_site_fract_x
_atom_site_fract_y
_atom_site_fract_z
Si Si1 0.240192 0.033199 0.767010
Si Si2 0.583354 0.633384 0.184322
Si Si3 0.728596 0.270134 0.086235
Si Si4 0.439526 0.711442 0.355476
Si Si5 0.289257 0.715090 0.963271
Si Si6 0.994206 0.261862 0.479296
O O1 0.330751 0.196740 0.730178
O O2 0.160091 0.240367 0.802056
O O3 0.208166 0.858273 0.672799
O O4 0.266823 0.831022 0.855702
O O5 0.631873 0.362842 0.138908
O O6 0.510217 0.599756 0.272180
O O7 0.533538 0.786957 0.093232
O O8 0.772303 0.538533 0.039156
O O9 0.727599 0.038799 0.001778
O O10 0.427276 0.469263 0.433875
O O11 0.480915 0.969979 0.412868
O O12 0.399805 0.649392 0.968984
#
# Coordination Sequence:
#
# PCOD9347026 Si02
#       6
#     4   4   4   4   4   4
#     4  12  29  51  83 117 166 220 274 343 423 502
#     4  12  29  53  82 122 169 214 291 338 427 507
#     4  12  28  49  80 121 154 225 265 348 408 509
#     4  12  30  52  81 123 164 220 276 346 424 496
#     4  12  27  52  85 117 168 214 280 341 431 494
#     4  12  29  53  81 122 165 215 280 352 409 512
#
# _framework density 25.388386000000001
#
# number of rings (size 3 to 8) (size 9 to 14) (size 15 to 20)
#    0.000    0.000    3.333    4.000    9.333    0.000 
#    0.000    0.000    0.000    0.000    0.000    0.000 
#    0.000    0.000    0.000    0.000    0.000    0.000 
#
# Total GULP energy -134708.555371 kJ/mol
# GULP energy per Si atom -5612.856474 kJ/mol
# Density = 2.533060 g / cm^3
# Si number density = 25.388386 Si / 1000 Ang^3
#
#
#
# Elastic Constant Matrix: (Units=GPa)
#
#
# Indices 1 2 3 4 5 6 
#
# 1 91.2157 11.0975 46.5795 0.0000 0.0000 0.0000
# 2 11.0975 113.9699 41.0595 0.0000 0.0000 0.0000
# 3 46.5795 41.0595 168.8747 0.0000 0.0000 0.0000
# 4 0.0000 0.0000 0.0000 59.0474 0.0000 0.0000
# 5 0.0000 0.0000 0.0000 0.0000 48.8437 0.0000
# 6 0.0000 0.0000 0.0000 0.0000 0.0000 31.8548
#
#
#
# Elastic Compliance Matrix: (Units=1/GPa)
#
#
# Indices 1 2 3 4 5 6 
#
# 1 0.012760 0.000028 -0.003526 0.000000 0.000000 0.000000
# 2 0.000028 0.009617 -0.002346 0.000000 0.000000 0.000000
# 3 -0.003526 -0.002346 0.007465 0.000000 0.000000 0.000000
# 4 0.000000 0.000000 0.000000 0.016936 0.000000 0.000000
# 5 0.000000 0.000000 0.000000 0.000000 0.020473 0.000000
# 6 0.000000 0.000000 0.000000 0.000000 0.000000 0.031392
#
#
# Mechanical properties :
#
#
# Convention : Reuss Voigt Hill
#
# Bulk Modulus (GPa) = 55.08739 63.50368 59.29553
# Shear Modulus (GPa) = 42.96171 46.30410 44.63291
#
# Velocity S-wave (km/s) = 4.11807 4.27527 4.19741
# Velocity P-wave (km/s) = 6.66006 7.03120 6.84814
#
# Compressibility (1/GPa) = 0.01815298
#
# Stress axis : x y z
#
# Youngs Moduli (GPa) = 78.36756 103.98621 133.96611
#
# Poissons Ratio (x) = -0.00290 0.47242
# Poissons Ratio (y) = -0.00219 0.31427
# Poissons Ratio (z) = 0.27635 0.24394
#
# Static dielectric constant tensor:
#      x y z
#    x 2.008070 0.000000 0.000000 
#    y 0.000000 1.985280 0.000000 
#    z 0.000000 0.000000 2.015400 
# 
# From -- ./inp_files/8077.got.cif
#   From: 2010.05.17/outbox.cif.g08.bks.cpg/sg33_5_cif.got.tgz:8077.got - 2010.06.03 17:15:25.
