data_PCOD9347872
_publ_section_title
;
Structure prediction by ZEFSAII (Michael W. Deem and Ramdas Pophale) SiO2 
 PCOD9347872
Probable space group: P N N 2
;
_chemical_formula_sum "Si O2"
_cell_formula_units_Z 20
_cell_length_a 17.322082
_cell_length_b 4.899135
_cell_length_c 8.127881
_cell_angle_alpha 90.000000
_cell_angle_beta 90.000000
_cell_angle_gamma 90.000000
_cell_volume 689.758139
_symmetry_space_group_name_H-M "P N N 2"
_symmetry_group_IT_number 34
_symmetry_cell_setting 'orthorhombic'
loop_
_space_group_symop_operation_xyz
x,y,z
-x,-y,z
1/2-x,1/2+y,1/2+z
1/2+x,1/2-y,1/2+z
loop_
_atom_site_type_symbol
_atom_site_label
_atom_site_fract_x
_atom_site_fract_y
_atom_site_fract_z
Si Si1 0.854954 0.907468 0.809760
Si Si2 0.251421 0.750000 0.041354
Si Si3 0.000000 0.500000 0.111556
Si Si4 0.354954 0.907468 0.772948
Si Si5 0.558706 0.750000 0.041354
Si Si6 0.500000 0.500000 0.471152
O O1 0.808941 0.696764 0.695206
O O2 0.885760 0.144886 0.687032
O O3 0.800786 0.018287 0.955920
O O4 0.937056 0.812256 0.878135
O O5 0.199214 0.518286 0.126788
O O6 0.308941 0.696763 0.887503
O O7 0.062944 0.312256 0.204573
O O8 0.950730 0.250000 0.041354
O O9 0.385760 0.144886 0.895676
O O10 0.500000 0.500000 0.004902
O O11 0.500000 0.000000 0.077806
#
# Coordination Sequence:
#
# PCOD9347872 Si02
#       6
#     4   4   2   4   4   2
#     4  11  25  48  79 112 163 203 272 317 407 464
#     4  10  25  52  72 121 154 218 246 340 393 484
#     4  12  28  48  80 116 156 206 268 328 388 472
#     4  11  25  48  79 112 163 203 272 317 407 464
#     4  12  27  46  80 117 150 200 264 326 383 460
#     4  12  28  48  80 116 156 206 268 328 388 472
#
# _framework density 28.99567
#
# number of rings (size 3 to 8) (size 9 to 14) (size 15 to 20)
#    0.000    0.800    4.000    1.200    2.800    1.600 
#   14.400    0.000    0.000    0.000    0.000    0.000 
#    0.000    0.000    0.000    0.000    0.000    0.000 
#
# Total GULP energy -111748.320421 kJ/mol
# GULP energy per Si atom -5587.416021 kJ/mol
# Density = 2.892967 g / cm^3
# Si number density = 28.995670 Si / 1000 Ang^3
#
#
#
# Elastic Constant Matrix: (Units=GPa)
#
#
# Indices 1 2 3 4 5 6 
#
# 1 144.1057 35.1691 37.7026 0.0000 0.0000 0.0000
# 2 35.1691 170.9532 62.9456 0.0000 0.0000 0.0000
# 3 37.7026 62.9456 148.9166 0.0000 0.0000 0.0000
# 4 0.0000 0.0000 0.0000 64.5721 0.0000 0.0000
# 5 0.0000 0.0000 0.0000 0.0000 141.8849 0.0000
# 6 0.0000 0.0000 0.0000 0.0000 0.0000 39.3436
#
#
#
# Elastic Compliance Matrix: (Units=1/GPa)
#
#
# Indices 1 2 3 4 5 6 
#
# 1 0.007576 -0.001009 -0.001491 0.000000 0.000000 0.000000
# 2 -0.001009 0.007062 -0.002730 0.000000 0.000000 0.000000
# 3 -0.001491 -0.002730 0.008247 0.000000 0.000000 0.000000
# 4 0.000000 0.000000 0.000000 0.015487 0.000000 0.000000
# 5 0.000000 0.000000 0.000000 0.000000 0.007048 0.000000
# 6 0.000000 0.000000 0.000000 0.000000 0.000000 0.025417
#
#
# Mechanical properties :
#
#
# Convention : Reuss Voigt Hill
#
# Bulk Modulus (GPa) = 80.48993 81.73442 81.11218
# Shear Modulus (GPa) = 58.52170 71.03733 64.77952
#
# Velocity S-wave (km/s) = 4.49741 4.95505 4.73177
# Velocity P-wave (km/s) = 7.40193 7.80937 7.60838
#
# Compressibility (1/GPa) = 0.01242391
#
# Stress axis : x y z
#
# Youngs Moduli (GPa) = 131.99766 141.59782 121.26318
#
# Poissons Ratio (x) = 0.14293 0.18085
# Poissons Ratio (y) = 0.13324 0.33100
# Poissons Ratio (z) = 0.19686 0.38650
#
# Static dielectric constant tensor:
#      x y z
#    x 2.217980 0.000000 0.000000 
#    y 0.000000 2.590220 0.000000 
#    z 0.000000 0.000000 2.817290 
# 
# From -- ./inp_files/3801.got.cif
#   From: 2010.05.17/outbox.cif.g08.bks.cpg/sg34_2_cif.got.tgz:3801.got - 2010.06.03 17:23:11.
