data_PCOD9347504
_publ_section_title
;
Structure prediction by ZEFSAII (Michael W. Deem and Ramdas Pophale) SiO2 
 PCOD9347504
Probable space group: P N N 2
;
_chemical_formula_sum "Si O2"
_cell_formula_units_Z 30
_cell_length_a 6.568372
_cell_length_b 17.435932
_cell_length_c 13.131870
_cell_angle_alpha 90.000000
_cell_angle_beta 90.000000
_cell_angle_gamma 90.000000
_cell_volume 1503.936440
_symmetry_space_group_name_H-M "P N N 2"
_symmetry_group_IT_number 34
_symmetry_cell_setting 'orthorhombic'
loop_
_space_group_symop_operation_xyz
x,y,z
-x,-y,z
1/2-x,1/2+y,1/2+z
1/2+x,1/2-y,1/2+z
loop_
_atom_site_type_symbol
_atom_site_label
_atom_site_fract_x
_atom_site_fract_y
_atom_site_fract_z
Si Si1 0.840159 0.309684 0.644660
Si Si2 0.810170 0.717105 0.781870
Si Si3 0.460608 0.415513 0.677480
Si Si4 0.695220 0.870863 0.650492
Si Si5 0.622895 0.067153 0.812185
Si Si6 0.500000 0.500000 0.193434
Si Si7 0.274854 0.851727 0.007705
Si Si8 0.937871 0.719208 0.009765
O O1 0.677429 0.377291 0.653159
O O2 0.717829 0.236796 0.601977
O O3 0.955974 0.298330 0.750234
O O4 0.022452 0.326940 0.566518
O O5 0.665505 0.647098 0.744429
O O6 0.754881 0.793627 0.715440
O O7 0.815384 0.720607 0.904010
O O8 0.500000 0.500000 0.720777
O O9 0.327312 0.420402 0.573242
O O10 0.528086 0.909799 0.722558
O O11 0.580258 0.850705 0.545536
O O12 0.881218 0.930597 0.636904
O O13 0.831843 0.038703 0.764886
O O14 0.500000 0.000000 0.869929
O O15 0.667927 0.131732 0.892933
O O16 0.099425 0.788333 0.007852
#
# Coordination Sequence:
#
# PCOD9347504 Si02
#       8
#     4   4   4   4   4   2   4   4
#     4  10  21  40  63  93 127 165 210 272 320 385
#     4  11  23  42  68  94 128 171 216 277 328 386
#     4  10  23  40  62  92 133 169 214 267 332 396
#     4  11  22  43  62  97 128 170 222 270 329 391
#     4  10  23  37  62  95 129 163 206 263 335 393
#     4  10  24  40  62  86 136 174 200 278 328 386
#     4  10  21  36  60 102 120 167 207 264 334 384
#     4  11  23  38  67  97 121 168 226 261 323 398
#
# _framework density 19.947654
#
# number of rings (size 3 to 8) (size 9 to 14) (size 15 to 20)
#    0.000    1.600    4.000    1.600    6.533    4.800 
#    0.000    0.000   11.733    0.000    0.000    0.000 
#    0.000    0.000    0.000    0.000    0.000    0.000 
#
# Total GULP energy -167247.855822 kJ/mol
# GULP energy per Si atom -5574.928527 kJ/mol
# Density = 1.990225 g / cm^3
# Si number density = 19.947654 Si / 1000 Ang^3
#
#
#
# Elastic Constant Matrix: (Units=GPa)
#
#
# Indices 1 2 3 4 5 6 
#
# 1 106.7156 35.0869 6.7743 0.0000 0.0000 0.0000
# 2 35.0869 87.2178 15.4170 0.0000 0.0000 0.0000
# 3 6.7743 15.4170 45.7870 0.0000 0.0000 0.0000
# 4 0.0000 0.0000 0.0000 17.8932 0.0000 0.0000
# 5 0.0000 0.0000 0.0000 0.0000 21.2472 0.0000
# 6 0.0000 0.0000 0.0000 0.0000 0.0000 30.0618
#
#
#
# Elastic Compliance Matrix: (Units=1/GPa)
#
#
# Indices 1 2 3 4 5 6 
#
# 1 0.010800 -0.004319 -0.000144 0.000000 0.000000 0.000000
# 2 -0.004319 0.013919 -0.004047 0.000000 0.000000 0.000000
# 3 -0.000144 -0.004047 0.023224 0.000000 0.000000 0.000000
# 4 0.000000 0.000000 0.000000 0.055887 0.000000 0.000000
# 5 0.000000 0.000000 0.000000 0.000000 0.047065 0.000000
# 6 0.000000 0.000000 0.000000 0.000000 0.000000 0.033265
#
#
# Mechanical properties :
#
#
# Convention : Reuss Voigt Hill
#
# Bulk Modulus (GPa) = 32.33923 39.36409 35.85166
# Shear Modulus (GPa) = 23.64199 26.00324 24.82262
#
# Velocity S-wave (km/s) = 3.44641 3.61442 3.53141
# Velocity P-wave (km/s) = 5.66429 6.09879 5.88555
#
# Compressibility (1/GPa) = 0.03092220
#
# Stress axis : x y z
#
# Youngs Moduli (GPa) = 92.59286 71.84610 43.05829
#
# Poissons Ratio (x) = 0.31033 0.00618
# Poissons Ratio (y) = 0.39994 0.17428
# Poissons Ratio (z) = 0.01329 0.29080
#
# Static dielectric constant tensor:
#      x y z
#    x 1.701460 0.000000 0.000000 
#    y 0.000000 1.775710 0.000000 
#    z 0.000000 0.000000 1.708870 
# 
# From -- ./inp_files/6163.got.cif
#   From: 2010.05.17/outbox.cif.g08.bks.cpg/sg34_4_cif.got.tgz:6163.got - 2010.06.03 17:23:11.
