data_PCOD9347774
_publ_section_title
;
Structure prediction by ZEFSAII (Michael W. Deem and Ramdas Pophale) SiO2 
 PCOD9347774
Probable space group: P N N 2
;
_chemical_formula_sum "Si O2"
_cell_formula_units_Z 32
_cell_length_a 15.993774
_cell_length_b 7.466357
_cell_length_c 10.037205
_cell_angle_alpha 90.000000
_cell_angle_beta 90.000000
_cell_angle_gamma 90.000000
_cell_volume 1198.595108
_symmetry_space_group_name_H-M "P N N 2"
_symmetry_group_IT_number 34
_symmetry_cell_setting 'orthorhombic'
loop_
_space_group_symop_operation_xyz
x,y,z
-x,-y,z
1/2-x,1/2+y,1/2+z
1/2+x,1/2-y,1/2+z
loop_
_atom_site_type_symbol
_atom_site_label
_atom_site_fract_x
_atom_site_fract_y
_atom_site_fract_z
Si Si1 0.046533 0.722066 0.381720
Si Si2 0.374462 0.603478 0.827038
Si Si3 0.577344 0.363374 0.537974
Si Si4 0.198201 0.545796 0.887328
Si Si5 0.410917 0.114023 0.165148
Si Si6 0.388332 0.029527 0.628650
Si Si7 0.068357 0.156366 0.730066
Si Si8 0.710616 0.558384 0.125860
O O1 0.077305 0.605048 0.506328
O O2 0.066714 0.634965 0.242088
O O3 0.947778 0.764690 0.373613
O O4 0.093236 0.913445 0.384787
O O5 0.368923 0.579506 0.666397
O O6 0.281186 0.657418 0.863109
O O7 0.500000 0.500000 0.550000
O O8 0.568718 0.150768 0.571725
O O9 0.598963 0.368200 0.382174
O O10 0.145171 0.485346 0.760311
O O11 0.134521 0.636024 0.992379
O O12 0.243381 0.396917 0.982958
O O13 0.504288 0.175970 0.210693
O O14 0.346679 0.283703 0.178992
O O15 0.297612 0.989134 0.696147
O O16 0.147314 0.111498 0.635248
O O17 0.000000 0.000000 0.701014
#
# Coordination Sequence:
#
# PCOD9347774 Si02
#       8
#     4   4   4   4   4   4   4   4
#     4  11  23  43  75 107 147 198 262 314 391 476
#     4  11  23  42  73 107 141 206 254 316 394 466
#     4  11  23  45  75 110 145 200 258 311 386 473
#     4  10  23  42  67 107 155 194 251 331 390 448
#     4  11  21  41  74 104 148 203 260 317 394 471
#     4  10  25  43  73 108 155 193 251 329 383 450
#     4   9  21  38  72 105 144 197 256 311 384 472
#     4   9  20  40  67 103 149 196 248 324 387 455
#
# _framework density 26.69792
#
# number of rings (size 3 to 8) (size 9 to 14) (size 15 to 20)
#    0.750    1.000    2.500    1.500    5.250    4.500 
#    0.000    1.250    5.500    0.000    0.000    0.000 
#    0.000    0.000    0.000    0.000    0.000    0.000 
#
# Total GULP energy -178406.960505 kJ/mol
# GULP energy per Si atom -5575.217516 kJ/mol
# Density = 2.663715 g / cm^3
# Si number density = 26.697920 Si / 1000 Ang^3
#
#
#
# Elastic Constant Matrix: (Units=GPa)
#
#
# Indices 1 2 3 4 5 6 
#
# 1 200.0864 40.3437 87.6191 0.0000 0.0000 0.0000
# 2 40.3437 84.3430 23.5889 0.0000 0.0000 0.0000
# 3 87.6191 23.5889 166.8742 0.0000 0.0000 0.0000
# 4 0.0000 0.0000 0.0000 33.8266 0.0000 0.0000
# 5 0.0000 0.0000 0.0000 0.0000 31.7139 0.0000
# 6 0.0000 0.0000 0.0000 0.0000 0.0000 25.4226
#
#
#
# Elastic Compliance Matrix: (Units=1/GPa)
#
#
# Indices 1 2 3 4 5 6 
#
# 1 0.006924 -0.002390 -0.003298 0.000000 0.000000 0.000000
# 2 -0.002390 0.013169 -0.000607 0.000000 0.000000 0.000000
# 3 -0.003298 -0.000607 0.007810 0.000000 0.000000 0.000000
# 4 0.000000 0.000000 0.000000 0.029563 0.000000 0.000000
# 5 0.000000 0.000000 0.000000 0.000000 0.031532 0.000000
# 6 0.000000 0.000000 0.000000 0.000000 0.000000 0.039335
#
#
# Mechanical properties :
#
#
# Convention : Reuss Voigt Hill
#
# Bulk Modulus (GPa) = 65.29759 83.82298 74.56028
# Shear Modulus (GPa) = 34.24075 38.17608 36.20842
#
# Velocity S-wave (km/s) = 3.58512 3.78554 3.68669
# Velocity P-wave (km/s) = 6.45356 7.11140 6.79045
#
# Compressibility (1/GPa) = 0.01531450
#
# Stress axis : x y z
#
# Youngs Moduli (GPa) = 144.43204 75.93549 128.04506
#
# Poissons Ratio (x) = 0.18145 0.42224
# Poissons Ratio (y) = 0.34513 0.07771
# Poissons Ratio (z) = 0.47627 0.04608
#
# Static dielectric constant tensor:
#      x y z
#    x 2.163330 0.000000 0.000000 
#    y 0.000000 2.305740 0.000000 
#    z 0.000000 0.000000 2.209630 
# 
# From -- ./inp_files/5818.got.cif
#   From: 2010.05.17/outbox.cif.g08.bks.cpg/sg34_3_cif.got.tgz:5818.got - 2010.06.03 17:23:11.
