data_PCOD9347264
_publ_section_title
;
Structure prediction by ZEFSAII (Michael W. Deem and Ramdas Pophale) SiO2 
 PCOD9347264
Probable space group: P N N 2
;
_chemical_formula_sum "Si O2"
_cell_formula_units_Z 28
_cell_length_a 9.024362
_cell_length_b 16.475343
_cell_length_c 8.897908
_cell_angle_alpha 90.000000
_cell_angle_beta 90.000000
_cell_angle_gamma 90.000000
_cell_volume 1322.936150
_symmetry_space_group_name_H-M "P N N 2"
_symmetry_group_IT_number 34
_symmetry_cell_setting 'orthorhombic'
loop_
_space_group_symop_operation_xyz
x,y,z
-x,-y,z
1/2-x,1/2+y,1/2+z
1/2+x,1/2-y,1/2+z
loop_
_atom_site_type_symbol
_atom_site_label
_atom_site_fract_x
_atom_site_fract_y
_atom_site_fract_z
Si Si1 0.921773 0.688794 0.917410
Si Si2 0.638478 0.349558 0.599048
Si Si3 0.108258 0.814158 0.327196
Si Si4 0.386110 0.143046 0.667575
Si Si5 0.146786 0.034309 0.816108
Si Si6 0.900183 0.575652 0.423907
Si Si7 0.467572 0.206494 0.108349
O O1 0.767373 0.646655 0.868832
O O2 0.989790 0.733176 0.773275
O O3 0.884685 0.758257 0.037583
O O4 0.048265 0.637677 0.000953
O O5 0.522432 0.359599 0.736285
O O6 0.610495 0.411776 0.463468
O O7 0.815990 0.346402 0.624435
O O8 0.146966 0.734417 0.224835
O O9 0.050146 0.776336 0.484507
O O10 0.246077 0.087692 0.704893
O O11 0.514717 0.110974 0.779023
O O12 0.244272 0.959302 0.875842
O O13 0.000000 0.000000 0.743200
O O14 0.000000 0.500000 0.477279
O O15 0.906586 0.646139 0.545337
#
# Coordination Sequence:
#
# PCOD9347264 Si02
#       7
#     4   4   4   4   4   4   4
#     4  10  20  35  62  87 118 159 197 254 312 370
#     4  10  20  39  55  90 124 151 202 259 306 365
#     4   9  19  36  57  88 125 146 194 258 315 355
#     4   9  18  39  57  84 120 158 205 248 302 383
#     4  11  21  37  62  87 118 166 210 261 302 370
#     4   9  17  37  61  77 114 161 206 234 296 374
#     4  10  19  36  59  90 113 163 197 246 316 374
#
# _framework density 21.165043000000001
#
# number of rings (size 3 to 8) (size 9 to 14) (size 15 to 20)
#    0.000    2.286    5.714    0.000    2.000    2.286 
#    7.714    2.143    0.000    0.857    0.000    0.000 
#    0.000    0.000    0.000    0.000    0.000    0.000 
#
# Total GULP energy -156131.620165 kJ/mol
# GULP energy per Si atom -5576.129292 kJ/mol
# Density = 2.111687 g / cm^3
# Si number density = 21.165043 Si / 1000 Ang^3
#
#
#
# Elastic Constant Matrix: (Units=GPa)
#
#
# Indices 1 2 3 4 5 6 
#
# 1 107.4176 34.2160 31.1792 0.0000 0.0000 0.0000
# 2 34.2160 24.7510 15.6227 0.0000 0.0000 0.0000
# 3 31.1792 15.6227 76.0953 0.0000 0.0000 0.0000
# 4 0.0000 0.0000 0.0000 8.8119 0.0000 0.0000
# 5 0.0000 0.0000 0.0000 0.0000 25.2377 0.0000
# 6 0.0000 0.0000 0.0000 0.0000 0.0000 17.0441
#
#
#
# Elastic Compliance Matrix: (Units=1/GPa)
#
#
# Indices 1 2 3 4 5 6 
#
# 1 0.017027 -0.021983 -0.002463 0.000000 0.000000 0.000000
# 2 -0.021983 0.074800 -0.006349 0.000000 0.000000 0.000000
# 3 -0.002463 -0.006349 0.015454 0.000000 0.000000 0.000000
# 4 0.000000 0.000000 0.000000 0.113483 0.000000 0.000000
# 5 0.000000 0.000000 0.000000 0.000000 0.039623 0.000000
# 6 0.000000 0.000000 0.000000 0.000000 0.000000 0.058671
#
#
# Mechanical properties :
#
#
# Convention : Reuss Voigt Hill
#
# Bulk Modulus (GPa) = 21.88698 41.14440 31.51569
# Shear Modulus (GPa) = 12.63007 18.70179 15.66593
#
# Velocity S-wave (km/s) = 2.44548 2.97579 2.72358
# Velocity P-wave (km/s) = 4.28222 5.59367 4.98129
#
# Compressibility (1/GPa) = 0.04568927
#
# Stress axis : x y z
#
# Youngs Moduli (GPa) = 58.73082 13.36897 64.70698
#
# Poissons Ratio (x) = 0.29389 0.15939
# Poissons Ratio (y) = 1.29109 0.41085
# Poissons Ratio (z) = 0.14467 0.08489
#
# Static dielectric constant tensor:
#      x y z
#    x 1.830750 0.000000 0.000000 
#    y 0.000000 1.767650 0.000000 
#    z 0.000000 0.000000 1.781190 
# 
# From -- ./inp_files/2778.got.cif
#   From: 2010.05.17/outbox.cif.g08.bks.cpg/sg34_2_cif.got.tgz:2778.got - 2010.06.03 17:23:11.
