data_PCOD9347596
_publ_section_title
;
Structure prediction by ZEFSAII (Michael W. Deem and Ramdas Pophale) SiO2 
 PCOD9347596
Probable space group: P N N 2
;
_chemical_formula_sum "Si O2"
_cell_formula_units_Z 28
_cell_length_a 14.501030
_cell_length_b 14.301015
_cell_length_c 5.759555
_cell_angle_alpha 90.000000
_cell_angle_beta 90.000000
_cell_angle_gamma 90.000000
_cell_volume 1194.413334
_symmetry_space_group_name_H-M "P N N 2"
_symmetry_group_IT_number 34
_symmetry_cell_setting 'orthorhombic'
loop_
_space_group_symop_operation_xyz
x,y,z
-x,-y,z
1/2-x,1/2+y,1/2+z
1/2+x,1/2-y,1/2+z
loop_
_atom_site_type_symbol
_atom_site_label
_atom_site_fract_x
_atom_site_fract_y
_atom_site_fract_z
Si Si1 0.087419 0.844949 0.703950
Si Si2 0.328045 0.483674 0.829942
Si Si3 0.757928 0.186358 0.076808
Si Si4 0.500000 0.500000 0.510205
Si Si5 0.401837 0.193030 0.849416
Si Si6 0.000000 0.500000 0.703464
Si Si7 0.413226 0.850332 0.846221
Si Si8 0.656075 0.977435 0.579494
O O1 0.115770 0.916394 0.501620
O O2 0.067938 0.745724 0.584333
O O3 0.175335 0.823057 0.859320
O O4 0.018694 0.906563 0.859828
O O5 0.257823 0.417467 0.685919
O O6 0.407667 0.520310 0.660617
O O7 0.257813 0.544740 0.982075
O O8 0.814447 0.250292 0.252904
O O9 0.658068 0.213856 0.985152
O O10 0.500852 0.198288 0.717358
O O11 0.368535 0.088010 0.798685
O O12 0.960262 0.580711 0.535935
O O13 0.919299 0.464246 0.876476
O O14 0.356559 0.916534 0.670338
#
# Coordination Sequence:
#
# PCOD9347596 Si02
#       8
#     4   4   4   2   4   2   4   4
#     4  10  22  44  69  92 150 180 232 297 350 430
#     4  10  21  42  73  98 137 187 245 290 356 434
#     4  10  23  43  65  97 140 190 228 301 364 415
#     4  10  22  44  72 104 132 206 240 284 368 442
#     4  11  25  42  65 109 140 180 235 301 359 429
#     4  12  22  40  74 104 132 186 236 296 342 444
#     4  12  23  44  71 100 140 196 237 290 377 426
#     4  12  23  42  74 106 141 183 241 302 358 435
#
# _framework density 23.442471000000001
#
# number of rings (size 3 to 8) (size 9 to 14) (size 15 to 20)
#    0.000    1.143    5.714    0.429    2.000    0.000 
#   10.286    0.000    0.000    0.000    0.000    0.000 
#    0.000    0.000    0.000    0.000    0.000    0.000 
#
# Total GULP energy -156176.446868 kJ/mol
# GULP energy per Si atom -5577.730245 kJ/mol
# Density = 2.338911 g / cm^3
# Si number density = 23.442471 Si / 1000 Ang^3
#
#
#
# Elastic Constant Matrix: (Units=GPa)
#
#
# Indices 1 2 3 4 5 6 
#
# 1 102.7980 28.8303 14.6928 0.0000 0.0000 0.0000
# 2 28.8303 49.7705 18.8879 0.0000 0.0000 0.0000
# 3 14.6928 18.8879 72.3619 0.0000 0.0000 0.0000
# 4 0.0000 0.0000 0.0000 2.3089 0.0000 0.0000
# 5 0.0000 0.0000 0.0000 0.0000 42.6375 0.0000
# 6 0.0000 0.0000 0.0000 0.0000 0.0000 25.9645
#
#
#
# Elastic Compliance Matrix: (Units=1/GPa)
#
#
# Indices 1 2 3 4 5 6 
#
# 1 0.011644 -0.006491 -0.000670 0.000000 0.000000 0.000000
# 2 -0.006491 0.025919 -0.005448 0.000000 0.000000 0.000000
# 3 -0.000670 -0.005448 0.015377 0.000000 0.000000 0.000000
# 4 0.000000 0.000000 0.000000 0.433107 0.000000 0.000000
# 5 0.000000 0.000000 0.000000 0.000000 0.023454 0.000000
# 6 0.000000 0.000000 0.000000 0.000000 0.000000 0.038514
#
#
# Mechanical properties :
#
#
# Convention : Reuss Voigt Hill
#
# Bulk Modulus (GPa) = 36.06964 38.86139 37.46552
# Shear Modulus (GPa) = 8.58408 25.01680 16.80044
#
# Velocity S-wave (km/s) = 1.91565 3.27028 2.67997
# Velocity P-wave (km/s) = 4.50697 5.55635 5.05894
#
# Compressibility (1/GPa) = 0.02772415
#
# Stress axis : x y z
#
# Youngs Moduli (GPa) = 85.88166 38.58114 65.03049
#
# Poissons Ratio (x) = 0.25042 0.04357
# Poissons Ratio (y) = 0.55743 0.35426
# Poissons Ratio (z) = 0.05755 0.21017
#
# Static dielectric constant tensor:
#      x y z
#    x 1.931520 0.000000 0.000000 
#    y 0.000000 1.993710 0.000000 
#    z 0.000000 0.000000 1.958630 
# 
# From -- ./inp_files/1294.got.cif
#   From: 2010.05.17/outbox.cif.g08.bks.cpg/sg34_1_cif.got.tgz:1294.got - 2010.06.03 17:23:11.
