data_PCOD9347857
_publ_section_title
;
Structure prediction by ZEFSAII (Michael W. Deem and Ramdas Pophale) SiO2 
 PCOD9347857
Probable space group: P N N 2
;
_chemical_formula_sum "Si O2"
_cell_formula_units_Z 28
_cell_length_a 5.199231
_cell_length_b 26.286235
_cell_length_c 8.755571
_cell_angle_alpha 90.000000
_cell_angle_beta 90.000000
_cell_angle_gamma 90.000000
_cell_volume 1196.608198
_symmetry_space_group_name_H-M "P N N 2"
_symmetry_group_IT_number 34
_symmetry_cell_setting 'orthorhombic'
loop_
_space_group_symop_operation_xyz
x,y,z
-x,-y,z
1/2-x,1/2+y,1/2+z
1/2+x,1/2-y,1/2+z
loop_
_atom_site_type_symbol
_atom_site_label
_atom_site_fract_x
_atom_site_fract_y
_atom_site_fract_z
Si Si1 0.979396 0.361695 0.682970
Si Si2 0.797513 0.600582 0.975442
Si Si3 0.500000 0.500000 0.330050
Si Si4 0.658374 0.286386 0.864125
Si Si5 0.122346 0.106700 0.947994
Si Si6 0.000000 0.500000 0.117045
Si Si7 0.300872 0.642109 0.106933
Si Si8 0.854754 0.208241 0.066392
O O1 0.769800 0.339215 0.799328
O O2 0.867285 0.399647 0.558901
O O3 0.064672 0.309624 0.600103
O O4 0.188521 0.384837 0.797648
O O5 0.928822 0.547116 0.010776
O O6 0.998345 0.637885 0.063732
O O7 0.509327 0.601980 0.038902
O O8 0.517162 0.552883 0.423875
O O9 0.246137 0.507105 0.226589
O O10 0.472722 0.270262 0.725384
O O11 0.575929 0.306254 0.033808
O O12 0.859960 0.243953 0.918433
O O13 0.193780 0.130658 0.785267
O O14 0.970039 0.153024 0.025815
#
# Coordination Sequence:
#
# PCOD9347857 Si02
#       8
#     4   4   2   4   4   2   4   4
#     4  10  25  45  63 101 143 185 244 297 368 440
#     4  11  22  45  70  98 141 184 236 301 349 434
#     4  12  26  46  74 106 146 186 252 306 366 442
#     4  10  25  43  66 100 138 190 240 294 370 443
#     4  11  26  45  69 106 141 194 245 307 372 432
#     4  12  22  44  72 108 132 190 250 296 362 440
#     4  11  23  43  72  99 140 184 231 298 359 428
#     4  11  25  44  68  99 145 187 244 303 366 451
#
# _framework density 23.399470999999998
#
# number of rings (size 3 to 8) (size 9 to 14) (size 15 to 20)
#    0.000    1.143    4.286    0.000    8.000    2.286 
#    2.571    0.000    0.000    0.000    0.000    0.000 
#    0.000    0.000    0.000    0.000    0.000    0.000 
#
# Total GULP energy -156012.072343 kJ/mol
# GULP energy per Si atom -5571.859727 kJ/mol
# Density = 2.334621 g / cm^3
# Si number density = 23.399471 Si / 1000 Ang^3
#
#
#
# Elastic Constant Matrix: (Units=GPa)
#
#
# Indices 1 2 3 4 5 6 
#
# 1 79.5438 8.8383 26.6886 0.0000 0.0000 0.0000
# 2 8.8383 95.2130 40.8127 0.0000 0.0000 0.0000
# 3 26.6886 40.8127 130.3969 0.0000 0.0000 0.0000
# 4 0.0000 0.0000 0.0000 34.1111 0.0000 0.0000
# 5 0.0000 0.0000 0.0000 0.0000 12.8959 0.0000
# 6 0.0000 0.0000 0.0000 0.0000 0.0000 28.0146
#
#
#
# Elastic Compliance Matrix: (Units=1/GPa)
#
#
# Indices 1 2 3 4 5 6 
#
# 1 0.013499 -0.000079 -0.002738 0.000000 0.000000 0.000000
# 2 -0.000079 0.012131 -0.003780 0.000000 0.000000 0.000000
# 3 -0.002738 -0.003780 0.009413 0.000000 0.000000 0.000000
# 4 0.000000 0.000000 0.000000 0.029316 0.000000 0.000000
# 5 0.000000 0.000000 0.000000 0.000000 0.077544 0.000000
# 6 0.000000 0.000000 0.000000 0.000000 0.000000 0.035696
#
#
# Mechanical properties :
#
#
# Convention : Reuss Voigt Hill
#
# Bulk Modulus (GPa) = 45.77405 50.87030 48.32218
# Shear Modulus (GPa) = 25.24284 30.25862 27.75073
#
# Velocity S-wave (km/s) = 3.28804 3.59992 3.44751
# Velocity P-wave (km/s) = 5.83262 6.25031 6.04507
#
# Compressibility (1/GPa) = 0.02184644
#
# Stress axis : x y z
#
# Youngs Moduli (GPa) = 74.07859 82.43599 106.24121
#
# Poissons Ratio (x) = 0.00655 0.29089
# Poissons Ratio (y) = 0.00588 0.40164
# Poissons Ratio (z) = 0.20283 0.31165
#
# Static dielectric constant tensor:
#      x y z
#    x 2.061220 0.000000 0.000000 
#    y 0.000000 1.982640 0.000000 
#    z 0.000000 0.000000 1.939800 
# 
# From -- ./inp_files/2175.got.cif
#   From: 2010.05.17/outbox.cif.g08.bks.cpg/sg34_2_cif.got.tgz:2175.got - 2010.06.03 17:23:11.
