data_PCOD9347994
_publ_section_title
;
Structure prediction by ZEFSAII (Michael W. Deem and Ramdas Pophale) SiO2 
 PCOD9347994
Probable space group: P N N 2
;
_chemical_formula_sum "Si O2"
_cell_formula_units_Z 24
_cell_length_a 14.501496
_cell_length_b 8.219927
_cell_length_c 8.715941
_cell_angle_alpha 90.000000
_cell_angle_beta 90.000000
_cell_angle_gamma 90.000000
_cell_volume 1038.950962
_symmetry_space_group_name_H-M "P N N 2"
_symmetry_group_IT_number 34
_symmetry_cell_setting 'orthorhombic'
loop_
_space_group_symop_operation_xyz
x,y,z
-x,-y,z
1/2-x,1/2+y,1/2+z
1/2+x,1/2-y,1/2+z
loop_
_atom_site_type_symbol
_atom_site_label
_atom_site_fract_x
_atom_site_fract_y
_atom_site_fract_z
Si Si1 0.651335 0.079116 0.280630
Si Si2 0.339587 0.936138 0.630322
Si Si3 0.348625 0.308873 0.273321
Si Si4 0.500000 0.000000 0.852221
Si Si5 0.500000 0.500000 0.813418
Si Si6 0.509794 0.274285 0.067861
Si Si7 0.158540 0.828025 0.124494
O O1 0.642465 0.128057 0.458971
O O2 0.582189 0.182763 0.175660
O O3 0.752711 0.105395 0.212824
O O4 0.635017 0.885602 0.279382
O O5 0.247315 0.855946 0.694973
O O6 0.425078 0.914854 0.744630
O O7 0.331758 0.132467 0.625440
O O8 0.433992 0.365143 0.170110
O O9 0.346586 0.376162 0.445850
O O10 0.458215 0.135336 0.965595
O O11 0.430887 0.396103 0.710800
O O12 0.553957 0.385328 0.934989
#
# Coordination Sequence:
#
# PCOD9347994 Si02
#       7
#     4   4   4   2   2   4   4
#     4  11  26  46  75 105 148 192 251 311 372 448
#     4  11  27  46  74 106 146 195 250 308 378 444
#     4  11  26  48  74 107 145 196 249 309 375 442
#     4  12  24  46  76 102 144 196 246 310 370 442
#     4  12  28  48  74 110 154 198 252 308 376 454
#     4  12  26  47  76 107 149 195 251 308 374 450
#     4  11  27  48  72 107 149 195 249 307 370 452
#
# _framework density 23.100223
#
# number of rings (size 3 to 8) (size 9 to 14) (size 15 to 20)
#    0.000    0.667    3.333    2.000   14.000    0.667 
#    0.000    0.000    0.000    0.000    0.000    0.000 
#    0.000    0.000    0.000    0.000    0.000    0.000 
#
# Total GULP energy -134316.316744 kJ/mol
# GULP energy per Si atom -5596.513198 kJ/mol
# Density = 2.304765 g / cm^3
# Si number density = 23.100223 Si / 1000 Ang^3
#
#
#
# Elastic Constant Matrix: (Units=GPa)
#
#
# Indices 1 2 3 4 5 6 
#
# 1 120.5683 7.9815 64.2538 0.0000 0.0000 0.0000
# 2 7.9815 37.6951 37.6568 0.0000 0.0000 0.0000
# 3 64.2538 37.6568 203.5598 0.0000 0.0000 0.0000
# 4 0.0000 0.0000 0.0000 38.3369 0.0000 0.0000
# 5 0.0000 0.0000 0.0000 0.0000 45.4313 0.0000
# 6 0.0000 0.0000 0.0000 0.0000 0.0000 45.7979
#
#
#
# Elastic Compliance Matrix: (Units=1/GPa)
#
#
# Indices 1 2 3 4 5 6 
#
# 1 0.010021 0.001273 -0.003399 0.000000 0.000000 0.000000
# 2 0.001273 0.032705 -0.006452 0.000000 0.000000 0.000000
# 3 -0.003399 -0.006452 0.007179 0.000000 0.000000 0.000000
# 4 0.000000 0.000000 0.000000 0.026085 0.000000 0.000000
# 5 0.000000 0.000000 0.000000 0.000000 0.022011 0.000000
# 6 0.000000 0.000000 0.000000 0.000000 0.000000 0.021835
#
#
# Mechanical properties :
#
#
# Convention : Reuss Voigt Hill
#
# Bulk Modulus (GPa) = 30.53447 64.62302 47.57875
# Shear Modulus (GPa) = 33.80515 42.70864 38.25690
#
# Velocity S-wave (km/s) = 3.82961 4.30448 4.07397
# Velocity P-wave (km/s) = 5.72726 7.26227 6.53995
#
# Compressibility (1/GPa) = 0.03274987
#
# Stress axis : x y z
#
# Youngs Moduli (GPa) = 99.79032 30.57683 139.29642
#
# Poissons Ratio (x) = -0.03894 0.47343
# Poissons Ratio (y) = -0.12708 0.89874
# Poissons Ratio (z) = 0.33916 0.19728
#
# Static dielectric constant tensor:
#      x y z
#    x 1.799930 0.000000 0.000000 
#    y 0.000000 1.982840 0.000000 
#    z 0.000000 0.000000 1.850160 
# 
# From -- ./inp_files/2634.got.cif
#   From: 2010.05.17/outbox.cif.g08.bks.cpg/sg34_2_cif.got.tgz:2634.got - 2010.06.03 17:23:11.
