data_PCOD9347457
_publ_section_title
;
Structure prediction by ZEFSAII (Michael W. Deem and Ramdas Pophale) SiO2 
 PCOD9347457
Probable space group: P N N 2
;
_chemical_formula_sum "Si O2"
_cell_formula_units_Z 26
_cell_length_a 22.665488
_cell_length_b 8.139053
_cell_length_c 6.228065
_cell_angle_alpha 90.000000
_cell_angle_beta 90.000000
_cell_angle_gamma 90.000000
_cell_volume 1148.926078
_symmetry_space_group_name_H-M "P N N 2"
_symmetry_group_IT_number 34
_symmetry_cell_setting 'orthorhombic'
loop_
_space_group_symop_operation_xyz
x,y,z
-x,-y,z
1/2-x,1/2+y,1/2+z
1/2+x,1/2-y,1/2+z
loop_
_atom_site_type_symbol
_atom_site_label
_atom_site_fract_x
_atom_site_fract_y
_atom_site_fract_z
Si Si1 0.725603 0.155128 0.772800
Si Si2 0.130684 0.373351 0.898238
Si Si3 0.000000 0.000000 0.840877
Si Si4 0.539498 0.239625 0.663958
Si Si5 0.633225 0.343053 0.994030
Si Si6 0.569329 0.684388 0.962861
Si Si7 0.819405 0.372160 0.567720
O O1 0.678224 0.150302 0.583380
O O2 0.785869 0.214703 0.665689
O O3 0.699486 0.302428 0.920713
O O4 0.720674 0.988367 0.913610
O O5 0.129467 0.218052 0.736855
O O6 0.156902 0.520198 0.762745
O O7 0.065873 0.397258 0.002685
O O8 0.967186 0.130286 0.680346
O O9 0.040685 0.100994 0.007133
O O10 0.586380 0.235176 0.858406
O O11 0.477586 0.260352 0.784015
O O12 0.608373 0.520191 0.935065
O O13 0.619536 0.820840 0.960339
#
# Coordination Sequence:
#
# PCOD9347457 Si02
#       7
#     4   4   2   4   4   4   4
#     4  10  26  47  70  98 141 190 243 310 362 446
#     4  10  23  46  68  98 141 192 232 307 374 426
#     4  12  20  38  68 104 140 190 230 296 354 440
#     4  11  20  41  70 100 144 189 237 288 360 434
#     4  10  20  41  70 102 139 180 243 294 358 436
#     4  12  23  40  70 110 141 183 245 299 358 452
#     4  11  28  46  70 108 143 190 249 305 379 442
#
# _framework density 22.629826999999999
#
# number of rings (size 3 to 8) (size 9 to 14) (size 15 to 20)
#    0.000    1.231    4.615    0.000    4.308    2.462 
#    0.000   18.462    0.000    0.000    0.000    0.000 
#    0.000    0.000    0.000    0.000    0.000    0.000 
#
# Total GULP energy -144808.770778 kJ/mol
# GULP energy per Si atom -5569.568107 kJ/mol
# Density = 2.257832 g / cm^3
# Si number density = 22.629827 Si / 1000 Ang^3
#
#
#
# Elastic Constant Matrix: (Units=GPa)
#
#
# Indices 1 2 3 4 5 6 
#
# 1 103.1910 33.2279 40.1296 0.0000 0.0000 0.0000
# 2 33.2279 51.5692 44.1669 0.0000 0.0000 0.0000
# 3 40.1296 44.1669 83.2272 0.0000 0.0000 0.0000
# 4 0.0000 0.0000 0.0000 6.5081 0.0000 0.0000
# 5 0.0000 0.0000 0.0000 0.0000 43.7027 0.0000
# 6 0.0000 0.0000 0.0000 0.0000 0.0000 18.7959
#
#
#
# Elastic Compliance Matrix: (Units=1/GPa)
#
#
# Indices 1 2 3 4 5 6 
#
# 1 0.012693 -0.005384 -0.003263 0.000000 0.000000 0.000000
# 2 -0.005384 0.037832 -0.017481 0.000000 0.000000 0.000000
# 3 -0.003263 -0.017481 0.022865 0.000000 0.000000 0.000000
# 4 0.000000 0.000000 0.000000 0.153654 0.000000 0.000000
# 5 0.000000 0.000000 0.000000 0.000000 0.022882 0.000000
# 6 0.000000 0.000000 0.000000 0.000000 0.000000 0.053203
#
#
# Mechanical properties :
#
#
# Convention : Reuss Voigt Hill
#
# Bulk Modulus (GPa) = 47.31478 52.55957 49.93718
# Shear Modulus (GPa) = 13.79574 21.83221 17.81398
#
# Velocity S-wave (km/s) = 2.47174 3.10942 2.80873
# Velocity P-wave (km/s) = 5.39440 6.01394 5.71258
#
# Compressibility (1/GPa) = 0.02113504
#
# Stress axis : x y z
#
# Youngs Moduli (GPa) = 78.78064 26.43263 43.73441
#
# Poissons Ratio (x) = 0.14232 0.14271
# Poissons Ratio (y) = 0.42416 0.76450
# Poissons Ratio (z) = 0.25708 0.46206
#
# Static dielectric constant tensor:
#      x y z
#    x 1.922920 0.000000 0.000000 
#    y 0.000000 2.879840 0.000000 
#    z 0.000000 0.000000 1.976130 
# 
# From -- ./inp_files/1678.got.cif
#   From: 2010.05.17/outbox.cif.g08.bks.cpg/sg34_1_cif.got.tgz:1678.got - 2010.06.03 17:23:11.
