data_PCOD9347111
_publ_section_title
;
Structure prediction by ZEFSAII (Michael W. Deem and Ramdas Pophale) SiO2 
 PCOD9347111
Probable space group: P N N 2
;
_chemical_formula_sum "Si O2"
_cell_formula_units_Z 26
_cell_length_a 8.932053
_cell_length_b 8.027534
_cell_length_c 18.514520
_cell_angle_alpha 90.000000
_cell_angle_beta 90.000000
_cell_angle_gamma 90.000000
_cell_volume 1327.534762
_symmetry_space_group_name_H-M "P N N 2"
_symmetry_group_IT_number 34
_symmetry_cell_setting 'orthorhombic'
loop_
_space_group_symop_operation_xyz
x,y,z
-x,-y,z
1/2-x,1/2+y,1/2+z
1/2+x,1/2-y,1/2+z
loop_
_atom_site_type_symbol
_atom_site_label
_atom_site_fract_x
_atom_site_fract_y
_atom_site_fract_z
Si Si1 0.883619 0.269528 0.882690
Si Si2 0.804905 0.346446 0.516450
Si Si3 0.500000 0.500000 0.496519
Si Si4 0.669893 0.980782 0.511546
Si Si5 0.085621 0.179587 0.761437
Si Si6 0.164019 0.524729 0.354056
Si Si7 0.426042 0.686588 0.096281
O O1 0.972612 0.155160 0.941782
O O2 0.836480 0.428780 0.927700
O O3 0.984697 0.294034 0.812738
O O4 0.745387 0.153424 0.860447
O O5 0.657284 0.458939 0.536947
O O6 0.842602 0.402502 0.435100
O O7 0.959146 0.319013 0.560974
O O8 0.743026 0.159543 0.517600
O O9 0.772768 0.844704 0.552106
O O10 0.500000 0.000000 0.539100
O O11 0.238618 0.142615 0.803026
O O12 0.102977 0.233577 0.679254
O O13 0.000000 0.000000 0.761086
O O14 0.000000 0.500000 0.324311
O O15 0.500000 0.500000 0.096452
#
# Coordination Sequence:
#
# PCOD9347111 Si02
#       7
#     4   4   2   4   4   4   4
#     4  10  17  32  54  78 102 137 182 222 270 327
#     4  10  19  34  51  82 110 140 184 231 276 330
#     4  10  16  32  56  78 100 138 188 228 264 330
#     4  11  19  31  53  80 108 143 181 227 282 328
#     4   9  16  33  51  75 107 140 182 217 268 330
#     4  10  18  30  54  79 104 138 185 230 268 315
#     4   9  20  32  50  80 114 143 177 231 281 328
#
# _framework density 19.585176000000001
#
# number of rings (size 3 to 8) (size 9 to 14) (size 15 to 20)
#    0.000    2.154    5.385    0.923    0.000    0.615 
#    0.000    0.000    0.000   13.846    6.000    0.000 
#    0.000    0.000    0.000    0.000    0.000    0.000 
#
# Total GULP energy -144956.350191 kJ/mol
# GULP energy per Si atom -5575.244238 kJ/mol
# Density = 1.954060 g / cm^3
# Si number density = 19.585176 Si / 1000 Ang^3
#
#
#
# Elastic Constant Matrix: (Units=GPa)
#
#
# Indices 1 2 3 4 5 6 
#
# 1 153.6606 27.2082 74.4157 0.0000 0.0000 0.0000
# 2 27.2082 60.7086 22.9101 0.0000 0.0000 0.0000
# 3 74.4157 22.9101 126.2094 0.0000 0.0000 0.0000
# 4 0.0000 0.0000 0.0000 16.4664 0.0000 0.0000
# 5 0.0000 0.0000 0.0000 0.0000 -2.2628 0.0000
# 6 0.0000 0.0000 0.0000 0.0000 0.0000 25.2302
#
#
#
# Elastic Compliance Matrix: (Units=1/GPa)
#
#
# Indices 1 2 3 4 5 6 
#
# 1 0.009393 -0.002276 -0.005125 0.000000 0.000000 0.000000
# 2 -0.002276 0.018235 -0.001968 0.000000 0.000000 0.000000
# 3 -0.005125 -0.001968 0.011303 0.000000 0.000000 0.000000
# 4 0.000000 0.000000 0.000000 0.060730 0.000000 0.000000
# 5 0.000000 0.000000 0.000000 0.000000 -0.441923 0.000000
# 6 0.000000 0.000000 0.000000 0.000000 0.000000 0.039635
#
#
# Mechanical properties :
#
#
# Convention : Reuss Voigt Hill
#
# Bulk Modulus (GPa) = 49.52435 65.51627 57.52031
# Shear Modulus (GPa) = -18.04013 22.28973 2.12480
#
# Velocity S-wave (km/s) = -3.03827 3.37722 1.04272
# Velocity P-wave (km/s) = 3.61018 6.98084 5.55722
#
# Compressibility (1/GPa) = 0.02019209
#
# Stress axis : x y z
#
# Youngs Moduli (GPa) = 106.46457 54.84025 88.47576
#
# Poissons Ratio (x) = 0.12479 0.45345
# Poissons Ratio (y) = 0.24226 0.17415
# Poissons Ratio (z) = 0.54564 0.10795
#
# Static dielectric constant tensor:
#      x y z
#    x 1.748170 0.000000 0.000000 
#    y 0.000000 1.728600 0.000000 
#    z 0.000000 0.000000 1.666920 
# 
# From -- ./inp_files/7483.got.cif
#   From: 2010.05.17/outbox.cif.g08.bks.cpg/sg34_4_cif.got.tgz:7483.got - 2010.06.03 17:23:11.
