data_PCOD9347502
_publ_section_title
;
Structure prediction by ZEFSAII (Michael W. Deem and Ramdas Pophale) SiO2 
 PCOD9347502
Probable space group: P N N 2
;
_chemical_formula_sum "Si O2"
_cell_formula_units_Z 32
_cell_length_a 5.025079
_cell_length_b 13.153781
_cell_length_c 24.268057
_cell_angle_alpha 90.000000
_cell_angle_beta 90.000000
_cell_angle_gamma 90.000000
_cell_volume 1604.089171
_symmetry_space_group_name_H-M "P N N 2"
_symmetry_group_IT_number 34
_symmetry_cell_setting 'orthorhombic'
loop_
_space_group_symop_operation_xyz
x,y,z
-x,-y,z
1/2-x,1/2+y,1/2+z
1/2+x,1/2-y,1/2+z
loop_
_atom_site_type_symbol
_atom_site_label
_atom_site_fract_x
_atom_site_fract_y
_atom_site_fract_z
Si Si1 0.742527 0.930750 0.420340
Si Si2 0.928413 0.119948 0.126069
Si Si3 0.440728 0.619970 0.501965
Si Si4 0.578466 0.813580 0.192963
Si Si5 0.821501 0.900256 0.297475
Si Si6 0.428992 0.386510 0.259426
Si Si7 0.075084 0.288453 0.446810
Si Si8 0.575987 0.811145 0.820227
O O1 0.675739 0.900228 0.356948
O O2 0.849134 0.831032 0.451806
O O3 0.500000 0.000000 0.442380
O O4 0.000000 0.000000 0.415208
O O5 0.642699 0.141923 0.152315
O O6 0.140839 0.179018 0.162618
O O7 0.000000 0.000000 0.129296
O O8 0.965589 0.153515 0.062866
O O9 0.500000 0.500000 0.501804
O O10 0.641773 0.661215 0.456742
O O11 0.146637 0.661906 0.487324
O O12 0.616203 0.880278 0.248337
O O13 0.531823 0.698169 0.212250
O O14 0.018553 0.803289 0.299336
O O15 0.000000 0.000000 0.289451
O O16 0.500000 0.500000 0.241898
O O17 0.137275 0.377326 0.285974
O O18 0.633610 0.351040 0.306694
O O19 0.976559 0.309563 0.385095
#
# Coordination Sequence:
#
# PCOD9347502 Si02
#       8
#     4   4   4   4   4   4   4   4
#     4  10  21  36  57  87 123 158 192 235 290 352
#     4  11  24  40  60  87 115 143 185 242 297 346
#     4  11  24  41  61  86 115 152 197 247 302 350
#     4  11  22  38  60  85 114 153 192 228 284 346
#     4   9  20  35  55  87 124 154 186 228 283 353
#     4  11  23  39  57  82 119 155 191 234 277 334
#     4  11  22  39  62  86 118 157 198 242 291 353
#     4  10  22  36  56  88 118 152 193 230 279 342
#
# _framework density 19.949017000000001
#
# number of rings (size 3 to 8) (size 9 to 14) (size 15 to 20)
#    0.000    1.500    0.000    5.250    0.000   17.000 
#    0.000    0.000    0.000    7.500    0.000    0.000 
#    0.000    0.000    0.000    0.000    0.000    0.000 
#
# Total GULP energy -178791.328466 kJ/mol
# GULP energy per Si atom -5587.229015 kJ/mol
# Density = 1.990361 g / cm^3
# Si number density = 19.949017 Si / 1000 Ang^3
#
#
#
# Elastic Constant Matrix: (Units=GPa)
#
#
# Indices 1 2 3 4 5 6 
#
# 1 46.6161 -3.8958 -13.9318 0.0000 0.0000 0.0000
# 2 -3.8958 106.1145 13.6782 0.0000 0.0000 0.0000
# 3 -13.9318 13.6782 38.0639 0.0000 0.0000 0.0000
# 4 0.0000 0.0000 0.0000 20.8342 0.0000 0.0000
# 5 0.0000 0.0000 0.0000 0.0000 20.4176 0.0000
# 6 0.0000 0.0000 0.0000 0.0000 0.0000 32.3490
#
#
#
# Elastic Compliance Matrix: (Units=1/GPa)
#
#
# Indices 1 2 3 4 5 6 
#
# 1 0.024094 -0.000264 0.008914 0.000000 0.000000 0.000000
# 2 -0.000264 0.009884 -0.003649 0.000000 0.000000 0.000000
# 3 0.008914 -0.003649 0.030845 0.000000 0.000000 0.000000
# 4 0.000000 0.000000 0.000000 0.047998 0.000000 0.000000
# 5 0.000000 0.000000 0.000000 0.000000 0.048977 0.000000
# 6 0.000000 0.000000 0.000000 0.000000 0.000000 0.030913
#
#
# Mechanical properties :
#
#
# Convention : Reuss Voigt Hill
#
# Bulk Modulus (GPa) = 13.36470 20.27732 16.82101
# Shear Modulus (GPa) = 24.07875 27.71642 25.89758
#
# Velocity S-wave (km/s) = 3.47798 3.73146 3.60695
# Velocity P-wave (km/s) = 4.77938 5.36206 5.07908
#
# Compressibility (1/GPa) = 0.07482400
#
# Stress axis : x y z
#
# Youngs Moduli (GPa) = 41.50476 101.16960 32.41997
#
# Poissons Ratio (x) = 0.02675 -0.28898
# Poissons Ratio (y) = 0.01097 0.11829
# Poissons Ratio (z) = -0.36995 0.36914
#
# Static dielectric constant tensor:
#      x y z
#    x 1.686180 0.000000 0.000000 
#    y 0.000000 1.728920 0.000000 
#    z 0.000000 0.000000 1.727940 
# 
# From -- ./inp_files/8353.got.cif
#   From: 2010.05.17/outbox.cif.g08.bks.cpg/sg34_5_cif.got.tgz:8353.got - 2010.06.03 17:23:11.
