data_PCOD9347936
_publ_section_title
;
Structure prediction by ZEFSAII (Michael W. Deem and Ramdas Pophale) SiO2 
 PCOD9347936
Probable space group: P N N 2
;
_chemical_formula_sum "Si O2"
_cell_formula_units_Z 20
_cell_length_a 24.622996
_cell_length_b 5.722614
_cell_length_c 4.802253
_cell_angle_alpha 90.000000
_cell_angle_beta 90.000000
_cell_angle_gamma 90.000000
_cell_volume 676.675393
_symmetry_space_group_name_H-M "P N N 2"
_symmetry_group_IT_number 34
_symmetry_cell_setting 'orthorhombic'
loop_
_space_group_symop_operation_xyz
x,y,z
-x,-y,z
1/2-x,1/2+y,1/2+z
1/2+x,1/2-y,1/2+z
loop_
_atom_site_type_symbol
_atom_site_label
_atom_site_fract_x
_atom_site_fract_y
_atom_site_fract_z
Si Si1 0.216320 0.014474 0.719240
Si Si2 0.888318 0.740054 0.732457
Si Si3 0.178872 0.747126 0.208561
Si Si4 0.082313 0.753147 0.767637
Si Si5 0.982089 0.747868 0.147783
O O1 0.175742 0.233093 0.686339
O O2 0.279102 0.039271 0.650168
O O3 0.188771 0.814427 0.528513
O O4 0.208354 0.956319 0.041459
O O5 0.904409 0.488991 0.612619
O O6 0.908862 0.993981 0.627890
O O7 0.920030 0.743018 0.033562
O O8 0.122025 0.739704 0.043778
O O9 0.021088 0.744837 0.875173
O O10 0.000000 0.500000 0.282335
O O11 0.000000 0.000000 0.270799
#
# Coordination Sequence:
#
# PCOD9347936 Si02
#       5
#     4   4   4   4   4
#     4  11  23  40  63  95 131 173 217 269 326 392
#     4   9  18  34  58  89 123 164 211 263 320 382
#     4  11  23  40  63  95 131 173 217 269 326 392
#     4   9  18  34  58  89 123 164 211 263 320 382
#     4   8  14  28  54  84 118 158 206 260 316 376
#
# _framework density 29.556270999999999
#
# number of rings (size 3 to 8) (size 9 to 14) (size 15 to 20)
#    0.000    2.400    0.000    2.400    0.000    3.200 
#    0.000    0.000    0.000   30.000    0.000   70.000 
#    0.000    0.000    0.000    0.000    0.000    0.000 
#
# Total GULP energy -111627.459019 kJ/mol
# GULP energy per Si atom -5581.372951 kJ/mol
# Density = 2.948900 g / cm^3
# Si number density = 29.556271 Si / 1000 Ang^3
#
#
#
# Elastic Constant Matrix: (Units=GPa)
#
#
# Indices 1 2 3 4 5 6 
#
# 1 108.8534 30.5013 36.7506 0.0000 0.0000 0.0000
# 2 30.5013 243.4041 35.0673 0.0000 0.0000 0.0000
# 3 36.7506 35.0673 83.2554 0.0000 0.0000 0.0000
# 4 0.0000 0.0000 0.0000 -0.4507 0.0000 0.0000
# 5 0.0000 0.0000 0.0000 0.0000 53.9098 0.0000
# 6 0.0000 0.0000 0.0000 0.0000 0.0000 62.1629
#
#
#
# Elastic Compliance Matrix: (Units=1/GPa)
#
#
# Indices 1 2 3 4 5 6 
#
# 1 0.010912 -0.000717 -0.004515 0.000000 0.000000 0.000000
# 2 -0.000717 0.004421 -0.001546 0.000000 0.000000 0.000000
# 3 -0.004515 -0.001546 0.014655 0.000000 0.000000 0.000000
# 4 0.000000 0.000000 0.000000 -2.218890 0.000000 0.000000
# 5 0.000000 0.000000 0.000000 0.000000 0.018550 0.000000
# 6 0.000000 0.000000 0.000000 0.000000 0.000000 0.016087
#
#
# Mechanical properties :
#
#
# Convention : Reuss Voigt Hill
#
# Bulk Modulus (GPa) = 60.85206 71.12794 65.99000
# Shear Modulus (GPa) = -2.34166 45.33732 21.49783
#
# Velocity S-wave (km/s) = -0.89106 3.92079 2.69987
# Velocity P-wave (km/s) = 4.42432 6.67940 5.66520
#
# Compressibility (1/GPa) = 0.01643330
#
# Stress axis : x y z
#
# Youngs Moduli (GPa) = 91.64391 226.19761 68.23541
#
# Poissons Ratio (x) = 0.16217 0.30806
# Poissons Ratio (y) = 0.06570 0.10547
# Poissons Ratio (z) = 0.41375 0.34962
#
# Static dielectric constant tensor:
#      x y z
#    x 2.352820 0.000000 0.000000 
#    y 0.000000 2.315090 0.000000 
#    z 0.000000 0.000000 2.205820 
# 
# From -- ./inp_files/184.got.cif
#   From: 2010.05.17/outbox.cif.g08.bks.cpg/sg34_1_cif.got.tgz:184.got - 2010.06.03 17:23:11.
