data_PCOD9347097
_publ_section_title
;
Structure prediction by ZEFSAII (Michael W. Deem and Ramdas Pophale) SiO2 
 PCOD9347097
Probable space group: P N N 2
;
_chemical_formula_sum "Si O2"
_cell_formula_units_Z 28
_cell_length_a 6.790357
_cell_length_b 31.188644
_cell_length_c 5.341877
_cell_angle_alpha 90.000000
_cell_angle_beta 90.000000
_cell_angle_gamma 90.000000
_cell_volume 1131.313540
_symmetry_space_group_name_H-M "P N N 2"
_symmetry_group_IT_number 34
_symmetry_cell_setting 'orthorhombic'
loop_
_space_group_symop_operation_xyz
x,y,z
-x,-y,z
1/2-x,1/2+y,1/2+z
1/2+x,1/2-y,1/2+z
loop_
_atom_site_type_symbol
_atom_site_label
_atom_site_fract_x
_atom_site_fract_y
_atom_site_fract_z
Si Si1 0.154659 0.959925 0.268810
Si Si2 0.646505 0.209845 0.324756
Si Si3 0.153955 0.114131 0.266541
Si Si4 0.759289 0.300376 0.553990
Si Si5 0.888882 0.412416 0.269738
Si Si6 0.760327 0.007741 0.765762
Si Si7 0.869722 0.663593 0.317819
O O1 0.038659 0.915435 0.268054
O O2 0.274409 0.964208 0.521362
O O3 0.000000 0.000000 0.275718
O O4 0.282254 0.969017 0.025653
O O5 0.689314 0.257674 0.418557
O O6 0.717336 0.188320 0.061308
O O7 0.711329 0.180516 0.557034
O O8 0.411939 0.210466 0.276364
O O9 0.124247 0.163412 0.180713
O O10 0.271951 0.107554 0.526974
O O11 0.283917 0.096031 0.037470
O O12 0.902028 0.321819 0.348262
O O13 0.848887 0.462926 0.238244
O O14 0.097244 0.387203 0.300956
O O15 0.000000 0.000000 0.773675
#
# Coordination Sequence:
#
# PCOD9347097 Si02
#       7
#     4   4   4   4   4   4   4
#     4  10  15  22  32  55  78 116 146 175 206 270
#     4  10  20  32  50  64  90 114 163 194 247 280
#     4  11  17  25  40  57  85 113 156 179 222 274
#     4   9  22  32  49  67  89 123 158 204 238 291
#     4  11  15  26  37  58  81 115 150 181 216 272
#     4  10  15  20  34  51  80 111 148 172 206 262
#     4   9  20  31  46  66  87 120 155 198 233 285
#
# _framework density 24.749993
#
# number of rings (size 3 to 8) (size 9 to 14) (size 15 to 20)
#    0.857    1.143    7.143    0.000    2.000    0.000 
#    0.000    0.000    0.000    0.000    0.000    0.000 
#    0.000    0.000    0.000    1.286    8.857    4.714 
#
# Total GULP energy -156155.286341 kJ/mol
# GULP energy per Si atom -5576.974512 kJ/mol
# Density = 2.469366 g / cm^3
# Si number density = 24.749993 Si / 1000 Ang^3
#
#
#
# Elastic Constant Matrix: (Units=GPa)
#
#
# Indices 1 2 3 4 5 6 
#
# 1 52.2840 34.5632 12.3311 0.0000 0.0000 0.0000
# 2 34.5632 141.2906 51.8327 0.0000 0.0000 0.0000
# 3 12.3311 51.8327 223.6880 0.0000 0.0000 0.0000
# 4 0.0000 0.0000 0.0000 6.8023 0.0000 0.0000
# 5 0.0000 0.0000 0.0000 0.0000 22.6152 0.0000
# 6 0.0000 0.0000 0.0000 0.0000 0.0000 31.9557
#
#
#
# Elastic Compliance Matrix: (Units=1/GPa)
#
#
# Indices 1 2 3 4 5 6 
#
# 1 0.022816 -0.005596 0.000039 0.000000 0.000000 0.000000
# 2 -0.005596 0.009107 -0.001802 0.000000 0.000000 0.000000
# 3 0.000039 -0.001802 0.004886 0.000000 0.000000 0.000000
# 4 0.000000 0.000000 0.000000 0.147008 0.000000 0.000000
# 5 0.000000 0.000000 0.000000 0.000000 0.044218 0.000000
# 6 0.000000 0.000000 0.000000 0.000000 0.000000 0.031293
#
#
# Mechanical properties :
#
#
# Convention : Reuss Voigt Hill
#
# Bulk Modulus (GPa) = 45.26488 68.30183 56.78335
# Shear Modulus (GPa) = 17.76763 33.51036 25.63899
#
# Velocity S-wave (km/s) = 2.68224 3.68360 3.22206
# Velocity P-wave (km/s) = 5.28404 6.76377 6.06917
#
# Compressibility (1/GPa) = 0.02209218
#
# Stress axis : x y z
#
# Youngs Moduli (GPa) = 43.82839 109.79979 204.67029
#
# Poissons Ratio (x) = 0.61440 -0.00795
# Poissons Ratio (y) = 0.24525 0.36880
# Poissons Ratio (z) = -0.00170 0.19785
#
# Static dielectric constant tensor:
#      x y z
#    x 1.999340 0.000000 0.000000 
#    y 0.000000 2.070850 0.000000 
#    z 0.000000 0.000000 1.971090 
# 
# From -- ./inp_files/1104.got.cif
#   From: 2010.05.17/outbox.cif.g08.bks.cpg/sg34_1_cif.got.tgz:1104.got - 2010.06.03 17:23:11.
