data_PCOD9347929
_publ_section_title
;
Structure prediction by ZEFSAII (Michael W. Deem and Ramdas Pophale) SiO2 
 PCOD9347929
Probable space group: P N N 2
;
_chemical_formula_sum "Si O2"
_cell_formula_units_Z 32
_cell_length_a 14.169472
_cell_length_b 8.701434
_cell_length_c 11.970629
_cell_angle_alpha 90.000000
_cell_angle_beta 90.000000
_cell_angle_gamma 90.000000
_cell_volume 1475.915416
_symmetry_space_group_name_H-M "P N N 2"
_symmetry_group_IT_number 34
_symmetry_cell_setting 'orthorhombic'
loop_
_space_group_symop_operation_xyz
x,y,z
-x,-y,z
1/2-x,1/2+y,1/2+z
1/2+x,1/2-y,1/2+z
loop_
_atom_site_type_symbol
_atom_site_label
_atom_site_fract_x
_atom_site_fract_y
_atom_site_fract_z
Si Si1 0.273446 0.929708 0.677210
Si Si2 0.462063 0.681489 0.173053
Si Si3 0.584915 0.617817 0.567215
Si Si4 0.620555 0.729970 0.333880
Si Si5 0.755655 0.983636 0.421130
Si Si6 0.955206 0.834587 0.426021
Si Si7 0.525548 0.170905 0.702133
Si Si8 0.256100 0.267366 0.728948
O O1 0.246502 0.965512 0.549737
O O2 0.297927 0.094550 0.733735
O O3 0.191634 0.846821 0.745526
O O4 0.364086 0.820989 0.676887
O O5 0.500000 0.500000 0.177393
O O6 0.524943 0.760339 0.267269
O O7 0.352380 0.722286 0.197708
O O8 0.476912 0.739783 0.045976
O O9 0.500000 0.500000 0.600075
O O10 0.605755 0.611833 0.436479
O O11 0.533253 0.776925 0.595843
O O12 0.682091 0.633360 0.638312
O O13 0.666047 0.882868 0.385185
O O14 0.843985 0.866643 0.411529
O O15 0.762267 0.130850 0.340418
O O16 0.995791 0.763726 0.313940
O O17 0.000000 0.000000 0.435008
O O18 0.500000 0.000000 0.728549
#
# Coordination Sequence:
#
# PCOD9347929 Si02
#       8
#     4   4   4   4   4   4   4   4
#     4  12  25  47  71 106 146 192 244 309 372 452
#     4  11  23  45  74 102 144 194 244 309 373 444
#     4  12  27  46  75 109 146 195 252 310 372 457
#     4  12  25  48  74 109 146 195 247 307 381 450
#     4  12  25  46  72 102 151 191 239 314 374 445
#     4  11  22  44  71  98 140 192 247 299 368 452
#     4  12  24  42  68 103 142 187 242 305 371 440
#     4  12  25  48  71 107 147 193 249 307 372 448
#
# _framework density 21.681460000000001
#
# number of rings (size 3 to 8) (size 9 to 14) (size 15 to 20)
#    0.000    0.250    6.250    3.000    1.750    0.500 
#    2.250    0.000    0.000    0.000    0.000    0.000 
#    0.000    0.000    0.000    0.000    0.000    0.000 
#
# Total GULP energy -178660.374169 kJ/mol
# GULP energy per Si atom -5583.136693 kJ/mol
# Density = 2.163211 g / cm^3
# Si number density = 21.681460 Si / 1000 Ang^3
#
#
#
# Elastic Constant Matrix: (Units=GPa)
#
#
# Indices 1 2 3 4 5 6 
#
# 1 135.7274 12.3799 43.3159 0.0000 0.0000 0.0000
# 2 12.3799 37.5719 38.5603 0.0000 0.0000 0.0000
# 3 43.3159 38.5603 135.6369 0.0000 0.0000 0.0000
# 4 0.0000 0.0000 0.0000 14.6890 0.0000 0.0000
# 5 0.0000 0.0000 0.0000 0.0000 37.7256 0.0000
# 6 0.0000 0.0000 0.0000 0.0000 0.0000 35.8040
#
#
#
# Elastic Compliance Matrix: (Units=1/GPa)
#
#
# Indices 1 2 3 4 5 6 
#
# 1 0.008204 -0.000020 -0.002614 0.000000 0.000000 0.000000
# 2 -0.000020 0.037581 -0.010677 0.000000 0.000000 0.000000
# 3 -0.002614 -0.010677 0.011243 0.000000 0.000000 0.000000
# 4 0.000000 0.000000 0.000000 0.068078 0.000000 0.000000
# 5 0.000000 0.000000 0.000000 0.000000 0.026507 0.000000
# 6 0.000000 0.000000 0.000000 0.000000 0.000000 0.027930
#
#
# Mechanical properties :
#
#
# Convention : Reuss Voigt Hill
#
# Bulk Modulus (GPa) = 32.89055 55.27203 44.08129
# Shear Modulus (GPa) = 23.11596 31.95571 27.53584
#
# Velocity S-wave (km/s) = 3.26876 3.84327 3.56760
# Velocity P-wave (km/s) = 5.42671 6.72625 6.11112
#
# Compressibility (1/GPa) = 0.03040387
#
# Stress axis : x y z
#
# Youngs Moduli (GPa) = 121.89421 26.60951 88.94485
#
# Poissons Ratio (x) = 0.00054 0.23252
# Poissons Ratio (y) = 0.00247 0.94969
# Poissons Ratio (z) = 0.31865 0.28412
#
# Static dielectric constant tensor:
#      x y z
#    x 1.756570 0.000000 0.000000 
#    y 0.000000 1.818970 0.000000 
#    z 0.000000 0.000000 1.767490 
# 
# From -- ./inp_files/5688.got.cif
#   From: 2010.05.17/outbox.cif.g08.bks.cpg/sg34_3_cif.got.tgz:5688.got - 2010.06.03 17:23:11.
