data_PCOD9347480
_publ_section_title
;
Structure prediction by ZEFSAII (Michael W. Deem and Ramdas Pophale) SiO2 
 PCOD9347480
Probable space group: P N N 2
;
_chemical_formula_sum "Si O2"
_cell_formula_units_Z 22
_cell_length_a 6.502139
_cell_length_b 11.464057
_cell_length_c 13.744101
_cell_angle_alpha 90.000000
_cell_angle_beta 90.000000
_cell_angle_gamma 90.000000
_cell_volume 1024.497550
_symmetry_space_group_name_H-M "P N N 2"
_symmetry_group_IT_number 34
_symmetry_cell_setting 'orthorhombic'
loop_
_space_group_symop_operation_xyz
x,y,z
-x,-y,z
1/2-x,1/2+y,1/2+z
1/2+x,1/2-y,1/2+z
loop_
_atom_site_type_symbol
_atom_site_label
_atom_site_fract_x
_atom_site_fract_y
_atom_site_fract_z
Si Si1 0.487783 0.377004 0.255930
Si Si2 0.342494 0.720463 0.823864
Si Si3 0.241731 0.344579 0.066094
Si Si4 0.029977 0.361616 0.512926
Si Si5 0.358107 0.235408 0.645025
Si Si6 0.000000 0.000000 0.420956
O O1 0.500000 0.500000 0.311482
O O2 0.388402 0.267680 0.310332
O O3 0.327281 0.395646 0.167499
O O4 0.699291 0.341233 0.206559
O O5 0.477135 0.721678 0.724953
O O6 0.363251 0.590276 0.861508
O O7 0.433173 0.809472 0.904911
O O8 0.337454 0.214245 0.053432
O O9 0.997188 0.337667 0.069879
O O10 0.347039 0.422410 0.984960
O O11 0.000000 0.500000 0.511952
O O12 0.221268 0.325602 0.582987
#
# Coordination Sequence:
#
# PCOD9347480 Si02
#       6
#     4   4   4   4   4   2
#     4  10  21  40  63  95 129 166 225 271 332 408
#     4  10  24  40  65  98 131 175 222 278 339 401
#     4   9  20  41  66  93 123 169 221 274 333 392
#     4  10  23  42  63  96 134 173 224 271 331 415
#     4  10  23  42  66  95 128 178 216 273 345 392
#     4  10  20  44  66  96 138 166 230 282 332 420
#
# _framework density 21.473941
#
# number of rings (size 3 to 8) (size 9 to 14) (size 15 to 20)
#    0.000    2.182    0.909    0.000    2.545   10.182 
#    0.000    5.455    0.000    0.000    0.000    0.000 
#    0.000    0.000    0.000    0.000    0.000    0.000 
#
# Total GULP energy -122800.409195 kJ/mol
# GULP energy per Si atom -5581.836782 kJ/mol
# Density = 2.142507 g / cm^3
# Si number density = 21.473941 Si / 1000 Ang^3
#
#
#
# Elastic Constant Matrix: (Units=GPa)
#
#
# Indices 1 2 3 4 5 6 
#
# 1 123.0289 55.0793 18.8333 0.0000 0.0000 0.0000
# 2 55.0793 168.0782 33.3850 0.0000 0.0000 0.0000
# 3 18.8333 33.3850 66.3872 0.0000 0.0000 0.0000
# 4 0.0000 0.0000 0.0000 5.2136 0.0000 0.0000
# 5 0.0000 0.0000 0.0000 0.0000 13.6917 0.0000
# 6 0.0000 0.0000 0.0000 0.0000 0.0000 11.9480
#
#
#
# Elastic Compliance Matrix: (Units=1/GPa)
#
#
# Indices 1 2 3 4 5 6 
#
# 1 0.009621 -0.002900 -0.001271 0.000000 0.000000 0.000000
# 2 -0.002900 0.007484 -0.002941 0.000000 0.000000 0.000000
# 3 -0.001271 -0.002941 0.016903 0.000000 0.000000 0.000000
# 4 0.000000 0.000000 0.000000 0.191806 0.000000 0.000000
# 5 0.000000 0.000000 0.000000 0.000000 0.073037 0.000000
# 6 0.000000 0.000000 0.000000 0.000000 0.000000 0.083696
#
#
# Mechanical properties :
#
#
# Convention : Reuss Voigt Hill
#
# Bulk Modulus (GPa) = 50.54661 63.56549 57.05605
# Shear Modulus (GPa) = 12.39570 22.85045 17.62307
#
# Velocity S-wave (km/s) = 2.40520 3.26560 2.86785
# Velocity P-wave (km/s) = 5.59491 6.62452 6.13136
#
# Compressibility (1/GPa) = 0.01978372
#
# Stress axis : x y z
#
# Youngs Moduli (GPa) = 103.93680 133.61424 59.16251
#
# Poissons Ratio (x) = 0.38754 0.07519
# Poissons Ratio (y) = 0.30146 0.17399
# Poissons Ratio (z) = 0.13209 0.39294
#
# Static dielectric constant tensor:
#      x y z
#    x 1.800790 0.000000 0.000000 
#    y 0.000000 1.788870 0.000000 
#    z 0.000000 0.000000 1.822500 
# 
# From -- ./inp_files/6045.got.cif
#   From: 2010.05.17/outbox.cif.g08.bks.cpg/sg34_4_cif.got.tgz:6045.got - 2010.06.03 17:23:11.
