data_PCOD9347361
_publ_section_title
;
Structure prediction by ZEFSAII (Michael W. Deem and Ramdas Pophale) SiO2 
 PCOD9347361
Probable space group: P N N 2
;
_chemical_formula_sum "Si O2"
_cell_formula_units_Z 26
_cell_length_a 11.363223
_cell_length_b 9.165149
_cell_length_c 11.083335
_cell_angle_alpha 90.000000
_cell_angle_beta 90.000000
_cell_angle_gamma 90.000000
_cell_volume 1154.280927
_symmetry_space_group_name_H-M "P N N 2"
_symmetry_group_IT_number 34
_symmetry_cell_setting 'orthorhombic'
loop_
_space_group_symop_operation_xyz
x,y,z
-x,-y,z
1/2-x,1/2+y,1/2+z
1/2+x,1/2-y,1/2+z
loop_
_atom_site_type_symbol
_atom_site_label
_atom_site_fract_x
_atom_site_fract_y
_atom_site_fract_z
Si Si1 0.123054 0.709487 0.034730
Si Si2 0.746647 0.477457 0.542892
Si Si3 0.856219 0.699391 0.953423
Si Si4 0.696410 0.785379 0.277278
Si Si5 0.432847 0.740968 0.203625
Si Si6 0.245987 0.986372 0.657126
Si Si7 0.500000 0.000000 0.022636
O O1 0.154807 0.608201 0.146137
O O2 0.178122 0.869798 0.054903
O O3 0.193012 0.659027 0.913222
O O4 0.987156 0.681099 0.006432
O O5 0.663340 0.370970 0.469191
O O6 0.769023 0.401009 0.674321
O O7 0.871988 0.462573 0.472798
O O8 0.861335 0.677255 0.810340
O O9 0.762078 0.612383 0.034899
O O10 0.564312 0.724083 0.254289
O O11 0.766874 0.635493 0.258374
O O12 0.369380 0.590351 0.167223
O O13 0.455333 0.858455 0.098925
#
# Coordination Sequence:
#
# PCOD9347361 Si02
#       7
#     4   4   4   4   4   4   2
#     4  11  21  38  65  89 120 163 207 253 306 367
#     4  10  20  38  60  87 121 156 207 251 307 360
#     4  10  23  37  64  92 119 161 207 256 306 371
#     4   9  22  38  61  90 123 158 216 255 292 369
#     4  10  20  38  64  88 119 161 211 255 299 362
#     4  11  21  35  61  96 124 149 203 269 310 350
#     4  10  20  36  62  88 112 156 206 256 288 366
#
# _framework density 22.524846
#
# number of rings (size 3 to 8) (size 9 to 14) (size 15 to 20)
#    0.000    1.846    1.538    2.308    6.462    2.462 
#    0.000    0.000   20.308    7.385    0.000    0.000 
#    0.000    0.000    0.000    0.000    0.000    0.000 
#
# Total GULP energy -144776.629393 kJ/mol
# GULP energy per Si atom -5568.331900 kJ/mol
# Density = 2.247358 g / cm^3
# Si number density = 22.524846 Si / 1000 Ang^3
#
#
#
# Elastic Constant Matrix: (Units=GPa)
#
#
# Indices 1 2 3 4 5 6 
#
# 1 36.7626 10.3899 20.5735 0.0000 0.0000 0.0000
# 2 10.3899 85.1166 9.8606 0.0000 0.0000 0.0000
# 3 20.5735 9.8606 51.9917 0.0000 0.0000 0.0000
# 4 0.0000 0.0000 0.0000 -103.1107 0.0000 0.0000
# 5 0.0000 0.0000 0.0000 0.0000 24.9292 0.0000
# 6 0.0000 0.0000 0.0000 0.0000 0.0000 32.1578
#
#
#
# Elastic Compliance Matrix: (Units=1/GPa)
#
#
# Indices 1 2 3 4 5 6 
#
# 1 0.035567 -0.002772 -0.013548 0.000000 0.000000 0.000000
# 2 -0.002772 0.012229 -0.001222 0.000000 0.000000 0.000000
# 3 -0.013548 -0.001222 0.024827 0.000000 0.000000 0.000000
# 4 0.000000 0.000000 0.000000 -0.009698 0.000000 0.000000
# 5 0.000000 0.000000 0.000000 0.000000 0.040114 0.000000
# 6 0.000000 0.000000 0.000000 0.000000 0.000000 0.031097
#
#
# Mechanical properties :
#
#
# Convention : Reuss Voigt Hill
#
# Bulk Modulus (GPa) = 26.64038 28.39099 27.51568
# Shear Modulus (GPa) = 27.51300 -0.33495 13.58903
#
# Velocity S-wave (km/s) = 3.49872 -0.38604 2.45886
# Velocity P-wave (km/s) = 5.30793 3.52604 4.50595
#
# Compressibility (1/GPa) = 0.03753701
#
# Stress axis : x y z
#
# Youngs Moduli (GPa) = 28.11591 81.77573 40.27894
#
# Poissons Ratio (x) = 0.22668 0.54572
# Poissons Ratio (y) = 0.07794 0.04923
# Poissons Ratio (z) = 0.38093 0.09996
#
# Static dielectric constant tensor:
#      x y z
#    x 2.004140 0.000000 0.000000 
#    y 0.000000 1.899040 0.000000 
#    z 0.000000 0.000000 1.901350 
# 
# From -- ./inp_files/5347.got.cif
#   From: 2010.05.17/outbox.cif.g08.bks.cpg/sg34_3_cif.got.tgz:5347.got - 2010.06.03 17:23:11.
