data_PCOD9347832
_publ_section_title
;
Structure prediction by ZEFSAII (Michael W. Deem and Ramdas Pophale) SiO2 
 PCOD9347832
Probable space group: P N N 2
;
_chemical_formula_sum "Si O2"
_cell_formula_units_Z 32
_cell_length_a 12.025411
_cell_length_b 8.248709
_cell_length_c 14.368895
_cell_angle_alpha 90.000000
_cell_angle_beta 90.000000
_cell_angle_gamma 90.000000
_cell_volume 1425.309837
_symmetry_space_group_name_H-M "P N N 2"
_symmetry_group_IT_number 34
_symmetry_cell_setting 'orthorhombic'
loop_
_space_group_symop_operation_xyz
x,y,z
-x,-y,z
1/2-x,1/2+y,1/2+z
1/2+x,1/2-y,1/2+z
loop_
_atom_site_type_symbol
_atom_site_label
_atom_site_fract_x
_atom_site_fract_y
_atom_site_fract_z
Si Si1 0.128991 0.343070 0.909300
Si Si2 0.946171 0.822893 0.294047
Si Si3 0.184871 0.610836 0.053533
Si Si4 0.272042 0.830323 0.917805
Si Si5 0.890947 0.114235 0.592654
Si Si6 0.531194 0.310465 0.591702
Si Si7 0.553769 0.679311 0.293629
Si Si8 0.856512 0.309743 0.402520
O O1 0.246067 0.284007 0.868813
O O2 0.034382 0.307411 0.834107
O O3 0.143189 0.515713 0.960183
O O4 0.098382 0.232093 0.999180
O O5 0.848037 0.800929 0.366283
O O6 0.906888 0.787181 0.189529
O O7 0.044945 0.708714 0.329429
O O8 0.000000 0.000000 0.296286
O O9 0.276185 0.491824 0.099198
O O10 0.073875 0.686315 0.098154
O O11 0.251802 0.768613 0.021125
O O12 0.156293 0.836861 0.863594
O O13 0.328310 0.003659 0.915378
O O14 0.906647 0.211384 0.688635
O O15 0.885247 0.224733 0.500790
O O16 0.000000 0.000000 0.581918
O O17 0.500000 0.500000 0.585318
O O18 0.500000 0.500000 0.291794
#
# Coordination Sequence:
#
# PCOD9347832 Si02
#       8
#     4   4   4   4   4   4   4   4
#     4  11  22  42  71  98 134 174 226 283 352 406
#     4  11  26  44  65  98 139 177 229 283 340 405
#     4  11  24  41  71  99 136 182 229 284 349 416
#     4  12  24  41  70  98 136 180 230 279 353 408
#     4  10  24  44  72  99 145 183 232 284 352 422
#     4  11  24  42  66 100 135 174 228 289 336 402
#     4  11  23  43  69 106 139 180 228 293 345 418
#     4  11  23  42  72  97 136 181 227 286 345 411
#
# _framework density 22.451259
#
# number of rings (size 3 to 8) (size 9 to 14) (size 15 to 20)
#    0.000    1.000    2.500    4.500    5.250    1.000 
#    0.000    0.000   11.000    0.000    0.000    0.000 
#    0.000    0.000    0.000    0.000    0.000    0.000 
#
# Total GULP energy -178975.761667 kJ/mol
# GULP energy per Si atom -5592.992552 kJ/mol
# Density = 2.240016 g / cm^3
# Si number density = 22.451259 Si / 1000 Ang^3
#
#
#
# Elastic Constant Matrix: (Units=GPa)
#
#
# Indices 1 2 3 4 5 6 
#
# 1 86.1646 9.5153 13.6202 0.0000 0.0000 0.0000
# 2 9.5153 83.5189 7.0659 0.0000 0.0000 0.0000
# 3 13.6202 7.0659 60.3526 0.0000 0.0000 0.0000
# 4 0.0000 0.0000 0.0000 18.2929 0.0000 0.0000
# 5 0.0000 0.0000 0.0000 0.0000 -12.2145 0.0000
# 6 0.0000 0.0000 0.0000 0.0000 0.0000 39.7981
#
#
#
# Elastic Compliance Matrix: (Units=1/GPa)
#
#
# Indices 1 2 3 4 5 6 
#
# 1 0.012146 -0.001163 -0.002605 0.000000 0.000000 0.000000
# 2 -0.001163 0.012205 -0.001166 0.000000 0.000000 0.000000
# 3 -0.002605 -0.001166 0.017294 0.000000 0.000000 0.000000
# 4 0.000000 0.000000 0.000000 0.054666 0.000000 0.000000
# 5 0.000000 0.000000 0.000000 0.000000 -0.081870 0.000000
# 6 0.000000 0.000000 0.000000 0.000000 0.000000 0.025127
#
#
# Mechanical properties :
#
#
# Convention : Reuss Voigt Hill
#
# Bulk Modulus (GPa) = 31.47126 32.27100 31.87113
# Shear Modulus (GPa) = 83.29475 22.49762 52.89619
#
# Velocity S-wave (km/s) = 6.09761 3.16898 4.85918
# Velocity P-wave (km/s) = 7.97637 5.27208 6.76082
#
# Compressibility (1/GPa) = 0.03177503
#
# Stress axis : x y z
#
# Youngs Moduli (GPa) = 82.33219 81.93664 57.82455
#
# Poissons Ratio (x) = 0.09533 0.15062
# Poissons Ratio (y) = 0.09579 0.06744
# Poissons Ratio (z) = 0.21446 0.09556
#
# Static dielectric constant tensor:
#      x y z
#    x 1.842240 0.000000 0.000000 
#    y 0.000000 1.851610 0.000000 
#    z 0.000000 0.000000 1.811400 
# 
# From -- ./inp_files/6832.got.cif
#   From: 2010.05.17/outbox.cif.g08.bks.cpg/sg34_4_cif.got.tgz:6832.got - 2010.06.03 17:23:11.
