data_PCOD9347056
_publ_section_title
;
Structure prediction by ZEFSAII (Michael W. Deem and Ramdas Pophale) SiO2 
 PCOD9347056
Probable space group: P N A 21
;
_chemical_formula_sum "Si O2"
_cell_formula_units_Z 32
_cell_length_a 21.000000
_cell_length_b 6.000000
_cell_length_c 12.000000
_cell_angle_alpha 90.000000
_cell_angle_beta 90.000000
_cell_angle_gamma 90.000000
_cell_volume 1512.000000
_symmetry_space_group_name_H-M "P N A 21"
_symmetry_group_IT_number 33
_symmetry_cell_setting 'orthorhombic'
loop_
_space_group_symop_operation_xyz
x,y,z
-x,-y,1/2+z
1/2-x,1/2+y,1/2+z
1/2+x,1/2-y,z
loop_
_atom_site_type_symbol
_atom_site_label
_atom_site_fract_x
_atom_site_fract_y
_atom_site_fract_z
Si Si1 0.820659 0.685379 0.516770
Si Si2 0.923987 0.937964 0.383895
Si Si3 0.957653 0.348986 0.983413
Si Si4 0.064967 0.665234 0.053083
Si Si5 0.733943 0.127236 0.240542
Si Si6 0.373695 0.467584 0.145762
Si Si7 0.372607 0.226783 0.783246
Si Si8 0.804636 0.923981 0.935340
O O1 0.856210 0.853280 0.434318
O O2 0.876420 0.503879 0.533542
O O3 0.800683 0.766845 0.640648
O O4 0.755558 0.580158 0.468863
O O5 0.984470 0.791901 0.425454
O O6 0.934667 0.169153 0.448436
O O7 0.915791 0.947804 0.250081
O O8 0.911768 0.411576 0.878689
O O9 0.915295 0.209985 0.073393
O O10 0.996789 0.541451 0.047642
O O11 0.082894 0.765807 0.174762
O O12 0.807883 0.115517 0.205002
O O13 0.724777 0.227023 0.362886
O O14 0.692325 0.899177 0.244928
O O15 0.344412 0.627667 0.048119
O O16 0.351241 0.444629 0.851140
#
# Coordination Sequence:
#
# PCOD9347056 Si02
#       8
#     4   4   4   4   4   4   4   4
#     4   9  20  38  60  95 123 157 217 259 306 384
#     4  11  22  40  63  85 127 172 206 258 319 371
#     4  10  25  41  57  94 128 159 219 265 296 386
#     4  10  22  39  62  86 123 172 209 254 318 371
#     4  10  20  40  67  88 127 163 199 267 322 371
#     4  10  23  41  62  96 124 159 216 256 312 383
#     4  10  22  40  60  94 123 158 217 255 311 383
#     4  10  20  39  63  92 127 160 203 268 318 367
#
# _framework density 21.164021000000002
#
# number of rings (size 3 to 8) (size 9 to 14) (size 15 to 20)
#    0.000    2.000    0.000    2.250    3.500    2.000 
#    2.250   13.750    0.000    0.000    0.000    0.000 
#    0.000    0.000    0.000    0.000    0.000    0.000 
#
# Total GULP energy -178524.185454 kJ/mol
# GULP energy per Si atom -5578.880795 kJ/mol
# Density = 2.111585 g / cm^3
# Si number density = 21.164021 Si / 1000 Ang^3
#
#
#
# Elastic Constant Matrix: (Units=GPa)
#
#
# Indices 1 2 3 4 5 6 
#
# 1 108.3522 7.8606 29.2362 0.0000 0.0000 0.0000
# 2 7.8606 13.4473 17.5631 0.0000 0.0000 0.0000
# 3 29.2362 17.5631 148.1638 0.0000 0.0000 0.0000
# 4 0.0000 0.0000 0.0000 33.7631 0.0000 0.0000
# 5 0.0000 0.0000 0.0000 0.0000 50.8360 0.0000
# 6 0.0000 0.0000 0.0000 0.0000 0.0000 22.0392
#
#
#
# Elastic Compliance Matrix: (Units=1/GPa)
#
#
# Indices 1 2 3 4 5 6 
#
# 1 0.009912 -0.003833 -0.001502 0.000000 0.000000 0.000000
# 2 -0.003833 0.089469 -0.009849 0.000000 0.000000 0.000000
# 3 -0.001502 -0.009849 0.008213 0.000000 0.000000 0.000000
# 4 0.000000 0.000000 0.000000 0.029618 0.000000 0.000000
# 5 0.000000 0.000000 0.000000 0.000000 0.019671 0.000000
# 6 0.000000 0.000000 0.000000 0.000000 0.000000 0.045374
#
#
# Mechanical properties :
#
#
# Convention : Reuss Voigt Hill
#
# Bulk Modulus (GPa) = 12.94892 42.14257 27.54575
# Shear Modulus (GPa) = 19.35233 35.68121 27.51677
#
# Velocity S-wave (km/s) = 3.02718 4.11047 3.60970
# Velocity P-wave (km/s) = 4.28370 6.51794 5.51514
#
# Compressibility (1/GPa) = 0.07722649
#
# Stress axis : x y z
#
# Youngs Moduli (GPa) = 100.88372 11.17711 121.75700
#
# Poissons Ratio (x) = 0.04284 0.18283
# Poissons Ratio (y) = 0.38670 1.19920
# Poissons Ratio (z) = 0.15148 0.11008
#
# Static dielectric constant tensor:
#      x y z
#    x 1.747240 0.000000 0.000000 
#    y 0.000000 1.810390 0.000000 
#    z 0.000000 0.000000 1.774370 
# 
# From -- ./inp_files/7198.got.cif
#   From: 2010.05.17/outbox.ucp.g08.bks.cvg/sg33_4_cif.got.tgz:7198.got - 2010.06.11 10:35:07.
