data_PCOD9347242
_publ_section_title
;
Structure prediction by ZEFSAII (Michael W. Deem and Ramdas Pophale) SiO2 
 PCOD9347242
Probable space group: P N N 2
;
_chemical_formula_sum "Si O2"
_cell_formula_units_Z 24
_cell_length_a 12.212977
_cell_length_b 6.511720
_cell_length_c 13.847886
_cell_angle_alpha 90.000000
_cell_angle_beta 90.000000
_cell_angle_gamma 90.000000
_cell_volume 1101.287568
_symmetry_space_group_name_H-M "P N N 2"
_symmetry_group_IT_number 34
_symmetry_cell_setting 'orthorhombic'
loop_
_space_group_symop_operation_xyz
x,y,z
-x,-y,z
1/2-x,1/2+y,1/2+z
1/2+x,1/2-y,1/2+z
loop_
_atom_site_type_symbol
_atom_site_label
_atom_site_fract_x
_atom_site_fract_y
_atom_site_fract_z
Si Si1 0.260078 1.000000 0.800630
Si Si2 0.500000 0.000000 0.059530
Si Si3 0.192775 0.380361 0.701626
Si Si4 0.340884 0.293933 0.966464
Si Si5 0.659116 0.293933 0.634796
Si Si6 0.000000 0.500000 0.041730
Si Si7 0.192775 0.619638 0.899635
O O1 0.321562 0.840089 0.731849
O O2 0.194639 0.857915 0.874668
O O3 0.194639 0.142085 0.726592
O O4 0.321563 0.159911 0.869410
O O5 0.399196 0.928529 0.124511
O O6 0.545243 0.799353 0.003457
O O7 0.309198 0.473506 0.665026
O O8 0.165555 0.500000 0.800630
O O9 0.309199 0.526493 0.936235
O O10 0.250000 0.250000 0.050630
O O11 0.545243 0.200647 0.597803
O O12 0.899196 0.428529 0.976750
#
# Coordination Sequence:
#
# PCOD9347242 Si02
#       7
#     4   2   4   4   4   2   4
#     4  10  20  39  63  80 118 168 202 249 323 380
#     4  10  19  35  58  86 122 158 208 263 313 380
#     4   9  19  38  59  85 119 159 204 257 314 374
#     4   9  20  37  57  85 120 156 200 256 310 369
#     4   9  20  37  57  85 120 156 200 256 310 369
#     4  10  19  35  58  86 122 158 208 263 313 380
#     4   9  19  38  59  85 119 159 204 257 314 374
#
# _framework density 21.792673000000001
#
# number of rings (size 3 to 8) (size 9 to 14) (size 15 to 20)
#    0.000    2.667    0.000    0.500    0.000    6.000 
#    0.000   41.667    0.000   10.000    0.000    0.000 
#    0.000    0.000    0.000    0.000    0.000    0.000 
#
# Total GULP energy -133692.511466 kJ/mol
# GULP energy per Si atom -5570.521311 kJ/mol
# Density = 2.174307 g / cm^3
# Si number density = 21.792673 Si / 1000 Ang^3
#
#
#
# Elastic Constant Matrix: (Units=GPa)
#
#
# Indices 1 2 3 4 5 6 
#
# 1 97.1442 51.8456 34.7972 0.0000 0.0000 0.0000
# 2 51.8456 116.1543 15.2231 0.0000 0.0000 0.0000
# 3 34.7972 15.2231 76.6053 0.0000 0.0000 0.0000
# 4 0.0000 0.0000 0.0000 36.8171 0.0000 0.0000
# 5 0.0000 0.0000 0.0000 0.0000 42.8019 0.0000
# 6 0.0000 0.0000 0.0000 0.0000 0.0000 18.2364
#
#
#
# Elastic Compliance Matrix: (Units=1/GPa)
#
#
# Indices 1 2 3 4 5 6 
#
# 1 0.015750 -0.006255 -0.005911 0.000000 0.000000 0.000000
# 2 -0.006255 0.011324 0.000591 0.000000 0.000000 0.000000
# 3 -0.005911 0.000591 0.015622 0.000000 0.000000 0.000000
# 4 0.000000 0.000000 0.000000 0.027161 0.000000 0.000000
# 5 0.000000 0.000000 0.000000 0.000000 0.023363 0.000000
# 6 0.000000 0.000000 0.000000 0.000000 0.000000 0.054835
#
#
# Mechanical properties :
#
#
# Convention : Reuss Voigt Hill
#
# Bulk Modulus (GPa) = 51.16508 54.84841 53.00675
# Shear Modulus (GPa) = 28.13408 32.10694 30.12051
#
# Velocity S-wave (km/s) = 3.59693 3.84251 3.72175
# Velocity P-wave (km/s) = 6.38589 6.70145 6.54557
#
# Compressibility (1/GPa) = 0.01954458
#
# Stress axis : x y z
#
# Youngs Moduli (GPa) = 63.49310 88.30970 64.01420
#
# Poissons Ratio (x) = 0.55240 0.37840
# Poissons Ratio (y) = 0.39716 -0.03784
# Poissons Ratio (z) = 0.37532 -0.05220
#
# Static dielectric constant tensor:
#      x y z
#    x 1.804980 0.000000 0.000000 
#    y 0.000000 1.852860 0.000000 
#    z 0.000000 0.000000 1.812480 
# 
# From -- ./inp_files/6871.got.cif
#   From: 2010.05.17/outbox.cif.g08.bks.cpg/sg34_4_cif.got.tgz:6871.got - 2010.06.03 17:23:11.
