data_PCOD9347909
_publ_section_title
;
Structure prediction by ZEFSAII (Michael W. Deem and Ramdas Pophale) SiO2 
 PCOD9347909
Probable space group: P N N 2
;
_chemical_formula_sum "Si O2"
_cell_formula_units_Z 24
_cell_length_a 7.378104
_cell_length_b 9.633903
_cell_length_c 17.113851
_cell_angle_alpha 90.000000
_cell_angle_beta 90.000000
_cell_angle_gamma 90.000000
_cell_volume 1216.451472
_symmetry_space_group_name_H-M "P N N 2"
_symmetry_group_IT_number 34
_symmetry_cell_setting 'orthorhombic'
loop_
_space_group_symop_operation_xyz
x,y,z
-x,-y,z
1/2-x,1/2+y,1/2+z
1/2+x,1/2-y,1/2+z
loop_
_atom_site_type_symbol
_atom_site_label
_atom_site_fract_x
_atom_site_fract_y
_atom_site_fract_z
Si Si1 0.663352 0.340506 0.182310
Si Si2 0.510662 0.343924 0.699724
Si Si3 0.010663 0.156076 0.506396
Si Si4 0.212308 0.874525 0.762586
Si Si5 0.663353 0.340507 0.523811
Si Si6 0.787693 0.125476 0.943534
O O1 0.599659 0.350124 0.092842
O O2 0.483292 0.318964 0.234111
O O3 0.744396 0.488039 0.210549
O O4 0.812147 0.222454 0.192241
O O5 0.500000 0.500000 0.730942
O O6 0.636049 0.240531 0.748772
O O7 0.599660 0.350125 0.613278
O O8 0.136051 0.259467 0.457348
O O9 0.812148 0.222454 0.513879
O O10 0.000000 0.000000 0.475178
O O11 0.205342 0.914802 0.853060
O O12 0.744398 0.488040 0.495571
O O13 0.483293 0.318966 0.472010
#
# Coordination Sequence:
#
# PCOD9347909 Si02
#       6
#     4   4   4   4   4   4
#     4  11  21  42  67  92 128 172 218 260 310 387
#     4  12  23  39  66  98 129 168 217 264 322 378
#     4  12  23  39  66  98 129 168 217 264 322 378
#     4  11  25  44  67  96 129 170 218 264 317 381
#     4  11  21  42  67  92 128 172 218 260 310 387
#     4  11  25  44  67  96 129 170 218 264 317 381
#
# _framework density 19.729516
#
# number of rings (size 3 to 8) (size 9 to 14) (size 15 to 20)
#    0.000    0.667    6.667    3.000    0.000    6.000 
#    0.000    1.667    0.000    0.000    0.000    0.000 
#    0.000    0.000    0.000    0.000    0.000    0.000 
#
# Total GULP energy -134238.457498 kJ/mol
# GULP energy per Si atom -5593.269062 kJ/mol
# Density = 1.968461 g / cm^3
# Si number density = 19.729516 Si / 1000 Ang^3
#
#
#
# Elastic Constant Matrix: (Units=GPa)
#
#
# Indices 1 2 3 4 5 6 
#
# 1 59.2847 50.7962 -12.8546 0.0000 0.0000 0.0000
# 2 50.7962 101.8078 2.1150 0.0000 0.0000 0.0000
# 3 -12.8546 2.1150 71.3600 0.0000 0.0000 0.0000
# 4 0.0000 0.0000 0.0000 33.2131 0.0000 0.0000
# 5 0.0000 0.0000 0.0000 0.0000 -5.6545 0.0000
# 6 0.0000 0.0000 0.0000 0.0000 0.0000 31.3954
#
#
#
# Elastic Compliance Matrix: (Units=1/GPa)
#
#
# Indices 1 2 3 4 5 6 
#
# 1 0.032023 -0.016108 0.006246 0.000000 0.000000 0.000000
# 2 -0.016108 0.017930 -0.003433 0.000000 0.000000 0.000000
# 3 0.006246 -0.003433 0.015240 0.000000 0.000000 0.000000
# 4 0.000000 0.000000 0.000000 0.030109 0.000000 0.000000
# 5 0.000000 0.000000 0.000000 0.000000 -0.176850 0.000000
# 6 0.000000 0.000000 0.000000 0.000000 0.000000 0.031852
#
#
# Mechanical properties :
#
#
# Convention : Reuss Voigt Hill
#
# Bulk Modulus (GPa) = 25.90336 34.72953 30.31644
# Shear Modulus (GPa) = -488.37865 24.61720 -231.88072
#
# Velocity S-wave (km/s) = -15.75038 3.53616 -10.85288
# Velocity P-wave (km/s) = 17.82157 5.85778 11.90157
#
# Compressibility (1/GPa) = 0.03860503
#
# Stress axis : x y z
#
# Youngs Moduli (GPa) = 31.22729 55.77101 65.61533
#
# Poissons Ratio (x) = 0.89833 -0.40983
# Poissons Ratio (y) = 0.50299 0.22526
# Poissons Ratio (z) = -0.19505 0.19146
#
# Static dielectric constant tensor:
#      x y z
#    x 1.685350 0.000000 0.000000 
#    y 0.000000 1.685440 0.000000 
#    z 0.000000 0.000000 1.679810 
# 
# From -- ./inp_files/7474.got.cif
#   From: 2010.05.17/outbox.cif.g08.bks.cpg/sg34_4_cif.got.tgz:7474.got - 2010.06.03 17:23:11.
