data_PCOD9347780
_publ_section_title
;
Structure prediction by ZEFSAII (Michael W. Deem and Ramdas Pophale) SiO2 
 PCOD9347780
Probable space group: P N N 2
;
_chemical_formula_sum "Si O2"
_cell_formula_units_Z 18
_cell_length_a 14.000884
_cell_length_b 5.269226
_cell_length_c 11.069190
_cell_angle_alpha 90.000000
_cell_angle_beta 90.000000
_cell_angle_gamma 90.000000
_cell_volume 816.616453
_symmetry_space_group_name_H-M "P N N 2"
_symmetry_group_IT_number 34
_symmetry_cell_setting 'orthorhombic'
loop_
_space_group_symop_operation_xyz
x,y,z
-x,-y,z
1/2-x,1/2+y,1/2+z
1/2+x,1/2-y,1/2+z
loop_
_atom_site_type_symbol
_atom_site_label
_atom_site_fract_x
_atom_site_fract_y
_atom_site_fract_z
Si Si1 0.784090 0.248946 0.384640
Si Si2 0.965333 0.243294 0.264151
Si Si3 0.065442 0.749742 0.603541
Si Si4 0.000000 0.000000 0.033755
Si Si5 0.838758 0.248107 0.865881
O O1 0.855525 0.238636 0.498099
O O2 0.739551 0.526921 0.375340
O O3 0.851580 0.220808 0.265308
O O4 0.707027 0.022945 0.395145
O O5 0.000000 0.500000 0.320791
O O6 0.021968 0.213635 0.136735
O O7 0.000000 0.000000 0.336849
O O8 0.119596 0.735384 0.731704
O O9 0.000000 0.500000 0.593097
O O10 0.000000 0.000000 0.606612
O O11 0.921868 0.137907 0.952640
#
# Coordination Sequence:
#
# PCOD9347780 Si02
#       5
#     4   4   4   2   4
#     4  12  27  44  72 105 138 176 241 286 342 408
#     4  10  23  42  74  95 136 176 231 273 345 403
#     4  12  26  48  72 101 147 187 228 288 365 421
#     4  10  28  44  70  96 142 184 228 274 356 410
#     4  12  28  44  71 103 139 183 231 291 344 415
#
# _framework density 22.042172999999998
#
# number of rings (size 3 to 8) (size 9 to 14) (size 15 to 20)
#    0.667    0.000    1.111    5.333    9.333    0.000 
#    0.000    0.000    0.000    0.000    0.000    0.000 
#    0.000    0.000    0.000    0.000    0.000    0.000 
#
# Total GULP energy -100419.310573 kJ/mol
# GULP energy per Si atom -5578.850587 kJ/mol
# Density = 2.199200 g / cm^3
# Si number density = 22.042173 Si / 1000 Ang^3
#
#
#
# Elastic Constant Matrix: (Units=GPa)
#
#
# Indices 1 2 3 4 5 6 
#
# 1 65.5210 19.4452 47.3604 0.0000 0.0000 0.0000
# 2 19.4452 141.6148 22.5103 0.0000 0.0000 0.0000
# 3 47.3604 22.5103 142.1244 0.0000 0.0000 0.0000
# 4 0.0000 0.0000 0.0000 24.0579 0.0000 0.0000
# 5 0.0000 0.0000 0.0000 0.0000 57.4810 0.0000
# 6 0.0000 0.0000 0.0000 0.0000 0.0000 58.7348
#
#
#
# Elastic Compliance Matrix: (Units=1/GPa)
#
#
# Indices 1 2 3 4 5 6 
#
# 1 0.020532 -0.001776 -0.006560 0.000000 0.000000 0.000000
# 2 -0.001776 0.007397 -0.000580 0.000000 0.000000 0.000000
# 3 -0.006560 -0.000580 0.009314 0.000000 0.000000 0.000000
# 4 0.000000 0.000000 0.000000 0.041566 0.000000 0.000000
# 5 0.000000 0.000000 0.000000 0.000000 0.017397 0.000000
# 6 0.000000 0.000000 0.000000 0.000000 0.000000 0.017026
#
#
# Mechanical properties :
#
#
# Convention : Reuss Voigt Hill
#
# Bulk Modulus (GPa) = 51.51970 58.65467 55.08719
# Shear Modulus (GPa) = 36.35432 45.38435 40.86933
#
# Velocity S-wave (km/s) = 4.06557 4.54252 4.31065
# Velocity P-wave (km/s) = 6.74259 7.36075 7.05844
#
# Compressibility (1/GPa) = 0.01941005
#
# Stress axis : x y z
#
# Youngs Moduli (GPa) = 48.70556 135.18138 107.36473
#
# Poissons Ratio (x) = 0.24013 0.70436
# Poissons Ratio (y) = 0.08652 0.06224
# Poissons Ratio (z) = 0.31953 0.07836
#
# Static dielectric constant tensor:
#      x y z
#    x 1.866180 0.000000 0.000000 
#    y 0.000000 1.837940 0.000000 
#    z 0.000000 0.000000 1.825630 
# 
# From -- ./inp_files/5235.got.cif
#   From: 2010.05.17/outbox.cif.g08.bks.cpg/sg34_3_cif.got.tgz:5235.got - 2010.06.03 17:23:11.
