data_PCOD9347899
_publ_section_title
;
Structure prediction by ZEFSAII (Michael W. Deem and Ramdas Pophale) SiO2 
 PCOD9347899
Probable space group: P N N 2
;
_chemical_formula_sum "Si O2"
_cell_formula_units_Z 22
_cell_length_a 16.221991
_cell_length_b 7.095459
_cell_length_c 7.918781
_cell_angle_alpha 90.000000
_cell_angle_beta 90.000000
_cell_angle_gamma 90.000000
_cell_volume 911.471269
_symmetry_space_group_name_H-M "P N N 2"
_symmetry_group_IT_number 34
_symmetry_cell_setting 'orthorhombic'
loop_
_space_group_symop_operation_xyz
x,y,z
-x,-y,z
1/2-x,1/2+y,1/2+z
1/2+x,1/2-y,1/2+z
loop_
_atom_site_type_symbol
_atom_site_label
_atom_site_fract_x
_atom_site_fract_y
_atom_site_fract_z
Si Si1 0.228746 0.505581 0.241270
Si Si2 0.184574 0.368709 0.618184
Si Si3 0.515449 0.277237 0.965582
Si Si4 0.061076 0.348467 0.097014
Si Si5 0.876913 0.263132 0.704149
Si Si6 0.000000 0.000000 0.913359
O O1 0.219131 0.455112 0.441140
O O2 0.253155 0.719899 0.200676
O O3 0.146961 0.443268 0.143320
O O4 0.302235 0.376549 0.170160
O O5 0.098809 0.265451 0.568632
O O6 0.336598 0.036673 0.248558
O O7 0.500000 0.500000 0.965723
O O8 0.434800 0.185482 0.046438
O O9 0.522463 0.204328 0.777590
O O10 0.000000 0.500000 0.011201
O O11 0.061044 0.146528 0.006341
O O12 0.939552 0.144230 0.818274
#
# Coordination Sequence:
#
# PCOD9347899 Si02
#       6
#     4   4   4   4   4   2
#     4  11  27  48  76 115 150 209 262 323 384 473
#     4  11  26  49  75 110 157 204 258 318 397 462
#     4  11  20  49  79 104 146 207 252 309 389 474
#     4  11  27  48  78 109 158 202 255 315 392 462
#     4  12  26  47  80 111 156 198 260 318 386 464
#     4  12  28  48  76 120 148 200 252 326 380 456
#
# _framework density 24.136800000000001
#
# number of rings (size 3 to 8) (size 9 to 14) (size 15 to 20)
#    0.000    0.727    3.636    2.727    5.091    4.364 
#    0.000    0.000    0.000    0.000    0.000    0.000 
#    0.000    0.000    0.000    0.000    0.000    0.000 
#
# Total GULP energy -123206.462073 kJ/mol
# GULP energy per Si atom -5600.293731 kJ/mol
# Density = 2.408186 g / cm^3
# Si number density = 24.136800 Si / 1000 Ang^3
#
#
#
# Elastic Constant Matrix: (Units=GPa)
#
#
# Indices 1 2 3 4 5 6 
#
# 1 134.6197 73.1490 42.9533 0.0000 0.0000 0.0000
# 2 73.1490 222.7964 61.3306 0.0000 0.0000 0.0000
# 3 42.9533 61.3306 87.2358 0.0000 0.0000 0.0000
# 4 0.0000 0.0000 0.0000 22.1406 0.0000 0.0000
# 5 0.0000 0.0000 0.0000 0.0000 4.2082 0.0000
# 6 0.0000 0.0000 0.0000 0.0000 0.0000 56.5049
#
#
#
# Elastic Compliance Matrix: (Units=1/GPa)
#
#
# Indices 1 2 3 4 5 6 
#
# 1 0.009690 -0.002316 -0.003143 0.000000 0.000000 0.000000
# 2 -0.002316 0.006119 -0.003162 0.000000 0.000000 0.000000
# 3 -0.003143 -0.003162 0.015233 0.000000 0.000000 0.000000
# 4 0.000000 0.000000 0.000000 0.045166 0.000000 0.000000
# 5 0.000000 0.000000 0.000000 0.000000 0.237634 0.000000
# 6 0.000000 0.000000 0.000000 0.000000 0.000000 0.017698
#
#
# Mechanical properties :
#
#
# Convention : Reuss Voigt Hill
#
# Bulk Modulus (GPa) = 72.45705 88.83530 80.64618
# Shear Modulus (GPa) = 14.14905 34.38534 24.26720
#
# Velocity S-wave (km/s) = 2.42379 3.77849 3.17425
# Velocity P-wave (km/s) = 6.15772 7.47802 6.84975
#
# Compressibility (1/GPa) = 0.01380128
#
# Stress axis : x y z
#
# Youngs Moduli (GPa) = 103.20317 163.42051 65.64578
#
# Poissons Ratio (x) = 0.37852 0.20630
# Poissons Ratio (y) = 0.23904 0.20754
# Poissons Ratio (z) = 0.32432 0.51667
#
# Static dielectric constant tensor:
#      x y z
#    x 1.888030 0.000000 0.000000 
#    y 0.000000 2.121620 0.000000 
#    z 0.000000 0.000000 1.981840 
# 
# From -- ./inp_files/3519.got.cif
#   From: 2010.05.17/outbox.cif.g08.bks.cpg/sg34_2_cif.got.tgz:3519.got - 2010.06.03 17:23:11.
