data_PCOD9347384
_publ_section_title
;
Structure prediction by ZEFSAII (Michael W. Deem and Ramdas Pophale) SiO2 
 PCOD9347384
Probable space group: P N N 2
;
_chemical_formula_sum "Si O2"
_cell_formula_units_Z 32
_cell_length_a 11.762564
_cell_length_b 7.329214
_cell_length_c 15.626768
_cell_angle_alpha 90.000000
_cell_angle_beta 90.000000
_cell_angle_gamma 90.000000
_cell_volume 1347.189119
_symmetry_space_group_name_H-M "P N N 2"
_symmetry_group_IT_number 34
_symmetry_cell_setting 'orthorhombic'
loop_
_space_group_symop_operation_xyz
x,y,z
-x,-y,z
1/2-x,1/2+y,1/2+z
1/2+x,1/2-y,1/2+z
loop_
_atom_site_type_symbol
_atom_site_label
_atom_site_fract_x
_atom_site_fract_y
_atom_site_fract_z
Si Si1 0.009908 0.278405 0.808620
Si Si2 0.872801 0.657357 0.982728
Si Si3 0.213419 0.652519 0.876133
Si Si4 0.402129 0.740002 0.001809
Si Si5 0.097381 0.370863 0.178010
Si Si6 0.727198 0.469483 0.704694
Si Si7 0.301371 0.643406 0.174228
Si Si8 0.853997 0.339774 0.544011
O O1 0.065827 0.253901 0.901896
O O2 0.090219 0.187172 0.736383
O O3 0.000000 0.500000 0.790744
O O4 0.878589 0.218737 0.827966
O O5 0.851214 0.449528 0.952804
O O6 0.754998 0.761283 0.997051
O O7 0.925970 0.654954 0.076619
O O8 0.333552 0.710702 0.914483
O O9 0.238653 0.506197 0.802726
O O10 0.537166 0.727170 0.012517
O O11 0.376865 0.951540 0.020836
O O12 0.349712 0.621488 0.078814
O O13 0.119550 0.164368 0.207494
O O14 0.214969 0.481057 0.193765
O O15 0.000000 0.500000 0.215772
O O16 0.723505 0.673104 0.669645
O O17 0.820062 0.362376 0.644734
#
# Coordination Sequence:
#
# PCOD9347384 Si02
#       8
#     4   4   4   4   4   4   4   4
#     4  10  20  37  71  88 125 172 212 271 323 376
#     4  10  20  39  64  90 121 166 215 256 325 377
#     4  11  20  39  62  94 122 161 211 271 317 381
#     4  10  21  37  63  91 127 165 211 266 330 378
#     4  11  24  43  64  92 132 171 214 269 324 397
#     4  10  22  42  64  91 129 164 221 259 321 388
#     4  11  21  40  68  95 123 170 216 263 335 380
#     4   9  21  40  60  88 127 170 209 269 318 389
#
# _framework density 23.753160999999999
#
# number of rings (size 3 to 8) (size 9 to 14) (size 15 to 20)
#    0.000    1.750    3.750    1.875    1.750    2.000 
#    4.500    5.000    0.000    0.000    0.000    0.000 
#    0.000    0.000    0.000    0.000    0.000    0.000 
#
# Total GULP energy -178457.965093 kJ/mol
# GULP energy per Si atom -5576.811409 kJ/mol
# Density = 2.369910 g / cm^3
# Si number density = 23.753161 Si / 1000 Ang^3
#
#
#
# Elastic Constant Matrix: (Units=GPa)
#
#
# Indices 1 2 3 4 5 6 
#
# 1 74.6987 26.1523 26.0370 0.0000 0.0000 0.0000
# 2 26.1523 72.1409 4.3201 0.0000 0.0000 0.0000
# 3 26.0370 4.3201 98.5593 0.0000 0.0000 0.0000
# 4 0.0000 0.0000 0.0000 19.9609 0.0000 0.0000
# 5 0.0000 0.0000 0.0000 0.0000 27.5247 0.0000
# 6 0.0000 0.0000 0.0000 0.0000 0.0000 39.9798
#
#
#
# Elastic Compliance Matrix: (Units=1/GPa)
#
#
# Indices 1 2 3 4 5 6 
#
# 1 0.016913 -0.005879 -0.004210 0.000000 0.000000 0.000000
# 2 -0.005879 0.015942 0.000854 0.000000 0.000000 0.000000
# 3 -0.004210 0.000854 0.011221 0.000000 0.000000 0.000000
# 4 0.000000 0.000000 0.000000 0.050098 0.000000 0.000000
# 5 0.000000 0.000000 0.000000 0.000000 0.036331 0.000000
# 6 0.000000 0.000000 0.000000 0.000000 0.000000 0.025013
#
#
# Mechanical properties :
#
#
# Convention : Reuss Voigt Hill
#
# Bulk Modulus (GPa) = 39.05381 39.82420 39.43900
# Shear Modulus (GPa) = 27.39387 30.08573 28.73980
#
# Velocity S-wave (km/s) = 3.39967 3.56279 3.48219
# Velocity P-wave (km/s) = 5.64691 5.80749 5.72776
#
# Compressibility (1/GPa) = 0.02560570
#
# Stress axis : x y z
#
# Youngs Moduli (GPa) = 59.12631 62.72791 89.11869
#
# Poissons Ratio (x) = 0.36878 0.37522
# Poissons Ratio (y) = 0.34761 -0.07614
# Poissons Ratio (z) = 0.24894 -0.05359
#
# Static dielectric constant tensor:
#      x y z
#    x 2.047870 0.000000 0.000000 
#    y 0.000000 1.923250 0.000000 
#    z 0.000000 0.000000 1.881730 
# 
# From -- ./inp_files/6817.got.cif
#   From: 2010.05.17/outbox.cif.g08.bks.cpg/sg34_4_cif.got.tgz:6817.got - 2010.06.03 17:23:11.
