data_PCOD9347624
_publ_section_title
;
Structure prediction by ZEFSAII (Michael W. Deem and Ramdas Pophale) SiO2 
 PCOD9347624
Probable space group: P N N 2
;
_chemical_formula_sum "Si O2"
_cell_formula_units_Z 28
_cell_length_a 20.330804
_cell_length_b 5.178442
_cell_length_c 13.512606
_cell_angle_alpha 90.000000
_cell_angle_beta 90.000000
_cell_angle_gamma 90.000000
_cell_volume 1422.632689
_symmetry_space_group_name_H-M "P N N 2"
_symmetry_group_IT_number 34
_symmetry_cell_setting 'orthorhombic'
loop_
_space_group_symop_operation_xyz
x,y,z
-x,-y,z
1/2-x,1/2+y,1/2+z
1/2+x,1/2-y,1/2+z
loop_
_atom_site_type_symbol
_atom_site_label
_atom_site_fract_x
_atom_site_fract_y
_atom_site_fract_z
Si Si1 0.153495 0.437155 0.005940
Si Si2 0.752713 0.670887 0.842101
Si Si3 0.456240 0.741807 0.862870
Si Si4 0.460301 0.256132 0.487905
Si Si5 0.814086 0.649633 0.425514
Si Si6 0.596780 0.448270 0.651972
Si Si7 0.261393 0.298565 0.625596
O O1 0.101725 0.271204 0.068147
O O2 0.208823 0.530881 0.083414
O O3 0.187873 0.284829 0.918433
O O4 0.115154 0.684550 0.960589
O O5 0.722941 0.392002 0.873077
O O6 0.775490 0.700113 0.729449
O O7 0.698791 0.892077 0.862140
O O8 0.500000 0.500000 0.897948
O O9 0.391309 0.791058 0.927971
O O10 0.428020 0.657577 0.755233
O O11 0.500000 0.000000 0.855790
O O12 0.500000 0.500000 0.445402
O O13 0.448069 0.325924 0.604633
O O14 0.500000 0.000000 0.464742
O O15 0.781996 0.605854 0.533658
O O16 0.671806 0.547897 0.653759
#
# Coordination Sequence:
#
# PCOD9347624 Si02
#       7
#     4   4   4   4   4   4   4
#     4  10  22  36  58  90 123 156 200 258 313 373
#     4  11  22  40  62  92 122 154 207 262 318 370
#     4  12  27  38  59  91 127 170 207 251 312 391
#     4  11  22  34  53  80 118 162 191 235 302 377
#     4  11  23  42  61  92 127 162 207 257 311 382
#     4  11  21  37  57  90 122 156 202 246 314 365
#     4  10  22  38  65  89 123 164 201 262 317 365
#
# _framework density 19.681819999999998
#
# number of rings (size 3 to 8) (size 9 to 14) (size 15 to 20)
#    0.000    1.143    4.286    2.143    6.000    0.000 
#    0.000    0.000    0.000    0.857    3.714    0.000 
#    0.000    0.000    0.000    0.000    0.000    0.000 
#
# Total GULP energy -156173.140335 kJ/mol
# GULP energy per Si atom -5577.612155 kJ/mol
# Density = 1.963702 g / cm^3
# Si number density = 19.681820 Si / 1000 Ang^3
#
#
#
# Elastic Constant Matrix: (Units=GPa)
#
#
# Indices 1 2 3 4 5 6 
#
# 1 73.7555 19.1637 26.4517 0.0000 0.0000 0.0000
# 2 19.1637 99.5089 21.5375 0.0000 0.0000 0.0000
# 3 26.4517 21.5375 98.1080 0.0000 0.0000 0.0000
# 4 0.0000 0.0000 0.0000 11.7052 0.0000 0.0000
# 5 0.0000 0.0000 0.0000 0.0000 22.3134 0.0000
# 6 0.0000 0.0000 0.0000 0.0000 0.0000 38.9525
#
#
#
# Elastic Compliance Matrix: (Units=1/GPa)
#
#
# Indices 1 2 3 4 5 6 
#
# 1 0.015446 -0.002177 -0.003687 0.000000 0.000000 0.000000
# 2 -0.002177 0.010857 -0.001797 0.000000 0.000000 0.000000
# 3 -0.003687 -0.001797 0.011581 0.000000 0.000000 0.000000
# 4 0.000000 0.000000 0.000000 0.085432 0.000000 0.000000
# 5 0.000000 0.000000 0.000000 0.000000 0.044816 0.000000
# 6 0.000000 0.000000 0.000000 0.000000 0.000000 0.025672
#
#
# Mechanical properties :
#
#
# Convention : Reuss Voigt Hill
#
# Bulk Modulus (GPa) = 44.31704 45.07536 44.69620
# Shear Modulus (GPa) = 23.07899 28.20883 25.64391
#
# Velocity S-wave (km/s) = 3.42805 3.78993 3.61352
# Velocity P-wave (km/s) = 6.18339 6.48869 6.33788
#
# Compressibility (1/GPa) = 0.02256468
#
# Stress axis : x y z
#
# Youngs Moduli (GPa) = 64.74134 92.10298 86.34643
#
# Poissons Ratio (x) = 0.20048 0.31833
# Poissons Ratio (y) = 0.14092 0.15513
# Poissons Ratio (z) = 0.23868 0.16548
#
# Static dielectric constant tensor:
#      x y z
#    x 1.793020 0.000000 0.000000 
#    y 0.000000 1.798500 0.000000 
#    z 0.000000 0.000000 1.693040 
# 
# From -- ./inp_files/5842.got.cif
#   From: 2010.05.17/outbox.cif.g08.bks.cpg/sg34_3_cif.got.tgz:5842.got - 2010.06.03 17:23:11.
