data_PCOD9347987
_publ_section_title
;
Structure prediction by ZEFSAII (Michael W. Deem and Ramdas Pophale) SiO2 
 PCOD9347987
Probable space group: P N N 2
;
_chemical_formula_sum "Si O2"
_cell_formula_units_Z 20
_cell_length_a 22.652413
_cell_length_b 6.836770
_cell_length_c 4.789220
_cell_angle_alpha 90.000000
_cell_angle_beta 90.000000
_cell_angle_gamma 90.000000
_cell_volume 741.703329
_symmetry_space_group_name_H-M "P N N 2"
_symmetry_group_IT_number 34
_symmetry_cell_setting 'orthorhombic'
loop_
_space_group_symop_operation_xyz
x,y,z
-x,-y,z
1/2-x,1/2+y,1/2+z
1/2+x,1/2-y,1/2+z
loop_
_atom_site_type_symbol
_atom_site_label
_atom_site_fract_x
_atom_site_fract_y
_atom_site_fract_z
Si Si1 0.803168 0.262414 0.169370
Si Si2 0.947921 0.877165 0.323306
Si Si3 0.555707 0.119180 0.315874
Si Si4 0.685398 0.116663 0.274684
Si Si5 0.651627 0.564402 0.194324
O O1 0.746510 0.123855 0.098466
O O2 0.856749 0.170586 0.987903
O O3 0.812239 0.214886 0.495136
O O4 0.026365 0.263516 0.561978
O O5 0.903700 0.006807 0.505258
O O6 0.921616 0.747401 0.077256
O O7 0.000000 0.000000 0.189590
O O8 0.618773 0.049165 0.187250
O O9 0.500000 0.000000 0.430017
O O10 0.698807 0.981615 0.545967
O O11 0.679181 0.353729 0.271763
#
# Coordination Sequence:
#
# PCOD9347987 Si02
#       5
#     4   4   4   4   4
#     4  12  27  44  77 103 148 205 256 313 403 455
#     4  11  25  47  76 104 155 193 253 314 391 461
#     4  11  26  46  75 114 150 197 254 321 387 472
#     4  11  27  48  74 108 156 196 263 322 388 473
#     4  11  27  47  69 111 148 199 256 322 379 476
#
# _framework density 26.964963000000001
#
# number of rings (size 3 to 8) (size 9 to 14) (size 15 to 20)
#    0.000    0.800    2.000    3.600    8.400    8.000 
#    0.000    0.000    0.000    0.000    0.000    0.000 
#    0.000    0.000    0.000    0.000    0.000    0.000 
#
# Total GULP energy -111471.718909 kJ/mol
# GULP energy per Si atom -5573.585945 kJ/mol
# Density = 2.690359 g / cm^3
# Si number density = 26.964963 Si / 1000 Ang^3
#
#
#
# Elastic Constant Matrix: (Units=GPa)
#
#
# Indices 1 2 3 4 5 6 
#
# 1 118.0915 57.6709 14.4161 0.0000 0.0000 0.0000
# 2 57.6709 100.9940 37.4744 0.0000 0.0000 0.0000
# 3 14.4161 37.4744 137.9194 0.0000 0.0000 0.0000
# 4 0.0000 0.0000 0.0000 54.1640 0.0000 0.0000
# 5 0.0000 0.0000 0.0000 0.0000 39.6749 0.0000
# 6 0.0000 0.0000 0.0000 0.0000 0.0000 40.1185
#
#
#
# Elastic Compliance Matrix: (Units=1/GPa)
#
#
# Indices 1 2 3 4 5 6 
#
# 1 0.011797 -0.006983 0.000664 0.000000 0.000000 0.000000
# 2 -0.006983 0.015145 -0.003385 0.000000 0.000000 0.000000
# 3 0.000664 -0.003385 0.008101 0.000000 0.000000 0.000000
# 4 0.000000 0.000000 0.000000 0.018462 0.000000 0.000000
# 5 0.000000 0.000000 0.000000 0.000000 0.025205 0.000000
# 6 0.000000 0.000000 0.000000 0.000000 0.000000 0.024926
#
#
# Mechanical properties :
#
#
# Convention : Reuss Voigt Hill
#
# Bulk Modulus (GPa) = 63.95760 64.01418 63.98589
# Shear Modulus (GPa) = 38.98435 43.28772 41.13604
#
# Velocity S-wave (km/s) = 3.80642 4.01101 3.91005
# Velocity P-wave (km/s) = 6.56420 6.72623 6.64571
#
# Compressibility (1/GPa) = 0.01563536
#
# Stress axis : x y z
#
# Youngs Moduli (GPa) = 84.76638 66.02735 123.44163
#
# Poissons Ratio (x) = 0.46107 -0.08200
# Poissons Ratio (y) = 0.59193 0.41788
# Poissons Ratio (z) = -0.05631 0.22352
#
# Static dielectric constant tensor:
#      x y z
#    x 2.212690 0.000000 0.000000 
#    y 0.000000 2.267380 0.000000 
#    z 0.000000 0.000000 2.005750 
# 
# From -- ./inp_files/3820.got.cif
#   From: 2010.05.17/outbox.cif.g08.bks.cpg/sg34_2_cif.got.tgz:3820.got - 2010.06.03 17:23:11.
