data_PCOD9347937
_publ_section_title
;
Structure prediction by ZEFSAII (Michael W. Deem and Ramdas Pophale) SiO2 
 PCOD9347937
Probable space group: P N N 2
;
_chemical_formula_sum "Si O2"
_cell_formula_units_Z 16
_cell_length_a 22.567223
_cell_length_b 5.340625
_cell_length_c 4.889134
_cell_angle_alpha 90.000000
_cell_angle_beta 90.000000
_cell_angle_gamma 90.000000
_cell_volume 589.253465
_symmetry_space_group_name_H-M "P N N 2"
_symmetry_group_IT_number 34
_symmetry_cell_setting 'orthorhombic'
loop_
_space_group_symop_operation_xyz
x,y,z
-x,-y,z
1/2-x,1/2+y,1/2+z
1/2+x,1/2-y,1/2+z
loop_
_atom_site_type_symbol
_atom_site_label
_atom_site_fract_x
_atom_site_fract_y
_atom_site_fract_z
Si Si1 0.812350 0.576860 0.512520
Si Si2 0.939638 0.427377 0.467955
Si Si3 0.184345 0.132994 0.025996
Si Si4 0.559111 0.436826 0.311950
O O1 0.870665 0.448014 0.384084
O O2 0.814776 0.839133 0.351807
O O3 0.747538 0.477772 0.442885
O O4 0.816999 0.615401 0.836835
O O5 0.945195 0.148486 0.579566
O O6 0.000000 0.500000 0.303269
O O7 0.941359 0.654202 0.695348
O O8 0.121693 0.012766 0.953098
O O9 0.500000 0.500000 0.482473
#
# Coordination Sequence:
#
# PCOD9347937 Si02
#       4
#     4   4   4   4
#     4  11  23  41  64  96 130 171 216 267 322 384
#     4   9  19  39  65  94 129 169 214 265 322 384
#     4  11  23  41  64  96 130 171 216 267 322 384
#     4   9  19  39  65  94 129 169 214 265 322 384
#
# _framework density 27.153002999999998
#
# number of rings (size 3 to 8) (size 9 to 14) (size 15 to 20)
#    0.000    2.000    0.000    3.000    0.000    4.000 
#    0.000   22.500    0.000    0.000    0.000    0.000 
#    0.000    0.000    0.000    0.000    0.000    0.000 
#
# Total GULP energy -89234.391778 kJ/mol
# GULP energy per Si atom -5577.149486 kJ/mol
# Density = 2.709120 g / cm^3
# Si number density = 27.153003 Si / 1000 Ang^3
#
#
#
# Elastic Constant Matrix: (Units=GPa)
#
#
# Indices 1 2 3 4 5 6 
#
# 1 304.1363 33.6425 25.8090 0.0000 0.0000 0.0000
# 2 33.6425 108.3406 30.7230 0.0000 0.0000 0.0000
# 3 25.8090 30.7230 92.3138 0.0000 0.0000 0.0000
# 4 0.0000 0.0000 0.0000 35.6693 0.0000 0.0000
# 5 0.0000 0.0000 0.0000 0.0000 18.0811 0.0000
# 6 0.0000 0.0000 0.0000 0.0000 0.0000 50.1943
#
#
#
# Elastic Compliance Matrix: (Units=1/GPa)
#
#
# Indices 1 2 3 4 5 6 
#
# 1 0.003442 -0.000879 -0.000670 0.000000 0.000000 0.000000
# 2 -0.000879 0.010416 -0.003221 0.000000 0.000000 0.000000
# 3 -0.000670 -0.003221 0.012092 0.000000 0.000000 0.000000
# 4 0.000000 0.000000 0.000000 0.028035 0.000000 0.000000
# 5 0.000000 0.000000 0.000000 0.000000 0.055306 0.000000
# 6 0.000000 0.000000 0.000000 0.000000 0.000000 0.019923
#
#
# Mechanical properties :
#
#
# Convention : Reuss Voigt Hill
#
# Bulk Modulus (GPa) = 60.93485 76.12666 68.53076
# Shear Modulus (GPa) = 34.66821 48.43001 41.54911
#
# Velocity S-wave (km/s) = 3.57707 4.22785 3.91600
# Velocity P-wave (km/s) = 6.28893 7.20625 6.76316
#
# Compressibility (1/GPa) = 0.01641097
#
# Stress axis : x y z
#
# Youngs Moduli (GPa) = 290.52357 96.00174 82.70026
#
# Poissons Ratio (x) = 0.08438 0.05539
# Poissons Ratio (y) = 0.25534 0.26638
# Poissons Ratio (z) = 0.19460 0.30922
#
# Static dielectric constant tensor:
#      x y z
#    x 2.250630 0.000000 0.000000 
#    y 0.000000 2.112690 0.000000 
#    z 0.000000 0.000000 2.144230 
# 
# From -- ./inp_files/92.got.cif
#   From: 2010.05.17/outbox.cif.g08.bks.cpg/sg34_1_cif.got.tgz:92.got - 2010.06.03 17:23:11.
