data_PCOD9347675
_publ_section_title
;
Structure prediction by ZEFSAII (Michael W. Deem and Ramdas Pophale) SiO2 
 PCOD9347675
Probable space group: P N N 2
;
_chemical_formula_sum "Si O2"
_cell_formula_units_Z 26
_cell_length_a 11.134872
_cell_length_b 12.086806
_cell_length_c 8.732680
_cell_angle_alpha 90.000000
_cell_angle_beta 90.000000
_cell_angle_gamma 90.000000
_cell_volume 1175.288067
_symmetry_space_group_name_H-M "P N N 2"
_symmetry_group_IT_number 34
_symmetry_cell_setting 'orthorhombic'
loop_
_space_group_symop_operation_xyz
x,y,z
-x,-y,z
1/2-x,1/2+y,1/2+z
1/2+x,1/2-y,1/2+z
loop_
_atom_site_type_symbol
_atom_site_label
_atom_site_fract_x
_atom_site_fract_y
_atom_site_fract_z
Si Si1 0.745524 0.029700 0.895780
Si Si2 0.490234 0.130475 0.338160
Si Si3 0.615034 0.812634 0.842460
Si Si4 0.910561 0.605290 0.141550
Si Si5 0.740603 0.776027 0.520644
Si Si6 0.998760 0.807619 0.585269
Si Si7 0.000000 0.000000 0.821735
O O1 0.709920 0.063931 0.720547
O O2 0.878613 0.981454 0.913758
O O3 0.654063 0.928055 0.923099
O O4 0.744920 0.145492 0.985154
O O5 0.585844 0.158326 0.474374
O O6 0.361954 0.170222 0.411224
O O7 0.515083 0.195757 0.183940
O O8 0.500000 0.000000 0.308134
O O9 0.482213 0.824722 0.768102
O O10 0.698781 0.792529 0.696247
O O11 0.602601 0.715064 0.963546
O O12 0.000000 0.500000 0.123203
O O13 0.870611 0.832339 0.507457
O O14 0.024573 0.897646 0.712083
#
# Coordination Sequence:
#
# PCOD9347675 Si02
#       7
#     4   4   4   4   4   4   2
#     4  11  21  43  69  96 139 182 232 289 360 425
#     4  10  23  41  67 101 133 176 237 286 346 419
#     4  10  22  41  70 100 132 183 228 290 350 423
#     4   8  17  36  67  93 127 174 224 275 339 409
#     4  11  23  44  67 103 137 179 235 290 349 438
#     4  12  25  44  68 100 139 181 233 291 359 422
#     4  12  26  44  62  98 146 182 222 292 374 418
#
# _framework density 22.122236999999998
#
# number of rings (size 3 to 8) (size 9 to 14) (size 15 to 20)
#    0.000    1.538    4.615    0.923    2.154    1.231 
#    0.000    2.308    0.000    0.000    0.000    0.000 
#    0.000    0.000    0.000    0.000    0.000    0.000 
#
# Total GULP energy -145079.679089 kJ/mol
# GULP energy per Si atom -5579.987657 kJ/mol
# Density = 2.207189 g / cm^3
# Si number density = 22.122237 Si / 1000 Ang^3
#
#
#
# Elastic Constant Matrix: (Units=GPa)
#
#
# Indices 1 2 3 4 5 6 
#
# 1 91.5653 -2.8458 7.8335 0.0000 0.0000 0.0000
# 2 -2.8458 80.0889 14.2297 0.0000 0.0000 0.0000
# 3 7.8335 14.2297 33.0082 0.0000 0.0000 0.0000
# 4 0.0000 0.0000 0.0000 10.9402 0.0000 0.0000
# 5 0.0000 0.0000 0.0000 0.0000 42.2793 0.0000
# 6 0.0000 0.0000 0.0000 0.0000 0.0000 20.7739
#
#
#
# Elastic Compliance Matrix: (Units=1/GPa)
#
#
# Indices 1 2 3 4 5 6 
#
# 1 0.011213 0.000944 -0.003068 0.000000 0.000000 0.000000
# 2 0.000944 0.013601 -0.006087 0.000000 0.000000 0.000000
# 3 -0.003068 -0.006087 0.033648 0.000000 0.000000 0.000000
# 4 0.000000 0.000000 0.000000 0.091406 0.000000 0.000000
# 5 0.000000 0.000000 0.000000 0.000000 0.023652 0.000000
# 6 0.000000 0.000000 0.000000 0.000000 0.000000 0.048137
#
#
# Mechanical properties :
#
#
# Convention : Reuss Voigt Hill
#
# Bulk Modulus (GPa) = 23.78763 27.01080 25.39922
# Shear Modulus (GPa) = 19.83393 27.16170 23.49782
#
# Velocity S-wave (km/s) = 2.99751 3.50780 3.26265
# Velocity P-wave (km/s) = 4.77035 5.35187 5.06946
#
# Compressibility (1/GPa) = 0.04203865
#
# Stress axis : x y z
#
# Youngs Moduli (GPa) = 89.18267 73.52283 29.71964
#
# Poissons Ratio (x) = -0.06937 0.09117
# Poissons Ratio (y) = -0.08414 0.18091
# Poissons Ratio (z) = 0.27359 0.44756
#
# Static dielectric constant tensor:
#      x y z
#    x 1.813130 0.000000 0.000000 
#    y 0.000000 1.957610 0.000000 
#    z 0.000000 0.000000 1.828550 
# 
# From -- ./inp_files/3189.got.cif
#   From: 2010.05.17/outbox.cif.g08.bks.cpg/sg34_2_cif.got.tgz:3189.got - 2010.06.03 17:23:11.
