data_PCOD9347129
_publ_section_title
;
Structure prediction by ZEFSAII (Michael W. Deem and Ramdas Pophale) SiO2 
 PCOD9347129
Probable space group: P N N 2
;
_chemical_formula_sum "Si O2"
_cell_formula_units_Z 20
_cell_length_a 12.154475
_cell_length_b 9.248599
_cell_length_c 6.819257
_cell_angle_alpha 90.000000
_cell_angle_beta 90.000000
_cell_angle_gamma 90.000000
_cell_volume 766.565400
_symmetry_space_group_name_H-M "P N N 2"
_symmetry_group_IT_number 34
_symmetry_cell_setting 'orthorhombic'
loop_
_space_group_symop_operation_xyz
x,y,z
-x,-y,z
1/2-x,1/2+y,1/2+z
1/2+x,1/2-y,1/2+z
loop_
_atom_site_type_symbol
_atom_site_label
_atom_site_fract_x
_atom_site_fract_y
_atom_site_fract_z
Si Si1 0.288092 0.040110 0.567930
Si Si2 0.662858 0.398968 0.693242
Si Si3 0.563634 0.709016 0.727949
Si Si4 0.896793 0.428619 0.702837
Si Si5 0.586235 0.622775 0.184821
O O1 0.282393 0.105322 0.093763
O O2 0.363378 0.151663 0.683511
O O3 0.361176 0.973586 0.389746
O O4 0.211755 0.933376 0.690997
O O5 0.619302 0.560677 0.650911
O O6 0.563197 0.290945 0.659785
O O7 0.696652 0.383564 0.924691
O O8 0.561285 0.672494 0.960872
O O9 0.927698 0.273435 0.794639
O O10 0.000000 0.500000 0.598150
O O11 0.500000 0.500000 0.240174
#
# Coordination Sequence:
#
# PCOD9347129 Si02
#       5
#     4   4   4   4   4
#     4   9  21  39  61  93 126 170 227 260 329 402
#     4   8  19  38  59  89 123 164 217 262 318 383
#     4  10  17  41  67  81 129 178 203 271 328 384
#     4  10  23  41  61  93 132 164 211 279 328 387
#     4  11  21  41  63  93 131 172 216 278 330 390
#
# _framework density 26.090402000000001
#
# number of rings (size 3 to 8) (size 9 to 14) (size 15 to 20)
#    1.200    1.200    4.000    0.000    2.800    1.600 
#    7.200    1.000    0.000    0.000    0.000    0.000 
#    0.000    0.000    0.000    0.000    0.000    0.000 
#
# Total GULP energy -111564.306310 kJ/mol
# GULP energy per Si atom -5578.215315 kJ/mol
# Density = 2.603102 g / cm^3
# Si number density = 26.090402 Si / 1000 Ang^3
#
#
#
# Elastic Constant Matrix: (Units=GPa)
#
#
# Indices 1 2 3 4 5 6 
#
# 1 226.3933 79.2322 25.2580 0.0000 0.0000 0.0000
# 2 79.2322 73.1012 3.8499 0.0000 0.0000 0.0000
# 3 25.2580 3.8499 72.5052 0.0000 0.0000 0.0000
# 4 0.0000 0.0000 0.0000 32.8408 0.0000 0.0000
# 5 0.0000 0.0000 0.0000 0.0000 24.1185 0.0000
# 6 0.0000 0.0000 0.0000 0.0000 0.0000 58.8329
#
#
#
# Elastic Compliance Matrix: (Units=1/GPa)
#
#
# Indices 1 2 3 4 5 6 
#
# 1 0.007442 -0.007952 -0.002170 0.000000 0.000000 0.000000
# 2 -0.007952 0.022215 0.001591 0.000000 0.000000 0.000000
# 3 -0.002170 0.001591 0.014464 0.000000 0.000000 0.000000
# 4 0.000000 0.000000 0.000000 0.030450 0.000000 0.000000
# 5 0.000000 0.000000 0.000000 0.000000 0.041462 0.000000
# 6 0.000000 0.000000 0.000000 0.000000 0.000000 0.016997
#
#
# Mechanical properties :
#
#
# Convention : Reuss Voigt Hill
#
# Bulk Modulus (GPa) = 36.95863 65.40887 51.18375
# Shear Modulus (GPa) = 31.42417 40.73573 36.07995
#
# Velocity S-wave (km/s) = 3.47426 3.95565 3.72275
# Velocity P-wave (km/s) = 5.50367 6.78140 6.17567
#
# Compressibility (1/GPa) = 0.02705728
#
# Stress axis : x y z
#
# Youngs Moduli (GPa) = 134.36692 45.01455 69.13849
#
# Poissons Ratio (x) = 0.35796 0.15006
# Poissons Ratio (y) = 1.06851 -0.10998
# Poissons Ratio (z) = 0.29163 -0.07160
#
# Static dielectric constant tensor:
#      x y z
#    x 2.067890 0.000000 0.000000 
#    y 0.000000 2.100030 0.000000 
#    z 0.000000 0.000000 2.209550 
# 
# From -- ./inp_files/3511.got.cif
#   From: 2010.05.17/outbox.cif.g08.bks.cpg/sg34_2_cif.got.tgz:3511.got - 2010.06.03 17:23:11.
