data_PCOD9347848
_publ_section_title
;
Structure prediction by ZEFSAII (Michael W. Deem and Ramdas Pophale) SiO2 
 PCOD9347848
Probable space group: P N N 2
;
_chemical_formula_sum "Si O2"
_cell_formula_units_Z 20
_cell_length_a 17.376722
_cell_length_b 6.541431
_cell_length_c 7.270412
_cell_angle_alpha 90.000000
_cell_angle_beta 90.000000
_cell_angle_gamma 90.000000
_cell_volume 826.417757
_symmetry_space_group_name_H-M "P N N 2"
_symmetry_group_IT_number 34
_symmetry_cell_setting 'orthorhombic'
loop_
_space_group_symop_operation_xyz
x,y,z
-x,-y,z
1/2-x,1/2+y,1/2+z
1/2+x,1/2-y,1/2+z
loop_
_atom_site_type_symbol
_atom_site_label
_atom_site_fract_x
_atom_site_fract_y
_atom_site_fract_z
Si Si1 0.088808 0.019637 0.926950
Si Si2 0.683284 0.382448 0.772525
Si Si3 0.920980 0.121686 0.536083
Si Si4 0.309046 0.845073 0.259623
Si Si5 0.830079 0.462315 0.365094
O O1 0.113807 0.238817 0.835659
O O2 0.094510 0.864349 0.754086
O O3 0.145901 0.994858 0.098753
O O4 0.000000 0.000000 0.989782
O O5 0.771188 0.438319 0.818962
O O6 0.666342 0.147327 0.721697
O O7 0.639045 0.468837 0.946427
O O8 0.904510 0.328987 0.422777
O O9 0.000000 0.000000 0.514369
O O10 0.241219 0.684075 0.314760
O O11 0.314280 0.903193 0.046286
#
# Coordination Sequence:
#
# PCOD9347848 Si02
#       5
#     4   4   4   4   4
#     4  11  24  46  72 104 156 197 245 316 384 455
#     4  11  24  44  75 106 141 195 255 314 371 453
#     4  10  24  48  72 103 152 193 245 302 379 456
#     4  11  24  43  72 110 143 191 257 309 377 448
#     4  11  25  43  78 106 148 194 250 320 368 450
#
# _framework density 24.200832999999999
#
# number of rings (size 3 to 8) (size 9 to 14) (size 15 to 20)
#    0.000    1.200    4.000    0.600    5.600    0.800 
#    3.600    0.000    4.400    0.000    0.000    0.000 
#    0.000    0.000    0.000    0.000    0.000    0.000 
#
# Total GULP energy -111414.742164 kJ/mol
# GULP energy per Si atom -5570.737108 kJ/mol
# Density = 2.414575 g / cm^3
# Si number density = 24.200833 Si / 1000 Ang^3
#
#
#
# Elastic Constant Matrix: (Units=GPa)
#
#
# Indices 1 2 3 4 5 6 
#
# 1 125.4140 40.5740 8.8954 0.0000 0.0000 0.0000
# 2 40.5740 90.2753 -2.4202 0.0000 0.0000 0.0000
# 3 8.8954 -2.4202 38.3245 0.0000 0.0000 0.0000
# 4 0.0000 0.0000 0.0000 29.8280 0.0000 0.0000
# 5 0.0000 0.0000 0.0000 0.0000 38.1015 0.0000
# 6 0.0000 0.0000 0.0000 0.0000 0.0000 42.2039
#
#
#
# Elastic Compliance Matrix: (Units=1/GPa)
#
#
# Indices 1 2 3 4 5 6 
#
# 1 0.009563 -0.004365 -0.002495 0.000000 0.000000 0.000000
# 2 -0.004365 0.013088 0.001840 0.000000 0.000000 0.000000
# 3 -0.002495 0.001840 0.026788 0.000000 0.000000 0.000000
# 4 0.000000 0.000000 0.000000 0.033525 0.000000 0.000000
# 5 0.000000 0.000000 0.000000 0.000000 0.026246 0.000000
# 6 0.000000 0.000000 0.000000 0.000000 0.000000 0.023694
#
#
# Mechanical properties :
#
#
# Convention : Reuss Voigt Hill
#
# Bulk Modulus (GPa) = 25.38168 38.67914 32.03041
# Shear Modulus (GPa) = 32.03514 35.82433 33.92974
#
# Velocity S-wave (km/s) = 3.64224 3.85163 3.74840
# Velocity P-wave (km/s) = 5.31024 5.98309 5.65668
#
# Compressibility (1/GPa) = 0.03939850
#
# Stress axis : x y z
#
# Youngs Moduli (GPa) = 104.57318 76.40411 37.32970
#
# Poissons Ratio (x) = 0.33349 0.09315
# Poissons Ratio (y) = 0.45644 -0.06867
# Poissons Ratio (z) = 0.26093 -0.14055
#
# Static dielectric constant tensor:
#      x y z
#    x 1.186140 0.000000 0.000000 
#    y 0.000000 2.327810 0.000000 
#    z 0.000000 0.000000 2.106110 
# 
# From -- ./inp_files/3790.got.cif
#   From: 2010.05.17/outbox.cif.g08.bks.cpg/sg34_2_cif.got.tgz:3790.got - 2010.06.03 17:23:11.
