data_PCOD9347089
_publ_section_title
;
Structure prediction by ZEFSAII (Michael W. Deem and Ramdas Pophale) SiO2 
 PCOD9347089
Probable space group: P N A 21
;
_chemical_formula_sum "Si O2"
_cell_formula_units_Z 28
_cell_length_a 24.000000
_cell_length_b 6.000000
_cell_length_c 9.000000
_cell_angle_alpha 90.000000
_cell_angle_beta 90.000000
_cell_angle_gamma 90.000000
_cell_volume 1296.000000
_symmetry_space_group_name_H-M "P N A 21"
_symmetry_group_IT_number 33
_symmetry_cell_setting 'orthorhombic'
loop_
_space_group_symop_operation_xyz
x,y,z
-x,-y,1/2+z
1/2-x,1/2+y,1/2+z
1/2+x,1/2-y,z
loop_
_atom_site_type_symbol
_atom_site_label
_atom_site_fract_x
_atom_site_fract_y
_atom_site_fract_z
Si Si1 0.880419 0.379145 0.908330
Si Si2 0.182154 0.395166 0.670626
Si Si3 0.072263 0.087737 0.734294
Si Si4 0.816251 0.076412 0.681984
Si Si5 0.127704 0.683543 0.904158
Si Si6 0.400169 0.815243 0.632911
Si Si7 0.990005 0.146204 0.003310
O O1 0.846582 0.175249 0.829671
O O2 0.901657 0.528415 0.774017
O O3 0.837464 0.514220 0.010978
O O4 0.936437 0.310107 0.996310
O O5 0.133022 0.212119 0.714074
O O6 0.249640 0.367551 0.680953
O O7 0.171065 0.592815 0.785967
O O8 0.088108 0.853081 0.815739
O O9 0.042737 0.067003 0.572817
O O10 0.022102 0.162100 0.845599
O O11 0.841075 0.197404 0.538009
O O12 0.843417 0.830385 0.653977
O O13 0.100887 0.470845 0.986265
O O14 0.457948 0.681602 0.616207
#
# Coordination Sequence:
#
# PCOD9347089 Si02
#       7
#     4   4   4   4   4   4   4
#     4  11  29  44  71 115 137 197 244 302 369 439
#     4  12  28  47  77 105 147 191 253 300 370 444
#     4  12  28  47  71 111 144 200 239 310 366 444
#     4  11  27  50  74 105 149 193 244 308 368 443
#     4  11  24  49  70 107 139 190 247 288 375 424
#     4  11  26  48  74 106 149 193 238 306 372 428
#     4  12  26  47  77 101 157 184 249 298 366 444
#
# _framework density 21.604938000000001
#
# number of rings (size 3 to 8) (size 9 to 14) (size 15 to 20)
#    0.000    0.571    4.286    0.857   16.000    1.143 
#    0.000    0.000    0.000    0.000    0.000    0.000 
#    0.000    0.000    0.000    0.000    0.000    0.000 
#
# Total GULP energy -155968.743341 kJ/mol
# GULP energy per Si atom -5570.312262 kJ/mol
# Density = 2.155576 g / cm^3
# Si number density = 21.604938 Si / 1000 Ang^3
#
#
#
# Elastic Constant Matrix: (Units=GPa)
#
#
# Indices 1 2 3 4 5 6 
#
# 1 157.3925 26.1894 9.8416 0.0000 0.0000 0.0000
# 2 26.1894 49.8274 4.3706 0.0000 0.0000 0.0000
# 3 9.8416 4.3706 68.4215 0.0000 0.0000 0.0000
# 4 0.0000 0.0000 0.0000 40.8234 0.0000 0.0000
# 5 0.0000 0.0000 0.0000 0.0000 32.0940 0.0000
# 6 0.0000 0.0000 0.0000 0.0000 0.0000 26.0953
#
#
#
# Elastic Compliance Matrix: (Units=1/GPa)
#
#
# Indices 1 2 3 4 5 6 
#
# 1 0.007003 -0.003613 -0.000777 0.000000 0.000000 0.000000
# 2 -0.003613 0.022046 -0.000889 0.000000 0.000000 0.000000
# 3 -0.000777 -0.000889 0.014784 0.000000 0.000000 0.000000
# 4 0.000000 0.000000 0.000000 0.024496 0.000000 0.000000
# 5 0.000000 0.000000 0.000000 0.000000 0.031159 0.000000
# 6 0.000000 0.000000 0.000000 0.000000 0.000000 0.038321
#
#
# Mechanical properties :
#
#
# Convention : Reuss Voigt Hill
#
# Bulk Modulus (GPa) = 30.05062 39.60496 34.82779
# Shear Modulus (GPa) = 31.35646 35.48518 33.42082
#
# Velocity S-wave (km/s) = 3.81380 4.05712 3.93734
# Velocity P-wave (km/s) = 5.77345 6.34966 6.06840
#
# Compressibility (1/GPa) = 0.03327719
#
# Stress axis : x y z
#
# Youngs Moduli (GPa) = 142.79070 45.35947 67.64179
#
# Poissons Ratio (x) = 0.16388 0.05253
# Poissons Ratio (y) = 0.51588 0.06011
# Poissons Ratio (z) = 0.11088 0.04031
#
# Static dielectric constant tensor:
#      x y z
#    x 1.756580 0.000000 0.000000 
#    y 0.000000 1.916540 0.000000 
#    z 0.000000 0.000000 1.833380 
# 
# From -- ./inp_files/5140.got.cif
#   From: 2010.05.17/outbox.ucp.g08.bks.cvg/sg33_3_cif.got.tgz:5140.got - 2010.06.11 10:35:07.
