data_PCOD9347487
_publ_section_title
;
Structure prediction by ZEFSAII (Michael W. Deem and Ramdas Pophale) SiO2 
 PCOD9347487
Probable space group: P N N 2
;
_chemical_formula_sum "Si O2"
_cell_formula_units_Z 20
_cell_length_a 6.516155
_cell_length_b 8.520196
_cell_length_c 13.385842
_cell_angle_alpha 90.000000
_cell_angle_beta 90.000000
_cell_angle_gamma 90.000000
_cell_volume 743.167461
_symmetry_space_group_name_H-M "P N N 2"
_symmetry_group_IT_number 34
_symmetry_cell_setting 'orthorhombic'
loop_
_space_group_symop_operation_xyz
x,y,z
-x,-y,z
1/2-x,1/2+y,1/2+z
1/2+x,1/2-y,1/2+z
loop_
_atom_site_type_symbol
_atom_site_label
_atom_site_fract_x
_atom_site_fract_y
_atom_site_fract_z
Si Si1 0.868099 0.297661 0.378760
Si Si2 0.661288 0.192370 0.054560
Si Si3 0.500000 0.500000 0.116319
Si Si4 0.000000 0.500000 0.740694
Si Si5 0.235240 0.267955 0.246954
Si Si6 0.500000 0.500000 0.434962
Si Si7 0.500000 0.500000 0.763963
O O1 0.655510 0.389890 0.370812
O O2 0.870564 0.115408 0.340493
O O3 0.948582 0.324031 0.491201
O O4 0.069900 0.349244 0.316452
O O5 0.660300 0.381473 0.063748
O O6 0.628410 0.108339 0.161326
O O7 0.850160 0.114772 0.996848
O O8 0.359219 0.384698 0.180878
O O9 0.879373 0.363866 0.799370
O O10 0.096398 0.134963 0.193562
#
# Coordination Sequence:
#
# PCOD9347487 Si02
#       7
#     4   4   2   2   4   2   2
#     4  10  22  47  78 119 158 206 272 331 393 497
#     4  11  23  46  81 116 158 204 264 335 397 490
#     4  10  23  49  88 118 162 206 274 332 412 462
#     4  10  20  44  78 112 154 212 252 334 416 468
#     4   9  22  44  82 113 164 204 266 333 403 492
#     4  12  24  44  86 113 161 214 272 324 411 471
#     4   8  21  45  76  99 169 198 256 332 389 469
#
# _framework density 26.911833999999999
#
# number of rings (size 3 to 8) (size 9 to 14) (size 15 to 20)
#    1.200    0.800    2.000    0.600    0.000    3.200 
#    0.000    9.000   17.600    0.000    0.000    0.000 
#    0.000    0.000    0.000    0.000    0.000    0.000 
#
# Total GULP energy -111409.019310 kJ/mol
# GULP energy per Si atom -5570.450966 kJ/mol
# Density = 2.685058 g / cm^3
# Si number density = 26.911834 Si / 1000 Ang^3
#
#
#
# Elastic Constant Matrix: (Units=GPa)
#
#
# Indices 1 2 3 4 5 6 
#
# 1 161.1984 111.2517 52.6445 0.0000 0.0000 0.0000
# 2 111.2517 245.8055 58.1991 0.0000 0.0000 0.0000
# 3 52.6445 58.1991 73.4338 0.0000 0.0000 0.0000
# 4 0.0000 0.0000 0.0000 39.9963 0.0000 0.0000
# 5 0.0000 0.0000 0.0000 0.0000 40.5035 0.0000
# 6 0.0000 0.0000 0.0000 0.0000 0.0000 100.1885
#
#
#
# Elastic Compliance Matrix: (Units=1/GPa)
#
#
# Indices 1 2 3 4 5 6 
#
# 1 0.010076 -0.003508 -0.004443 0.000000 0.000000 0.000000
# 2 -0.003508 0.006230 -0.002422 0.000000 0.000000 0.000000
# 3 -0.004443 -0.002422 0.018722 0.000000 0.000000 0.000000
# 4 0.000000 0.000000 0.000000 0.025002 0.000000 0.000000
# 5 0.000000 0.000000 0.000000 0.000000 0.024689 0.000000
# 6 0.000000 0.000000 0.000000 0.000000 0.000000 0.009981
#
#
# Mechanical properties :
#
#
# Convention : Reuss Voigt Hill
#
# Bulk Modulus (GPa) = 70.02178 102.73646 86.37912
# Shear Modulus (GPa) = 41.59480 53.36048 47.47764
#
# Velocity S-wave (km/s) = 3.93567 4.45768 4.20479
# Velocity P-wave (km/s) = 6.83580 8.04690 7.46595
#
# Compressibility (1/GPa) = 0.01428127
#
# Stress axis : x y z
#
# Youngs Moduli (GPa) = 99.24763 160.52309 53.41225
#
# Poissons Ratio (x) = 0.56318 0.23730
# Poissons Ratio (y) = 0.34820 0.12937
# Poissons Ratio (z) = 0.44093 0.38880
#
# Static dielectric constant tensor:
#      x y z
#    x 2.733830 0.000000 0.000000 
#    y 0.000000 2.205390 0.000000 
#    z 0.000000 0.000000 2.131750 
# 
# From -- ./inp_files/7136.got.cif
#   From: 2010.05.17/outbox.cif.g08.bks.cpg/sg34_4_cif.got.tgz:7136.got - 2010.06.03 17:23:11.
