data_PCOD9347842
_publ_section_title
;
Structure prediction by ZEFSAII (Michael W. Deem and Ramdas Pophale) SiO2 
 PCOD9347842
Probable space group: P N N 2
;
_chemical_formula_sum "Si O2"
_cell_formula_units_Z 18
_cell_length_a 8.498997
_cell_length_b 12.278254
_cell_length_c 7.183105
_cell_angle_alpha 90.000000
_cell_angle_beta 90.000000
_cell_angle_gamma 90.000000
_cell_volume 749.577435
_symmetry_space_group_name_H-M "P N N 2"
_symmetry_group_IT_number 34
_symmetry_cell_setting 'orthorhombic'
loop_
_space_group_symop_operation_xyz
x,y,z
-x,-y,z
1/2-x,1/2+y,1/2+z
1/2+x,1/2-y,1/2+z
loop_
_atom_site_type_symbol
_atom_site_label
_atom_site_fract_x
_atom_site_fract_y
_atom_site_fract_z
Si Si1 0.954330 0.379541 0.831560
Si Si2 0.927248 0.386858 0.383625
Si Si3 0.430773 0.656900 0.302090
Si Si4 0.107969 0.168268 0.385397
Si Si5 0.500000 0.500000 0.586306
O O1 0.935303 0.385967 0.608315
O O2 0.794965 0.329942 0.916968
O O3 0.000000 0.500000 0.896180
O O4 0.080018 0.283933 0.855970
O O5 0.744530 0.386137 0.332945
O O6 0.000000 0.500000 0.318069
O O7 0.026694 0.280721 0.320282
O O8 0.550404 0.592683 0.437385
O O9 0.471324 0.642887 0.084980
O O10 0.094988 0.073704 0.231852
#
# Coordination Sequence:
#
# PCOD9347842 Si02
#       5
#     4   4   4   4   2
#     4  10  24  46  72 106 143 183 236 293 353 419
#     4  10  24  46  72 106 143 183 236 293 353 419
#     4  11  26  44  74 105 138 189 237 287 356 420
#     4  11  26  44  74 105 138 189 237 287 356 420
#     4  12  26  48  68 102 146 190 230 306 334 418
#
# _framework density 24.013528000000001
#
# number of rings (size 3 to 8) (size 9 to 14) (size 15 to 20)
#    0.000    1.333    2.222    0.667    9.333    0.889 
#    0.000    0.000    0.000    0.000    0.000    0.000 
#    0.000    0.000    0.000    0.000    0.000    0.000 
#
# Total GULP energy -100456.856975 kJ/mol
# GULP energy per Si atom -5580.936499 kJ/mol
# Density = 2.395887 g / cm^3
# Si number density = 24.013528 Si / 1000 Ang^3
#
#
#
# Elastic Constant Matrix: (Units=GPa)
#
#
# Indices 1 2 3 4 5 6 
#
# 1 78.5552 68.6677 1.0479 0.0000 0.0000 0.0000
# 2 68.6677 191.2775 31.9008 0.0000 0.0000 0.0000
# 3 1.0479 31.9008 130.1587 0.0000 0.0000 0.0000
# 4 0.0000 0.0000 0.0000 23.7797 0.0000 0.0000
# 5 0.0000 0.0000 0.0000 0.0000 4.1355 0.0000
# 6 0.0000 0.0000 0.0000 0.0000 0.0000 42.8347
#
#
#
# Elastic Compliance Matrix: (Units=1/GPa)
#
#
# Indices 1 2 3 4 5 6 
#
# 1 0.018855 -0.007031 0.001571 0.000000 0.000000 0.000000
# 2 -0.007031 0.008073 -0.001922 0.000000 0.000000 0.000000
# 3 0.001571 -0.001922 0.008141 0.000000 0.000000 0.000000
# 4 0.000000 0.000000 0.000000 0.042053 0.000000 0.000000
# 5 0.000000 0.000000 0.000000 0.000000 0.241806 0.000000
# 6 0.000000 0.000000 0.000000 0.000000 0.000000 0.023346
#
#
# Mechanical properties :
#
#
# Convention : Reuss Voigt Hill
#
# Bulk Modulus (GPa) = 49.24650 67.02490 58.13570
# Shear Modulus (GPa) = 13.74363 34.04165 23.89264
#
# Velocity S-wave (km/s) = 2.39493 3.76919 3.15773
# Velocity P-wave (km/s) = 5.31036 6.84940 6.12839
#
# Compressibility (1/GPa) = 0.02030601
#
# Stress axis : x y z
#
# Youngs Moduli (GPa) = 53.03667 123.87593 122.83018
#
# Poissons Ratio (x) = 0.87096 -0.19302
# Poissons Ratio (y) = 0.37289 0.23607
# Poissons Ratio (z) = -0.08334 0.23808
#
# Static dielectric constant tensor:
#      x y z
#    x 2.010350 0.000000 0.000000 
#    y 0.000000 1.958060 0.000000 
#    z 0.000000 0.000000 1.958300 
# 
# From -- ./inp_files/2413.got.cif
#   From: 2010.05.17/outbox.cif.g08.bks.cpg/sg34_2_cif.got.tgz:2413.got - 2010.06.03 17:23:11.
