data_PCOD9347267
_publ_section_title
;
Structure prediction by ZEFSAII (Michael W. Deem and Ramdas Pophale) SiO2 
 PCOD9347267
Probable space group: P N N 2
;
_chemical_formula_sum "Si O2"
_cell_formula_units_Z 32
_cell_length_a 14.344591
_cell_length_b 18.123129
_cell_length_c 6.981157
_cell_angle_alpha 90.000000
_cell_angle_beta 90.000000
_cell_angle_gamma 90.000000
_cell_volume 1814.883519
_symmetry_space_group_name_H-M "P N N 2"
_symmetry_group_IT_number 34
_symmetry_cell_setting 'orthorhombic'
loop_
_space_group_symop_operation_xyz
x,y,z
-x,-y,z
1/2-x,1/2+y,1/2+z
1/2+x,1/2-y,1/2+z
loop_
_atom_site_type_symbol
_atom_site_label
_atom_site_fract_x
_atom_site_fract_y
_atom_site_fract_z
Si Si1 0.978285 0.658166 0.954520
Si Si2 0.342056 0.060058 0.427098
Si Si3 0.851736 0.581330 0.675312
Si Si4 0.401163 0.958695 0.752182
Si Si5 0.510823 0.330837 0.518677
Si Si6 0.363738 0.583079 0.789987
Si Si7 0.360790 0.410548 0.781164
Si Si8 0.011649 0.914237 0.624503
O O1 0.080867 0.622949 0.940384
O O2 0.924155 0.640801 0.756962
O O3 0.924181 0.610335 0.115171
O O4 0.982278 0.743245 0.007063
O O5 0.242788 0.088459 0.355525
O O6 0.374838 0.996852 0.277880
O O7 0.338844 0.016122 0.629386
O O8 0.857609 0.567989 0.449791
O O9 0.747759 0.601956 0.743212
O O10 0.500000 0.000000 0.788708
O O11 0.602634 0.365849 0.617203
O O12 0.425286 0.359297 0.650172
O O13 0.496028 0.363760 0.308304
O O14 0.379974 0.497063 0.735050
O O15 0.429879 0.600228 0.970540
O O16 0.393780 0.402968 0.001553
O O17 0.000000 0.000000 0.681153
#
# Coordination Sequence:
#
# PCOD9347267 Si02
#       8
#     4   4   4   4   4   4   4   4
#     4  10  22  37  51  83 120 147 181 233 290 353
#     4   9  19  37  57  84 111 142 194 244 279 327
#     4  10  19  36  61  83 108 145 195 240 283 334
#     4   9  18  35  61  81 107 148 191 235 288 333
#     4  11  21  36  53  81 115 155 181 221 299 347
#     4   9  19  36  58  81 111 143 193 243 269 328
#     4   9  20  36  56  82 107 141 194 243 270 325
#     4   9  18  35  57  79 106 145 190 230 270 326
#
# _framework density 17.631986999999999
#
# number of rings (size 3 to 8) (size 9 to 14) (size 15 to 20)
#    0.000    2.500    0.000    3.750    0.000    8.000 
#    6.750    0.000    0.000    0.000    0.000    0.000 
#    0.000    0.000    0.000    0.000    0.000    0.000 
#
# Total GULP energy -178509.137679 kJ/mol
# GULP energy per Si atom -5578.410552 kJ/mol
# Density = 1.759186 g / cm^3
# Si number density = 17.631987 Si / 1000 Ang^3
#
#
#
# Elastic Constant Matrix: (Units=GPa)
#
#
# Indices 1 2 3 4 5 6 
#
# 1 95.0489 59.6200 51.3607 0.0000 0.0000 0.0000
# 2 59.6200 115.4953 59.6336 0.0000 0.0000 0.0000
# 3 51.3607 59.6336 99.0686 0.0000 0.0000 0.0000
# 4 0.0000 0.0000 0.0000 4.7883 0.0000 0.0000
# 5 0.0000 0.0000 0.0000 0.0000 21.6673 0.0000
# 6 0.0000 0.0000 0.0000 0.0000 0.0000 14.9933
#
#
#
# Elastic Compliance Matrix: (Units=1/GPa)
#
#
# Indices 1 2 3 4 5 6 
#
# 1 0.017220 -0.006210 -0.005190 0.000000 0.000000 0.000000
# 2 -0.006210 0.014802 -0.005691 0.000000 0.000000 0.000000
# 3 -0.005190 -0.005691 0.016210 0.000000 0.000000 0.000000
# 4 0.000000 0.000000 0.000000 0.208844 0.000000 0.000000
# 5 0.000000 0.000000 0.000000 0.000000 0.046152 0.000000
# 6 0.000000 0.000000 0.000000 0.000000 0.000000 0.066696
#
#
# Mechanical properties :
#
#
# Convention : Reuss Voigt Hill
#
# Bulk Modulus (GPa) = 71.16327 72.31571 71.73949
# Shear Modulus (GPa) = 12.23124 17.55635 14.89379
#
# Velocity S-wave (km/s) = 2.63667 3.15891 2.90953
# Velocity P-wave (km/s) = 7.05105 7.37617 7.21544
#
# Compressibility (1/GPa) = 0.01405219
#
# Stress axis : x y z
#
# Youngs Moduli (GPa) = 58.07101 67.55774 61.69015
#
# Poissons Ratio (x) = 0.41951 0.32016
# Poissons Ratio (y) = 0.36060 0.35106
# Poissons Ratio (z) = 0.30137 0.38445
#
# Static dielectric constant tensor:
#      x y z
#    x 1.615970 0.000000 0.000000 
#    y 0.000000 1.577390 0.000000 
#    z 0.000000 0.000000 1.599220 
# 
# From -- ./inp_files/1328.got.cif
#   From: 2010.05.17/outbox.cif.g08.bks.cpg/sg34_1_cif.got.tgz:1328.got - 2010.06.03 17:23:11.
