data_PCOD9347748
_publ_section_title
;
Structure prediction by ZEFSAII (Michael W. Deem and Ramdas Pophale) SiO2 
 PCOD9347748
Probable space group: P N N 2
;
_chemical_formula_sum "Si O2"
_cell_formula_units_Z 22
_cell_length_a 12.327384
_cell_length_b 10.209902
_cell_length_c 8.704731
_cell_angle_alpha 90.000000
_cell_angle_beta 90.000000
_cell_angle_gamma 90.000000
_cell_volume 1095.589478
_symmetry_space_group_name_H-M "P N N 2"
_symmetry_group_IT_number 34
_symmetry_cell_setting 'orthorhombic'
loop_
_space_group_symop_operation_xyz
x,y,z
-x,-y,z
1/2-x,1/2+y,1/2+z
1/2+x,1/2-y,1/2+z
loop_
_atom_site_type_symbol
_atom_site_label
_atom_site_fract_x
_atom_site_fract_y
_atom_site_fract_z
Si Si1 0.257359 0.153184 0.218440
Si Si2 0.167435 0.137623 0.877473
Si Si3 0.061271 0.753408 0.940172
Si Si4 0.817928 0.586950 0.347041
Si Si5 0.000000 0.500000 0.127461
Si Si6 0.250230 0.366816 0.661121
O O1 0.371927 0.197781 0.292902
O O2 0.181164 0.263142 0.293564
O O3 0.232065 0.001087 0.255316
O O4 0.232842 0.162620 0.036962
O O5 0.206745 0.248369 0.760632
O O6 0.039579 0.153521 0.902070
O O7 0.205138 0.993125 0.825181
O O8 0.145459 0.818261 0.062553
O O9 0.009441 0.627251 0.022828
O O10 0.899183 0.508587 0.241567
O O11 0.836433 0.592233 0.529289
#
# Coordination Sequence:
#
# PCOD9347748 Si02
#       6
#     4   4   4   4   2   4
#     4  10  23  39  63  98 131 172 226 273 335 407
#     4  11  22  43  67  94 139 173 226 288 332 409
#     4  11  23  41  70  95 130 187 225 275 356 403
#     4  10  23  39  64  96 131 172 229 276 334 405
#     4  12  20  42  70  94 130 186 228 284 354 402
#     4  10  23  41  64  96 134 172 227 277 335 411
#
# _framework density 20.080514999999998
#
# number of rings (size 3 to 8) (size 9 to 14) (size 15 to 20)
#    0.000    1.455    3.636    1.091    0.000    9.455 
#    0.000    0.000    0.000    8.727    0.000    0.000 
#    0.000    0.000    0.000    0.000    0.000    0.000 
#
# Total GULP energy -122609.254420 kJ/mol
# GULP energy per Si atom -5573.147928 kJ/mol
# Density = 2.003481 g / cm^3
# Si number density = 20.080515 Si / 1000 Ang^3
#
#
#
# Elastic Constant Matrix: (Units=GPa)
#
#
# Indices 1 2 3 4 5 6 
#
# 1 95.5274 13.3924 34.2634 0.0000 0.0000 0.0000
# 2 13.3924 117.2448 12.9345 0.0000 0.0000 0.0000
# 3 34.2634 12.9345 49.1431 0.0000 0.0000 0.0000
# 4 0.0000 0.0000 0.0000 -85.2298 0.0000 0.0000
# 5 0.0000 0.0000 0.0000 0.0000 31.5433 0.0000
# 6 0.0000 0.0000 0.0000 0.0000 0.0000 28.8824
#
#
#
# Elastic Compliance Matrix: (Units=1/GPa)
#
#
# Indices 1 2 3 4 5 6 
#
# 1 0.013992 -0.000538 -0.009614 0.000000 0.000000 0.000000
# 2 -0.000538 0.008805 -0.001943 0.000000 0.000000 0.000000
# 3 -0.009614 -0.001943 0.027563 0.000000 0.000000 0.000000
# 4 0.000000 0.000000 0.000000 -0.011733 0.000000 0.000000
# 5 0.000000 0.000000 0.000000 0.000000 0.031702 0.000000
# 6 0.000000 0.000000 0.000000 0.000000 0.000000 0.034623
#
#
# Mechanical properties :
#
#
# Convention : Reuss Voigt Hill
#
# Bulk Modulus (GPa) = 38.20946 42.56622 40.38784
# Shear Modulus (GPa) = 36.26753 8.46084 22.36419
#
# Velocity S-wave (km/s) = 4.25444 2.05490 3.34087
# Velocity P-wave (km/s) = 6.57291 5.18401 5.91933
#
# Compressibility (1/GPa) = 0.02617153
#
# Stress axis : x y z
#
# Youngs Moduli (GPa) = 71.47024 113.57334 36.28053
#
# Poissons Ratio (x) = 0.06106 0.34880
# Poissons Ratio (y) = 0.03842 0.07048
# Poissons Ratio (z) = 0.68710 0.22063
#
# Static dielectric constant tensor:
#      x y z
#    x 1.757620 0.000000 0.000000 
#    y 0.000000 1.761120 0.000000 
#    z 0.000000 0.000000 1.714730 
# 
# From -- ./inp_files/3513.got.cif
#   From: 2010.05.17/outbox.cif.g08.bks.cpg/sg34_2_cif.got.tgz:3513.got - 2010.06.03 17:23:11.
