data_PCOD9347950
_publ_section_title
;
Structure prediction by ZEFSAII (Michael W. Deem and Ramdas Pophale) SiO2 
 PCOD9347950
Probable space group: P N N 2
;
_chemical_formula_sum "Si O2"
_cell_formula_units_Z 20
_cell_length_a 5.274960
_cell_length_b 28.051116
_cell_length_c 5.208769
_cell_angle_alpha 90.000000
_cell_angle_beta 90.000000
_cell_angle_gamma 90.000000
_cell_volume 770.733813
_symmetry_space_group_name_H-M "P N N 2"
_symmetry_group_IT_number 34
_symmetry_cell_setting 'orthorhombic'
loop_
_space_group_symop_operation_xyz
x,y,z
-x,-y,z
1/2-x,1/2+y,1/2+z
1/2+x,1/2-y,1/2+z
loop_
_atom_site_type_symbol
_atom_site_label
_atom_site_fract_x
_atom_site_fract_y
_atom_site_fract_z
Si Si1 0.260761 0.529970 0.401530
Si Si2 0.566763 0.309880 0.694852
Si Si3 0.594603 0.103869 0.704718
Si Si4 0.935038 0.702667 0.371528
Si Si5 0.580051 0.589004 0.736446
O O1 0.500000 0.500000 0.293380
O O2 0.372883 0.549413 0.670162
O O3 0.000000 0.500000 0.421462
O O4 0.172047 0.578019 0.257240
O O5 0.305690 0.306741 0.544411
O O6 0.557274 0.361742 0.818451
O O7 0.804270 0.309175 0.508008
O O8 0.576575 0.259387 0.835914
O O9 0.725088 0.079242 0.462715
O O10 0.580394 0.161336 0.654766
O O11 0.761238 0.096069 0.967218
#
# Coordination Sequence:
#
# PCOD9347950 Si02
#       5
#     4   4   4   4   4
#     4  12  26  56  80 120 154 214 272 342 412 488
#     4  11  23  43  71 114 157 207 261 317 393 478
#     4  11  26  52  79 115 160 206 264 334 400 481
#     4  11  23  43  71 114 157 207 261 317 393 478
#     4  11  26  52  79 115 160 206 264 334 400 481
#
# _framework density 25.949296
#
# number of rings (size 3 to 8) (size 9 to 14) (size 15 to 20)
#    0.000    0.800    4.000    2.400    0.000    4.800 
#    7.200    0.000    0.000    0.000    0.000    0.000 
#    0.000    0.000    0.000    0.000    0.000    0.000 
#
# Total GULP energy -111908.357357 kJ/mol
# GULP energy per Si atom -5595.417868 kJ/mol
# Density = 2.589023 g / cm^3
# Si number density = 25.949296 Si / 1000 Ang^3
#
#
#
# Elastic Constant Matrix: (Units=GPa)
#
#
# Indices 1 2 3 4 5 6 
#
# 1 178.4314 26.7488 37.4936 0.0000 0.0000 0.0000
# 2 26.7488 164.9199 13.4982 0.0000 0.0000 0.0000
# 3 37.4936 13.4982 95.6035 0.0000 0.0000 0.0000
# 4 0.0000 0.0000 0.0000 32.5476 0.0000 0.0000
# 5 0.0000 0.0000 0.0000 0.0000 40.7204 0.0000
# 6 0.0000 0.0000 0.0000 0.0000 0.0000 57.4986
#
#
#
# Elastic Compliance Matrix: (Units=1/GPa)
#
#
# Indices 1 2 3 4 5 6 
#
# 1 0.006215 -0.000818 -0.002322 0.000000 0.000000 0.000000
# 2 -0.000818 0.006242 -0.000561 0.000000 0.000000 0.000000
# 3 -0.002322 -0.000561 0.011450 0.000000 0.000000 0.000000
# 4 0.000000 0.000000 0.000000 0.030724 0.000000 0.000000
# 5 0.000000 0.000000 0.000000 0.000000 0.024558 0.000000
# 6 0.000000 0.000000 0.000000 0.000000 0.000000 0.017392
#
#
# Mechanical properties :
#
#
# Convention : Reuss Voigt Hill
#
# Bulk Modulus (GPa) = 60.58451 66.04845 63.31648
# Shear Modulus (GPa) = 45.66923 50.23428 47.95176
#
# Velocity S-wave (km/s) = 4.19972 4.40462 4.30339
# Velocity P-wave (km/s) = 6.84944 7.16768 7.01037
#
# Compressibility (1/GPa) = 0.01650587
#
# Stress axis : x y z
#
# Youngs Moduli (GPa) = 160.90344 160.20255 87.33941
#
# Poissons Ratio (x) = 0.13104 0.20279
# Poissons Ratio (y) = 0.13162 0.04896
# Poissons Ratio (z) = 0.37360 0.08980
#
# Static dielectric constant tensor:
#      x y z
#    x 1.968360 0.000000 0.000000 
#    y 0.000000 2.244500 0.000000 
#    z 0.000000 0.000000 2.075770 
# 
# From -- ./inp_files/169.got.cif
#   From: 2010.05.17/outbox.cif.g08.bks.cpg/sg34_1_cif.got.tgz:169.got - 2010.06.03 17:23:11.
