data_PCOD9347190
_publ_section_title
;
Structure prediction by ZEFSAII (Michael W. Deem and Ramdas Pophale) SiO2 
 PCOD9347190
Probable space group: P N N 2
;
_chemical_formula_sum "Si O2"
_cell_formula_units_Z 30
_cell_length_a 9.424958
_cell_length_b 15.047243
_cell_length_c 10.704225
_cell_angle_alpha 90.000000
_cell_angle_beta 90.000000
_cell_angle_gamma 90.000000
_cell_volume 1518.069264
_symmetry_space_group_name_H-M "P N N 2"
_symmetry_group_IT_number 34
_symmetry_cell_setting 'orthorhombic'
loop_
_space_group_symop_operation_xyz
x,y,z
-x,-y,z
1/2-x,1/2+y,1/2+z
1/2+x,1/2-y,1/2+z
loop_
_atom_site_type_symbol
_atom_site_label
_atom_site_fract_x
_atom_site_fract_y
_atom_site_fract_z
Si Si1 0.000000 0.500000 0.067340
Si Si2 0.591189 0.921877 0.804770
Si Si3 0.900121 0.920183 0.709126
Si Si4 0.713782 0.051835 0.349427
Si Si5 0.991595 0.881433 0.439411
Si Si6 0.219224 0.642795 0.778059
Si Si7 0.186997 0.720222 0.504208
Si Si8 0.438799 0.770104 0.339039
O O1 0.978535 0.418198 0.165687
O O2 0.128079 0.470374 0.977446
O O3 0.749291 0.946785 0.764857
O O4 0.500000 0.000000 0.867412
O O5 0.612955 0.841744 0.899287
O O6 0.935308 0.820163 0.756964
O O7 0.906886 0.920022 0.558532
O O8 0.000000 0.000000 0.752293
O O9 0.882196 0.063015 0.372812
O O10 0.648382 0.142267 0.291400
O O11 0.689680 0.962439 0.272534
O O12 0.088295 0.805805 0.502564
O O13 0.873401 0.847921 0.341803
O O14 0.201265 0.679363 0.639697
O O15 0.097635 0.693837 0.857193
O O16 0.345112 0.744033 0.458426
#
# Coordination Sequence:
#
# PCOD9347190 Si02
#       8
#     2   4   4   4   4   4   4   4
#     4  10  18  36  68  96 124 176 220 270 322 394
#     4   9  22  38  63  93 125 173 218 266 331 393
#     4  11  21  41  65  93 133 169 225 281 328 395
#     4  11  22  41  67 100 132 174 233 271 330 411
#     4  11  24  40  65  99 130 174 227 279 331 401
#     4  12  22  43  67  96 133 180 213 285 349 384
#     4  10  24  44  61  96 142 168 224 277 334 414
#     4  10  23  42  65  97 128 177 222 272 330 411
#
# _framework density 19.761945000000001
#
# number of rings (size 3 to 8) (size 9 to 14) (size 15 to 20)
#    0.400    1.067    2.667    2.800    0.000    4.267 
#    4.800    5.333    0.000    0.000    0.000    0.000 
#    0.000    0.000    0.000    0.000    0.000    0.000 
#
# Total GULP energy -167040.228486 kJ/mol
# GULP energy per Si atom -5568.007616 kJ/mol
# Density = 1.971697 g / cm^3
# Si number density = 19.761945 Si / 1000 Ang^3
#
#
#
# Elastic Constant Matrix: (Units=GPa)
#
#
# Indices 1 2 3 4 5 6 
#
# 1 117.1355 40.1345 23.8910 0.0000 0.0000 0.0000
# 2 40.1345 108.9859 39.4278 0.0000 0.0000 0.0000
# 3 23.8910 39.4278 60.4945 0.0000 0.0000 0.0000
# 4 0.0000 0.0000 0.0000 43.4411 0.0000 0.0000
# 5 0.0000 0.0000 0.0000 0.0000 21.5120 0.0000
# 6 0.0000 0.0000 0.0000 0.0000 0.0000 40.0344
#
#
#
# Elastic Compliance Matrix: (Units=1/GPa)
#
#
# Indices 1 2 3 4 5 6 
#
# 1 0.009955 -0.002936 -0.002018 0.000000 0.000000 0.000000
# 2 -0.002936 0.012872 -0.007230 0.000000 0.000000 0.000000
# 3 -0.002018 -0.007230 0.022040 0.000000 0.000000 0.000000
# 4 0.000000 0.000000 0.000000 0.023020 0.000000 0.000000
# 5 0.000000 0.000000 0.000000 0.000000 0.046486 0.000000
# 6 0.000000 0.000000 0.000000 0.000000 0.000000 0.024979
#
#
# Mechanical properties :
#
#
# Convention : Reuss Voigt Hill
#
# Bulk Modulus (GPa) = 48.78345 54.83584 51.80964
# Shear Modulus (GPa) = 29.31670 33.20834 31.26252
#
# Velocity S-wave (km/s) = 3.85579 4.10374 3.98170
# Velocity P-wave (km/s) = 6.67548 7.08962 6.88566
#
# Compressibility (1/GPa) = 0.02049876
#
# Stress axis : x y z
#
# Youngs Moduli (GPa) = 100.45606 77.68636 45.37268
#
# Poissons Ratio (x) = 0.22807 0.09156
# Poissons Ratio (y) = 0.29492 0.32805
# Poissons Ratio (z) = 0.20271 0.56169
#
# Static dielectric constant tensor:
#      x y z
#    x 1.729400 0.000000 0.000000 
#    y 0.000000 1.729400 0.000000 
#    z 0.000000 0.000000 1.668020 
# 
# From -- ./inp_files/5080.got.cif
#   From: 2010.05.17/outbox.cif.g08.bks.cpg/sg34_3_cif.got.tgz:5080.got - 2010.06.03 17:23:11.
