data_PCOD9347334
_publ_section_title
;
Structure prediction by ZEFSAII (Michael W. Deem and Ramdas Pophale) SiO2 
 PCOD9347334
Probable space group: P N N 2
;
_chemical_formula_sum "Si O2"
_cell_formula_units_Z 28
_cell_length_a 14.348075
_cell_length_b 5.092047
_cell_length_c 20.505940
_cell_angle_alpha 90.000000
_cell_angle_beta 90.000000
_cell_angle_gamma 90.000000
_cell_volume 1498.185964
_symmetry_space_group_name_H-M "P N N 2"
_symmetry_group_IT_number 34
_symmetry_cell_setting 'orthorhombic'
loop_
_space_group_symop_operation_xyz
x,y,z
-x,-y,z
1/2-x,1/2+y,1/2+z
1/2+x,1/2-y,1/2+z
loop_
_atom_site_type_symbol
_atom_site_label
_atom_site_fract_x
_atom_site_fract_y
_atom_site_fract_z
Si Si1 0.110497 0.483243 0.182570
Si Si2 0.594771 0.177250 0.081983
Si Si3 0.307828 0.985719 0.826731
Si Si4 0.730229 0.527175 0.654433
Si Si5 0.000000 0.000000 0.684769
Si Si6 0.300212 0.982289 0.301830
Si Si7 0.063644 0.245855 0.437486
Si Si8 0.000000 0.500000 0.774549
O O1 0.130166 0.498567 0.260890
O O2 0.164012 0.721442 0.148181
O O3 0.000000 0.500000 0.171805
O O4 0.162317 0.221314 0.158762
O O5 0.687359 0.019852 0.101634
O O6 0.581230 0.402959 0.136394
O O7 0.500000 0.000000 0.086058
O O8 0.602532 0.302008 0.010206
O O9 0.223844 0.784570 0.813674
O O10 0.363404 0.844074 0.884247
O O11 0.267282 0.276361 0.838378
O O12 0.780182 0.560459 0.724968
O O13 0.023910 0.750557 0.729237
O O14 0.408091 0.929530 0.314414
O O15 0.000000 0.500000 0.445788
O O16 0.000000 0.000000 0.416456
#
# Coordination Sequence:
#
# PCOD9347334 Si02
#       8
#     4   4   4   4   2   4   4   2
#     4  10  21  36  55  79 109 146 189 234 278 324
#     4  11  23  36  56  88 123 149 184 227 288 360
#     4  10  21  36  54  79 112 143 192 233 275 329
#     4  10  21  33  55  82 113 143 181 227 287 333
#     4  12  20  32  54  82 128 144 178 226 280 364
#     4  10  20  34  52  82 111 144 182 233 282 345
#     4  11  23  37  57  82 112 154 187 222 284 347
#     4  12  22  32  58  84 118 152 182 228 306 348
#
# _framework density 18.68927
#
# number of rings (size 3 to 8) (size 9 to 14) (size 15 to 20)
#    0.000    1.429    2.857    2.571    6.000    2.286 
#    0.000    0.000    0.000    0.000   11.143    0.000 
#    0.000    0.000    0.000    0.000    0.000    0.000 
#
# Total GULP energy -156264.732721 kJ/mol
# GULP energy per Si atom -5580.883311 kJ/mol
# Density = 1.864673 g / cm^3
# Si number density = 18.689270 Si / 1000 Ang^3
#
#
#
# Elastic Constant Matrix: (Units=GPa)
#
#
# Indices 1 2 3 4 5 6 
#
# 1 133.4160 32.3017 22.0375 0.0000 0.0000 0.0000
# 2 32.3017 105.1901 4.4155 0.0000 0.0000 0.0000
# 3 22.0375 4.4155 41.4429 0.0000 0.0000 0.0000
# 4 0.0000 0.0000 0.0000 11.4515 0.0000 0.0000
# 5 0.0000 0.0000 0.0000 0.0000 16.6582 0.0000
# 6 0.0000 0.0000 0.0000 0.0000 0.0000 26.3857
#
#
#
# Elastic Compliance Matrix: (Units=1/GPa)
#
#
# Indices 1 2 3 4 5 6 
#
# 1 0.008839 -0.002528 -0.004431 0.000000 0.000000 0.000000
# 2 -0.002528 0.010273 0.000250 0.000000 0.000000 0.000000
# 3 -0.004431 0.000250 0.026459 0.000000 0.000000 0.000000
# 4 0.000000 0.000000 0.000000 0.087325 0.000000 0.000000
# 5 0.000000 0.000000 0.000000 0.000000 0.060030 0.000000
# 6 0.000000 0.000000 0.000000 0.000000 0.000000 0.037899
#
#
# Mechanical properties :
#
#
# Convention : Reuss Voigt Hill
#
# Bulk Modulus (GPa) = 31.10198 44.17314 37.63756
# Shear Modulus (GPa) = 19.61076 25.65204 22.63140
#
# Velocity S-wave (km/s) = 3.24281 3.70882 3.48362
# Velocity P-wave (km/s) = 5.54066 6.48285 6.03018
#
# Compressibility (1/GPa) = 0.03215229
#
# Stress axis : x y z
#
# Youngs Moduli (GPa) = 113.12956 97.34707 37.79407
#
# Poissons Ratio (x) = 0.24613 0.16747
# Poissons Ratio (y) = 0.28604 -0.00945
# Poissons Ratio (z) = 0.50128 -0.02434
#
# Static dielectric constant tensor:
#      x y z
#    x 1.691030 0.000000 0.000000 
#    y 0.000000 1.676120 0.000000 
#    z 0.000000 0.000000 1.662270 
# 
# From -- ./inp_files/8145.got.cif
#   From: 2010.05.17/outbox.cif.g08.bks.cpg/sg34_5_cif.got.tgz:8145.got - 2010.06.03 17:23:11.
