data_PCOD9347591
_publ_section_title
;
Structure prediction by ZEFSAII (Michael W. Deem and Ramdas Pophale) SiO2 
 PCOD9347591
Probable space group: P N N 2
;
_chemical_formula_sum "Si O2"
_cell_formula_units_Z 32
_cell_length_a 10.813087
_cell_length_b 16.291798
_cell_length_c 8.754712
_cell_angle_alpha 90.000000
_cell_angle_beta 90.000000
_cell_angle_gamma 90.000000
_cell_volume 1542.270593
_symmetry_space_group_name_H-M "P N N 2"
_symmetry_group_IT_number 34
_symmetry_cell_setting 'orthorhombic'
loop_
_space_group_symop_operation_xyz
x,y,z
-x,-y,z
1/2-x,1/2+y,1/2+z
1/2+x,1/2-y,1/2+z
loop_
_atom_site_type_symbol
_atom_site_label
_atom_site_fract_x
_atom_site_fract_y
_atom_site_fract_z
Si Si1 0.848514 0.579263 0.500000
Si Si2 0.801458 0.215193 0.137761
Si Si3 0.379223 0.940987 0.638946
Si Si4 0.937308 0.745307 0.124560
Si Si5 0.365315 0.542018 0.072015
Si Si6 0.245934 0.173027 0.354385
Si Si7 0.384518 0.107891 0.076855
Si Si8 0.170682 0.168006 0.850723
O O1 0.735326 0.626727 0.575751
O O2 0.846488 0.568678 0.318368
O O3 0.863746 0.489448 0.569015
O O4 0.974947 0.627868 0.535545
O O5 0.702018 0.251149 0.254026
O O6 0.935606 0.230449 0.206235
O O7 0.800430 0.275408 0.992373
O O8 0.418824 0.850238 0.583406
O O9 0.500000 0.000000 0.624031
O O10 0.253840 0.980605 0.570234
O O11 0.830501 0.768262 0.242924
O O12 0.927929 0.805053 0.977575
O O13 0.500000 0.500000 0.062647
O O14 0.359318 0.595980 0.229725
O O15 0.340145 0.603989 0.931627
O O16 0.349752 0.135898 0.245483
O O17 0.291269 0.143506 0.949807
#
# Coordination Sequence:
#
# PCOD9347591 Si02
#       8
#     4   4   4   4   4   4   4   4
#     4  11  21  38  69  94 126 173 219 274 335 396
#     4  11  24  41  63  98 131 168 222 272 336 396
#     4  12  22  45  70  97 134 184 230 273 342 405
#     4  11  25  41  69  96 132 176 220 280 334 410
#     4  11  25  44  69  98 137 182 223 280 340 410
#     4  10  24  44  62  95 136 167 217 281 330 389
#     4  10  21  42  68  93 129 172 223 273 331 402
#     4  10  23  42  63  95 130 172 216 271 334 402
#
# _framework density 20.748629999999999
#
# number of rings (size 3 to 8) (size 9 to 14) (size 15 to 20)
#    0.000    1.250    3.750    2.250    3.500    3.000 
#    9.000    2.500    0.000    0.000    0.000    0.000 
#    0.000    0.000    0.000    0.000    0.000    0.000 
#
# Total GULP energy -178701.405068 kJ/mol
# GULP energy per Si atom -5584.418908 kJ/mol
# Density = 2.070141 g / cm^3
# Si number density = 20.748630 Si / 1000 Ang^3
#
#
#
# Elastic Constant Matrix: (Units=GPa)
#
#
# Indices 1 2 3 4 5 6 
#
# 1 73.2824 32.5265 -11.1239 0.0000 0.0000 0.0000
# 2 32.5265 78.9439 3.3145 0.0000 0.0000 0.0000
# 3 -11.1239 3.3145 51.1324 0.0000 0.0000 0.0000
# 4 0.0000 0.0000 0.0000 21.7999 0.0000 0.0000
# 5 0.0000 0.0000 0.0000 0.0000 9.4391 0.0000
# 6 0.0000 0.0000 0.0000 0.0000 0.0000 31.6858
#
#
#
# Elastic Compliance Matrix: (Units=1/GPa)
#
#
# Indices 1 2 3 4 5 6 
#
# 1 0.017599 -0.007432 0.004310 0.000000 0.000000 0.000000
# 2 -0.007432 0.015840 -0.002644 0.000000 0.000000 0.000000
# 3 0.004310 -0.002644 0.020666 0.000000 0.000000 0.000000
# 4 0.000000 0.000000 0.000000 0.045872 0.000000 0.000000
# 5 0.000000 0.000000 0.000000 0.000000 0.105942 0.000000
# 6 0.000000 0.000000 0.000000 0.000000 0.000000 0.031560
#
#
# Mechanical properties :
#
#
# Convention : Reuss Voigt Hill
#
# Bulk Modulus (GPa) = 23.48806 28.08811 25.78808
# Shear Modulus (GPa) = 18.99683 24.49440 21.74562
#
# Velocity S-wave (km/s) = 3.02912 3.43961 3.24087
# Velocity P-wave (km/s) = 4.85582 5.41676 5.14394
#
# Compressibility (1/GPa) = 0.04257482
#
# Stress axis : x y z
#
# Youngs Moduli (GPa) = 56.82178 63.12977 48.38819
#
# Poissons Ratio (x) = 0.46919 -0.20857
# Poissons Ratio (y) = 0.42230 0.12792
# Poissons Ratio (z) = -0.24493 0.16689
#
# Static dielectric constant tensor:
#      x y z
#    x 1.777940 0.000000 0.000000 
#    y 0.000000 1.744220 0.000000 
#    z 0.000000 0.000000 1.713610 
# 
# From -- ./inp_files/3341.got.cif
#   From: 2010.05.17/outbox.cif.g08.bks.cpg/sg34_2_cif.got.tgz:3341.got - 2010.06.03 17:23:11.
