data_PCOD9347861
_publ_section_title
;
Structure prediction by ZEFSAII (Michael W. Deem and Ramdas Pophale) SiO2 
 PCOD9347861
Probable space group: P N N 2
;
_chemical_formula_sum "Si O2"
_cell_formula_units_Z 26
_cell_length_a 6.880538
_cell_length_b 14.140084
_cell_length_c 11.032226
_cell_angle_alpha 90.000000
_cell_angle_beta 90.000000
_cell_angle_gamma 90.000000
_cell_volume 1073.340550
_symmetry_space_group_name_H-M "P N N 2"
_symmetry_group_IT_number 34
_symmetry_cell_setting 'orthorhombic'
loop_
_space_group_symop_operation_xyz
x,y,z
-x,-y,z
1/2-x,1/2+y,1/2+z
1/2+x,1/2-y,1/2+z
loop_
_atom_site_type_symbol
_atom_site_label
_atom_site_fract_x
_atom_site_fract_y
_atom_site_fract_z
Si Si1 0.555190 0.291396 0.392490
Si Si2 0.825272 0.820928 0.455411
Si Si3 0.094205 0.651936 0.517998
Si Si4 0.500000 0.500000 0.286214
Si Si5 0.500000 0.000000 0.216498
Si Si6 0.706433 0.615881 0.868723
Si Si7 0.500000 0.000000 0.806470
Si Si8 0.758668 0.502725 0.108015
O O1 0.355273 0.235690 0.402062
O O2 0.681751 0.315680 0.511755
O O3 0.520962 0.394370 0.339148
O O4 0.701790 0.216690 0.330399
O O5 0.744682 0.900012 0.544119
O O6 0.958902 0.743547 0.522013
O O7 0.974999 0.872118 0.363381
O O8 0.034013 0.591472 0.396542
O O9 0.061990 0.584949 0.630378
O O10 0.245818 0.487159 0.263729
O O11 0.319503 0.963459 0.294715
O O12 0.753374 0.587357 0.008636
O O13 0.500000 0.500000 0.134712
O O14 0.000000 0.500000 0.147031
#
# Coordination Sequence:
#
# PCOD9347861 Si02
#       8
#     4   4   4   2   2   4   2   4
#     4  11  25  46  75 109 145 193 255 319 390 461
#     4  11  24  44  73 107 148 193 258 312 390 462
#     4  10  25  45  69 107 150 193 249 314 376 469
#     4  12  24  44  78 102 146 190 256 320 386 456
#     4  11  25  46  76 102 163 205 254 308 400 477
#     4  11  25  47  70 107 151 203 251 318 383 466
#     4  11  21  42  72 106 137 193 248 314 374 447
#     4  12  23  44  76 104 145 191 252 319 379 455
#
# _framework density 24.223437000000001
#
# number of rings (size 3 to 8) (size 9 to 14) (size 15 to 20)
#    0.000    0.923    3.077    3.231    4.308    0.000 
#    0.000   12.308    0.000    0.000    0.000    0.000 
#    0.000    0.000    0.000    0.000    0.000    0.000 
#
# Total GULP energy -145190.582282 kJ/mol
# GULP energy per Si atom -5584.253165 kJ/mol
# Density = 2.416830 g / cm^3
# Si number density = 24.223437 Si / 1000 Ang^3
#
#
#
# Elastic Constant Matrix: (Units=GPa)
#
#
# Indices 1 2 3 4 5 6 
#
# 1 243.0438 80.2176 66.4863 0.0000 0.0000 0.0000
# 2 80.2176 185.4855 59.0010 0.0000 0.0000 0.0000
# 3 66.4863 59.0010 84.1925 0.0000 0.0000 0.0000
# 4 0.0000 0.0000 0.0000 -13.6890 0.0000 0.0000
# 5 0.0000 0.0000 0.0000 0.0000 29.1422 0.0000
# 6 0.0000 0.0000 0.0000 0.0000 0.0000 67.7667
#
#
#
# Elastic Compliance Matrix: (Units=1/GPa)
#
#
# Indices 1 2 3 4 5 6 
#
# 1 0.005474 -0.001277 -0.003428 0.000000 0.000000 0.000000
# 2 -0.001277 0.007236 -0.004062 0.000000 0.000000 0.000000
# 3 -0.003428 -0.004062 0.017431 0.000000 0.000000 0.000000
# 4 0.000000 0.000000 0.000000 -0.073052 0.000000 0.000000
# 5 0.000000 0.000000 0.000000 0.000000 0.034315 0.000000
# 6 0.000000 0.000000 0.000000 0.000000 0.000000 0.014757
#
#
# Mechanical properties :
#
#
# Convention : Reuss Voigt Hill
#
# Bulk Modulus (GPa) = 79.32271 102.68130 91.00201
# Shear Modulus (GPa) = 179.23886 37.11177 108.17531
#
# Velocity S-wave (km/s) = 8.61131 3.91840 6.68986
# Velocity P-wave (km/s) = 11.47563 7.93430 9.86517
#
# Compressibility (1/GPa) = 0.01260673
#
# Stress axis : x y z
#
# Youngs Moduli (GPa) = 182.69580 138.20456 57.36861
#
# Poissons Ratio (x) = 0.17647 0.19664
# Poissons Ratio (y) = 0.23328 0.23305
# Poissons Ratio (z) = 0.62621 0.56143
#
# Static dielectric constant tensor:
#      x y z
#    x 2.134810 0.000000 0.000000 
#    y 0.000000 1.877250 0.000000 
#    z 0.000000 0.000000 1.940790 
# 
# From -- ./inp_files/6130.got.cif
#   From: 2010.05.17/outbox.cif.g08.bks.cpg/sg34_4_cif.got.tgz:6130.got - 2010.06.03 17:23:11.
