data_PCOD9347783
_publ_section_title
;
Structure prediction by ZEFSAII (Michael W. Deem and Ramdas Pophale) SiO2 
 PCOD9347783
Probable space group: P N N 2
;
_chemical_formula_sum "Si O2"
_cell_formula_units_Z 30
_cell_length_a 12.115644
_cell_length_b 7.959496
_cell_length_c 14.176967
_cell_angle_alpha 90.000000
_cell_angle_beta 90.000000
_cell_angle_gamma 90.000000
_cell_volume 1367.147589
_symmetry_space_group_name_H-M "P N N 2"
_symmetry_group_IT_number 34
_symmetry_cell_setting 'orthorhombic'
loop_
_space_group_symop_operation_xyz
x,y,z
-x,-y,z
1/2-x,1/2+y,1/2+z
1/2+x,1/2-y,1/2+z
loop_
_atom_site_type_symbol
_atom_site_label
_atom_site_fract_x
_atom_site_fract_y
_atom_site_fract_z
Si Si1 0.273866 0.135784 0.883910
Si Si2 0.111611 0.980195 0.178243
Si Si3 0.881075 0.424220 0.200435
Si Si4 0.621713 0.506688 0.888144
Si Si5 0.311081 0.967079 0.074091
Si Si6 0.515551 0.301404 0.380145
Si Si7 0.316370 0.148838 0.507323
Si Si8 0.000000 0.500000 0.728704
O O1 0.292028 0.042543 0.783320
O O2 0.348204 0.299797 0.880962
O O3 0.147594 0.194870 0.902052
O O4 0.326576 0.031794 0.969307
O O5 0.115495 0.779366 0.192884
O O6 0.108090 0.061969 0.281559
O O7 0.207571 0.061850 0.119514
O O8 0.000000 0.000000 0.121789
O O9 0.000000 0.500000 0.226287
O O10 0.853364 0.474249 0.092189
O O11 0.500000 0.500000 0.935149
O O12 0.731433 0.428838 0.932931
O O13 0.400172 0.979375 0.155278
O O14 0.264775 0.781525 0.058173
O O15 0.500000 0.500000 0.357463
O O16 0.422907 0.237180 0.456952
O O17 0.498314 0.165309 0.295542
#
# Coordination Sequence:
#
# PCOD9347783 Si02
#       8
#     4   4   4   4   4   4   4   2
#     4  11  25  46  68 102 150 185 249 315 372 444
#     4   9  20  40  64  93 132 175 232 291 357 439
#     4  10  24  41  65 100 136 183 236 305 360 445
#     4  10  23  43  69 102 145 192 238 306 380 454
#     4  11  25  43  70 101 144 193 241 307 376 448
#     4  12  25  50  79 113 151 199 256 320 376 466
#     4  11  24  43  72 106 142 189 253 306 377 452
#     4  12  28  50  76 104 158 202 250 314 404 440
#
# _framework density 21.943498999999999
#
# number of rings (size 3 to 8) (size 9 to 14) (size 15 to 20)
#    0.000    1.333    1.333    4.000    9.333    2.133 
#    7.200    0.000    0.000    0.000    0.000    0.000 
#    0.000    0.000    0.000    0.000    0.000    0.000 
#
# Total GULP energy -167002.219019 kJ/mol
# GULP energy per Si atom -5566.740634 kJ/mol
# Density = 2.189356 g / cm^3
# Si number density = 21.943499 Si / 1000 Ang^3
#
#
#
# Elastic Constant Matrix: (Units=GPa)
#
#
# Indices 1 2 3 4 5 6 
#
# 1 108.4467 14.7531 47.1448 0.0000 0.0000 0.0000
# 2 14.7531 55.5011 32.3284 0.0000 0.0000 0.0000
# 3 47.1448 32.3284 114.6002 0.0000 0.0000 0.0000
# 4 0.0000 0.0000 0.0000 26.2511 0.0000 0.0000
# 5 0.0000 0.0000 0.0000 0.0000 86.2475 0.0000
# 6 0.0000 0.0000 0.0000 0.0000 0.0000 80.8354
#
#
#
# Elastic Compliance Matrix: (Units=1/GPa)
#
#
# Indices 1 2 3 4 5 6 
#
# 1 0.011235 -0.000352 -0.004523 0.000000 0.000000 0.000000
# 2 -0.000352 0.021571 -0.005940 0.000000 0.000000 0.000000
# 3 -0.004523 -0.005940 0.012262 0.000000 0.000000 0.000000
# 4 0.000000 0.000000 0.000000 0.038094 0.000000 0.000000
# 5 0.000000 0.000000 0.000000 0.000000 0.011595 0.000000
# 6 0.000000 0.000000 0.000000 0.000000 0.000000 0.012371
#
#
# Mechanical properties :
#
#
# Convention : Reuss Voigt Hill
#
# Bulk Modulus (GPa) = 42.66471 51.88897 47.27684
# Shear Modulus (GPa) = 36.61098 50.95491 43.78294
#
# Velocity S-wave (km/s) = 4.08906 4.82404 4.47168
# Velocity P-wave (km/s) = 6.46367 7.39773 6.94642
#
# Compressibility (1/GPa) = 0.02343858
#
# Stress axis : x y z
#
# Youngs Moduli (GPa) = 89.00647 46.35763 81.55078
#
# Poissons Ratio (x) = 0.01632 0.36882
# Poissons Ratio (y) = 0.03134 0.48444
# Poissons Ratio (z) = 0.40254 0.27538
#
# Static dielectric constant tensor:
#      x y z
#    x 1.851780 0.000000 0.000000 
#    y 0.000000 1.875840 0.000000 
#    z 0.000000 0.000000 2.036360 
# 
# From -- ./inp_files/6781.got.cif
#   From: 2010.05.17/outbox.cif.g08.bks.cpg/sg34_4_cif.got.tgz:6781.got - 2010.06.03 17:23:11.
