data_PCOD9347237
_publ_section_title
;
Structure prediction by ZEFSAII (Michael W. Deem and Ramdas Pophale) SiO2 
 PCOD9347237
Probable space group: P N N 2
;
_chemical_formula_sum "Si O2"
_cell_formula_units_Z 30
_cell_length_a 5.864095
_cell_length_b 17.076408
_cell_length_c 16.625169
_cell_angle_alpha 90.000000
_cell_angle_beta 90.000000
_cell_angle_gamma 90.000000
_cell_volume 1664.805833
_symmetry_space_group_name_H-M "P N N 2"
_symmetry_group_IT_number 34
_symmetry_cell_setting 'orthorhombic'
loop_
_space_group_symop_operation_xyz
x,y,z
-x,-y,z
1/2-x,1/2+y,1/2+z
1/2+x,1/2-y,1/2+z
loop_
_atom_site_type_symbol
_atom_site_label
_atom_site_fract_x
_atom_site_fract_y
_atom_site_fract_z
Si Si1 0.354166 0.199549 0.667380
Si Si2 0.468628 0.171565 0.203484
Si Si3 0.604814 0.302720 0.559541
Si Si4 0.266875 0.784618 0.804650
Si Si5 0.076433 0.639446 0.420286
Si Si6 0.112917 0.085097 0.775598
Si Si7 0.000000 0.500000 0.656940
Si Si8 0.697175 0.551550 0.520990
O O1 0.472756 0.222249 0.582576
O O2 0.557278 0.202449 0.731868
O O3 0.219862 0.120311 0.692368
O O4 0.180710 0.271075 0.686163
O O5 0.290286 0.183556 0.130023
O O6 0.356753 0.203773 0.285090
O O7 0.519439 0.079994 0.205272
O O8 0.741143 0.317696 0.477107
O O9 0.416240 0.370699 0.556532
O O10 0.411587 0.794200 0.884374
O O11 0.082951 0.853803 0.801399
O O12 0.198558 0.593999 0.346513
O O13 0.909992 0.580893 0.468530
O O14 0.000000 0.000000 0.768119
O O15 0.212849 0.499970 0.595286
O O16 0.500000 0.500000 0.478445
#
# Coordination Sequence:
#
# PCOD9347237 Si02
#       8
#     4   4   4   4   4   4   2   4
#     4   9  19  36  54  74 108 147 194 235 281 337
#     4  10  19  35  52  76 110 150 190 233 279 343
#     4  11  19  32  52  75 113 149 189 236 281 342
#     4   9  21  36  52  73 111 153 187 233 281 346
#     4  11  22  34  49  78 115 155 196 226 295 350
#     4  10  22  38  55  77 114 158 191 236 288 358
#     4  12  20  32  52  82 114 152 190 234 286 338
#     4  12  22  32  48  84 120 153 181 227 278 350
#
# _framework density 18.020119000000001
#
# number of rings (size 3 to 8) (size 9 to 14) (size 15 to 20)
#    0.000    1.600    4.000    0.800    0.000    7.467 
#    0.000    0.000    0.000    0.000    0.000    0.000 
#    0.000  290.133    0.000    0.000    0.000    0.000 
#
# Total GULP energy -167211.881808 kJ/mol
# GULP energy per Si atom -5573.729394 kJ/mol
# Density = 1.797910 g / cm^3
# Si number density = 18.020119 Si / 1000 Ang^3
#
#
#
# Elastic Constant Matrix: (Units=GPa)
#
#
# Indices 1 2 3 4 5 6 
#
# 1 86.6603 43.1799 24.9462 0.0000 0.0000 0.0000
# 2 43.1799 113.2413 51.0510 0.0000 0.0000 0.0000
# 3 24.9462 51.0510 53.9068 0.0000 0.0000 0.0000
# 4 0.0000 0.0000 0.0000 23.0848 0.0000 0.0000
# 5 0.0000 0.0000 0.0000 0.0000 39.6451 0.0000
# 6 0.0000 0.0000 0.0000 0.0000 0.0000 34.9904
#
#
#
# Elastic Compliance Matrix: (Units=1/GPa)
#
#
# Indices 1 2 3 4 5 6 
#
# 1 0.014446 -0.004353 -0.002563 0.000000 0.000000 0.000000
# 2 -0.004353 0.016721 -0.013821 0.000000 0.000000 0.000000
# 3 -0.002563 -0.013821 0.032825 0.000000 0.000000 0.000000
# 4 0.000000 0.000000 0.000000 0.043318 0.000000 0.000000
# 5 0.000000 0.000000 0.000000 0.000000 0.025224 0.000000
# 6 0.000000 0.000000 0.000000 0.000000 0.000000 0.028579
#
#
# Mechanical properties :
#
#
# Convention : Reuss Voigt Hill
#
# Bulk Modulus (GPa) = 44.40671 54.68471 49.54571
# Shear Modulus (GPa) = 23.79886 28.51947 26.15916
#
# Velocity S-wave (km/s) = 3.63806 3.98256 3.81420
# Velocity P-wave (km/s) = 6.50720 7.18054 6.85215
#
# Compressibility (1/GPa) = 0.02251912
#
# Stress axis : x y z
#
# Youngs Moduli (GPa) = 69.22334 59.80380 30.46431
#
# Poissons Ratio (x) = 0.26033 0.07807
# Poissons Ratio (y) = 0.30134 0.42105
# Poissons Ratio (z) = 0.17739 0.82655
#
# Static dielectric constant tensor:
#      x y z
#    x 1.688670 0.000000 0.000000 
#    y 0.000000 1.634920 0.000000 
#    z 0.000000 0.000000 1.638870 
# 
# From -- ./inp_files/6962.got.cif
#   From: 2010.05.17/outbox.cif.g08.bks.cpg/sg34_4_cif.got.tgz:6962.got - 2010.06.03 17:23:11.
