data_PCOD9347915
_publ_section_title
;
Structure prediction by ZEFSAII (Michael W. Deem and Ramdas Pophale) SiO2 
 PCOD9347915
Probable space group: P N N 2
;
_chemical_formula_sum "Si O2"
_cell_formula_units_Z 32
_cell_length_a 9.069331
_cell_length_b 14.040254
_cell_length_c 12.147180
_cell_angle_alpha 90.000000
_cell_angle_beta 90.000000
_cell_angle_gamma 90.000000
_cell_volume 1546.769800
_symmetry_space_group_name_H-M "P N N 2"
_symmetry_group_IT_number 34
_symmetry_cell_setting 'orthorhombic'
loop_
_space_group_symop_operation_xyz
x,y,z
-x,-y,z
1/2-x,1/2+y,1/2+z
1/2+x,1/2-y,1/2+z
loop_
_atom_site_type_symbol
_atom_site_label
_atom_site_fract_x
_atom_site_fract_y
_atom_site_fract_z
Si Si1 0.608021 0.090183 0.977250
Si Si2 0.997664 0.764031 0.629505
Si Si3 0.993727 0.730084 0.299898
Si Si4 0.325811 0.001697 0.307691
Si Si5 0.838866 0.753358 0.072704
Si Si6 0.316969 0.786603 0.333189
Si Si7 0.838206 0.967735 0.090493
Si Si8 0.601656 0.406518 0.951344
O O1 0.591228 0.144655 0.861703
O O2 0.500000 0.000000 0.980078
O O3 0.556133 0.168760 0.065960
O O4 0.764795 0.047174 0.012863
O O5 0.943196 0.753115 0.753859
O O6 0.919656 0.852052 0.566530
O O7 0.173100 0.771019 0.613036
O O8 0.950358 0.735378 0.172489
O O9 0.945730 0.827464 0.361325
O O10 0.168891 0.723758 0.321856
O O11 0.272365 0.892942 0.297348
O O12 0.264153 0.048533 0.196907
O O13 0.500000 0.000000 0.308150
O O14 0.260095 0.055526 0.412852
O O15 0.846138 0.864046 0.037589
O O16 0.866971 0.700396 0.958694
O O17 0.000000 0.000000 0.125983
O O18 0.500000 0.500000 0.947576
#
# Coordination Sequence:
#
# PCOD9347915 Si02
#       8
#     4   4   4   4   4   4   4   4
#     4  11  21  44  69  95 136 182 225 281 350 400
#     4  11  24  41  71  97 134 180 225 282 345 402
#     4  11  24  41  71  97 134 180 225 282 345 402
#     4  12  23  38  65  99 131 175 231 281 334 408
#     4  12  24  44  65 101 137 175 221 290 343 407
#     4  12  24  44  65 101 137 175 221 290 343 407
#     4  12  23  38  65  99 131 175 231 281 334 408
#     4  11  21  44  69  95 136 182 225 281 350 400
#
# _framework density 20.688275999999998
#
# number of rings (size 3 to 8) (size 9 to 14) (size 15 to 20)
#    0.000    0.500    7.500    2.250    0.000    2.000 
#    0.000    6.250    0.000    0.000    0.000    0.000 
#    0.000    0.000    0.000    0.000    0.000    0.000 
#
# Total GULP energy -178899.689783 kJ/mol
# GULP energy per Si atom -5590.615306 kJ/mol
# Density = 2.064119 g / cm^3
# Si number density = 20.688276 Si / 1000 Ang^3
#
#
#
# Elastic Constant Matrix: (Units=GPa)
#
#
# Indices 1 2 3 4 5 6 
#
# 1 96.1603 13.5911 27.8905 0.0000 0.0000 0.0000
# 2 13.5911 72.5449 11.9185 0.0000 0.0000 0.0000
# 3 27.8905 11.9185 112.8011 0.0000 0.0000 0.0000
# 4 0.0000 0.0000 0.0000 15.4797 0.0000 0.0000
# 5 0.0000 0.0000 0.0000 0.0000 30.0782 0.0000
# 6 0.0000 0.0000 0.0000 0.0000 0.0000 22.9119
#
#
#
# Elastic Compliance Matrix: (Units=1/GPa)
#
#
# Indices 1 2 3 4 5 6 
#
# 1 0.011406 -0.001703 -0.002640 0.000000 0.000000 0.000000
# 2 -0.001703 0.014282 -0.001088 0.000000 0.000000 0.000000
# 3 -0.002640 -0.001088 0.009633 0.000000 0.000000 0.000000
# 4 0.000000 0.000000 0.000000 0.064601 0.000000 0.000000
# 5 0.000000 0.000000 0.000000 0.000000 0.033247 0.000000
# 6 0.000000 0.000000 0.000000 0.000000 0.000000 0.043645
#
#
# Mechanical properties :
#
#
# Convention : Reuss Voigt Hill
#
# Bulk Modulus (GPa) = 40.88541 43.14516 42.01529
# Shear Modulus (GPa) = 25.53246 28.90105 27.21676
#
# Velocity S-wave (km/s) = 3.51686 3.74167 3.63101
# Velocity P-wave (km/s) = 6.02466 6.29023 6.15888
#
# Compressibility (1/GPa) = 0.02445860
#
# Stress axis : x y z
#
# Youngs Moduli (GPa) = 87.67490 70.01639 103.81084
#
# Poissons Ratio (x) = 0.11924 0.27408
# Poissons Ratio (y) = 0.14932 0.11294
# Poissons Ratio (z) = 0.23148 0.07618
#
# Static dielectric constant tensor:
#      x y z
#    x 1.759230 0.000000 0.000000 
#    y 0.000000 1.829310 0.000000 
#    z 0.000000 0.000000 1.727550 
# 
# From -- ./inp_files/5086.got.cif
#   From: 2010.05.17/outbox.cif.g08.bks.cpg/sg34_3_cif.got.tgz:5086.got - 2010.06.03 17:23:11.
