data_PCOD9347318
_publ_section_title
;
Structure prediction by ZEFSAII (Michael W. Deem and Ramdas Pophale) SiO2 
 PCOD9347318
Probable space group: P N N 2
;
_chemical_formula_sum "Si O2"
_cell_formula_units_Z 32
_cell_length_a 13.148438
_cell_length_b 10.549163
_cell_length_c 9.324167
_cell_angle_alpha 90.000000
_cell_angle_beta 90.000000
_cell_angle_gamma 90.000000
_cell_volume 1293.308730
_symmetry_space_group_name_H-M "P N N 2"
_symmetry_group_IT_number 34
_symmetry_cell_setting 'orthorhombic'
loop_
_space_group_symop_operation_xyz
x,y,z
-x,-y,z
1/2-x,1/2+y,1/2+z
1/2+x,1/2-y,1/2+z
loop_
_atom_site_type_symbol
_atom_site_label
_atom_site_fract_x
_atom_site_fract_y
_atom_site_fract_z
Si Si1 0.780321 0.369287 0.739240
Si Si2 0.543422 0.141251 0.578640
Si Si3 0.274165 0.201215 0.730257
Si Si4 0.083654 0.257627 0.367953
Si Si5 0.280893 0.992637 0.944502
Si Si6 0.752032 0.084061 0.451829
Si Si7 0.584253 0.413195 0.118930
Si Si8 0.383448 0.300650 0.444746
O O1 0.666155 0.329068 0.783387
O O2 0.794508 0.416275 0.579411
O O3 0.803411 0.486166 0.844462
O O4 0.850865 0.255297 0.791571
O O5 0.518334 0.180755 0.742332
O O6 0.664211 0.139226 0.552642
O O7 0.495054 0.252218 0.481039
O O8 0.500000 0.000000 0.549837
O O9 0.296269 0.311461 0.843638
O O10 0.152643 0.182357 0.710457
O O11 0.321083 0.230265 0.575174
O O12 0.304917 0.069058 0.801212
O O13 0.146058 0.370915 0.443919
O O14 0.035843 0.169460 0.489472
O O15 0.164796 0.940149 0.949584
O O16 0.834483 0.007849 0.543550
O O17 0.500000 0.500000 0.192589
#
# Coordination Sequence:
#
# PCOD9347318 Si02
#       8
#     4   4   4   4   4   4   4   4
#     4  10  19  42  66  92 129 176 218 278 342 393
#     4  12  23  40  69 100 136 179 226 284 349 406
#     4  12  23  44  70  99 140 180 221 285 341 405
#     4  10  22  39  63 101 133 168 234 278 325 412
#     4  11  22  40  70  95 136 180 222 276 338 402
#     4  11  22  42  68  96 135 178 220 285 348 397
#     4  11  24  44  69  97 138 183 227 286 341 403
#     4  11  23  42  69  99 135 173 230 280 333 411
#
# _framework density 24.742737999999999
#
# number of rings (size 3 to 8) (size 9 to 14) (size 15 to 20)
#    0.000    1.000    6.250    2.250    1.750    2.000 
#    0.000    1.250    8.250    0.000    0.000    0.000 
#    0.000    0.000    0.000    0.000    0.000    0.000 
#
# Total GULP energy -179067.364773 kJ/mol
# GULP energy per Si atom -5595.855149 kJ/mol
# Density = 2.468642 g / cm^3
# Si number density = 24.742738 Si / 1000 Ang^3
#
#
#
# Elastic Constant Matrix: (Units=GPa)
#
#
# Indices 1 2 3 4 5 6 
#
# 1 52.1704 5.7684 21.9008 0.0000 0.0000 0.0000
# 2 5.7684 77.3098 41.1877 0.0000 0.0000 0.0000
# 3 21.9008 41.1877 89.2124 0.0000 0.0000 0.0000
# 4 0.0000 0.0000 0.0000 49.7709 0.0000 0.0000
# 5 0.0000 0.0000 0.0000 0.0000 26.4844 0.0000
# 6 0.0000 0.0000 0.0000 0.0000 0.0000 25.3414
#
#
#
# Elastic Compliance Matrix: (Units=1/GPa)
#
#
# Indices 1 2 3 4 5 6 
#
# 1 0.021519 0.001603 -0.006023 0.000000 0.000000 0.000000
# 2 0.001603 0.017274 -0.008369 0.000000 0.000000 0.000000
# 3 -0.006023 -0.008369 0.016551 0.000000 0.000000 0.000000
# 4 0.000000 0.000000 0.000000 0.020092 0.000000 0.000000
# 5 0.000000 0.000000 0.000000 0.000000 0.037758 0.000000
# 6 0.000000 0.000000 0.000000 0.000000 0.000000 0.039461
#
#
# Mechanical properties :
#
#
# Convention : Reuss Voigt Hill
#
# Bulk Modulus (GPa) = 33.59350 39.60072 36.59711
# Shear Modulus (GPa) = 26.57388 30.30837 28.44112
#
# Velocity S-wave (km/s) = 3.28076 3.50371 3.39407
# Velocity P-wave (km/s) = 5.28751 5.69278 5.49388
#
# Compressibility (1/GPa) = 0.02976767
#
# Stress axis : x y z
#
# Youngs Moduli (GPa) = 46.47040 57.89112 60.41790
#
# Poissons Ratio (x) = -0.09281 0.36389
# Poissons Ratio (y) = -0.07450 0.50561
# Poissons Ratio (z) = 0.27989 0.48447
#
# Static dielectric constant tensor:
#      x y z
#    x 2.009870 0.000000 0.000000 
#    y 0.000000 1.972590 0.000000 
#    z 0.000000 0.000000 1.962920 
# 
# From -- ./inp_files/3687.got.cif
#   From: 2010.05.17/outbox.cif.g08.bks.cpg/sg34_2_cif.got.tgz:3687.got - 2010.06.03 17:23:11.
