data_PCOD9347376
_publ_section_title
;
Structure prediction by ZEFSAII (Michael W. Deem and Ramdas Pophale) SiO2 
 PCOD9347376
Probable space group: P N N 2
;
_chemical_formula_sum "Si O2"
_cell_formula_units_Z 24
_cell_length_a 28.072304
_cell_length_b 5.123782
_cell_length_c 8.010818
_cell_angle_alpha 90.000000
_cell_angle_beta 90.000000
_cell_angle_gamma 90.000000
_cell_volume 1152.246949
_symmetry_space_group_name_H-M "P N N 2"
_symmetry_group_IT_number 34
_symmetry_cell_setting 'orthorhombic'
loop_
_space_group_symop_operation_xyz
x,y,z
-x,-y,z
1/2-x,1/2+y,1/2+z
1/2+x,1/2-y,1/2+z
loop_
_atom_site_type_symbol
_atom_site_label
_atom_site_fract_x
_atom_site_fract_y
_atom_site_fract_z
Si Si1 0.687250 0.234083 0.414750
Si Si2 0.603729 0.944831 0.580063
Si Si3 0.316769 0.520579 0.079812
Si Si4 0.500000 0.000000 0.564933
Si Si5 0.000000 0.000000 0.304865
Si Si6 0.602280 0.447430 0.810002
Si Si7 0.257832 0.997287 0.134264
O O1 0.650590 0.018120 0.476573
O O2 0.663562 0.390526 0.261835
O O3 0.707037 0.414479 0.563806
O O4 0.733947 0.116001 0.319852
O O5 0.552914 0.987041 0.484653
O O6 0.604352 0.158863 0.730439
O O7 0.605179 0.658393 0.660210
O O8 0.290374 0.251230 0.115293
O O9 0.280978 0.758497 0.031751
O O10 0.356477 0.501673 0.940808
O O11 0.500219 0.250825 0.684242
O O12 0.050530 0.010212 0.395519
#
# Coordination Sequence:
#
# PCOD9347376 Si02
#       7
#     4   4   4   2   2   4   4
#     4  10  26  42  64  86 123 164 208 250 314 357
#     4  10  21  35  68  89 123 160 203 253 303 369
#     4  10  24  40  60  88 121 159 203 254 301 367
#     4   8  16  34  54  96 118 152 200 246 300 366
#     4   8  16  32  58  88 120 154 194 248 290 372
#     4  10  20  37  63  92 121 156 206 245 308 355
#     4  10  25  39  63  83 123 157 208 252 299 368
#
# _framework density 20.828866999999999
#
# number of rings (size 3 to 8) (size 9 to 14) (size 15 to 20)
#    1.000    1.333    0.000    1.000    7.000    1.333 
#    0.000    0.000    3.667    0.000    0.000    0.000 
#    0.000    0.000    0.000    0.000    0.000    0.000 
#
# Total GULP energy -133696.536415 kJ/mol
# GULP energy per Si atom -5570.689017 kJ/mol
# Density = 2.078146 g / cm^3
# Si number density = 20.828867 Si / 1000 Ang^3
#
#
#
# Elastic Constant Matrix: (Units=GPa)
#
#
# Indices 1 2 3 4 5 6 
#
# 1 82.3998 -2.5984 25.2481 0.0000 0.0000 0.0000
# 2 -2.5984 96.6988 -10.6654 0.0000 0.0000 0.0000
# 3 25.2481 -10.6654 41.8241 0.0000 0.0000 0.0000
# 4 0.0000 0.0000 0.0000 18.8554 0.0000 0.0000
# 5 0.0000 0.0000 0.0000 0.0000 17.9879 0.0000
# 6 0.0000 0.0000 0.0000 0.0000 0.0000 30.7766
#
#
#
# Elastic Compliance Matrix: (Units=1/GPa)
#
#
# Indices 1 2 3 4 5 6 
#
# 1 0.014925 -0.000610 -0.009165 0.000000 0.000000 0.000000
# 2 -0.000610 0.010666 0.003088 0.000000 0.000000 0.000000
# 3 -0.009165 0.003088 0.030230 0.000000 0.000000 0.000000
# 4 0.000000 0.000000 0.000000 0.053035 0.000000 0.000000
# 5 0.000000 0.000000 0.000000 0.000000 0.055593 0.000000
# 6 0.000000 0.000000 0.000000 0.000000 0.000000 0.032492
#
#
# Mechanical properties :
#
#
# Convention : Reuss Voigt Hill
#
# Bulk Modulus (GPa) = 23.55929 27.21015 25.38472
# Shear Modulus (GPa) = 22.27524 27.45320 24.86422
#
# Velocity S-wave (km/s) = 3.27378 3.63442 3.45880
# Velocity P-wave (km/s) = 5.06217 5.54112 5.30705
#
# Compressibility (1/GPa) = 0.04244609
#
# Stress axis : x y z
#
# Youngs Moduli (GPa) = 67.00121 93.75946 33.07967
#
# Poissons Ratio (x) = 0.05718 0.30319
# Poissons Ratio (y) = 0.04086 -0.10215
# Poissons Ratio (z) = 0.61409 -0.28952
#
# Static dielectric constant tensor:
#      x y z
#    x 1.847610 0.000000 0.000000 
#    y 0.000000 1.740050 0.000000 
#    z 0.000000 0.000000 1.752130 
# 
# From -- ./inp_files/4120.got.cif
#   From: 2010.05.17/outbox.cif.g08.bks.cpg/sg34_3_cif.got.tgz:4120.got - 2010.06.03 17:23:11.
