data_PCOD9347576
_publ_section_title
;
Structure prediction by ZEFSAII (Michael W. Deem and Ramdas Pophale) SiO2 
 PCOD9347576
Probable space group: P N N 2
;
_chemical_formula_sum "Si O2"
_cell_formula_units_Z 20
_cell_length_a 8.151140
_cell_length_b 8.307302
_cell_length_c 10.686138
_cell_angle_alpha 90.000000
_cell_angle_beta 90.000000
_cell_angle_gamma 90.000000
_cell_volume 723.600952
_symmetry_space_group_name_H-M "P N N 2"
_symmetry_group_IT_number 34
_symmetry_cell_setting 'orthorhombic'
loop_
_space_group_symop_operation_xyz
x,y,z
-x,-y,z
1/2-x,1/2+y,1/2+z
1/2+x,1/2-y,1/2+z
loop_
_atom_site_type_symbol
_atom_site_label
_atom_site_fract_x
_atom_site_fract_y
_atom_site_fract_z
Si Si1 0.611468 0.190556 0.402400
Si Si2 0.525956 0.825283 0.865961
Si Si3 0.147259 0.172577 0.146076
Si Si4 0.844865 0.660382 0.633831
Si Si5 0.304373 0.497516 0.069085
O O1 0.539405 0.291633 0.519014
O O2 0.548958 0.171347 0.262377
O O3 0.786462 0.284319 0.390492
O O4 0.678762 0.019007 0.453104
O O5 0.450597 0.692846 0.774322
O O6 0.500000 0.000000 0.806095
O O7 0.435770 0.837910 0.000320
O O8 0.263870 0.332408 0.142026
O O9 0.237047 0.001317 0.139870
O O10 0.762976 0.836591 0.635061
O O11 0.500000 0.500000 0.042034
#
# Coordination Sequence:
#
# PCOD9347576 Si02
#       5
#     4   4   4   4   4
#     4  10  24  43  65 101 130 178 232 279 344 411
#     4  12  22  46  73  97 141 189 226 290 357 412
#     4  10  25  40  67 103 133 178 234 282 350 414
#     4  12  22  40  72  98 136 178 231 283 342 415
#     4  10  21  41  65  95 135 178 222 279 339 409
#
# _framework density 27.639541999999999
#
# number of rings (size 3 to 8) (size 9 to 14) (size 15 to 20)
#    1.200    0.000    4.000    2.400    0.000    0.000 
#    0.000    5.000    0.000    0.000    0.000    0.000 
#    0.000    0.000    0.000    0.000    0.000    0.000 
#
# Total GULP energy -111819.078999 kJ/mol
# GULP energy per Si atom -5590.953950 kJ/mol
# Density = 2.757663 g / cm^3
# Si number density = 27.639542 Si / 1000 Ang^3
#
#
#
# Elastic Constant Matrix: (Units=GPa)
#
#
# Indices 1 2 3 4 5 6 
#
# 1 84.3867 33.6335 45.4425 0.0000 0.0000 0.0000
# 2 33.6335 226.5474 49.7989 0.0000 0.0000 0.0000
# 3 45.4425 49.7989 219.8212 0.0000 0.0000 0.0000
# 4 0.0000 0.0000 0.0000 50.5370 0.0000 0.0000
# 5 0.0000 0.0000 0.0000 0.0000 34.5324 0.0000
# 6 0.0000 0.0000 0.0000 0.0000 0.0000 53.4444
#
#
#
# Elastic Compliance Matrix: (Units=1/GPa)
#
#
# Indices 1 2 3 4 5 6 
#
# 1 0.013800 -0.001496 -0.002514 0.000000 0.000000 0.000000
# 2 -0.001496 0.004808 -0.000780 0.000000 0.000000 0.000000
# 3 -0.002514 -0.000780 0.005246 0.000000 0.000000 0.000000
# 4 0.000000 0.000000 0.000000 0.019787 0.000000 0.000000
# 5 0.000000 0.000000 0.000000 0.000000 0.028958 0.000000
# 6 0.000000 0.000000 0.000000 0.000000 0.000000 0.018711
#
#
# Mechanical properties :
#
#
# Convention : Reuss Voigt Hill
#
# Bulk Modulus (GPa) = 70.05972 87.61168 78.83570
# Shear Modulus (GPa) = 47.32694 54.49476 50.91085
#
# Velocity S-wave (km/s) = 4.14247 4.44511 4.29646
# Velocity P-wave (km/s) = 6.94858 7.62313 7.29366
#
# Compressibility (1/GPa) = 0.01427354
#
# Stress axis : x y z
#
# Youngs Moduli (GPa) = 72.46220 208.00243 190.63945
#
# Poissons Ratio (x) = 0.31122 0.47925
# Poissons Ratio (y) = 0.10842 0.14867
# Poissons Ratio (z) = 0.18216 0.16221
#
# Static dielectric constant tensor:
#      x y z
#    x 2.235460 0.000000 0.000000 
#    y 0.000000 2.179430 0.000000 
#    z 0.000000 0.000000 2.229670 
# 
# From -- ./inp_files/3044.got.cif
#   From: 2010.05.17/outbox.cif.g08.bks.cpg/sg34_2_cif.got.tgz:3044.got - 2010.06.03 17:23:11.
