data_PCOD9347283
_publ_section_title
;
Structure prediction by ZEFSAII (Michael W. Deem and Ramdas Pophale) SiO2 
 PCOD9347283
Probable space group: P N N 2
;
_chemical_formula_sum "Si O2"
_cell_formula_units_Z 26
_cell_length_a 18.774616
_cell_length_b 7.397073
_cell_length_c 8.678828
_cell_angle_alpha 90.000000
_cell_angle_beta 90.000000
_cell_angle_gamma 90.000000
_cell_volume 1205.291376
_symmetry_space_group_name_H-M "P N N 2"
_symmetry_group_IT_number 34
_symmetry_cell_setting 'orthorhombic'
loop_
_space_group_symop_operation_xyz
x,y,z
-x,-y,z
1/2-x,1/2+y,1/2+z
1/2+x,1/2-y,1/2+z
loop_
_atom_site_type_symbol
_atom_site_label
_atom_site_fract_x
_atom_site_fract_y
_atom_site_fract_z
Si Si1 0.621946 0.374046 0.287900
Si Si2 0.401968 0.268556 0.715778
Si Si3 0.344409 0.874955 0.780301
Si Si4 0.205117 0.826027 0.960096
Si Si5 0.219081 0.412049 0.948266
Si Si6 0.500000 0.500000 0.496918
Si Si7 0.383051 0.531329 0.944063
O O1 0.660971 0.555777 0.341791
O O2 0.678856 0.218523 0.329708
O O3 0.552494 0.378659 0.393080
O O4 0.602037 0.389808 0.110537
O O5 0.611211 0.942095 0.751599
O O6 0.327340 0.339843 0.633002
O O7 0.457705 0.349743 0.594955
O O8 0.425113 0.364570 0.874098
O O9 0.286390 0.883570 0.920820
O O10 0.302964 0.846237 0.619299
O O11 0.387003 0.694723 0.821894
O O12 0.193107 0.616322 0.923721
O O13 0.303566 0.442961 0.948498
#
# Coordination Sequence:
#
# PCOD9347283 Si02
#       7
#     4   4   4   4   4   2   4
#     4  11  22  42  61  94 130 170 217 271 320 390
#     4  10  22  40  63  90 128 175 216 267 318 391
#     4  10  19  37  61  96 131 162 209 261 334 392
#     4   9  19  36  59  92 129 167 205 256 332 381
#     4  10  21  36  60  94 132 166 206 264 331 395
#     4  10  24  46  70  82 126 186 230 262 320 394
#     4  11  23  35  64  99 129 165 212 273 336 389
#
# _framework density 21.571549000000001
#
# number of rings (size 3 to 8) (size 9 to 14) (size 15 to 20)
#    0.000    1.846    1.538    2.769    4.308    1.846 
#    0.000   12.308    0.000    5.538    0.000    0.000 
#    0.000    0.000    0.000    0.000    0.000    0.000 
#
# Total GULP energy -144959.513642 kJ/mol
# GULP energy per Si atom -5575.365909 kJ/mol
# Density = 2.152245 g / cm^3
# Si number density = 21.571549 Si / 1000 Ang^3
#
#
#
# Elastic Constant Matrix: (Units=GPa)
#
#
# Indices 1 2 3 4 5 6 
#
# 1 58.0288 19.2212 15.3028 0.0000 0.0000 0.0000
# 2 19.2212 63.2995 44.7343 0.0000 0.0000 0.0000
# 3 15.3028 44.7343 100.8925 0.0000 0.0000 0.0000
# 4 0.0000 0.0000 0.0000 12.0231 0.0000 0.0000
# 5 0.0000 0.0000 0.0000 0.0000 25.2414 0.0000
# 6 0.0000 0.0000 0.0000 0.0000 0.0000 4.8805
#
#
#
# Elastic Compliance Matrix: (Units=1/GPa)
#
#
# Indices 1 2 3 4 5 6 
#
# 1 0.019176 -0.005487 -0.000476 0.000000 0.000000 0.000000
# 2 -0.005487 0.024577 -0.010065 0.000000 0.000000 0.000000
# 3 -0.000476 -0.010065 0.014446 0.000000 0.000000 0.000000
# 4 0.000000 0.000000 0.000000 0.083173 0.000000 0.000000
# 5 0.000000 0.000000 0.000000 0.000000 0.039617 0.000000
# 6 0.000000 0.000000 0.000000 0.000000 0.000000 0.204898
#
#
# Mechanical properties :
#
#
# Convention : Reuss Voigt Hill
#
# Bulk Modulus (GPa) = 38.24907 42.30415 40.27661
# Shear Modulus (GPa) = 11.71902 17.95983 14.83943
#
# Velocity S-wave (km/s) = 2.33333 2.88856 2.62566
# Velocity P-wave (km/s) = 5.00290 5.54786 5.28241
#
# Compressibility (1/GPa) = 0.02614442
#
# Stress axis : x y z
#
# Youngs Moduli (GPa) = 52.14956 40.68867 69.22176
#
# Poissons Ratio (x) = 0.22324 0.03294
# Poissons Ratio (y) = 0.28612 0.69671
# Poissons Ratio (z) = 0.02481 0.40953
#
# Static dielectric constant tensor:
#      x y z
#    x 1.880500 0.000000 0.000000 
#    y 0.000000 1.755640 0.000000 
#    z 0.000000 0.000000 1.826760 
# 
# From -- ./inp_files/3849.got.cif
#   From: 2010.05.17/outbox.cif.g08.bks.cpg/sg34_2_cif.got.tgz:3849.got - 2010.06.03 17:23:11.
