data_PCOD9347354
_publ_section_title
;
Structure prediction by ZEFSAII (Michael W. Deem and Ramdas Pophale) SiO2 
 PCOD9347354
Probable space group: P N N 2
;
_chemical_formula_sum "Si O2"
_cell_formula_units_Z 28
_cell_length_a 16.297165
_cell_length_b 9.238829
_cell_length_c 8.951842
_cell_angle_alpha 90.000000
_cell_angle_beta 90.000000
_cell_angle_gamma 90.000000
_cell_volume 1347.849493
_symmetry_space_group_name_H-M "P N N 2"
_symmetry_group_IT_number 34
_symmetry_cell_setting 'orthorhombic'
loop_
_space_group_symop_operation_xyz
x,y,z
-x,-y,z
1/2-x,1/2+y,1/2+z
1/2+x,1/2-y,1/2+z
loop_
_atom_site_type_symbol
_atom_site_label
_atom_site_fract_x
_atom_site_fract_y
_atom_site_fract_z
Si Si1 0.684308 0.142597 0.678920
Si Si2 0.877662 0.809618 0.579063
Si Si3 0.558575 0.704206 0.047172
Si Si4 0.137944 0.934004 0.805334
Si Si5 0.215886 0.967660 0.419455
Si Si6 0.693466 0.459208 0.594376
Si Si7 0.867640 0.497990 0.469012
O O1 0.705261 0.076643 0.515986
O O2 0.657627 0.306176 0.647495
O O3 0.774751 0.135231 0.756845
O O4 0.629531 0.055337 0.797999
O O5 0.867325 0.905863 0.728441
O O6 0.874709 0.637310 0.576421
O O7 0.967068 0.844661 0.510701
O O8 0.806629 0.869927 0.471811
O O9 0.571415 0.665094 0.222359
O O10 0.634787 0.622058 0.969883
O O11 0.569757 0.871700 0.008081
O O12 0.135692 0.953537 0.981822
O O13 0.219807 0.957362 0.243163
O O14 0.776983 0.431599 0.500611
#
# Coordination Sequence:
#
# PCOD9347354 Si02
#       7
#     4   4   4   4   4   4   4
#     4   9  19  36  53  87 115 138 184 242 290 342
#     4  10  20  36  59  80 111 159 193 224 283 344
#     4  10  20  39  54  84 114 153 196 230 275 354
#     4   9  20  36  56  80 114 148 188 239 281 341
#     4  10  20  36  60  81 112 150 187 240 287 342
#     4  11  20  35  59  87 113 141 194 240 295 343
#     4  11  20  34  59  87 114 147 186 241 295 336
#
# _framework density 20.773834000000001
#
# number of rings (size 3 to 8) (size 9 to 14) (size 15 to 20)
#    0.000    2.286    4.286    2.143    2.000    1.143 
#    0.000    2.857    0.000    0.000    0.000    0.000 
#    0.000    0.000    0.000    0.000    0.000    0.000 
#
# Total GULP energy -156014.846563 kJ/mol
# GULP energy per Si atom -5571.958806 kJ/mol
# Density = 2.072655 g / cm^3
# Si number density = 20.773834 Si / 1000 Ang^3
#
#
#
# Elastic Constant Matrix: (Units=GPa)
#
#
# Indices 1 2 3 4 5 6 
#
# 1 29.7815 6.9827 5.1941 0.0000 0.0000 0.0000
# 2 6.9827 92.7162 29.9022 0.0000 0.0000 0.0000
# 3 5.1941 29.9022 152.4983 0.0000 0.0000 0.0000
# 4 0.0000 0.0000 0.0000 25.6897 0.0000 0.0000
# 5 0.0000 0.0000 0.0000 0.0000 10.7517 0.0000
# 6 0.0000 0.0000 0.0000 0.0000 0.0000 23.7301
#
#
#
# Elastic Compliance Matrix: (Units=1/GPa)
#
#
# Indices 1 2 3 4 5 6 
#
# 1 0.034252 -0.002352 -0.000705 0.000000 0.000000 0.000000
# 2 -0.002352 0.011675 -0.002209 0.000000 0.000000 0.000000
# 3 -0.000705 -0.002209 0.007015 0.000000 0.000000 0.000000
# 4 0.000000 0.000000 0.000000 0.038926 0.000000 0.000000
# 5 0.000000 0.000000 0.000000 0.000000 0.093009 0.000000
# 6 0.000000 0.000000 0.000000 0.000000 0.000000 0.042141
#
#
# Mechanical properties :
#
#
# Convention : Reuss Voigt Hill
#
# Bulk Modulus (GPa) = 23.58001 39.90601 31.74301
# Shear Modulus (GPa) = 19.86591 27.56211 23.71401
#
# Velocity S-wave (km/s) = 3.09576 3.64644 3.38232
# Velocity P-wave (km/s) = 4.91465 6.08113 5.52874
#
# Compressibility (1/GPa) = 0.04240880
#
# Stress axis : x y z
#
# Youngs Moduli (GPa) = 29.19505 85.65137 142.55855
#
# Poissons Ratio (x) = 0.20146 0.10056
# Poissons Ratio (y) = 0.06867 0.31494
# Poissons Ratio (z) = 0.02059 0.18922
#
# Static dielectric constant tensor:
#      x y z
#    x 1.731890 0.000000 0.000000 
#    y 0.000000 1.809720 0.000000 
#    z 0.000000 0.000000 1.799040 
# 
# From -- ./inp_files/2897.got.cif
#   From: 2010.05.17/outbox.cif.g08.bks.cpg/sg34_2_cif.got.tgz:2897.got - 2010.06.03 17:23:11.
