data_PCOD9347008
_publ_section_title
;
Structure prediction by ZEFSAII (Michael W. Deem and Ramdas Pophale) SiO2 
 PCOD9347008
Probable space group: P N A 21
;
_chemical_formula_sum "Si O2"
_cell_formula_units_Z 20
_cell_length_a 11.644845
_cell_length_b 7.569955
_cell_length_c 8.770700
_cell_angle_alpha 90.000000
_cell_angle_beta 90.000000
_cell_angle_gamma 90.000000
_cell_volume 773.145560
_symmetry_space_group_name_H-M "P N A 21"
_symmetry_group_IT_number 33
_symmetry_cell_setting 'orthorhombic'
loop_
_space_group_symop_operation_xyz
x,y,z
-x,-y,1/2+z
1/2-x,1/2+y,1/2+z
1/2+x,1/2-y,z
loop_
_atom_site_type_symbol
_atom_site_label
_atom_site_fract_x
_atom_site_fract_y
_atom_site_fract_z
Si Si1 0.420341 0.880100 0.777130
Si Si2 0.420340 0.619898 0.277130
Si Si3 0.069452 0.696274 0.060766
Si Si4 0.750001 0.500000 0.993328
Si Si5 0.069451 0.803727 0.560767
O O1 0.451315 0.742065 0.648843
O O2 0.386628 0.048848 0.675601
O O3 0.530824 0.876376 0.894277
O O4 0.314757 0.856428 0.887876
O O5 0.451315 0.757932 0.148842
O O6 0.314756 0.643572 0.387876
O O7 0.386627 0.451150 0.175603
O O8 0.530823 0.623622 0.394278
O O9 0.149140 0.872384 0.060990
O O10 0.850862 0.372384 0.060990
#
# Coordination Sequence:
#
# PCOD9347008 Si02
#       5
#     4   4   4   4   4
#     4  12  26  50  79 118 170 213 280 345 412 511
#     4  12  26  50  79 118 170 213 280 345 412 511
#     4  12  26  53  78 122 165 217 282 343 414 504
#     4  12  28  46  84 114 164 222 268 346 432 480
#     4  12  26  53  78 122 165 217 282 343 414 504
#
# _framework density 25.868348999999998
#
# number of rings (size 3 to 8) (size 9 to 14) (size 15 to 20)
#    0.000    0.000    8.000    0.000    5.600    0.000 
#    0.000    0.000    0.000    0.000    0.000    0.000 
#    0.000    0.000    0.000    0.000    0.000    0.000 
#
# Total GULP energy -111351.751846 kJ/mol
# GULP energy per Si atom -5567.587592 kJ/mol
# Density = 2.580947 g / cm^3
# Si number density = 25.868349 Si / 1000 Ang^3
#
#
#
# Elastic Constant Matrix: (Units=GPa)
#
#
# Indices 1 2 3 4 5 6 
#
# 1 70.1509 29.6747 55.6785 0.0000 0.0000 0.0000
# 2 29.6747 85.7068 53.2907 0.0000 0.0000 0.0000
# 3 55.6785 53.2907 185.5486 0.0000 0.0000 0.0000
# 4 0.0000 0.0000 0.0000 52.1889 0.0000 0.0000
# 5 0.0000 0.0000 0.0000 0.0000 -42.9249 0.0000
# 6 0.0000 0.0000 0.0000 0.0000 0.0000 39.1522
#
#
#
# Elastic Compliance Matrix: (Units=1/GPa)
#
#
# Indices 1 2 3 4 5 6 
#
# 1 0.019691 -0.003827 -0.004810 0.000000 0.000000 0.000000
# 2 -0.003827 0.014948 -0.003145 0.000000 0.000000 0.000000
# 3 -0.004810 -0.003145 0.007736 0.000000 0.000000 0.000000
# 4 0.000000 0.000000 0.000000 0.019161 0.000000 0.000000
# 5 0.000000 0.000000 0.000000 0.000000 -0.023297 0.000000
# 6 0.000000 0.000000 0.000000 0.000000 0.000000 0.025541
#
#
# Mechanical properties :
#
#
# Convention : Reuss Voigt Hill
#
# Bulk Modulus (GPa) = 53.15750 68.74381 60.95066
# Shear Modulus (GPa) = 53.40995 23.20073 38.30534
#
# Velocity S-wave (km/s) = 4.54881 2.99804 3.85227
# Velocity P-wave (km/s) = 6.94138 6.21422 6.58784
#
# Compressibility (1/GPa) = 0.01881202
#
# Stress axis : x y z
#
# Youngs Moduli (GPa) = 50.78361 66.89788 129.26790
#
# Poissons Ratio (x) = 0.25604 0.62174
# Poissons Ratio (y) = 0.19436 0.40651
# Poissons Ratio (z) = 0.24425 0.21038
#
# Static dielectric constant tensor:
#      x y z
#    x 2.295770 0.000000 0.000000 
#    y 0.000000 2.150430 0.000000 
#    z 0.000000 0.000000 2.056930 
# 
# From -- ./inp_files/3677.got.cif
#   From: 2010.05.17/outbox.cif.g08.bks.cpg/sg33_2_cif.got.tgz:3677.got - 2010.06.03 17:15:25.
