data_PCOD9347268
_publ_section_title
;
Structure prediction by ZEFSAII (Michael W. Deem and Ramdas Pophale) SiO2 
 PCOD9347268
Probable space group: P N N 2
;
_chemical_formula_sum "Si O2"
_cell_formula_units_Z 30
_cell_length_a 11.833304
_cell_length_b 12.349801
_cell_length_c 9.584488
_cell_angle_alpha 90.000000
_cell_angle_beta 90.000000
_cell_angle_gamma 90.000000
_cell_volume 1400.667009
_symmetry_space_group_name_H-M "P N N 2"
_symmetry_group_IT_number 34
_symmetry_cell_setting 'orthorhombic'
loop_
_space_group_symop_operation_xyz
x,y,z
-x,-y,z
1/2-x,1/2+y,1/2+z
1/2+x,1/2-y,1/2+z
loop_
_atom_site_type_symbol
_atom_site_label
_atom_site_fract_x
_atom_site_fract_y
_atom_site_fract_z
Si Si1 0.189881 0.982084 0.960690
Si Si2 0.877236 0.046256 0.265839
Si Si3 0.422030 0.245341 0.435650
Si Si4 0.489743 0.753401 0.736883
Si Si5 0.923369 0.408195 0.449248
Si Si6 0.998007 0.220102 0.640641
Si Si7 0.000000 0.000000 0.762745
Si Si8 0.686488 0.353928 0.933561
O O1 0.149895 0.858617 0.931260
O O2 0.094553 0.044071 0.870329
O O3 0.306458 0.034318 0.915282
O O4 0.194254 0.982681 0.129187
O O5 0.907225 0.171968 0.282915
O O6 0.839243 0.979412 0.400154
O O7 0.000000 0.000000 0.224991
O O8 0.500158 0.244640 0.571488
O O9 0.493728 0.231718 0.295641
O O10 0.319250 0.161303 0.445859
O O11 0.515253 0.866653 0.809514
O O12 0.373559 0.706630 0.801155
O O13 0.924689 0.301999 0.547359
O O14 0.000000 0.500000 0.519970
O O15 0.117442 0.198710 0.562645
O O16 0.956176 0.097046 0.666077
#
# Coordination Sequence:
#
# PCOD9347268 Si02
#       8
#     4   4   4   4   4   4   2   4
#     4  10  19  36  61  86 119 163 209 260 321 377
#     4   9  17  33  59  84 113 152 202 254 312 361
#     4  10  21  41  59  91 123 161 211 261 315 374
#     4   9  21  37  59  87 118 158 211 250 301 380
#     4  11  23  41  61  88 129 176 206 255 324 398
#     4  10  23  38  61  94 127 157 211 262 320 378
#     4  10  22  36  62  96 124 156 214 284 310 374
#     4  10  20  35  62  84 123 163 194 261 314 368
#
# _framework density 21.418365999999999
#
# number of rings (size 3 to 8) (size 9 to 14) (size 15 to 20)
#    0.000    2.133    0.667    2.400    8.400    0.000 
#    0.000    0.667    0.000    0.000    0.000    0.000 
#    0.000    0.000    0.000    0.000    0.000    0.000 
#
# Total GULP energy -167088.328147 kJ/mol
# GULP energy per Si atom -5569.610938 kJ/mol
# Density = 2.136962 g / cm^3
# Si number density = 21.418366 Si / 1000 Ang^3
#
#
#
# Elastic Constant Matrix: (Units=GPa)
#
#
# Indices 1 2 3 4 5 6 
#
# 1 48.9065 -1.8109 20.7859 0.0000 0.0000 0.0000
# 2 -1.8109 43.8791 21.7886 0.0000 0.0000 0.0000
# 3 20.7859 21.7886 127.3447 0.0000 0.0000 0.0000
# 4 0.0000 0.0000 0.0000 19.7897 0.0000 0.0000
# 5 0.0000 0.0000 0.0000 0.0000 3.8019 0.0000
# 6 0.0000 0.0000 0.0000 0.0000 0.0000 5.9951
#
#
#
# Elastic Compliance Matrix: (Units=1/GPa)
#
#
# Indices 1 2 3 4 5 6 
#
# 1 0.022323 0.002984 -0.004154 0.000000 0.000000 0.000000
# 2 0.002984 0.025305 -0.004817 0.000000 0.000000 0.000000
# 3 -0.004154 -0.004817 0.009355 0.000000 0.000000 0.000000
# 4 0.000000 0.000000 0.000000 0.050531 0.000000 0.000000
# 5 0.000000 0.000000 0.000000 0.000000 0.263026 0.000000
# 6 0.000000 0.000000 0.000000 0.000000 0.000000 0.166802
#
#
# Mechanical properties :
#
#
# Convention : Reuss Voigt Hill
#
# Bulk Modulus (GPa) = 22.21762 33.51749 27.86756
# Shear Modulus (GPa) = 8.86024 17.87513 13.36769
#
# Velocity S-wave (km/s) = 2.03611 2.89203 2.50095
# Velocity P-wave (km/s) = 3.99040 5.18022 4.62374
#
# Compressibility (1/GPa) = 0.04500932
#
# Stress axis : x y z
#
# Youngs Moduli (GPa) = 44.79623 39.51809 106.89543
#
# Poissons Ratio (x) = -0.11793 0.44408
# Poissons Ratio (y) = -0.13368 0.51489
# Poissons Ratio (z) = 0.18610 0.19035
#
# Static dielectric constant tensor:
#      x y z
#    x 1.786540 0.000000 0.000000 
#    y 0.000000 1.874910 0.000000 
#    z 0.000000 0.000000 1.819530 
# 
# From -- ./inp_files/3655.got.cif
#   From: 2010.05.17/outbox.cif.g08.bks.cpg/sg34_2_cif.got.tgz:3655.got - 2010.06.03 17:23:11.
