data_PCOD9347236
_publ_section_title
;
Structure prediction by ZEFSAII (Michael W. Deem and Ramdas Pophale) SiO2 
 PCOD9347236
Probable space group: P N N 2
;
_chemical_formula_sum "Si O2"
_cell_formula_units_Z 28
_cell_length_a 12.269096
_cell_length_b 17.311258
_cell_length_c 5.311466
_cell_angle_alpha 90.000000
_cell_angle_beta 90.000000
_cell_angle_gamma 90.000000
_cell_volume 1128.120781
_symmetry_space_group_name_H-M "P N N 2"
_symmetry_group_IT_number 34
_symmetry_cell_setting 'orthorhombic'
loop_
_space_group_symop_operation_xyz
x,y,z
-x,-y,z
1/2-x,1/2+y,1/2+z
1/2+x,1/2-y,1/2+z
loop_
_atom_site_type_symbol
_atom_site_label
_atom_site_fract_x
_atom_site_fract_y
_atom_site_fract_z
Si Si1 0.323999 0.277606 0.350630
Si Si2 0.939108 0.732238 0.038043
Si Si3 0.311855 0.438964 0.526786
Si Si4 0.611100 0.950095 0.919219
Si Si5 0.631248 0.302818 0.035710
Si Si6 0.923321 0.101149 0.533132
Si Si7 0.540329 0.912746 0.412955
O O1 0.440556 0.261654 0.470824
O O2 0.269360 0.350766 0.493762
O O3 0.248135 0.204760 0.402163
O O4 0.355482 0.317744 0.083844
O O5 0.866873 0.776218 0.827626
O O6 0.939663 0.641578 0.982497
O O7 0.925980 0.745703 0.332627
O O8 0.213068 0.498133 0.500553
O O9 0.377699 0.440035 0.786497
O O10 0.392014 0.445182 0.285946
O O11 0.500000 0.000000 0.887737
O O12 0.587177 0.890303 0.141886
O O13 0.623361 0.913571 0.645494
O O14 0.550849 0.376574 0.020632
O O15 0.500000 0.000000 0.378692
#
# Coordination Sequence:
#
# PCOD9347236 Si02
#       7
#     4   4   4   4   4   4   4
#     4   9  23  32  58  77 113 150 180 233 291 313
#     4  11  23  38  51  85 120 142 194 230 271 355
#     4  10  19  35  52  74 116 133 189 224 268 329
#     4  10  21  33  48  79 103 143 179 213 271 333
#     4  11  21  34  57  80 111 150 182 227 289 334
#     4   9  19  35  48  82 104 142 184 223 274 334
#     4  10  22  33  50  75 111 148 178 215 278 326
#
# _framework density 24.820036999999999
#
# number of rings (size 3 to 8) (size 9 to 14) (size 15 to 20)
#    0.857    1.143    1.429    1.714   10.000    0.000 
#    0.000    0.000    0.000    0.000    0.000    6.000 
#    0.000    0.000    0.000    0.000    0.000    0.000 
#
# Total GULP energy -156112.403760 kJ/mol
# GULP energy per Si atom -5575.442991 kJ/mol
# Density = 2.476355 g / cm^3
# Si number density = 24.820037 Si / 1000 Ang^3
#
#
#
# Elastic Constant Matrix: (Units=GPa)
#
#
# Indices 1 2 3 4 5 6 
#
# 1 65.9409 13.4993 10.3096 0.0000 0.0000 0.0000
# 2 13.4993 40.8434 20.5202 0.0000 0.0000 0.0000
# 3 10.3096 20.5202 152.4466 0.0000 0.0000 0.0000
# 4 0.0000 0.0000 0.0000 30.6579 0.0000 0.0000
# 5 0.0000 0.0000 0.0000 0.0000 61.4850 0.0000
# 6 0.0000 0.0000 0.0000 0.0000 0.0000 31.7865
#
#
#
# Elastic Compliance Matrix: (Units=1/GPa)
#
#
# Indices 1 2 3 4 5 6 
#
# 1 0.016289 -0.005181 -0.000404 0.000000 0.000000 0.000000
# 2 -0.005181 0.027907 -0.003406 0.000000 0.000000 0.000000
# 3 -0.000404 -0.003406 0.007045 0.000000 0.000000 0.000000
# 4 0.000000 0.000000 0.000000 0.032618 0.000000 0.000000
# 5 0.000000 0.000000 0.000000 0.000000 0.016264 0.000000
# 6 0.000000 0.000000 0.000000 0.000000 0.000000 0.031460
#
#
# Mechanical properties :
#
#
# Convention : Reuss Voigt Hill
#
# Bulk Modulus (GPa) = 30.06640 38.65434 34.36037
# Shear Modulus (GPa) = 31.12312 39.11266 35.11789
#
# Velocity S-wave (km/s) = 3.54496 3.97400 3.76560
# Velocity P-wave (km/s) = 5.37547 6.05513 5.72540
#
# Compressibility (1/GPa) = 0.03325971
#
# Stress axis : x y z
#
# Youngs Moduli (GPa) = 61.39166 35.83288 141.93463
#
# Poissons Ratio (x) = 0.18564 0.05737
# Poissons Ratio (y) = 0.31805 0.48345
# Poissons Ratio (z) = 0.02482 0.12205
#
# Static dielectric constant tensor:
#      x y z
#    x 1.719620 0.000000 0.000000 
#    y 0.000000 2.160610 0.000000 
#    z 0.000000 0.000000 1.982800 
# 
# From -- ./inp_files/996.got.cif
#   From: 2010.05.17/outbox.cif.g08.bks.cpg/sg34_1_cif.got.tgz:996.got - 2010.06.03 17:23:11.
