data_PCOD9347723
_publ_section_title
;
Structure prediction by ZEFSAII (Michael W. Deem and Ramdas Pophale) SiO2 
 PCOD9347723
Probable space group: P N N 2
;
_chemical_formula_sum "Si O2"
_cell_formula_units_Z 18
_cell_length_a 16.319026
_cell_length_b 8.389123
_cell_length_c 5.360914
_cell_angle_alpha 90.000000
_cell_angle_beta 90.000000
_cell_angle_gamma 90.000000
_cell_volume 733.921544
_symmetry_space_group_name_H-M "P N N 2"
_symmetry_group_IT_number 34
_symmetry_cell_setting 'orthorhombic'
loop_
_space_group_symop_operation_xyz
x,y,z
-x,-y,z
1/2-x,1/2+y,1/2+z
1/2+x,1/2-y,1/2+z
loop_
_atom_site_type_symbol
_atom_site_label
_atom_site_fract_x
_atom_site_fract_y
_atom_site_fract_z
Si Si1 0.319674 0.479725 0.942480
Si Si2 0.257420 0.838790 0.935833
Si Si3 0.951050 0.329150 0.786255
Si Si4 0.593692 0.940522 0.789911
Si Si5 0.500000 0.500000 0.104746
O O1 0.279068 0.654224 0.945279
O O2 0.276877 0.395676 0.704484
O O3 0.299463 0.401188 0.211170
O O4 0.418050 0.502463 0.937486
O O5 0.343531 0.921298 0.852007
O O6 0.901637 0.330238 0.529546
O O7 0.000000 0.500000 0.778749
O O8 0.000594 0.163411 0.770726
O O9 0.897017 0.346854 0.032373
O O10 0.500000 0.000000 0.777969
#
# Coordination Sequence:
#
# PCOD9347723 Si02
#       5
#     4   4   4   4   2
#     4  12  30  52  84 117 173 212 287 342 426 500
#     4  12  28  52  78 121 162 220 269 353 423 506
#     4  10  23  43  77 115 150 204 267 341 401 492
#     4  10  22  44  78 107 152 203 265 324 414 486
#     4  12  30  52  82 124 160 226 282 344 420 510
#
# _framework density 24.525780999999998
#
# number of rings (size 3 to 8) (size 9 to 14) (size 15 to 20)
#    0.000    0.889    0.000    5.333    9.333    8.889 
#    0.000    0.000    0.000    0.000    0.000    0.000 
#    0.000    0.000    0.000    0.000    0.000    0.000 
#
# Total GULP energy -100663.944910 kJ/mol
# GULP energy per Si atom -5592.441384 kJ/mol
# Density = 2.446996 g / cm^3
# Si number density = 24.525781 Si / 1000 Ang^3
#
#
#
# Elastic Constant Matrix: (Units=GPa)
#
#
# Indices 1 2 3 4 5 6 
#
# 1 146.9134 33.0038 23.7137 0.0000 0.0000 0.0000
# 2 33.0038 206.0467 61.9465 0.0000 0.0000 0.0000
# 3 23.7137 61.9465 222.6193 0.0000 0.0000 0.0000
# 4 0.0000 0.0000 0.0000 29.7970 0.0000 0.0000
# 5 0.0000 0.0000 0.0000 0.0000 42.3521 0.0000
# 6 0.0000 0.0000 0.0000 0.0000 0.0000 6.5993
#
#
#
# Elastic Compliance Matrix: (Units=1/GPa)
#
#
# Indices 1 2 3 4 5 6 
#
# 1 0.007108 -0.000994 -0.000481 0.000000 0.000000 0.000000
# 2 -0.000994 0.005435 -0.001407 0.000000 0.000000 0.000000
# 3 -0.000481 -0.001407 0.004935 0.000000 0.000000 0.000000
# 4 0.000000 0.000000 0.000000 0.033560 0.000000 0.000000
# 5 0.000000 0.000000 0.000000 0.000000 0.023612 0.000000
# 6 0.000000 0.000000 0.000000 0.000000 0.000000 0.151532
#
#
# Mechanical properties :
#
#
# Convention : Reuss Voigt Hill
#
# Bulk Modulus (GPa) = 85.35830 90.32306 87.84068
# Shear Modulus (GPa) = 21.20004 46.21068 33.70536
#
# Velocity S-wave (km/s) = 2.94325 4.34541 3.71115
# Velocity P-wave (km/s) = 6.81391 7.87937 7.36593
#
# Compressibility (1/GPa) = 0.01171532
#
# Stress axis : x y z
#
# Youngs Moduli (GPa) = 140.69456 183.98035 202.65250
#
# Poissons Ratio (x) = 0.18288 0.09738
# Poissons Ratio (y) = 0.13985 0.28505
# Poissons Ratio (z) = 0.06761 0.25878
#
# Static dielectric constant tensor:
#      x y z
#    x 1.930240 0.000000 0.000000 
#    y 0.000000 1.941500 0.000000 
#    z 0.000000 0.000000 1.970220 
# 
# From -- ./inp_files/387.got.cif
#   From: 2010.05.17/outbox.cif.g08.bks.cpg/sg34_1_cif.got.tgz:387.got - 2010.06.03 17:23:11.
