data_PCOD9347791
_publ_section_title
;
Structure prediction by ZEFSAII (Michael W. Deem and Ramdas Pophale) SiO2 
 PCOD9347791
Probable space group: P N N 2
;
_chemical_formula_sum "Si O2"
_cell_formula_units_Z 30
_cell_length_a 18.984413
_cell_length_b 11.778587
_cell_length_c 6.907812
_cell_angle_alpha 90.000000
_cell_angle_beta 90.000000
_cell_angle_gamma 90.000000
_cell_volume 1544.652803
_symmetry_space_group_name_H-M "P N N 2"
_symmetry_group_IT_number 34
_symmetry_cell_setting 'orthorhombic'
loop_
_space_group_symop_operation_xyz
x,y,z
-x,-y,z
1/2-x,1/2+y,1/2+z
1/2+x,1/2-y,1/2+z
loop_
_atom_site_type_symbol
_atom_site_label
_atom_site_fract_x
_atom_site_fract_y
_atom_site_fract_z
Si Si1 0.940340 0.840317 0.662880
Si Si2 0.401140 0.404524 0.062245
Si Si3 0.000000 0.500000 0.782077
Si Si4 0.691709 0.750971 0.326588
Si Si5 0.348479 0.823028 0.895945
Si Si6 0.633221 0.926446 0.041169
Si Si7 0.447535 0.791560 0.539614
Si Si8 0.900808 0.243938 0.213503
O O1 0.900244 0.745938 0.538101
O O2 0.024246 0.845689 0.621688
O O3 0.910223 0.963079 0.604730
O O4 0.930382 0.807533 0.886828
O O5 0.339891 0.348757 0.190484
O O6 0.390145 0.370843 0.838192
O O7 0.058638 0.555907 0.646981
O O8 0.033998 0.403279 0.915493
O O9 0.771909 0.731736 0.383313
O O10 0.681790 0.864232 0.198840
O O11 0.644083 0.751920 0.518617
O O12 0.385341 0.818391 0.686958
O O13 0.341615 0.951278 0.971122
O O14 0.622003 0.844030 0.859004
O O15 0.517615 0.757841 0.657070
#
# Coordination Sequence:
#
# PCOD9347791 Si02
#       8
#     4   4   2   4   4   4   4   4
#     4  11  23  43  66  97 133 175 229 279 324 401
#     4  10  23  44  66  93 135 177 229 277 321 404
#     4  12  20  42  74 100 136 164 230 296 328 400
#     4  11  26  45  66  99 138 181 218 276 348 405
#     4  12  27  42  66 105 138 171 226 282 344 404
#     4  11  24  43  69 102 136 171 227 287 338 401
#     4  12  22  40  70 101 127 176 225 277 344 398
#     4  11  21  43  71  95 128 179 225 268 343 399
#
# _framework density 19.421838999999999
#
# number of rings (size 3 to 8) (size 9 to 14) (size 15 to 20)
#    0.000    0.800    5.333    2.400    0.000    6.400 
#    0.000    0.000    0.000    0.000    0.000    0.000 
#    0.000    0.000    0.000    0.000    0.000    0.000 
#
# Total GULP energy -167787.061082 kJ/mol
# GULP energy per Si atom -5592.902036 kJ/mol
# Density = 1.937763 g / cm^3
# Si number density = 19.421839 Si / 1000 Ang^3
#
#
#
# Elastic Constant Matrix: (Units=GPa)
#
#
# Indices 1 2 3 4 5 6 
#
# 1 58.1997 12.8442 11.6916 0.0000 0.0000 0.0000
# 2 12.8442 116.5412 43.0834 0.0000 0.0000 0.0000
# 3 11.6916 43.0834 112.0141 0.0000 0.0000 0.0000
# 4 0.0000 0.0000 0.0000 25.7840 0.0000 0.0000
# 5 0.0000 0.0000 0.0000 0.0000 14.7518 0.0000
# 6 0.0000 0.0000 0.0000 0.0000 0.0000 16.8944
#
#
#
# Elastic Compliance Matrix: (Units=1/GPa)
#
#
# Indices 1 2 3 4 5 6 
#
# 1 0.017768 -0.001484 -0.001284 0.000000 0.000000 0.000000
# 2 -0.001484 0.010127 -0.003740 0.000000 0.000000 0.000000
# 3 -0.001284 -0.003740 0.010500 0.000000 0.000000 0.000000
# 4 0.000000 0.000000 0.000000 0.038784 0.000000 0.000000
# 5 0.000000 0.000000 0.000000 0.000000 0.067788 0.000000
# 6 0.000000 0.000000 0.000000 0.000000 0.000000 0.059191
#
#
# Mechanical properties :
#
#
# Convention : Reuss Voigt Hill
#
# Bulk Modulus (GPa) = 39.40246 46.88817 43.14531
# Shear Modulus (GPa) = 22.15991 26.09510 24.12750
#
# Velocity S-wave (km/s) = 3.38150 3.66949 3.52843
# Velocity P-wave (km/s) = 5.96472 6.49214 6.23401
#
# Compressibility (1/GPa) = 0.02537913
#
# Stress axis : x y z
#
# Youngs Moduli (GPa) = 56.28243 98.74742 95.23791
#
# Poissons Ratio (x) = 0.14650 0.12228
# Poissons Ratio (y) = 0.08350 0.35621
# Poissons Ratio (z) = 0.07226 0.36933
#
# Static dielectric constant tensor:
#      x y z
#    x 1.646850 0.000000 0.000000 
#    y 0.000000 1.684830 0.000000 
#    z 0.000000 0.000000 1.668290 
# 
# From -- ./inp_files/1609.got.cif
#   From: 2010.05.17/outbox.cif.g08.bks.cpg/sg34_1_cif.got.tgz:1609.got - 2010.06.03 17:23:11.
