data_PCOD9347176
_publ_section_title
;
Structure prediction by ZEFSAII (Michael W. Deem and Ramdas Pophale) SiO2 
 PCOD9347176
Probable space group: P N N 2
;
_chemical_formula_sum "Si O2"
_cell_formula_units_Z 26
_cell_length_a 7.877275
_cell_length_b 9.887728
_cell_length_c 16.128576
_cell_angle_alpha 90.000000
_cell_angle_beta 90.000000
_cell_angle_gamma 90.000000
_cell_volume 1256.228214
_symmetry_space_group_name_H-M "P N N 2"
_symmetry_group_IT_number 34
_symmetry_cell_setting 'orthorhombic'
loop_
_space_group_symop_operation_xyz
x,y,z
-x,-y,z
1/2-x,1/2+y,1/2+z
1/2+x,1/2-y,1/2+z
loop_
_atom_site_type_symbol
_atom_site_label
_atom_site_fract_x
_atom_site_fract_y
_atom_site_fract_z
Si Si1 0.848786 0.889590 0.515080
Si Si2 0.269246 0.236259 0.690656
Si Si3 0.805708 0.003476 0.797113
Si Si4 0.696796 0.494207 0.625246
Si Si5 0.850543 0.595251 0.466140
Si Si6 0.840221 0.694504 0.154176
Si Si7 0.500000 0.000000 0.517033
O O1 0.804941 0.843851 0.610032
O O2 0.902102 0.750905 0.471126
O O3 0.664332 0.930290 0.475639
O O4 0.000000 0.000000 0.513091
O O5 0.224579 0.150346 0.770164
O O6 0.213338 0.391846 0.681772
O O7 0.473386 0.226515 0.689640
O O8 0.697569 0.052710 0.874301
O O9 0.762620 0.101536 0.718859
O O10 0.000000 0.000000 0.821254
O O11 0.500000 0.500000 0.649238
O O12 0.705977 0.559220 0.533190
O O13 0.748413 0.337303 0.632477
O O14 0.000000 0.500000 0.497226
O O15 0.895844 0.607779 0.073845
#
# Coordination Sequence:
#
# PCOD9347176 Si02
#       7
#     4   4   4   4   4   4   2
#     4  10  21  40  64  95 121 164 213 251 314 369
#     4   9  18  36  61  91 118 151 202 250 301 370
#     4  12  23  38  60  83 118 165 208 251 308 379
#     4   9  20  37  62  90 121 153 196 253 307 366
#     4  11  25  40  58  91 126 159 206 261 316 374
#     4  10  18  35  62  89 116 157 200 248 306 360
#     4  10  20  34  70  94 128 160 208 270 292 384
#
# _framework density 20.696874999999999
#
# number of rings (size 3 to 8) (size 9 to 14) (size 15 to 20)
#    0.000    1.846    3.077    2.769    2.154    1.231 
#    0.000    3.846    0.000    0.000    0.000    0.000 
#    0.000    0.000    0.000    0.000    0.000    0.000 
#
# Total GULP energy -144847.879633 kJ/mol
# GULP energy per Si atom -5571.072294 kJ/mol
# Density = 2.064977 g / cm^3
# Si number density = 20.696875 Si / 1000 Ang^3
#
#
#
# Elastic Constant Matrix: (Units=GPa)
#
#
# Indices 1 2 3 4 5 6 
#
# 1 56.8782 19.7839 -3.2502 0.0000 0.0000 0.0000
# 2 19.7839 158.1620 33.2161 0.0000 0.0000 0.0000
# 3 -3.2502 33.2161 46.0695 0.0000 0.0000 0.0000
# 4 0.0000 0.0000 0.0000 -1.8208 0.0000 0.0000
# 5 0.0000 0.0000 0.0000 0.0000 4.4332 0.0000
# 6 0.0000 0.0000 0.0000 0.0000 0.0000 27.2983
#
#
#
# Elastic Compliance Matrix: (Units=1/GPa)
#
#
# Indices 1 2 3 4 5 6 
#
# 1 0.018868 -0.003111 0.003574 0.000000 0.000000 0.000000
# 2 -0.003111 0.007964 -0.005961 0.000000 0.000000 0.000000
# 3 0.003574 -0.005961 0.026257 0.000000 0.000000 0.000000
# 4 0.000000 0.000000 0.000000 -0.549197 0.000000 0.000000
# 5 0.000000 0.000000 0.000000 0.000000 0.225569 0.000000
# 6 0.000000 0.000000 0.000000 0.000000 0.000000 0.036632
#
#
# Mechanical properties :
#
#
# Convention : Reuss Voigt Hill
#
# Bulk Modulus (GPa) = 23.75759 40.06769 31.91264
# Shear Modulus (GPa) = -23.93715 20.07279 -1.93218
#
# Velocity S-wave (km/s) = -3.40451 3.11761 -0.96726
# Velocity P-wave (km/s) = 1.98759 5.68865 3.76896
#
# Compressibility (1/GPa) = 0.04209181
#
# Stress axis : x y z
#
# Youngs Moduli (GPa) = 53.00087 125.57015 38.08571
#
# Poissons Ratio (x) = 0.39060 -0.13611
# Poissons Ratio (y) = 0.16487 0.22704
# Poissons Ratio (z) = -0.18942 0.74856
#
# Static dielectric constant tensor:
#      x y z
#    x 1.808610 0.000000 0.000000 
#    y 0.000000 1.929580 0.000000 
#    z 0.000000 0.000000 1.726250 
# 
# From -- ./inp_files/7494.got.cif
#   From: 2010.05.17/outbox.cif.g08.bks.cpg/sg34_4_cif.got.tgz:7494.got - 2010.06.03 17:23:11.
