data_PCOD9347234
_publ_section_title
;
Structure prediction by ZEFSAII (Michael W. Deem and Ramdas Pophale) SiO2 
 PCOD9347234
Probable space group: P N N 2
;
_chemical_formula_sum "Si O2"
_cell_formula_units_Z 28
_cell_length_a 9.192727
_cell_length_b 9.002871
_cell_length_c 17.137775
_cell_angle_alpha 90.000000
_cell_angle_beta 90.000000
_cell_angle_gamma 90.000000
_cell_volume 1418.338288
_symmetry_space_group_name_H-M "P N N 2"
_symmetry_group_IT_number 34
_symmetry_cell_setting 'orthorhombic'
loop_
_space_group_symop_operation_xyz
x,y,z
-x,-y,z
1/2-x,1/2+y,1/2+z
1/2+x,1/2-y,1/2+z
loop_
_atom_site_type_symbol
_atom_site_label
_atom_site_fract_x
_atom_site_fract_y
_atom_site_fract_z
Si Si1 0.161321 0.935637 0.345850
Si Si2 0.963951 0.347948 0.408107
Si Si3 0.712601 0.624365 0.674956
Si Si4 0.280264 0.650229 0.975810
Si Si5 0.288777 0.151027 0.066622
Si Si6 0.043338 0.153357 0.634088
Si Si7 0.992304 0.321434 0.079855
O O1 0.138244 0.762254 0.360513
O O2 0.206790 0.958271 0.257369
O O3 0.246804 0.016739 0.415112
O O4 0.000000 0.000000 0.355353
O O5 0.874169 0.382054 0.486880
O O6 0.000000 0.500000 0.365633
O O7 0.115933 0.268928 0.432467
O O8 0.745922 0.501817 0.609027
O O9 0.841518 0.743830 0.677105
O O10 0.570123 0.720170 0.651118
O O11 0.376538 0.608008 0.052147
O O12 0.127970 0.701405 0.011862
O O13 0.403412 0.246960 0.116458
O O14 0.146819 0.253203 0.056459
O O15 0.000000 0.000000 0.674092
O O16 0.000000 0.500000 0.095468
#
# Coordination Sequence:
#
# PCOD9347234 Si02
#       7
#     4   4   4   4   4   4   4
#     4  10  20  37  58  83 114 151 190 235 289 351
#     4  10  19  34  59  82 108 146 192 239 286 341
#     4  11  23  37  57  86 117 150 193 240 289 342
#     4   9  19  36  58  83 111 148 193 233 281 348
#     4  11  20  35  58  85 115 149 187 236 285 338
#     4  10  19  37  61  84 110 148 194 233 278 343
#     4  11  21  34  55  85 117 152 192 240 287 339
#
# _framework density 19.741410999999999
#
# number of rings (size 3 to 8) (size 9 to 14) (size 15 to 20)
#    0.000    1.714    0.000    9.000    0.000    0.571 
#    0.000    7.143    0.000    3.429    0.000    0.000 
#    0.000    0.000    0.000    0.000    0.000    0.000 
#
# Total GULP energy -156246.872285 kJ/mol
# GULP energy per Si atom -5580.245439 kJ/mol
# Density = 1.969648 g / cm^3
# Si number density = 19.741411 Si / 1000 Ang^3
#
#
#
# Elastic Constant Matrix: (Units=GPa)
#
#
# Indices 1 2 3 4 5 6 
#
# 1 76.1254 -1.3789 -7.0182 0.0000 0.0000 0.0000
# 2 -1.3789 87.1473 -1.6353 0.0000 0.0000 0.0000
# 3 -7.0182 -1.6353 40.6078 0.0000 0.0000 0.0000
# 4 0.0000 0.0000 0.0000 42.1306 0.0000 0.0000
# 5 0.0000 0.0000 0.0000 0.0000 7.0424 0.0000
# 6 0.0000 0.0000 0.0000 0.0000 0.0000 24.1890
#
#
#
# Elastic Compliance Matrix: (Units=1/GPa)
#
#
# Indices 1 2 3 4 5 6 
#
# 1 0.013355 0.000255 0.002318 0.000000 0.000000 0.000000
# 2 0.000255 0.011488 0.000507 0.000000 0.000000 0.000000
# 3 0.002318 0.000507 0.025047 0.000000 0.000000 0.000000
# 4 0.000000 0.000000 0.000000 0.023736 0.000000 0.000000
# 5 0.000000 0.000000 0.000000 0.000000 0.141997 0.000000
# 6 0.000000 0.000000 0.000000 0.000000 0.000000 0.041341
#
#
# Mechanical properties :
#
#
# Convention : Reuss Voigt Hill
#
# Bulk Modulus (GPa) = 17.84137 20.42395 19.13266
# Shear Modulus (GPa) = 18.55378 28.93326 23.74352
#
# Velocity S-wave (km/s) = 3.06901 3.83248 3.47180
# Velocity P-wave (km/s) = 4.64925 5.47285 5.07778
#
# Compressibility (1/GPa) = 0.05604950
#
# Stress axis : x y z
#
# Youngs Moduli (GPa) = 74.88072 87.04459 39.92510
#
# Poissons Ratio (x) = -0.02218 -0.09256
# Poissons Ratio (y) = -0.01908 -0.02023
# Poissons Ratio (z) = -0.17360 -0.04411
#
# Static dielectric constant tensor:
#      x y z
#    x 1.688300 0.000000 0.000000 
#    y 0.000000 1.743580 0.000000 
#    z 0.000000 0.000000 1.674460 
# 
# From -- ./inp_files/8051.got.cif
#   From: 2010.05.17/outbox.cif.g08.bks.cpg/sg34_5_cif.got.tgz:8051.got - 2010.06.03 17:23:11.
