data_PCOD9347638
_publ_section_title
;
Structure prediction by ZEFSAII (Michael W. Deem and Ramdas Pophale) SiO2 
 PCOD9347638
Probable space group: P N N 2
;
_chemical_formula_sum "Si O2"
_cell_formula_units_Z 32
_cell_length_a 18.333676
_cell_length_b 12.027473
_cell_length_c 5.964457
_cell_angle_alpha 90.000000
_cell_angle_beta 90.000000
_cell_angle_gamma 90.000000
_cell_volume 1315.209250
_symmetry_space_group_name_H-M "P N N 2"
_symmetry_group_IT_number 34
_symmetry_cell_setting 'orthorhombic'
loop_
_space_group_symop_operation_xyz
x,y,z
-x,-y,z
1/2-x,1/2+y,1/2+z
1/2+x,1/2-y,1/2+z
loop_
_atom_site_type_symbol
_atom_site_label
_atom_site_fract_x
_atom_site_fract_y
_atom_site_fract_z
Si Si1 0.283019 0.498297 0.536050
Si Si2 0.679857 0.335279 0.144301
Si Si3 0.722122 0.732562 0.267607
Si Si4 0.565802 0.788288 0.345523
Si Si5 0.033212 0.187291 0.472500
Si Si6 0.685156 0.113552 0.392641
Si Si7 0.563339 0.568603 0.632199
Si Si8 0.958672 0.597628 0.168240
O O1 0.280985 0.591985 0.339357
O O2 0.282798 0.380949 0.408407
O O3 0.223478 0.476916 0.731468
O O4 0.363906 0.503381 0.641001
O O5 0.727638 0.311065 0.923440
O O6 0.601679 0.380562 0.068403
O O7 0.657076 0.213672 0.237119
O O8 0.645774 0.796653 0.236716
O O9 0.755827 0.682051 0.040841
O O10 0.577246 0.684482 0.510977
O O11 0.523369 0.880383 0.487705
O O12 0.508667 0.751913 0.162874
O O13 0.055117 0.284896 0.295244
O O14 0.974066 0.107910 0.359655
O O15 0.619493 0.072129 0.551792
O O16 0.500000 0.500000 0.507733
O O17 0.000000 0.500000 0.309929
#
# Coordination Sequence:
#
# PCOD9347638 Si02
#       8
#     4   4   4   4   4   4   4   4
#     4  10  24  41  68 102 139 183 239 299 385 441
#     4  11  23  42  71  98 138 191 235 305 372 446
#     4  10  23  43  66  99 142 179 244 304 365 455
#     4  10  22  43  63  95 132 176 231 298 354 422
#     4  11  22  41  67  96 136 182 238 295 367 438
#     4  11  23  45  67  98 141 186 245 305 359 462
#     4  10  22  38  64 100 135 171 226 290 359 453
#     4  11  25  43  67  95 136 185 244 293 363 441
#
# _framework density 24.330729999999999
#
# number of rings (size 3 to 8) (size 9 to 14) (size 15 to 20)
#    0.000    1.500    2.500    1.500    1.750    8.000 
#    0.000    0.000    0.000    0.000    0.000    0.000 
#    0.000    0.000    0.000    0.000    0.000    0.000 
#
# Total GULP energy -178601.519074 kJ/mol
# GULP energy per Si atom -5581.297471 kJ/mol
# Density = 2.427535 g / cm^3
# Si number density = 24.330730 Si / 1000 Ang^3
#
#
#
# Elastic Constant Matrix: (Units=GPa)
#
#
# Indices 1 2 3 4 5 6 
#
# 1 90.4516 25.2308 9.1102 0.0000 0.0000 0.0000
# 2 25.2308 96.6389 21.3622 0.0000 0.0000 0.0000
# 3 9.1102 21.3622 62.5703 0.0000 0.0000 0.0000
# 4 0.0000 0.0000 0.0000 47.0538 0.0000 0.0000
# 5 0.0000 0.0000 0.0000 0.0000 47.3186 0.0000
# 6 0.0000 0.0000 0.0000 0.0000 0.0000 34.2682
#
#
#
# Elastic Compliance Matrix: (Units=1/GPa)
#
#
# Indices 1 2 3 4 5 6 
#
# 1 0.011955 -0.002960 -0.000730 0.000000 0.000000 0.000000
# 2 -0.002960 0.011925 -0.003640 0.000000 0.000000 0.000000
# 3 -0.000730 -0.003640 0.017331 0.000000 0.000000 0.000000
# 4 0.000000 0.000000 0.000000 0.021252 0.000000 0.000000
# 5 0.000000 0.000000 0.000000 0.000000 0.021133 0.000000
# 6 0.000000 0.000000 0.000000 0.000000 0.000000 0.029182
#
#
# Mechanical properties :
#
#
# Convention : Reuss Voigt Hill
#
# Bulk Modulus (GPa) = 37.66404 40.11859 38.89132
# Shear Modulus (GPa) = 36.68661 38.65861 37.67261
#
# Velocity S-wave (km/s) = 3.88729 3.99040 3.93918
# Velocity P-wave (km/s) = 5.97174 6.14457 6.05877
#
# Compressibility (1/GPa) = 0.02655052
#
# Stress axis : x y z
#
# Youngs Moduli (GPa) = 83.64853 83.85534 57.69926
#
# Poissons Ratio (x) = 0.24820 0.04213
# Poissons Ratio (y) = 0.24758 0.21005
# Poissons Ratio (z) = 0.06107 0.30527
#
# Static dielectric constant tensor:
#      x y z
#    x 1.942850 0.000000 0.000000 
#    y 0.000000 2.056650 0.000000 
#    z 0.000000 0.000000 2.005610 
# 
# From -- ./inp_files/1499.got.cif
#   From: 2010.05.17/outbox.cif.g08.bks.cpg/sg34_1_cif.got.tgz:1499.got - 2010.06.03 17:23:11.
