data_PCOD9347734
_publ_section_title
;
Structure prediction by ZEFSAII (Michael W. Deem and Ramdas Pophale) SiO2 
 PCOD9347734
Probable space group: P N N 2
;
_chemical_formula_sum "Si O2"
_cell_formula_units_Z 24
_cell_length_a 12.036694
_cell_length_b 8.884228
_cell_length_c 8.348427
_cell_angle_alpha 90.000000
_cell_angle_beta 90.000000
_cell_angle_gamma 90.000000
_cell_volume 892.753516
_symmetry_space_group_name_H-M "P N N 2"
_symmetry_group_IT_number 34
_symmetry_cell_setting 'orthorhombic'
loop_
_space_group_symop_operation_xyz
x,y,z
-x,-y,z
1/2-x,1/2+y,1/2+z
1/2+x,1/2-y,1/2+z
loop_
_atom_site_type_symbol
_atom_site_label
_atom_site_fract_x
_atom_site_fract_y
_atom_site_fract_z
Si Si1 0.695768 0.651571 0.025670
Si Si2 0.686993 0.059396 0.932007
Si Si3 0.135538 0.871395 0.169848
Si Si4 0.954078 0.362102 0.683334
Si Si5 0.888756 0.912875 0.732515
Si Si6 0.904098 0.767551 0.156816
O O1 0.650931 0.487370 0.066582
O O2 0.825096 0.686746 0.028679
O O3 0.648458 0.682356 0.851495
O O4 0.649243 0.745075 0.181258
O O5 0.602456 0.958473 0.035802
O O6 0.781242 0.955943 0.841691
O O7 0.618704 0.165706 0.812386
O O8 0.760977 0.153786 0.056280
O O9 0.056746 0.246720 0.688971
O O10 0.123448 0.054234 0.177595
O O11 0.000000 0.500000 0.789473
O O12 0.968985 0.220607 0.104632
O O13 0.000000 0.000000 0.797777
#
# Coordination Sequence:
#
# PCOD9347734 Si02
#       6
#     4   4   4   4   4   4
#     4  10  22  46  71 106 150 199 255 312 385 456
#     4  11  24  46  76 111 153 201 261 316 387 472
#     4  11  24  45  80 108 150 206 258 321 387 467
#     4  11  23  41  67 111 147 200 251 312 381 461
#     4   9  23  43  71 104 151 204 251 315 383 456
#     4  10  24  47  73 112 149 200 261 317 390 457
#
# _framework density 26.883120000000002
#
# number of rings (size 3 to 8) (size 9 to 14) (size 15 to 20)
#    0.000    1.667    1.667    1.000   11.667    1.333 
#    3.000    3.333    0.000    4.000    0.000    0.000 
#    0.000    0.000    0.000    0.000    0.000    0.000 
#
# Total GULP energy -133848.395470 kJ/mol
# GULP energy per Si atom -5577.016478 kJ/mol
# Density = 2.682193 g / cm^3
# Si number density = 26.883120 Si / 1000 Ang^3
#
#
#
# Elastic Constant Matrix: (Units=GPa)
#
#
# Indices 1 2 3 4 5 6 
#
# 1 202.4194 61.3641 27.7104 0.0000 0.0000 0.0000
# 2 61.3641 162.6390 5.2199 0.0000 0.0000 0.0000
# 3 27.7104 5.2199 53.3110 0.0000 0.0000 0.0000
# 4 0.0000 0.0000 0.0000 34.9557 0.0000 0.0000
# 5 0.0000 0.0000 0.0000 0.0000 21.9326 0.0000
# 6 0.0000 0.0000 0.0000 0.0000 0.0000 60.0416
#
#
#
# Elastic Compliance Matrix: (Units=1/GPa)
#
#
# Indices 1 2 3 4 5 6 
#
# 1 0.005995 -0.002169 -0.002904 0.000000 0.000000 0.000000
# 2 -0.002169 0.006953 0.000447 0.000000 0.000000 0.000000
# 3 -0.002904 0.000447 0.020224 0.000000 0.000000 0.000000
# 4 0.000000 0.000000 0.000000 0.028608 0.000000 0.000000
# 5 0.000000 0.000000 0.000000 0.000000 0.045594 0.000000
# 6 0.000000 0.000000 0.000000 0.000000 0.000000 0.016655
#
#
# Mechanical properties :
#
#
# Convention : Reuss Voigt Hill
#
# Bulk Modulus (GPa) = 41.80767 67.43978 54.62372
# Shear Modulus (GPa) = 35.39730 44.99097 40.19414
#
# Velocity S-wave (km/s) = 3.63259 4.09538 3.87090
# Velocity P-wave (km/s) = 5.76018 6.89228 6.35150
#
# Compressibility (1/GPa) = 0.02391906
#
# Stress axis : x y z
#
# Youngs Moduli (GPa) = 166.79853 143.83200 49.44733
#
# Poissons Ratio (x) = 0.31195 0.14359
# Poissons Ratio (y) = 0.36176 -0.02208
# Poissons Ratio (z) = 0.48437 -0.06423
#
# Static dielectric constant tensor:
#      x y z
#    x 2.116600 0.000000 0.000000 
#    y 0.000000 2.261330 0.000000 
#    z 0.000000 0.000000 2.160460 
# 
# From -- ./inp_files/3162.got.cif
#   From: 2010.05.17/outbox.cif.g08.bks.cpg/sg34_2_cif.got.tgz:3162.got - 2010.06.03 17:23:11.
