data_PCOD9347993
_publ_section_title
;
Structure prediction by ZEFSAII (Michael W. Deem and Ramdas Pophale) SiO2 
 PCOD9347993
Probable space group: P N N 2
;
_chemical_formula_sum "Si O2"
_cell_formula_units_Z 22
_cell_length_a 7.873758
_cell_length_b 19.240181
_cell_length_c 5.208001
_cell_angle_alpha 90.000000
_cell_angle_beta 90.000000
_cell_angle_gamma 90.000000
_cell_volume 788.973243
_symmetry_space_group_name_H-M "P N N 2"
_symmetry_group_IT_number 34
_symmetry_cell_setting 'orthorhombic'
loop_
_space_group_symop_operation_xyz
x,y,z
-x,-y,z
1/2-x,1/2+y,1/2+z
1/2+x,1/2-y,1/2+z
loop_
_atom_site_type_symbol
_atom_site_label
_atom_site_fract_x
_atom_site_fract_y
_atom_site_fract_z
Si Si1 0.705030 0.592471 0.868120
Si Si2 0.626137 0.780902 0.511139
Si Si3 0.000000 0.000000 0.105835
Si Si4 0.503138 0.860204 0.011584
Si Si5 0.534612 0.330267 0.199221
Si Si6 0.724884 0.967439 0.740670
O O1 0.829280 0.623456 0.658432
O O2 0.518186 0.567269 0.776417
O O3 0.644065 0.651685 0.063647
O O4 0.784640 0.521711 0.002149
O O5 0.533379 0.813417 0.759485
O O6 0.529074 0.709798 0.450459
O O7 0.610291 0.829002 0.253378
O O8 0.165493 0.990096 0.941877
O O9 0.566608 0.932964 0.883896
O O10 0.326213 0.721380 0.074236
O O11 0.647888 0.400033 0.222150
#
# Coordination Sequence:
#
# PCOD9347993 Si02
#       6
#     4   4   2   4   4   4
#     4  12  26  52  87 128 176 232 291 377 455 536
#     4  11  29  56  86 125 171 242 293 374 432 541
#     4  12  22  44  82 126 162 232 274 354 448 524
#     4  11  30  53  80 131 181 229 298 366 447 537
#     4  11  25  57  88 121 178 231 310 355 456 536
#     4  11  25  52  80 127 171 230 290 369 447 539
#
# _framework density 27.884339000000001
#
# number of rings (size 3 to 8) (size 9 to 14) (size 15 to 20)
#    0.000    0.727    3.636    1.091    5.091   10.909 
#    3.273    3.636    0.000    0.000    0.000    0.000 
#    0.000    0.000    0.000    0.000    0.000    0.000 
#
# Total GULP energy -122955.664949 kJ/mol
# GULP energy per Si atom -5588.893861 kJ/mol
# Density = 2.782087 g / cm^3
# Si number density = 27.884339 Si / 1000 Ang^3
#
#
#
# Elastic Constant Matrix: (Units=GPa)
#
#
# Indices 1 2 3 4 5 6 
#
# 1 150.7397 70.0114 78.5541 0.0000 0.0000 0.0000
# 2 70.0114 149.5265 84.7063 0.0000 0.0000 0.0000
# 3 78.5541 84.7063 198.6848 0.0000 0.0000 0.0000
# 4 0.0000 0.0000 0.0000 -94.9407 0.0000 0.0000
# 5 0.0000 0.0000 0.0000 0.0000 56.7110 0.0000
# 6 0.0000 0.0000 0.0000 0.0000 0.0000 43.2833
#
#
#
# Elastic Compliance Matrix: (Units=1/GPa)
#
#
# Indices 1 2 3 4 5 6 
#
# 1 0.009266 -0.002984 -0.002391 0.000000 0.000000 0.000000
# 2 -0.002984 0.009778 -0.002989 0.000000 0.000000 0.000000
# 3 -0.002391 -0.002989 0.007253 0.000000 0.000000 0.000000
# 4 0.000000 0.000000 0.000000 -0.010533 0.000000 0.000000
# 5 0.000000 0.000000 0.000000 0.000000 0.017633 0.000000
# 6 0.000000 0.000000 0.000000 0.000000 0.000000 0.023104
#
#
# Mechanical properties :
#
#
# Convention : Reuss Voigt Hill
#
# Bulk Modulus (GPa) = 104.50914 107.27719 105.89316
# Shear Modulus (GPa) = 65.42866 18.72268 42.07567
#
# Velocity S-wave (km/s) = 4.84925 2.59403 3.88872
# Velocity P-wave (km/s) = 8.30148 6.89403 7.63028
#
# Compressibility (1/GPa) = 0.00956854
#
# Stress axis : x y z
#
# Youngs Moduli (GPa) = 107.92128 102.26881 137.87543
#
# Poissons Ratio (x) = 0.30515 0.32972
# Poissons Ratio (y) = 0.32202 0.41212
# Poissons Ratio (z) = 0.25808 0.30569
#
# Static dielectric constant tensor:
#      x y z
#    x 2.251080 0.000000 0.000000 
#    y 0.000000 3.122290 0.000000 
#    z 0.000000 0.000000 2.275260 
# 
# From -- ./inp_files/1275.got.cif
#   From: 2010.05.17/outbox.cif.g08.bks.cpg/sg34_1_cif.got.tgz:1275.got - 2010.06.03 17:23:11.
