data_PCOD9347012
_publ_section_title
;
Structure prediction by ZEFSAII (Michael W. Deem and Ramdas Pophale) SiO2 
 PCOD9347012
Probable space group: P N A 21
;
_chemical_formula_sum "Si O2"
_cell_formula_units_Z 16
_cell_length_a 10.206954
_cell_length_b 7.244596
_cell_length_c 9.084323
_cell_angle_alpha 90.000000
_cell_angle_beta 90.000000
_cell_angle_gamma 90.000000
_cell_volume 671.742609
_symmetry_space_group_name_H-M "P N A 21"
_symmetry_group_IT_number 33
_symmetry_cell_setting 'orthorhombic'
loop_
_space_group_symop_operation_xyz
x,y,z
-x,-y,1/2+z
1/2-x,1/2+y,1/2+z
1/2+x,1/2-y,z
loop_
_atom_site_type_symbol
_atom_site_label
_atom_site_fract_x
_atom_site_fract_y
_atom_site_fract_z
Si Si1 0.922754 0.584231 0.452850
Si Si2 0.234420 0.180475 0.392318
Si Si3 0.434145 0.780208 0.128251
Si Si4 0.027718 0.852360 0.700381
O O1 0.770395 0.530232 0.439645
O O2 0.955813 0.624501 0.284865
O O3 0.983027 0.737522 0.557050
O O4 0.972324 0.392232 0.520335
O O5 0.455710 0.564975 0.156135
O O6 0.097175 0.167678 0.307471
O O7 0.341461 0.272951 0.282086
O O8 0.294700 0.794871 0.042489
#
# Coordination Sequence:
#
# PCOD9347012 Si02
#       4
#     4   4   4   4
#     4  12  27  49  79 117 159 207 272 333 398 494
#     4  12  26  53  78 120 164 212 272 335 412 495
#     4  12  27  50  79 114 160 211 268 335 406 479
#     4  12  28  54  82 117 163 216 268 341 416 484
#
# _framework density 23.818646999999999
#
# number of rings (size 3 to 8) (size 9 to 14) (size 15 to 20)
#    0.000    0.000    5.000    3.000    3.500    0.000 
#    4.500    0.000    0.000    0.000    0.000    0.000 
#    0.000    0.000    0.000    0.000    0.000    0.000 
#
# Total GULP energy -89337.316369 kJ/mol
# GULP energy per Si atom -5583.582273 kJ/mol
# Density = 2.376443 g / cm^3
# Si number density = 23.818647 Si / 1000 Ang^3
#
#
#
# Elastic Constant Matrix: (Units=GPa)
#
#
# Indices 1 2 3 4 5 6 
#
# 1 132.4700 45.8134 66.1601 0.0000 0.0000 0.0000
# 2 45.8134 107.7753 70.8363 0.0000 0.0000 0.0000
# 3 66.1601 70.8363 212.3424 0.0000 0.0000 0.0000
# 4 0.0000 0.0000 0.0000 43.2211 0.0000 0.0000
# 5 0.0000 0.0000 0.0000 0.0000 33.7824 0.0000
# 6 0.0000 0.0000 0.0000 0.0000 0.0000 28.4390
#
#
#
# Elastic Compliance Matrix: (Units=1/GPa)
#
#
# Indices 1 2 3 4 5 6 
#
# 1 0.009510 -0.002683 -0.002068 0.000000 0.000000 0.000000
# 2 -0.002683 0.012641 -0.003381 0.000000 0.000000 0.000000
# 3 -0.002068 -0.003381 0.006482 0.000000 0.000000 0.000000
# 4 0.000000 0.000000 0.000000 0.023137 0.000000 0.000000
# 5 0.000000 0.000000 0.000000 0.000000 0.029601 0.000000
# 6 0.000000 0.000000 0.000000 0.000000 0.000000 0.035163
#
#
# Mechanical properties :
#
#
# Convention : Reuss Voigt Hill
#
# Bulk Modulus (GPa) = 80.85215 90.91194 85.88205
# Shear Modulus (GPa) = 36.51752 39.07371 37.79562
#
# Velocity S-wave (km/s) = 3.91979 4.05466 3.98780
# Velocity P-wave (km/s) = 7.38275 7.75704 7.57220
#
# Compressibility (1/GPa) = 0.01236825
#
# Stress axis : x y z
#
# Youngs Moduli (GPa) = 105.15694 79.10507 154.28399
#
# Poissons Ratio (x) = 0.21226 0.31903
# Poissons Ratio (y) = 0.28217 0.52165
# Poissons Ratio (z) = 0.21744 0.26746
#
# Static dielectric constant tensor:
#      x y z
#    x 2.127310 0.000000 0.000000 
#    y 0.000000 1.917930 0.000000 
#    z 0.000000 0.000000 1.960940 
# 
# From -- ./inp_files/2953.got.cif
#   From: 2010.05.17/outbox.cif.g08.bks.cpg/sg33_2_cif.got.tgz:2953.got - 2010.06.03 17:15:25.
