data_PCOD9347677
_publ_section_title
;
Structure prediction by ZEFSAII (Michael W. Deem and Ramdas Pophale) SiO2 
 PCOD9347677
Probable space group: P N N 2
;
_chemical_formula_sum "Si O2"
_cell_formula_units_Z 26
_cell_length_a 7.516553
_cell_length_b 14.600460
_cell_length_c 12.740983
_cell_angle_alpha 90.000000
_cell_angle_beta 90.000000
_cell_angle_gamma 90.000000
_cell_volume 1398.260854
_symmetry_space_group_name_H-M "P N N 2"
_symmetry_group_IT_number 34
_symmetry_cell_setting 'orthorhombic'
loop_
_space_group_symop_operation_xyz
x,y,z
-x,-y,z
1/2-x,1/2+y,1/2+z
1/2+x,1/2-y,1/2+z
loop_
_atom_site_type_symbol
_atom_site_label
_atom_site_fract_x
_atom_site_fract_y
_atom_site_fract_z
Si Si1 0.061783 0.817424 0.478390
Si Si2 0.209775 0.010211 0.986036
Si Si3 0.000000 0.000000 0.351235
Si Si4 0.837866 0.434458 0.713825
Si Si5 0.458626 0.275958 0.216724
Si Si6 0.675717 0.172411 0.882206
Si Si7 0.207065 0.672546 0.332921
O O1 0.086181 0.815338 0.602490
O O2 0.206665 0.752620 0.421220
O O3 0.878109 0.762698 0.448705
O O4 0.061265 0.915813 0.424353
O O5 0.236014 0.079373 0.889342
O O6 0.301336 0.913906 0.957921
O O7 0.294711 0.049219 0.091577
O O8 0.000000 0.000000 0.003591
O O9 0.161849 0.038615 0.279783
O O10 0.902508 0.330105 0.723133
O O11 0.000000 0.500000 0.745942
O O12 0.348091 0.321416 0.310913
O O13 0.664690 0.295812 0.241077
O O14 0.501941 0.162152 0.807894
#
# Coordination Sequence:
#
# PCOD9347677 Si02
#       7
#     4   4   2   4   4   4   4
#     4  10  24  42  63  94 137 168 214 277 320 395
#     4  12  21  39  70  99 128 169 223 279 321 378
#     4  12  24  44  60  96 138 170 216 272 330 402
#     4  12  23  40  69  95 127 177 228 268 329 384
#     4  12  22  43  66  95 129 179 214 270 337 386
#     4  10  23  42  63  95 131 165 216 278 314 384
#     4  10  22  42  61  96 130 163 219 272 318 387
#
# _framework density 18.594528
#
# number of rings (size 3 to 8) (size 9 to 14) (size 15 to 20)
#    0.923    0.000    5.385    3.231    0.000    1.231 
#    5.538    0.000    0.000    0.000    0.000    0.000 
#    0.000    0.000    0.000    0.000    0.000    0.000 
#
# Total GULP energy -145024.416541 kJ/mol
# GULP energy per Si atom -5577.862175 kJ/mol
# Density = 1.855221 g / cm^3
# Si number density = 18.594528 Si / 1000 Ang^3
#
#
#
# Elastic Constant Matrix: (Units=GPa)
#
#
# Indices 1 2 3 4 5 6 
#
# 1 66.0052 3.2669 -14.3697 0.0000 0.0000 0.0000
# 2 3.2669 89.4940 19.5643 0.0000 0.0000 0.0000
# 3 -14.3697 19.5643 50.3071 0.0000 0.0000 0.0000
# 4 0.0000 0.0000 0.0000 24.8282 0.0000 0.0000
# 5 0.0000 0.0000 0.0000 0.0000 16.1547 0.0000
# 6 0.0000 0.0000 0.0000 0.0000 0.0000 29.1614
#
#
#
# Elastic Compliance Matrix: (Units=1/GPa)
#
#
# Indices 1 2 3 4 5 6 
#
# 1 0.016409 -0.001774 0.005377 0.000000 0.000000 0.000000
# 2 -0.001774 0.012404 -0.005331 0.000000 0.000000 0.000000
# 3 0.005377 -0.005331 0.023487 0.000000 0.000000 0.000000
# 4 0.000000 0.000000 0.000000 0.040277 0.000000 0.000000
# 5 0.000000 0.000000 0.000000 0.000000 0.061902 0.000000
# 6 0.000000 0.000000 0.000000 0.000000 0.000000 0.034292
#
#
# Mechanical properties :
#
#
# Convention : Reuss Voigt Hill
#
# Bulk Modulus (GPa) = 20.47359 24.74772 22.61066
# Shear Modulus (GPa) = 23.97995 27.18517 25.58256
#
# Velocity S-wave (km/s) = 3.59503 3.82776 3.71322
# Velocity P-wave (km/s) = 5.31665 5.73356 5.52903
#
# Compressibility (1/GPa) = 0.04884340
#
# Stress axis : x y z
#
# Youngs Moduli (GPa) = 60.94305 80.61866 42.57685
#
# Poissons Ratio (x) = 0.14306 -0.22894
# Poissons Ratio (y) = 0.10814 0.22697
# Poissons Ratio (z) = -0.32769 0.42976
#
# Static dielectric constant tensor:
#      x y z
#    x 1.659800 0.000000 0.000000 
#    y 0.000000 1.638010 0.000000 
#    z 0.000000 0.000000 1.603620 
# 
# From -- ./inp_files/5025.got.cif
#   From: 2010.05.17/outbox.cif.g08.bks.cpg/sg34_3_cif.got.tgz:5025.got - 2010.06.03 17:23:11.
