data_PCOD9347178
_publ_section_title
;
Structure prediction by ZEFSAII (Michael W. Deem and Ramdas Pophale) SiO2 
 PCOD9347178
Probable space group: P N N 2
;
_chemical_formula_sum "Si O2"
_cell_formula_units_Z 32
_cell_length_a 14.525422
_cell_length_b 10.827865
_cell_length_c 8.487686
_cell_angle_alpha 90.000000
_cell_angle_beta 90.000000
_cell_angle_gamma 90.000000
_cell_volume 1334.937385
_symmetry_space_group_name_H-M "P N N 2"
_symmetry_group_IT_number 34
_symmetry_cell_setting 'orthorhombic'
loop_
_space_group_symop_operation_xyz
x,y,z
-x,-y,z
1/2-x,1/2+y,1/2+z
1/2+x,1/2-y,1/2+z
loop_
_atom_site_type_symbol
_atom_site_label
_atom_site_fract_x
_atom_site_fract_y
_atom_site_fract_z
Si Si1 0.902713 0.509147 0.835490
Si Si2 0.088670 0.088898 0.466118
Si Si3 0.105010 0.220794 0.749723
Si Si4 0.103700 0.535240 0.197701
Si Si5 0.791613 0.105843 0.667149
Si Si6 0.805370 0.242503 0.349990
Si Si7 0.410333 0.483928 0.427176
Si Si8 0.205546 0.025993 0.205405
O O1 0.904587 0.657692 0.854439
O O2 0.813244 0.469021 0.740858
O O3 0.000000 0.500000 0.749618
O O4 0.898484 0.445471 0.006191
O O5 0.072038 0.211959 0.569547
O O6 0.143675 0.118090 0.307577
O O7 0.161759 0.007127 0.568313
O O8 0.000000 0.000000 0.448818
O O9 0.214361 0.208839 0.762021
O O10 0.057191 0.100641 0.821304
O O11 0.189102 0.438095 0.216299
O O12 0.122243 0.655902 0.301344
O O13 0.000000 0.500000 0.237043
O O14 0.791494 0.214014 0.535888
O O15 0.861945 0.118920 0.815212
O O16 0.824837 0.110569 0.267659
O O17 0.500000 0.500000 0.541864
O O18 0.323178 0.529778 0.526694
#
# Coordination Sequence:
#
# PCOD9347178 Si02
#       8
#     4   4   4   4   4   4   4   4
#     4  10  21  40  66  94 135 184 225 275 355 431
#     4  10  18  35  64  93 124 170 228 285 336 404
#     4  10  18  37  65  89 126 176 222 271 348 415
#     4  11  20  37  69  99 136 184 230 280 346 428
#     4  10  19  39  64  91 131 177 227 281 347 410
#     4  10  19  39  66  90 130 181 219 273 352 420
#     4  11  23  39  66  95 129 171 237 296 340 412
#     4  10  21  40  63  99 136 167 228 297 341 410
#
# _framework density 23.971160999999999
#
# number of rings (size 3 to 8) (size 9 to 14) (size 15 to 20)
#    0.000    1.750    6.250    1.875    0.000    2.000 
#    0.000    9.375   16.500    0.000    0.000    0.000 
#    0.000    0.000    0.000    0.000    0.000    0.000 
#
# Total GULP energy -178144.391391 kJ/mol
# GULP energy per Si atom -5567.012231 kJ/mol
# Density = 2.391660 g / cm^3
# Si number density = 23.971161 Si / 1000 Ang^3
#
#
#
# Elastic Constant Matrix: (Units=GPa)
#
#
# Indices 1 2 3 4 5 6 
#
# 1 172.9735 15.9944 23.4700 0.0000 0.0000 0.0000
# 2 15.9944 42.6289 21.7842 0.0000 0.0000 0.0000
# 3 23.4700 21.7842 77.2879 0.0000 0.0000 0.0000
# 4 0.0000 0.0000 0.0000 24.8854 0.0000 0.0000
# 5 0.0000 0.0000 0.0000 0.0000 18.5433 0.0000
# 6 0.0000 0.0000 0.0000 0.0000 0.0000 23.1130
#
#
#
# Elastic Compliance Matrix: (Units=1/GPa)
#
#
# Indices 1 2 3 4 5 6 
#
# 1 0.006119 -0.001573 -0.001415 0.000000 0.000000 0.000000
# 2 -0.001573 0.027810 -0.007361 0.000000 0.000000 0.000000
# 3 -0.001415 -0.007361 0.015443 0.000000 0.000000 0.000000
# 4 0.000000 0.000000 0.000000 0.040184 0.000000 0.000000
# 5 0.000000 0.000000 0.000000 0.000000 0.053928 0.000000
# 6 0.000000 0.000000 0.000000 0.000000 0.000000 0.043266
#
#
# Mechanical properties :
#
#
# Convention : Reuss Voigt Hill
#
# Bulk Modulus (GPa) = 34.87382 46.15416 40.51399
# Shear Modulus (GPa) = 23.04103 28.75111 25.89607
#
# Velocity S-wave (km/s) = 3.10368 3.46700 3.29036
# Velocity P-wave (km/s) = 5.23676 5.94328 5.60117
#
# Compressibility (1/GPa) = 0.02867481
#
# Stress axis : x y z
#
# Youngs Moduli (GPa) = 163.43554 35.95847 64.75444
#
# Poissons Ratio (x) = 0.05655 0.09161
# Poissons Ratio (y) = 0.25704 0.47665
# Poissons Ratio (z) = 0.23122 0.26468
#
# Static dielectric constant tensor:
#      x y z
#    x 2.582140 0.000000 0.000000 
#    y 0.000000 2.101350 0.000000 
#    z 0.000000 0.000000 2.062800 
# 
# From -- ./inp_files/3675.got.cif
#   From: 2010.05.17/outbox.cif.g08.bks.cpg/sg34_2_cif.got.tgz:3675.got - 2010.06.03 17:23:11.
