data_PCOD9347530
_publ_section_title
;
Structure prediction by ZEFSAII (Michael W. Deem and Ramdas Pophale) SiO2 
 PCOD9347530
Probable space group: P N N 2
;
_chemical_formula_sum "Si O2"
_cell_formula_units_Z 30
_cell_length_a 12.310412
_cell_length_b 18.855211
_cell_length_c 5.214930
_cell_angle_alpha 90.000000
_cell_angle_beta 90.000000
_cell_angle_gamma 90.000000
_cell_volume 1210.465645
_symmetry_space_group_name_H-M "P N N 2"
_symmetry_group_IT_number 34
_symmetry_cell_setting 'orthorhombic'
loop_
_space_group_symop_operation_xyz
x,y,z
-x,-y,z
1/2-x,1/2+y,1/2+z
1/2+x,1/2-y,1/2+z
loop_
_atom_site_type_symbol
_atom_site_label
_atom_site_fract_x
_atom_site_fract_y
_atom_site_fract_z
Si Si1 0.586897 0.858213 0.132810
Si Si2 0.518335 0.389888 0.693782
Si Si3 0.206602 0.701088 0.136354
Si Si4 0.448525 0.736055 0.026273
Si Si5 0.635505 0.667915 0.336007
Si Si6 0.500000 0.000000 0.957482
Si Si7 0.672953 0.513421 0.813355
Si Si8 0.710733 0.055185 0.791866
O O1 0.650627 0.838955 0.394052
O O2 0.469481 0.819213 0.074497
O O3 0.563813 0.941537 0.119766
O O4 0.660535 0.833941 0.891899
O O5 0.453797 0.389169 0.428068
O O6 0.620722 0.440415 0.715941
O O7 0.425289 0.430051 0.860309
O O8 0.548989 0.308806 0.761455
O O9 0.337201 0.706853 0.145296
O O10 0.170068 0.782197 0.073345
O O11 0.563596 0.712697 0.145824
O O12 0.743602 0.633118 0.226078
O O13 0.584472 0.042538 0.783908
O O14 0.747285 0.542356 0.582153
O O15 0.733359 0.505004 0.081899
#
# Coordination Sequence:
#
# PCOD9347530 Si02
#       8
#     4   4   4   4   4   2   4   4
#     4  11  28  49  67 108 139 191 235 288 355 424
#     4  10  21  38  67 101 139 174 221 285 359 405
#     4  11  26  43  73 102 137 176 242 293 350 418
#     4  11  23  43  75 100 142 177 237 293 358 403
#     4  10  22  45  68 103 141 183 230 293 357 419
#     4  12  30  50  72  96 148 194 238 282 352 440
#     4  10  24  39  65 103 140 175 226 284 346 420
#     4  11  25  44  67  98 138 186 231 279 348 414
#
# _framework density 24.783849
#
# number of rings (size 3 to 8) (size 9 to 14) (size 15 to 20)
#    0.000    1.333    2.667    0.800    7.467    3.200 
#    0.000    1.333    0.000    0.000    0.000    0.000 
#    0.000    0.000    0.000    0.000    0.000    0.000 
#
# Total GULP energy -167482.531019 kJ/mol
# GULP energy per Si atom -5582.751034 kJ/mol
# Density = 2.472744 g / cm^3
# Si number density = 24.783849 Si / 1000 Ang^3
#
#
#
# Elastic Constant Matrix: (Units=GPa)
#
#
# Indices 1 2 3 4 5 6 
#
# 1 112.9979 23.9767 28.3975 0.0000 0.0000 0.0000
# 2 23.9767 90.7980 10.3690 0.0000 0.0000 0.0000
# 3 28.3975 10.3690 99.4751 0.0000 0.0000 0.0000
# 4 0.0000 0.0000 0.0000 19.1449 0.0000 0.0000
# 5 0.0000 0.0000 0.0000 0.0000 12.3636 0.0000
# 6 0.0000 0.0000 0.0000 0.0000 0.0000 33.1357
#
#
#
# Elastic Compliance Matrix: (Units=1/GPa)
#
#
# Indices 1 2 3 4 5 6 
#
# 1 0.010003 -0.002343 -0.002611 0.000000 0.000000 0.000000
# 2 -0.002343 0.011695 -0.000550 0.000000 0.000000 0.000000
# 3 -0.002611 -0.000550 0.010856 0.000000 0.000000 0.000000
# 4 0.000000 0.000000 0.000000 0.052233 0.000000 0.000000
# 5 0.000000 0.000000 0.000000 0.000000 0.080882 0.000000
# 6 0.000000 0.000000 0.000000 0.000000 0.000000 0.030179
#
#
# Mechanical properties :
#
#
# Convention : Reuss Voigt Hill
#
# Bulk Modulus (GPa) = 46.41607 47.63973 47.02790
# Shear Modulus (GPa) = 23.36019 28.96403 26.16211
#
# Velocity S-wave (km/s) = 3.07344 3.42228 3.25254
# Velocity P-wave (km/s) = 5.60033 5.90592 5.75515
#
# Compressibility (1/GPa) = 0.02154426
#
# Stress axis : x y z
#
# Youngs Moduli (GPa) = 99.96790 85.50612 92.11840
#
# Poissons Ratio (x) = 0.20037 0.24056
# Poissons Ratio (y) = 0.23425 0.05068
# Poissons Ratio (z) = 0.26106 0.04704
#
# Static dielectric constant tensor:
#      x y z
#    x 1.984960 0.000000 0.000000 
#    y 0.000000 2.164600 0.000000 
#    z 0.000000 0.000000 1.977540 
# 
# From -- ./inp_files/1028.got.cif
#   From: 2010.05.17/outbox.cif.g08.bks.cpg/sg34_1_cif.got.tgz:1028.got - 2010.06.03 17:23:11.
