data_PCOD9347847
_publ_section_title
;
Structure prediction by ZEFSAII (Michael W. Deem and Ramdas Pophale) SiO2 
 PCOD9347847
Probable space group: P N N 2
;
_chemical_formula_sum "Si O2"
_cell_formula_units_Z 24
_cell_length_a 4.797741
_cell_length_b 21.793557
_cell_length_c 8.654861
_cell_angle_alpha 90.000000
_cell_angle_beta 90.000000
_cell_angle_gamma 90.000000
_cell_volume 904.950898
_symmetry_space_group_name_H-M "P N N 2"
_symmetry_group_IT_number 34
_symmetry_cell_setting 'orthorhombic'
loop_
_space_group_symop_operation_xyz
x,y,z
-x,-y,z
1/2-x,1/2+y,1/2+z
1/2+x,1/2-y,1/2+z
loop_
_atom_site_type_symbol
_atom_site_label
_atom_site_fract_x
_atom_site_fract_y
_atom_site_fract_z
Si Si1 0.823086 0.625986 0.334120
Si Si2 0.842756 0.934346 0.974056
Si Si3 0.963512 0.749546 0.500626
Si Si4 0.462279 0.426879 0.808885
Si Si5 0.764323 0.858873 0.577486
Si Si6 0.564015 0.185943 0.311587
O O1 0.018740 0.578012 0.437370
O O2 0.512364 0.599135 0.336432
O O3 0.812751 0.691978 0.411440
O O4 0.002717 0.625596 0.178213
O O5 0.909930 0.907500 0.143547
O O6 0.000000 0.000000 0.973702
O O7 0.993533 0.810416 0.622968
O O8 0.048899 0.703466 0.646595
O O9 0.185384 0.771259 0.368249
O O10 0.500000 0.500000 0.803368
O O11 0.619968 0.410314 0.967051
O O12 0.181830 0.384771 0.817662
O O13 0.667412 0.805394 0.446849
#
# Coordination Sequence:
#
# PCOD9347847 Si02
#       6
#     4   4   4   4   4   4
#     4  12  26  46  74 106 146 190 239 307 368 435
#     4  11  26  49  75 104 141 194 250 301 364 437
#     4  11  24  41  66 103 142 187 237 298 363 441
#     4  10  24  47  71 100 141 194 248 300 360 442
#     4  11  27  42  68 106 143 191 237 303 372 429
#     4  11  24  43  66 101 139 189 239 300 366 436
#
# _framework density 26.520779000000001
#
# number of rings (size 3 to 8) (size 9 to 14) (size 15 to 20)
#    0.000    1.000    3.333    1.500    9.333    1.333 
#    3.000    0.000    0.000    0.000    0.000    0.000 
#    0.000    0.000    0.000    0.000    0.000    0.000 
#
# Total GULP energy -133682.556533 kJ/mol
# GULP energy per Si atom -5570.106522 kJ/mol
# Density = 2.646042 g / cm^3
# Si number density = 26.520779 Si / 1000 Ang^3
#
#
#
# Elastic Constant Matrix: (Units=GPa)
#
#
# Indices 1 2 3 4 5 6 
#
# 1 101.9756 19.4166 -27.8604 0.0000 0.0000 0.0000
# 2 19.4166 164.3306 5.9064 0.0000 0.0000 0.0000
# 3 -27.8604 5.9064 72.7953 0.0000 0.0000 0.0000
# 4 0.0000 0.0000 0.0000 36.6724 0.0000 0.0000
# 5 0.0000 0.0000 0.0000 0.0000 -0.6465 0.0000
# 6 0.0000 0.0000 0.0000 0.0000 0.0000 19.7560
#
#
#
# Elastic Compliance Matrix: (Units=1/GPa)
#
#
# Indices 1 2 3 4 5 6 
#
# 1 0.011306 -0.001496 0.004449 0.000000 0.000000 0.000000
# 2 -0.001496 0.006301 -0.001084 0.000000 0.000000 0.000000
# 3 0.004449 -0.001084 0.015528 0.000000 0.000000 0.000000
# 4 0.000000 0.000000 0.000000 0.027268 0.000000 0.000000
# 5 0.000000 0.000000 0.000000 0.000000 -1.546787 0.000000
# 6 0.000000 0.000000 0.000000 0.000000 0.000000 0.050617
#
#
# Mechanical properties :
#
#
# Convention : Reuss Voigt Hill
#
# Bulk Modulus (GPa) = 27.11995 37.11408 32.11702
# Shear Modulus (GPa) = -3.50333 33.93231 15.21449
#
# Velocity S-wave (km/s) = -1.15058 3.58084 2.39776
# Velocity P-wave (km/s) = 2.91256 5.57864 4.44996
#
# Compressibility (1/GPa) = 0.03687323
#
# Stress axis : x y z
#
# Youngs Moduli (GPa) = 88.44495 158.70538 64.40123
#
# Poissons Ratio (x) = 0.23739 -0.28650
# Poissons Ratio (y) = 0.13230 0.06979
# Poissons Ratio (z) = -0.39346 0.17199
#
# Static dielectric constant tensor:
#      x y z
#    x 2.142420 0.000000 0.000000 
#    y 0.000000 2.262660 0.000000 
#    z 0.000000 0.000000 2.234300 
# 
# From -- ./inp_files/2108.got.cif
#   From: 2010.05.17/outbox.cif.g08.bks.cpg/sg34_2_cif.got.tgz:2108.got - 2010.06.03 17:23:11.
