data_PCOD9347339
_publ_section_title
;
Structure prediction by ZEFSAII (Michael W. Deem and Ramdas Pophale) SiO2 
 PCOD9347339
Probable space group: P N N 2
;
_chemical_formula_sum "Si O2"
_cell_formula_units_Z 22
_cell_length_a 12.010291
_cell_length_b 8.990024
_cell_length_c 7.377151
_cell_angle_alpha 90.000000
_cell_angle_beta 90.000000
_cell_angle_gamma 90.000000
_cell_volume 796.531681
_symmetry_space_group_name_H-M "P N N 2"
_symmetry_group_IT_number 34
_symmetry_cell_setting 'orthorhombic'
loop_
_space_group_symop_operation_xyz
x,y,z
-x,-y,z
1/2-x,1/2+y,1/2+z
1/2+x,1/2-y,1/2+z
loop_
_atom_site_type_symbol
_atom_site_label
_atom_site_fract_x
_atom_site_fract_y
_atom_site_fract_z
Si Si1 0.179507 0.551886 0.902960
Si Si2 0.379496 0.315571 0.621484
Si Si3 0.835822 0.794599 0.909352
Si Si4 0.415500 0.700458 0.820665
Si Si5 0.660246 0.017308 0.024523
Si Si6 0.500000 0.500000 0.319199
O O1 0.305932 0.615161 0.894784
O O2 0.119674 0.568625 0.705221
O O3 0.115840 0.646586 0.053860
O O4 0.178121 0.379125 0.941290
O O5 0.453292 0.344486 0.801866
O O6 0.253165 0.374489 0.621984
O O7 0.416880 0.404415 0.441146
O O8 0.891437 0.824110 0.106446
O O9 0.723428 0.891628 0.908050
O O10 0.917778 0.866441 0.754785
O O11 0.409295 0.866717 0.904771
#
# Coordination Sequence:
#
# PCOD9347339 Si02
#       6
#     4   4   4   4   4   2
#     4  10  20  34  60  93 124 163 212 263 318 391
#     4   9  18  36  61  90 125 166 212 260 324 394
#     4   9  18  34  58  88 122 163 205 255 322 381
#     4   9  19  36  60  89 122 170 214 258 325 386
#     4   9  19  36  59  92 129 162 212 270 319 382
#     4   8  16  32  56  80 112 156 202 248 304 376
#
# _framework density 27.619741999999999
#
# number of rings (size 3 to 8) (size 9 to 14) (size 15 to 20)
#    0.000    2.909    0.000    1.091    0.000    5.818 
#    0.000    7.273    0.000   43.636    0.000    7.636 
#    0.000    0.000    0.000    0.000    0.000    0.000 
#
# Total GULP energy -122486.316086 kJ/mol
# GULP energy per Si atom -5567.559822 kJ/mol
# Density = 2.755688 g / cm^3
# Si number density = 27.619742 Si / 1000 Ang^3
#
#
#
# Elastic Constant Matrix: (Units=GPa)
#
#
# Indices 1 2 3 4 5 6 
#
# 1 84.1252 26.3665 7.3644 0.0000 0.0000 0.0000
# 2 26.3665 190.8823 7.9393 0.0000 0.0000 0.0000
# 3 7.3644 7.9393 43.5351 0.0000 0.0000 0.0000
# 4 0.0000 0.0000 0.0000 30.8334 0.0000 0.0000
# 5 0.0000 0.0000 0.0000 0.0000 18.6605 0.0000
# 6 0.0000 0.0000 0.0000 0.0000 0.0000 28.1171
#
#
#
# Elastic Compliance Matrix: (Units=1/GPa)
#
#
# Indices 1 2 3 4 5 6 
#
# 1 0.012567 -0.001660 -0.001823 0.000000 0.000000 0.000000
# 2 -0.001660 0.005498 -0.000722 0.000000 0.000000 0.000000
# 3 -0.001823 -0.000722 0.023410 0.000000 0.000000 0.000000
# 4 0.000000 0.000000 0.000000 0.032432 0.000000 0.000000
# 5 0.000000 0.000000 0.000000 0.000000 0.053589 0.000000
# 6 0.000000 0.000000 0.000000 0.000000 0.000000 0.035566
#
#
# Mechanical properties :
#
#
# Convention : Reuss Voigt Hill
#
# Bulk Modulus (GPa) = 30.24338 44.65368 37.44853
# Shear Modulus (GPa) = 27.39820 33.98036 30.68928
#
# Velocity S-wave (km/s) = 3.15299 3.51136 3.33699
# Velocity P-wave (km/s) = 4.92227 5.71331 5.33248
#
# Compressibility (1/GPa) = 0.03306509
#
# Stress axis : x y z
#
# Youngs Moduli (GPa) = 79.57397 181.87914 42.71681
#
# Poissons Ratio (x) = 0.30193 0.07788
# Poissons Ratio (y) = 0.13210 0.03084
# Poissons Ratio (z) = 0.14507 0.13129
#
# Static dielectric constant tensor:
#      x y z
#    x 2.475510 0.000000 0.000000 
#    y 0.000000 2.495560 0.000000 
#    z 0.000000 0.000000 2.286220 
# 
# From -- ./inp_files/3539.got.cif
#   From: 2010.05.17/outbox.cif.g08.bks.cpg/sg34_2_cif.got.tgz:3539.got - 2010.06.03 17:23:11.
