data_PCOD9347239
_publ_section_title
;
Structure prediction by ZEFSAII (Michael W. Deem and Ramdas Pophale) SiO2 
 PCOD9347239
Probable space group: P N N 2
;
_chemical_formula_sum "Si O2"
_cell_formula_units_Z 28
_cell_length_a 19.982804
_cell_length_b 7.170323
_cell_length_c 9.282142
_cell_angle_alpha 90.000000
_cell_angle_beta 90.000000
_cell_angle_gamma 90.000000
_cell_volume 1329.974629
_symmetry_space_group_name_H-M "P N N 2"
_symmetry_group_IT_number 34
_symmetry_cell_setting 'orthorhombic'
loop_
_space_group_symop_operation_xyz
x,y,z
-x,-y,z
1/2-x,1/2+y,1/2+z
1/2+x,1/2-y,1/2+z
loop_
_atom_site_type_symbol
_atom_site_label
_atom_site_fract_x
_atom_site_fract_y
_atom_site_fract_z
Si Si1 0.151845 0.771566 0.372700
Si Si2 0.922458 0.544817 0.517124
Si Si3 0.075723 0.020314 0.577667
Si Si4 0.298956 0.507016 0.617005
Si Si5 0.660057 0.026702 0.280422
Si Si6 0.284141 0.905604 0.556854
Si Si7 0.186507 0.035418 0.791279
O O1 0.127210 0.561819 0.406424
O O2 0.162540 0.859265 0.215448
O O3 0.220089 0.826837 0.461350
O O4 0.092224 0.889749 0.444063
O O5 0.910744 0.767224 0.526798
O O6 0.902240 0.477799 0.679661
O O7 0.000000 0.500000 0.487373
O O8 0.124906 0.950607 0.703884
O O9 0.000000 0.000000 0.624702
O O10 0.225001 0.522539 0.685723
O O11 0.322371 0.723904 0.617792
O O12 0.299122 0.457537 0.448485
O O13 0.672444 0.971051 0.446044
O O14 0.663839 0.250419 0.299650
O O15 0.250385 0.015819 0.687655
#
# Coordination Sequence:
#
# PCOD9347239 Si02
#       7
#     4   4   4   4   4   4   4
#     4  10  20  36  56  86 114 156 195 245 298 352
#     4  11  20  35  62  86 118 158 203 252 289 361
#     4  10  20  37  58  85 112 156 209 241 297 361
#     4  10  19  35  56  84 121 148 191 245 300 350
#     4   9  19  34  53  86 117 147 193 241 297 354
#     4   9  18  35  57  81 119 148 188 237 303 356
#     4   9  20  34  56  86 113 157 190 242 300 353
#
# _framework density 21.053032000000002
#
# number of rings (size 3 to 8) (size 9 to 14) (size 15 to 20)
#    0.000    2.286    2.857    0.000    0.000    4.571 
#    0.000    0.714    0.000    0.000    0.000    0.000 
#    0.000    0.000    0.000    0.000    0.000    0.000 
#
# Total GULP energy -156075.047970 kJ/mol
# GULP energy per Si atom -5574.108856 kJ/mol
# Density = 2.100511 g / cm^3
# Si number density = 21.053032 Si / 1000 Ang^3
#
#
#
# Elastic Constant Matrix: (Units=GPa)
#
#
# Indices 1 2 3 4 5 6 
#
# 1 59.0666 -16.9122 19.5931 0.0000 0.0000 0.0000
# 2 -16.9122 69.3978 6.9869 0.0000 0.0000 0.0000
# 3 19.5931 6.9869 133.8859 0.0000 0.0000 0.0000
# 4 0.0000 0.0000 0.0000 24.5492 0.0000 0.0000
# 5 0.0000 0.0000 0.0000 0.0000 21.5836 0.0000
# 6 0.0000 0.0000 0.0000 0.0000 0.0000 20.6148
#
#
#
# Elastic Compliance Matrix: (Units=1/GPa)
#
#
# Indices 1 2 3 4 5 6 
#
# 1 0.019402 0.005041 -0.003102 0.000000 0.000000 0.000000
# 2 0.005041 0.015795 -0.001562 0.000000 0.000000 0.000000
# 3 -0.003102 -0.001562 0.008005 0.000000 0.000000 0.000000
# 4 0.000000 0.000000 0.000000 0.040734 0.000000 0.000000
# 5 0.000000 0.000000 0.000000 0.000000 0.046332 0.000000
# 6 0.000000 0.000000 0.000000 0.000000 0.000000 0.048509
#
#
# Mechanical properties :
#
#
# Convention : Reuss Voigt Hill
#
# Bulk Modulus (GPa) = 22.75053 31.29843 27.02448
# Shear Modulus (GPa) = 25.95026 30.19502 28.07264
#
# Velocity S-wave (km/s) = 3.51467 3.79124 3.65557
# Velocity P-wave (km/s) = 5.22497 5.83639 5.53912
#
# Compressibility (1/GPa) = 0.04395502
#
# Stress axis : x y z
#
# Youngs Moduli (GPa) = 51.53988 63.30976 124.92852
#
# Poissons Ratio (x) = -0.31913 0.38758
# Poissons Ratio (y) = -0.25980 0.19513
# Poissons Ratio (z) = 0.15990 0.09889
#
# Static dielectric constant tensor:
#      x y z
#    x 1.787880 0.000000 0.000000 
#    y 0.000000 1.887480 0.000000 
#    z 0.000000 0.000000 1.827300 
# 
# From -- ./inp_files/3984.got.cif
#   From: 2010.05.17/outbox.cif.g08.bks.cpg/sg34_2_cif.got.tgz:3984.got - 2010.06.03 17:23:11.
