data_PCOD9347569
_publ_section_title
;
Structure prediction by ZEFSAII (Michael W. Deem and Ramdas Pophale) SiO2 
 PCOD9347569
Probable space group: P N N 2
;
_chemical_formula_sum "Si O2"
_cell_formula_units_Z 32
_cell_length_a 8.329217
_cell_length_b 11.926940
_cell_length_c 13.226733
_cell_angle_alpha 90.000000
_cell_angle_beta 90.000000
_cell_angle_gamma 90.000000
_cell_volume 1313.971054
_symmetry_space_group_name_H-M "P N N 2"
_symmetry_group_IT_number 34
_symmetry_cell_setting 'orthorhombic'
loop_
_space_group_symop_operation_xyz
x,y,z
-x,-y,z
1/2-x,1/2+y,1/2+z
1/2+x,1/2-y,1/2+z
loop_
_atom_site_type_symbol
_atom_site_label
_atom_site_fract_x
_atom_site_fract_y
_atom_site_fract_z
Si Si1 0.105862 0.329742 0.296200
Si Si2 0.391684 0.226851 0.987080
Si Si3 0.694213 0.974418 0.119868
Si Si4 0.822129 0.958697 0.763631
Si Si5 0.685764 0.365430 0.044121
Si Si6 0.334400 0.794158 0.336490
Si Si7 0.376288 0.312329 0.641975
Si Si8 0.185038 0.625151 0.838144
O O1 0.178966 0.453455 0.283621
O O2 0.256735 0.251648 0.319508
O O3 0.995387 0.327788 0.396076
O O4 0.013042 0.257217 0.207118
O O5 0.277541 0.314828 0.931923
O O6 0.293331 0.136814 0.051041
O O7 0.521055 0.295343 0.051651
O O8 0.721658 0.940296 0.235955
O O9 0.500000 0.000000 0.108133
O O10 0.834486 0.064884 0.093494
O O11 0.805587 0.939079 0.643234
O O12 0.826571 0.841333 0.824333
O O13 0.000000 0.000000 0.782796
O O14 0.827700 0.274654 0.056016
O O15 0.714160 0.417243 0.934345
O O16 0.259961 0.823969 0.228614
O O17 0.496048 0.862138 0.351357
#
# Coordination Sequence:
#
# PCOD9347569 Si02
#       8
#     4   4   4   4   4   4   4   4
#     4  10  24  43  68 101 140 179 236 311 358 428
#     4  10  23  40  72  99 138 184 240 299 368 428
#     4  12  22  41  71  94 136 190 235 291 364 436
#     4  11  22  42  70  99 135 185 244 301 368 430
#     4  10  23  43  63  98 138 183 237 295 366 434
#     4  10  21  40  68  98 130 178 235 293 367 426
#     4  10  22  43  66  95 134 178 233 289 363 431
#     4  11  23  44  63  97 140 182 234 300 360 437
#
# _framework density 24.353656999999998
#
# number of rings (size 3 to 8) (size 9 to 14) (size 15 to 20)
#    0.000    1.500    3.750    0.750    1.750    5.500 
#    9.000    0.000    0.000    0.000    0.000    0.000 
#    0.000    0.000    0.000    0.000    0.000    0.000 
#
# Total GULP energy -178486.534835 kJ/mol
# GULP energy per Si atom -5577.704214 kJ/mol
# Density = 2.429823 g / cm^3
# Si number density = 24.353657 Si / 1000 Ang^3
#
#
#
# Elastic Constant Matrix: (Units=GPa)
#
#
# Indices 1 2 3 4 5 6 
#
# 1 52.3273 28.6748 -10.1217 0.0000 0.0000 0.0000
# 2 28.6748 113.6910 17.2013 0.0000 0.0000 0.0000
# 3 -10.1217 17.2013 57.1973 0.0000 0.0000 0.0000
# 4 0.0000 0.0000 0.0000 -4.9806 0.0000 0.0000
# 5 0.0000 0.0000 0.0000 0.0000 8.3485 0.0000
# 6 0.0000 0.0000 0.0000 0.0000 0.0000 32.6719
#
#
#
# Elastic Compliance Matrix: (Units=1/GPa)
#
#
# Indices 1 2 3 4 5 6 
#
# 1 0.024234 -0.007083 0.006419 0.000000 0.000000 0.000000
# 2 -0.007083 0.011285 -0.004647 0.000000 0.000000 0.000000
# 3 0.006419 -0.004647 0.020017 0.000000 0.000000 0.000000
# 4 0.000000 0.000000 0.000000 -0.200777 0.000000 0.000000
# 5 0.000000 0.000000 0.000000 0.000000 0.119782 0.000000
# 6 0.000000 0.000000 0.000000 0.000000 0.000000 0.030607
#
#
# Mechanical properties :
#
#
# Convention : Reuss Voigt Hill
#
# Bulk Modulus (GPa) = 22.26586 32.74713 27.50649
# Shear Modulus (GPa) = 162.64269 19.70537 91.17403
#
# Velocity S-wave (km/s) = 8.18099 2.84761 6.12526
# Velocity P-wave (km/s) = 9.91972 4.92824 7.83225
#
# Compressibility (1/GPa) = 0.04491180
#
# Stress axis : x y z
#
# Youngs Moduli (GPa) = 41.26502 88.60986 49.95794
#
# Poissons Ratio (x) = 0.62765 -0.32066
# Poissons Ratio (y) = 0.29229 0.23217
# Poissons Ratio (z) = -0.26486 0.41180
#
# Static dielectric constant tensor:
#      x y z
#    x 2.039980 0.000000 0.000000 
#    y 0.000000 2.041860 0.000000 
#    z 0.000000 0.000000 1.899530 
# 
# From -- ./inp_files/6580.got.cif
#   From: 2010.05.17/outbox.cif.g08.bks.cpg/sg34_4_cif.got.tgz:6580.got - 2010.06.03 17:23:11.
