data_PCOD9347533
_publ_section_title
;
Structure prediction by ZEFSAII (Michael W. Deem and Ramdas Pophale) SiO2 
 PCOD9347533
Probable space group: P N N 2
;
_chemical_formula_sum "Si O2"
_cell_formula_units_Z 32
_cell_length_a 12.475627
_cell_length_b 8.522973
_cell_length_c 13.086578
_cell_angle_alpha 90.000000
_cell_angle_beta 90.000000
_cell_angle_gamma 90.000000
_cell_volume 1391.488407
_symmetry_space_group_name_H-M "P N N 2"
_symmetry_group_IT_number 34
_symmetry_cell_setting 'orthorhombic'
loop_
_space_group_symop_operation_xyz
x,y,z
-x,-y,z
1/2-x,1/2+y,1/2+z
1/2+x,1/2-y,1/2+z
loop_
_atom_site_type_symbol
_atom_site_label
_atom_site_fract_x
_atom_site_fract_y
_atom_site_fract_z
Si Si1 0.171215 0.020089 0.575450
Si Si2 0.337640 0.484132 0.855285
Si Si3 0.112434 0.965431 0.797610
Si Si4 0.165567 0.607346 0.354413
Si Si5 0.427218 0.623820 0.644385
Si Si6 0.687274 0.856824 0.072594
Si Si7 0.111049 0.586124 0.790086
Si Si8 0.909705 0.405415 0.138168
O O1 0.124779 0.058260 0.463610
O O2 0.291914 0.091796 0.588480
O O3 0.112970 0.046856 0.683532
O O4 0.170520 0.830451 0.572618
O O5 0.348439 0.295825 0.845340
O O6 0.390445 0.567338 0.757632
O O7 0.210227 0.514954 0.851739
O O8 0.119695 0.775957 0.798372
O O9 0.212299 0.048818 0.849120
O O10 0.000000 0.000000 0.847226
O O11 0.136280 0.570954 0.470613
O O12 0.114686 0.530150 0.253218
O O13 0.500000 0.500000 0.587023
O O14 0.316379 0.641319 0.584902
O O15 0.517197 0.755374 0.657009
O O16 0.637665 0.940719 0.170539
O O17 0.000000 0.500000 0.815255
O O18 0.000000 0.500000 0.075916
#
# Coordination Sequence:
#
# PCOD9347533 Si02
#       8
#     4   4   4   4   4   4   4   4
#     4   9  20  39  60  84 113 157 200 243 293 358
#     4  10  21  39  60  85 118 155 199 250 297 354
#     4  10  21  39  59  84 117 156 196 242 293 353
#     4  10  21  39  60  86 119 156 200 250 296 350
#     4  11  21  38  59  90 119 157 198 251 302 358
#     4   9  20  39  60  83 119 153 198 250 292 349
#     4  10  21  39  60  84 119 157 192 241 301 354
#     4  11  21  38  62  86 120 158 201 243 304 361
#
# _framework density 22.996957999999999
#
# number of rings (size 3 to 8) (size 9 to 14) (size 15 to 20)
#    0.000    2.000    2.500    0.750    1.750    2.000 
#    6.750    0.000    0.000    0.000    0.000    0.000 
#    0.000    0.000    0.000    0.000    0.000    0.000 
#
# Total GULP energy -178179.684486 kJ/mol
# GULP energy per Si atom -5568.115140 kJ/mol
# Density = 2.294462 g / cm^3
# Si number density = 22.996958 Si / 1000 Ang^3
#
#
#
# Elastic Constant Matrix: (Units=GPa)
#
#
# Indices 1 2 3 4 5 6 
#
# 1 95.8834 2.3861 -2.6771 0.0000 0.0000 0.0000
# 2 2.3861 23.3323 6.3364 0.0000 0.0000 0.0000
# 3 -2.6771 6.3364 106.4867 0.0000 0.0000 0.0000
# 4 0.0000 0.0000 0.0000 22.5919 0.0000 0.0000
# 5 0.0000 0.0000 0.0000 0.0000 -28.1369 0.0000
# 6 0.0000 0.0000 0.0000 0.0000 0.0000 39.1388
#
#
#
# Elastic Compliance Matrix: (Units=1/GPa)
#
#
# Indices 1 2 3 4 5 6 
#
# 1 0.010467 -0.001161 0.000332 0.000000 0.000000 0.000000
# 2 -0.001161 0.043692 -0.002629 0.000000 0.000000 0.000000
# 3 0.000332 -0.002629 0.009556 0.000000 0.000000 0.000000
# 4 0.000000 0.000000 0.000000 0.044264 0.000000 0.000000
# 5 0.000000 0.000000 0.000000 0.000000 -0.035540 0.000000
# 6 0.000000 0.000000 0.000000 0.000000 0.000000 0.025550
#
#
# Mechanical properties :
#
#
# Convention : Reuss Voigt Hill
#
# Bulk Modulus (GPa) = 17.60569 26.42148 22.01359
# Shear Modulus (GPa) = 40.37589 21.36256 30.86922
#
# Velocity S-wave (km/s) = 4.19466 3.05114 3.66774
# Velocity P-wave (km/s) = 5.57965 4.89149 5.24687
#
# Compressibility (1/GPa) = 0.05679981
#
# Stress axis : x y z
#
# Youngs Moduli (GPa) = 95.53388 22.88765 104.65032
#
# Poissons Ratio (x) = 0.02657 -0.03477
# Poissons Ratio (y) = 0.11089 0.27513
# Poissons Ratio (z) = -0.03174 0.06017
#
# Static dielectric constant tensor:
#      x y z
#    x 1.865130 0.000000 0.000000 
#    y 0.000000 1.674860 0.000000 
#    z 0.000000 0.000000 1.939830 
# 
# From -- ./inp_files/6795.got.cif
#   From: 2010.05.17/outbox.cif.g08.bks.cpg/sg34_4_cif.got.tgz:6795.got - 2010.06.03 17:23:11.
