data_PCOD9347756
_publ_section_title
;
Structure prediction by ZEFSAII (Michael W. Deem and Ramdas Pophale) SiO2 
 PCOD9347756
Probable space group: P N N 2
;
_chemical_formula_sum "Si O2"
_cell_formula_units_Z 24
_cell_length_a 7.762785
_cell_length_b 10.181587
_cell_length_c 14.214284
_cell_angle_alpha 90.000000
_cell_angle_beta 90.000000
_cell_angle_gamma 90.000000
_cell_volume 1123.461057
_symmetry_space_group_name_H-M "P N N 2"
_symmetry_group_IT_number 34
_symmetry_cell_setting 'orthorhombic'
loop_
_space_group_symop_operation_xyz
x,y,z
-x,-y,z
1/2-x,1/2+y,1/2+z
1/2+x,1/2-y,1/2+z
loop_
_atom_site_type_symbol
_atom_site_label
_atom_site_fract_x
_atom_site_fract_y
_atom_site_fract_z
Si Si1 0.223636 0.724818 0.631140
Si Si2 0.632738 0.245805 0.247465
Si Si3 0.186962 0.030561 0.283826
Si Si4 0.196455 0.018051 0.644792
Si Si5 0.352101 0.110380 0.468681
Si Si6 0.568542 0.351114 0.459154
O O1 0.327827 0.620254 0.692355
O O2 0.281650 0.875401 0.649189
O O3 0.207293 0.609318 0.861711
O O4 0.028873 0.723113 0.674940
O O5 0.717723 0.104786 0.261664
O O6 0.590231 0.304318 0.350944
O O7 0.758430 0.356789 0.203271
O O8 0.000000 0.000000 0.322787
O O9 0.236945 0.182375 0.023380
O O10 0.202343 0.063315 0.537209
O O11 0.000000 0.000000 0.677562
O O12 0.424170 0.250986 0.497896
O O13 0.500000 0.000000 0.477583
O O14 0.500000 0.500000 0.464002
#
# Coordination Sequence:
#
# PCOD9347756 Si02
#       6
#     4   4   4   4   4   4
#     4  11  22  42  69 102 135 182 234 289 360 433
#     4  11  24  46  71  99 140 185 233 301 360 432
#     4  12  25  42  69 100 136 181 239 292 361 433
#     4  10  23  40  67  98 133 179 231 283 356 427
#     4  12  22  44  70  92 134 184 227 288 351 423
#     4  12  25  43  71 104 142 186 237 301 364 427
#
# _framework density 21.362556000000001
#
# number of rings (size 3 to 8) (size 9 to 14) (size 15 to 20)
#    0.000    0.667    5.000    3.000    4.667    1.333 
#    0.000    0.000    0.000    0.000    0.000    0.000 
#    0.000    0.000    0.000    0.000    0.000    0.000 
#
# Total GULP energy -133907.771897 kJ/mol
# GULP energy per Si atom -5579.490496 kJ/mol
# Density = 2.131393 g / cm^3
# Si number density = 21.362556 Si / 1000 Ang^3
#
#
#
# Elastic Constant Matrix: (Units=GPa)
#
#
# Indices 1 2 3 4 5 6 
#
# 1 59.9025 34.2571 29.8262 0.0000 0.0000 0.0000
# 2 34.2571 154.0045 49.8606 0.0000 0.0000 0.0000
# 3 29.8262 49.8606 110.8105 0.0000 0.0000 0.0000
# 4 0.0000 0.0000 0.0000 32.1429 0.0000 0.0000
# 5 0.0000 0.0000 0.0000 0.0000 24.5534 0.0000
# 6 0.0000 0.0000 0.0000 0.0000 0.0000 20.9043
#
#
#
# Elastic Compliance Matrix: (Units=1/GPa)
#
#
# Indices 1 2 3 4 5 6 
#
# 1 0.020587 -0.003260 -0.004074 0.000000 0.000000 0.000000
# 2 -0.003260 0.008117 -0.002775 0.000000 0.000000 0.000000
# 3 -0.004074 -0.002775 0.011370 0.000000 0.000000 0.000000
# 4 0.000000 0.000000 0.000000 0.031111 0.000000 0.000000
# 5 0.000000 0.000000 0.000000 0.000000 0.040727 0.000000
# 6 0.000000 0.000000 0.000000 0.000000 0.000000 0.047837
#
#
# Mechanical properties :
#
#
# Convention : Reuss Voigt Hill
#
# Bulk Modulus (GPa) = 50.36563 61.40059 55.88311
# Shear Modulus (GPa) = 26.79730 29.57169 28.18450
#
# Velocity S-wave (km/s) = 3.54560 3.72462 3.63621
# Velocity P-wave (km/s) = 6.35527 6.87762 6.62160
#
# Compressibility (1/GPa) = 0.01985481
#
# Stress axis : x y z
#
# Youngs Moduli (GPa) = 48.57452 123.19974 87.95397
#
# Poissons Ratio (x) = 0.40167 0.35835
# Poissons Ratio (y) = 0.15837 0.24405
# Poissons Ratio (z) = 0.19790 0.34185
#
# Static dielectric constant tensor:
#      x y z
#    x 1.810520 0.000000 0.000000 
#    y 0.000000 1.785810 0.000000 
#    z 0.000000 0.000000 1.776850 
# 
# From -- ./inp_files/6378.got.cif
#   From: 2010.05.17/outbox.cif.g08.bks.cpg/sg34_4_cif.got.tgz:6378.got - 2010.06.03 17:23:11.
