data_PCOD9347634
_publ_section_title
;
Structure prediction by ZEFSAII (Michael W. Deem and Ramdas Pophale) SiO2 
 PCOD9347634
Probable space group: P N N 2
;
_chemical_formula_sum "Si O2"
_cell_formula_units_Z 18
_cell_length_a 20.259546
_cell_length_b 6.892875
_cell_length_c 6.040493
_cell_angle_alpha 90.000000
_cell_angle_beta 90.000000
_cell_angle_gamma 90.000000
_cell_volume 843.533815
_symmetry_space_group_name_H-M "P N N 2"
_symmetry_group_IT_number 34
_symmetry_cell_setting 'orthorhombic'
loop_
_space_group_symop_operation_xyz
x,y,z
-x,-y,z
1/2-x,1/2+y,1/2+z
1/2+x,1/2-y,1/2+z
loop_
_atom_site_type_symbol
_atom_site_label
_atom_site_fract_x
_atom_site_fract_y
_atom_site_fract_z
Si Si1 0.500000 0.500000 0.127120
Si Si2 0.395437 0.722922 0.847052
Si Si3 0.660888 0.876062 0.779072
Si Si4 0.711357 0.545007 0.086468
Si Si5 0.388972 0.441838 0.465471
O O1 0.445698 0.405556 0.287079
O O2 0.459629 0.648923 0.976131
O O3 0.400101 0.643165 0.596002
O O4 0.382455 0.949239 0.871206
O O5 0.331999 0.612556 0.952473
O O6 0.615786 0.724466 0.647833
O O7 0.714194 0.975691 0.616061
O O8 0.700017 0.748135 0.960631
O O9 0.678898 0.556036 0.329085
#
# Coordination Sequence:
#
# PCOD9347634 Si02
#       5
#     2   4   4   4   4
#     4  10  22  44  62  84 126 164 208 262 304 360
#     4  10  22  41  63  89 123 163 207 255 306 365
#     4  11  22  39  65  95 123 159 203 250 310 371
#     4  10  22  38  61  95 128 157 200 253 310 371
#     4  10  22  41  63  88 121 165 206 254 309 362
#
# _framework density 21.338802999999999
#
# number of rings (size 3 to 8) (size 9 to 14) (size 15 to 20)
#    0.000    1.778    0.000    3.333    0.000    8.889 
#    0.000   26.667    0.000    0.000    0.000    0.000 
#    0.000    0.000    0.000    0.000    0.000    0.000 
#
# Total GULP energy -100650.445096 kJ/mol
# GULP energy per Si atom -5591.691394 kJ/mol
# Density = 2.129023 g / cm^3
# Si number density = 21.338803 Si / 1000 Ang^3
#
#
#
# Elastic Constant Matrix: (Units=GPa)
#
#
# Indices 1 2 3 4 5 6 
#
# 1 56.6609 2.6314 -3.2462 0.0000 0.0000 0.0000
# 2 2.6314 103.5032 22.1087 0.0000 0.0000 0.0000
# 3 -3.2462 22.1087 67.2420 0.0000 0.0000 0.0000
# 4 0.0000 0.0000 0.0000 15.2322 0.0000 0.0000
# 5 0.0000 0.0000 0.0000 0.0000 26.2743 0.0000
# 6 0.0000 0.0000 0.0000 0.0000 0.0000 10.9504
#
#
#
# Elastic Compliance Matrix: (Units=1/GPa)
#
#
# Indices 1 2 3 4 5 6 
#
# 1 0.017742 -0.000682 0.001081 0.000000 0.000000 0.000000
# 2 -0.000682 0.010418 -0.003458 0.000000 0.000000 0.000000
# 3 0.001081 -0.003458 0.016061 0.000000 0.000000 0.000000
# 4 0.000000 0.000000 0.000000 0.065651 0.000000 0.000000
# 5 0.000000 0.000000 0.000000 0.000000 0.038060 0.000000
# 6 0.000000 0.000000 0.000000 0.000000 0.000000 0.091321
#
#
# Mechanical properties :
#
#
# Convention : Reuss Voigt Hill
#
# Bulk Modulus (GPa) = 26.24518 30.04377 28.14447
# Shear Modulus (GPa) = 19.37448 24.21886 21.79667
#
# Velocity S-wave (km/s) = 3.01648 3.37258 3.19949
# Velocity P-wave (km/s) = 4.94552 5.41071 5.18334
#
# Compressibility (1/GPa) = 0.03810223
#
# Stress axis : x y z
#
# Youngs Moduli (GPa) = 56.36198 95.99187 62.26316
#
# Poissons Ratio (x) = 0.06546 -0.06729
# Poissons Ratio (y) = 0.03844 0.21532
# Poissons Ratio (z) = -0.06091 0.33195
#
# Static dielectric constant tensor:
#      x y z
#    x 1.775180 0.000000 0.000000 
#    y 0.000000 1.752840 0.000000 
#    z 0.000000 0.000000 1.790930 
# 
# From -- ./inp_files/117.got.cif
#   From: 2010.05.17/outbox.cif.g08.bks.cpg/sg34_1_cif.got.tgz:117.got - 2010.06.03 17:23:11.
