data_PCOD9347144
_publ_section_title
;
Structure prediction by ZEFSAII (Michael W. Deem and Ramdas Pophale) SiO2 
 PCOD9347144
Probable space group: P N N 2
;
_chemical_formula_sum "Si O2"
_cell_formula_units_Z 32
_cell_length_a 11.938364
_cell_length_b 15.160369
_cell_length_c 8.573277
_cell_angle_alpha 90.000000
_cell_angle_beta 90.000000
_cell_angle_gamma 90.000000
_cell_volume 1551.677434
_symmetry_space_group_name_H-M "P N N 2"
_symmetry_group_IT_number 34
_symmetry_cell_setting 'orthorhombic'
loop_
_space_group_symop_operation_xyz
x,y,z
-x,-y,z
1/2-x,1/2+y,1/2+z
1/2+x,1/2-y,1/2+z
loop_
_atom_site_type_symbol
_atom_site_label
_atom_site_fract_x
_atom_site_fract_y
_atom_site_fract_z
Si Si1 0.787973 0.605588 0.556520
Si Si2 0.501385 0.214660 0.052146
Si Si3 0.484123 0.597390 0.063505
Si Si4 0.114518 0.449028 0.878728
Si Si5 0.515527 0.786233 0.428658
Si Si6 0.605301 0.945539 0.870410
Si Si7 0.960201 0.096300 0.930510
Si Si8 0.718924 0.890401 0.562576
O O1 0.809871 0.586844 0.738452
O O2 0.833653 0.518359 0.472307
O O3 0.663140 0.613655 0.495984
O O4 0.869594 0.687470 0.518385
O O5 0.467059 0.311854 0.993173
O O6 0.484199 0.212526 0.239360
O O7 0.434818 0.134826 0.976251
O O8 0.500000 0.500000 0.992436
O O9 0.531872 0.592089 0.241148
O O10 0.351827 0.617531 0.062009
O O11 0.000000 0.500000 0.822421
O O12 0.068743 0.364988 0.974980
O O13 0.183811 0.520034 0.974047
O O14 0.478004 0.687810 0.476059
O O15 0.637695 0.815235 0.491358
O O16 0.682725 0.905490 0.739313
O O17 0.500000 0.000000 0.799425
O O18 0.000000 0.000000 0.986821
#
# Coordination Sequence:
#
# PCOD9347144 Si02
#       8
#     4   4   4   4   4   4   4   4
#     4  10  18  34  58  83 109 148 189 229 281 338
#     4   9  19  36  59  82 108 142 188 237 283 337
#     4  10  21  38  54  76 113 153 187 225 275 333
#     4   9  18  35  60  87 112 141 185 238 287 337
#     4   9  18  35  58  82 110 145 185 233 286 337
#     4  10  18  30  55  87 111 135 183 241 284 333
#     4  10  20  35  55  79 111 151 190 228 273 332
#     4  11  20  35  59  84 112 149 183 229 291 343
#
# _framework density 20.622841999999999
#
# number of rings (size 3 to 8) (size 9 to 14) (size 15 to 20)
#    0.000    2.250    0.000    6.000    0.000    0.000 
#    0.000    8.125    0.000   12.000    0.000    0.000 
#    0.000    0.000    0.000    0.000    0.000    0.000 
#
# Total GULP energy -178388.056189 kJ/mol
# GULP energy per Si atom -5574.626756 kJ/mol
# Density = 2.057590 g / cm^3
# Si number density = 20.622842 Si / 1000 Ang^3
#
#
#
# Elastic Constant Matrix: (Units=GPa)
#
#
# Indices 1 2 3 4 5 6 
#
# 1 58.7313 22.0573 22.0853 0.0000 0.0000 0.0000
# 2 22.0573 188.2173 18.2108 0.0000 0.0000 0.0000
# 3 22.0853 18.2108 28.7273 0.0000 0.0000 0.0000
# 4 0.0000 0.0000 0.0000 -25.1571 0.0000 0.0000
# 5 0.0000 0.0000 0.0000 0.0000 17.5738 0.0000
# 6 0.0000 0.0000 0.0000 0.0000 0.0000 11.0495
#
#
#
# Elastic Compliance Matrix: (Units=1/GPa)
#
#
# Indices 1 2 3 4 5 6 
#
# 1 0.024163 -0.001102 -0.017878 0.000000 0.000000 0.000000
# 2 -0.001102 0.005710 -0.002773 0.000000 0.000000 0.000000
# 3 -0.017878 -0.002773 0.050312 0.000000 0.000000 0.000000
# 4 0.000000 0.000000 0.000000 -0.039750 0.000000 0.000000
# 5 0.000000 0.000000 0.000000 0.000000 0.056903 0.000000
# 6 0.000000 0.000000 0.000000 0.000000 0.000000 0.090502
#
#
# Mechanical properties :
#
#
# Convention : Reuss Voigt Hill
#
# Bulk Modulus (GPa) = 27.26243 44.48696 35.87469
# Shear Modulus (GPa) = 20.52774 14.91476 17.72125
#
# Velocity S-wave (km/s) = 3.15840 2.69218 2.93457
# Velocity P-wave (km/s) = 5.15256 5.59306 5.37732
#
# Compressibility (1/GPa) = 0.03668051
#
# Stress axis : x y z
#
# Youngs Moduli (GPa) = 41.38484 175.11840 19.87587
#
# Poissons Ratio (x) = 0.19297 0.35534
# Poissons Ratio (y) = 0.04560 0.05511
# Poissons Ratio (z) = 0.73988 0.48556
#
# Static dielectric constant tensor:
#      x y z
#    x 1.803670 0.000000 0.000000 
#    y 0.000000 1.788100 0.000000 
#    z 0.000000 0.000000 1.710150 
# 
# From -- ./inp_files/3360.got.cif
#   From: 2010.05.17/outbox.cif.g08.bks.cpg/sg34_2_cif.got.tgz:3360.got - 2010.06.03 17:23:11.
