data_PCOD9347726
_publ_section_title
;
Structure prediction by ZEFSAII (Michael W. Deem and Ramdas Pophale) SiO2 
 PCOD9347726
Probable space group: P N N 2
;
_chemical_formula_sum "Si O2"
_cell_formula_units_Z 26
_cell_length_a 8.358023
_cell_length_b 23.740877
_cell_length_c 5.341324
_cell_angle_alpha 90.000000
_cell_angle_beta 90.000000
_cell_angle_gamma 90.000000
_cell_volume 1059.861808
_symmetry_space_group_name_H-M "P N N 2"
_symmetry_group_IT_number 34
_symmetry_cell_setting 'orthorhombic'
loop_
_space_group_symop_operation_xyz
x,y,z
-x,-y,z
1/2-x,1/2+y,1/2+z
1/2+x,1/2-y,1/2+z
loop_
_atom_site_type_symbol
_atom_site_label
_atom_site_fract_x
_atom_site_fract_y
_atom_site_fract_z
Si Si1 0.018887 0.088200 0.683490
Si Si2 0.856333 0.598371 0.184568
Si Si3 0.790163 0.806362 0.657870
Si Si4 0.500000 0.000000 0.024160
Si Si5 0.523056 0.216704 0.916043
Si Si6 0.303598 0.559849 0.664001
Si Si7 0.562195 0.859532 0.307453
O O1 0.063789 0.154251 0.742875
O O2 0.090737 0.067743 0.414483
O O3 0.829164 0.084382 0.685362
O O4 0.094915 0.054050 0.913667
O O5 0.891822 0.661479 0.296205
O O6 0.951997 0.552035 0.343133
O O7 0.919340 0.601762 0.898630
O O8 0.860451 0.769450 0.429634
O O9 0.670200 0.852985 0.549436
O O10 0.657492 0.771942 0.816913
O O11 0.660225 0.985098 0.179843
O O12 0.502253 0.198914 0.206820
O O13 0.192869 0.615742 0.621037
#
# Coordination Sequence:
#
# PCOD9347726 Si02
#       7
#     4   4   4   2   4   4   4
#     4  11  26  48  72 110 150 184 244 314 364 441
#     4  11  27  46  72 107 144 196 252 308 373 443
#     4  10  24  39  68  99 146 193 238 295 375 437
#     4  12  24  52  78 100 144 202 250 304 384 442
#     4  11  23  43  67 103 142 196 245 299 362 455
#     4  11  24  48  76 104 147 190 243 304 365 435
#     4  10  22  45  66 100 143 192 242 299 360 448
#
# _framework density 24.531500999999999
#
# number of rings (size 3 to 8) (size 9 to 14) (size 15 to 20)
#    0.000    1.231    3.077    1.846    6.462    5.538 
#    0.000    3.077    0.000    0.000    0.000    0.000 
#    0.000    0.000    0.000    0.000    0.000    0.000 
#
# Total GULP energy -144998.809351 kJ/mol
# GULP energy per Si atom -5576.877283 kJ/mol
# Density = 2.447567 g / cm^3
# Si number density = 24.531501 Si / 1000 Ang^3
#
#
#
# Elastic Constant Matrix: (Units=GPa)
#
#
# Indices 1 2 3 4 5 6 
#
# 1 180.5703 38.7714 62.3276 0.0000 0.0000 0.0000
# 2 38.7714 84.1289 8.0172 0.0000 0.0000 0.0000
# 3 62.3276 8.0172 100.3450 0.0000 0.0000 0.0000
# 4 0.0000 0.0000 0.0000 12.7183 0.0000 0.0000
# 5 0.0000 0.0000 0.0000 0.0000 -42.4491 0.0000
# 6 0.0000 0.0000 0.0000 0.0000 0.0000 35.1554
#
#
#
# Elastic Compliance Matrix: (Units=1/GPa)
#
#
# Indices 1 2 3 4 5 6 
#
# 1 0.007802 -0.003158 -0.004594 0.000000 0.000000 0.000000
# 2 -0.003158 0.013256 0.000902 0.000000 0.000000 0.000000
# 3 -0.004594 0.000902 0.012747 0.000000 0.000000 0.000000
# 4 0.000000 0.000000 0.000000 0.078627 0.000000 0.000000
# 5 0.000000 0.000000 0.000000 0.000000 -0.023558 0.000000
# 6 0.000000 0.000000 0.000000 0.000000 0.000000 0.028445
#
#
# Mechanical properties :
#
#
# Convention : Reuss Voigt Hill
#
# Bulk Modulus (GPa) = 49.73596 64.80849 57.27223
# Shear Modulus (GPa) = 36.30597 18.14679 27.22638
#
# Velocity S-wave (km/s) = 3.85122 2.72276 3.33506
# Velocity P-wave (km/s) = 6.33199 6.02996 6.18282
#
# Compressibility (1/GPa) = 0.02010618
#
# Stress axis : x y z
#
# Youngs Moduli (GPa) = 128.17955 75.43883 78.45160
#
# Poissons Ratio (x) = 0.23821 0.36037
# Poissons Ratio (y) = 0.40475 -0.07078
# Poissons Ratio (z) = 0.58879 -0.06806
#
# Static dielectric constant tensor:
#      x y z
#    x 1.962660 0.000000 0.000000 
#    y 0.000000 2.089050 0.000000 
#    z 0.000000 0.000000 2.050050 
# 
# From -- ./inp_files/589.got.cif
#   From: 2010.05.17/outbox.cif.g08.bks.cpg/sg34_1_cif.got.tgz:589.got - 2010.06.03 17:23:11.
