data_PCOD9347800
_publ_section_title
;
Structure prediction by ZEFSAII (Michael W. Deem and Ramdas Pophale) SiO2 
 PCOD9347800
Probable space group: P N N 2
;
_chemical_formula_sum "Si O2"
_cell_formula_units_Z 24
_cell_length_a 17.890719
_cell_length_b 10.465189
_cell_length_c 5.489713
_cell_angle_alpha 90.000000
_cell_angle_beta 90.000000
_cell_angle_gamma 90.000000
_cell_volume 1027.837624
_symmetry_space_group_name_H-M "P N N 2"
_symmetry_group_IT_number 34
_symmetry_cell_setting 'orthorhombic'
loop_
_space_group_symop_operation_xyz
x,y,z
-x,-y,z
1/2-x,1/2+y,1/2+z
1/2+x,1/2-y,1/2+z
loop_
_atom_site_type_symbol
_atom_site_label
_atom_site_fract_x
_atom_site_fract_y
_atom_site_fract_z
Si Si1 0.539982 0.741560 0.795220
Si Si2 0.500000 0.000000 0.077255
Si Si3 0.410783 0.651787 0.476510
Si Si4 0.353492 0.926144 0.376161
Si Si5 0.230341 0.087845 0.210999
Si Si6 0.305962 0.141684 0.697911
Si Si7 0.500000 0.500000 0.118927
O O1 0.489507 0.706429 0.565918
O O2 0.625041 0.763501 0.723070
O O3 0.509137 0.871624 0.918295
O O4 0.526649 0.622137 0.969652
O O5 0.424495 0.989036 0.239186
O O6 0.369280 0.778198 0.389021
O O7 0.358369 0.591367 0.684395
O O8 0.430222 0.546628 0.280153
O O9 0.342826 0.001513 0.632345
O O10 0.274347 0.955083 0.247892
O O11 0.263463 0.136019 0.953477
O O12 0.257034 0.163416 0.453280
#
# Coordination Sequence:
#
# PCOD9347800 Si02
#       7
#     4   2   4   4   4   4   2
#     4  12  25  48  79 119 159 210 278 341 410 495
#     4  12  20  46  86 114 148 204 284 332 396 474
#     4  12  27  51  74 118 164 217 270 339 430 488
#     4  10  23  45  81 115 148 206 274 345 391 488
#     4  10  26  49  74 121 155 207 269 340 409 482
#     4  10  23  49  77 116 144 208 267 340 390 473
#     4  12  30  48  76 118 174 222 262 348 424 514
#
# _framework density 23.349993999999999
#
# number of rings (size 3 to 8) (size 9 to 14) (size 15 to 20)
#    1.000    0.000    3.333    2.500    4.667    0.000 
#    9.000    0.000    0.000    0.000    0.000    0.000 
#    0.000    0.000    0.000    0.000    0.000    0.000 
#
# Total GULP energy -134171.990643 kJ/mol
# GULP energy per Si atom -5590.499610 kJ/mol
# Density = 2.329685 g / cm^3
# Si number density = 23.349994 Si / 1000 Ang^3
#
#
#
# Elastic Constant Matrix: (Units=GPa)
#
#
# Indices 1 2 3 4 5 6 
#
# 1 44.1150 26.6298 15.6912 0.0000 0.0000 0.0000
# 2 26.6298 126.6128 34.1842 0.0000 0.0000 0.0000
# 3 15.6912 34.1842 109.7221 0.0000 0.0000 0.0000
# 4 0.0000 0.0000 0.0000 84.3544 0.0000 0.0000
# 5 0.0000 0.0000 0.0000 0.0000 30.5356 0.0000
# 6 0.0000 0.0000 0.0000 0.0000 0.0000 13.5884
#
#
#
# Elastic Compliance Matrix: (Units=1/GPa)
#
#
# Indices 1 2 3 4 5 6 
#
# 1 0.026459 -0.004961 -0.002238 0.000000 0.000000 0.000000
# 2 -0.004961 0.009553 -0.002267 0.000000 0.000000 0.000000
# 3 -0.002238 -0.002267 0.010140 0.000000 0.000000 0.000000
# 4 0.000000 0.000000 0.000000 0.011855 0.000000 0.000000
# 5 0.000000 0.000000 0.000000 0.000000 0.032749 0.000000
# 6 0.000000 0.000000 0.000000 0.000000 0.000000 0.073592
#
#
# Mechanical properties :
#
#
# Convention : Reuss Voigt Hill
#
# Bulk Modulus (GPa) = 36.73687 48.16226 42.44957
# Shear Modulus (GPa) = 25.99387 39.29200 32.64293
#
# Velocity S-wave (km/s) = 3.34013 4.10657 3.74302
# Velocity P-wave (km/s) = 5.53557 6.56934 6.07449
#
# Compressibility (1/GPa) = 0.02722061
#
# Stress axis : x y z
#
# Youngs Moduli (GPa) = 37.79489 104.67371 98.61611
#
# Poissons Ratio (x) = 0.51924 0.22074
# Poissons Ratio (y) = 0.18748 0.22356
# Poissons Ratio (z) = 0.08460 0.23730
#
# Static dielectric constant tensor:
#      x y z
#    x 1.942400 0.000000 0.000000 
#    y 0.000000 1.789920 0.000000 
#    z 0.000000 0.000000 1.898530 
# 
# From -- ./inp_files/1438.got.cif
#   From: 2010.05.17/outbox.cif.g08.bks.cpg/sg34_1_cif.got.tgz:1438.got - 2010.06.03 17:23:11.
