data_PCOD9347323
_publ_section_title
;
Structure prediction by ZEFSAII (Michael W. Deem and Ramdas Pophale) SiO2 
 PCOD9347323
Probable space group: P N N 2
;
_chemical_formula_sum "Si O2"
_cell_formula_units_Z 28
_cell_length_a 13.752682
_cell_length_b 16.472807
_cell_length_c 5.359313
_cell_angle_alpha 90.000000
_cell_angle_beta 90.000000
_cell_angle_gamma 90.000000
_cell_volume 1214.127044
_symmetry_space_group_name_H-M "P N N 2"
_symmetry_group_IT_number 34
_symmetry_cell_setting 'orthorhombic'
loop_
_space_group_symop_operation_xyz
x,y,z
-x,-y,z
1/2-x,1/2+y,1/2+z
1/2+x,1/2-y,1/2+z
loop_
_atom_site_type_symbol
_atom_site_label
_atom_site_fract_x
_atom_site_fract_y
_atom_site_fract_z
Si Si1 0.906495 0.697889 0.722760
Si Si2 0.114981 0.844750 0.934986
Si Si3 0.578921 0.428842 0.862475
Si Si4 0.792522 0.557922 0.514227
Si Si5 0.070041 0.779752 0.439228
Si Si6 0.612557 0.378486 0.362355
Si Si7 0.895548 0.540919 0.009558
O O1 0.009038 0.709266 0.577099
O O2 0.836011 0.650070 0.538695
O O3 0.914210 0.637192 0.957274
O O4 0.865196 0.784525 0.808499
O O5 0.179876 0.920249 0.014844
O O6 0.114658 0.778783 0.161350
O O7 0.005087 0.877153 0.898230
O O8 0.141298 0.811903 0.658450
O O9 0.500000 0.500000 0.836965
O O10 0.514622 0.347114 0.897824
O O11 0.634728 0.433814 0.124625
O O12 0.647062 0.411864 0.626343
O O13 0.836038 0.524475 0.259715
O O14 0.835601 0.516395 0.761147
O O15 0.000000 0.500000 0.019361
#
# Coordination Sequence:
#
# PCOD9347323 Si02
#       7
#     4   4   4   4   4   4   4
#     4   8  20  31  53  76 101 126 174 221 253 297
#     4   9  17  31  47  78  95 131 167 215 248 301
#     4   9  16  27  45  74  94 124 160 203 247 289
#     4  10  20  31  54  75 103 130 172 220 253 302
#     4   9  18  30  51  76  98 130 173 207 253 307
#     4   9  18  29  50  75  98 129 171 205 250 300
#     4  10  21  33  51  80 100 132 177 217 270 297
#
# _framework density 23.061837000000001
#
# number of rings (size 3 to 8) (size 9 to 14) (size 15 to 20)
#    0.857    2.286    0.000    1.714    8.000    0.000 
#    0.000    0.000    0.000    0.000  104.000    0.000 
#    0.000    0.000    0.000    0.000    0.000    0.000 
#
# Total GULP energy -155953.741798 kJ/mol
# GULP energy per Si atom -5569.776493 kJ/mol
# Density = 2.300935 g / cm^3
# Si number density = 23.061837 Si / 1000 Ang^3
#
#
#
# Elastic Constant Matrix: (Units=GPa)
#
#
# Indices 1 2 3 4 5 6 
#
# 1 50.3382 -2.5106 10.1714 0.0000 0.0000 0.0000
# 2 -2.5106 43.9055 7.2444 0.0000 0.0000 0.0000
# 3 10.1714 7.2444 204.7861 0.0000 0.0000 0.0000
# 4 0.0000 0.0000 0.0000 5.2807 0.0000 0.0000
# 5 0.0000 0.0000 0.0000 0.0000 -1.3100 0.0000
# 6 0.0000 0.0000 0.0000 0.0000 0.0000 28.7265
#
#
#
# Elastic Compliance Matrix: (Units=1/GPa)
#
#
# Indices 1 2 3 4 5 6 
#
# 1 0.020143 0.001325 -0.001047 0.000000 0.000000 0.000000
# 2 0.001325 0.022997 -0.000879 0.000000 0.000000 0.000000
# 3 -0.001047 -0.000879 0.004966 0.000000 0.000000 0.000000
# 4 0.000000 0.000000 0.000000 0.189367 0.000000 0.000000
# 5 0.000000 0.000000 0.000000 0.000000 -0.763382 0.000000
# 6 0.000000 0.000000 0.000000 0.000000 0.000000 0.034811
#
#
# Mechanical properties :
#
#
# Convention : Reuss Voigt Hill
#
# Bulk Modulus (GPa) = 21.32078 36.53780 28.92929
# Shear Modulus (GPa) = -10.54275 25.48111 7.46918
#
# Velocity S-wave (km/s) = -2.14043 3.32762 1.80161
# Velocity P-wave (km/s) = 1.77666 5.53551 4.11086
#
# Compressibility (1/GPa) = 0.04690260
#
# Stress axis : x y z
#
# Youngs Moduli (GPa) = 49.64428 43.48385 201.35836
#
# Poissons Ratio (x) = -0.05760 0.21089
# Poissons Ratio (y) = -0.06576 0.17706
# Poissons Ratio (z) = 0.05199 0.03824
#
# Static dielectric constant tensor:
#      x y z
#    x 1.913300 0.000000 0.000000 
#    y 0.000000 1.943910 0.000000 
#    z 0.000000 0.000000 2.044170 
# 
# From -- ./inp_files/1338.got.cif
#   From: 2010.05.17/outbox.cif.g08.bks.cpg/sg34_1_cif.got.tgz:1338.got - 2010.06.03 17:23:11.
