data_PCOD9347426
_publ_section_title
;
Structure prediction by ZEFSAII (Michael W. Deem and Ramdas Pophale) SiO2 
 PCOD9347426
Probable space group: P N N 2
;
_chemical_formula_sum "Si O2"
_cell_formula_units_Z 32
_cell_length_a 8.613378
_cell_length_b 32.463233
_cell_length_c 5.290776
_cell_angle_alpha 90.000000
_cell_angle_beta 90.000000
_cell_angle_gamma 90.000000
_cell_volume 1479.396716
_symmetry_space_group_name_H-M "P N N 2"
_symmetry_group_IT_number 34
_symmetry_cell_setting 'orthorhombic'
loop_
_space_group_symop_operation_xyz
x,y,z
-x,-y,z
1/2-x,1/2+y,1/2+z
1/2+x,1/2-y,1/2+z
loop_
_atom_site_type_symbol
_atom_site_label
_atom_site_fract_x
_atom_site_fract_y
_atom_site_fract_z
Si Si1 0.219478 0.424340 0.481570
Si Si2 0.995631 0.454503 0.840176
Si Si3 0.082649 0.282268 0.059437
Si Si4 0.652987 0.423337 0.723997
Si Si5 0.415993 0.363048 0.790315
Si Si6 0.375488 0.871847 0.606531
Si Si7 0.205814 0.779306 0.067298
Si Si8 0.503600 0.453578 0.224287
O O1 0.342598 0.404092 0.667467
O O2 0.118307 0.385070 0.397662
O O3 0.325742 0.439513 0.252885
O O4 0.113673 0.458523 0.604024
O O5 0.827654 0.439006 0.755820
O O6 0.000000 0.500000 0.966537
O O7 0.062195 0.413740 0.979759
O O8 0.034683 0.330477 0.044495
O O9 0.190642 0.278311 0.311669
O O10 0.931674 0.253884 0.065899
O O11 0.182647 0.272453 0.809113
O O12 0.595363 0.376981 0.805756
O O13 0.608376 0.429671 0.429531
O O14 0.565621 0.449985 0.941685
O O15 0.378345 0.323407 0.621823
O O16 0.303946 0.359653 0.034579
O O17 0.500000 0.500000 0.314566
#
# Coordination Sequence:
#
# PCOD9347426 Si02
#       8
#     4   4   4   4   4   4   4   4
#     4  10  20  40  63  85 122 179 215 267 334 401
#     4  11  26  40  61  96 138 175 224 289 354 397
#     4  11  24  44  71 105 137 180 224 278 341 408
#     4  11  24  40  59  97 121 167 218 286 322 384
#     4   9  20  41  65  89 126 172 226 264 321 399
#     4  10  21  41  66  89 130 183 216 265 339 416
#     4  11  23  43  69 102 140 173 224 277 334 413
#     4  11  23  39  65  87 123 165 229 268 323 395
#
# _framework density 21.630438999999999
#
# number of rings (size 3 to 8) (size 9 to 14) (size 15 to 20)
#    0.000    1.500    2.500    1.875    3.500    1.500 
#    2.250    0.000    0.000    0.000    0.000    0.000 
#    0.000    0.000    0.000    0.000    0.000    0.000 
#
# Total GULP energy -178187.865038 kJ/mol
# GULP energy per Si atom -5568.370782 kJ/mol
# Density = 2.158121 g / cm^3
# Si number density = 21.630439 Si / 1000 Ang^3
#
#
#
# Elastic Constant Matrix: (Units=GPa)
#
#
# Indices 1 2 3 4 5 6 
#
# 1 92.6860 53.9905 35.2556 0.0000 0.0000 0.0000
# 2 53.9905 115.7021 26.0343 0.0000 0.0000 0.0000
# 3 35.2556 26.0343 90.2229 0.0000 0.0000 0.0000
# 4 0.0000 0.0000 0.0000 23.8422 0.0000 0.0000
# 5 0.0000 0.0000 0.0000 0.0000 9.4683 0.0000
# 6 0.0000 0.0000 0.0000 0.0000 0.0000 35.2498
#
#
#
# Elastic Compliance Matrix: (Units=1/GPa)
#
#
# Indices 1 2 3 4 5 6 
#
# 1 0.016350 -0.006622 -0.004478 0.000000 0.000000 0.000000
# 2 -0.006622 0.011925 -0.000853 0.000000 0.000000 0.000000
# 3 -0.004478 -0.000853 0.013080 0.000000 0.000000 0.000000
# 4 0.000000 0.000000 0.000000 0.041942 0.000000 0.000000
# 5 0.000000 0.000000 0.000000 0.000000 0.105616 0.000000
# 6 0.000000 0.000000 0.000000 0.000000 0.000000 0.028369
#
#
# Mechanical properties :
#
#
# Convention : Reuss Voigt Hill
#
# Bulk Modulus (GPa) = 57.31386 58.79688 58.05537
# Shear Modulus (GPa) = 20.24258 25.93410 23.08834
#
# Velocity S-wave (km/s) = 3.06247 3.46636 3.27065
# Velocity P-wave (km/s) = 6.24974 6.57741 6.41567
#
# Compressibility (1/GPa) = 0.01744779
#
# Stress axis : x y z
#
# Youngs Moduli (GPa) = 61.16327 83.85864 76.45380
#
# Poissons Ratio (x) = 0.55529 0.34237
# Poissons Ratio (y) = 0.40500 0.06525
# Poissons Ratio (z) = 0.27390 0.07157
#
# Static dielectric constant tensor:
#      x y z
#    x 1.906570 0.000000 0.000000 
#    y 0.000000 1.858490 0.000000 
#    z 0.000000 0.000000 1.887170 
# 
# From -- ./inp_files/650.got.cif
#   From: 2010.05.17/outbox.cif.g08.bks.cpg/sg34_1_cif.got.tgz:650.got - 2010.06.03 17:23:11.
