data_PCOD9347676
_publ_section_title
;
Structure prediction by ZEFSAII (Michael W. Deem and Ramdas Pophale) SiO2 
 PCOD9347676
Probable space group: P N N 2
;
_chemical_formula_sum "Si O2"
_cell_formula_units_Z 30
_cell_length_a 9.234076
_cell_length_b 5.150875
_cell_length_c 29.828520
_cell_angle_alpha 90.000000
_cell_angle_beta 90.000000
_cell_angle_gamma 90.000000
_cell_volume 1418.750935
_symmetry_space_group_name_H-M "P N N 2"
_symmetry_group_IT_number 34
_symmetry_cell_setting 'orthorhombic'
loop_
_space_group_symop_operation_xyz
x,y,z
-x,-y,z
1/2-x,1/2+y,1/2+z
1/2+x,1/2-y,1/2+z
loop_
_atom_site_type_symbol
_atom_site_label
_atom_site_fract_x
_atom_site_fract_y
_atom_site_fract_z
Si Si1 0.826361 0.491570 0.103070
Si Si2 0.837713 0.113557 0.344028
Si Si3 0.168540 0.522266 0.755022
Si Si4 0.000000 0.500000 0.390004
Si Si5 0.299315 0.861102 0.964417
Si Si6 0.669654 0.477630 0.195689
Si Si7 0.160171 0.389748 0.932577
Si Si8 0.665000 0.989259 0.065860
O O1 0.776535 0.524498 0.154638
O O2 0.744921 0.720832 0.076553
O O3 0.000000 0.500000 0.097991
O O4 0.760839 0.218399 0.086968
O O5 0.767939 0.045554 0.297124
O O6 0.732771 0.042704 0.384801
O O7 0.873298 0.411423 0.356803
O O8 0.000000 0.000000 0.346979
O O9 0.191427 0.306145 0.716742
O O10 0.000000 0.500000 0.768913
O O11 0.192739 0.805397 0.734028
O O12 0.073674 0.317918 0.427703
O O13 0.231036 0.578160 0.969401
O O14 0.194085 0.089303 0.944429
O O15 0.343544 0.961829 0.012746
O O16 0.500000 0.500000 0.181464
O O17 0.000000 0.500000 0.930038
O O18 0.500000 0.000000 0.083995
#
# Coordination Sequence:
#
# PCOD9347676 Si02
#       8
#     4   4   4   2   4   4   4   4
#     4  12  27  45  70 103 142 173 221 291 359 408
#     4  11  23  39  63  89 131 171 222 268 324 392
#     4  10  23  40  66  97 127 168 219 277 323 399
#     4  10  22  42  60  94 132 174 216 280 320 378
#     4  11  23  41  66  91 128 170 224 271 326 381
#     4  10  22  44  68  94 130 173 220 267 338 415
#     4  11  24  40  62  90 128 173 214 270 333 388
#     4  12  25  44  72 100 132 182 235 277 332 426
#
# _framework density 21.14536
#
# number of rings (size 3 to 8) (size 9 to 14) (size 15 to 20)
#    0.000    1.067    2.000    4.000    1.867    5.333 
#    0.000    2.667    0.000    0.000    0.000    0.000 
#    0.000    0.000    0.000    0.000    0.000    0.000 
#
# Total GULP energy -167442.828617 kJ/mol
# GULP energy per Si atom -5581.427621 kJ/mol
# Density = 2.109723 g / cm^3
# Si number density = 21.145360 Si / 1000 Ang^3
#
#
#
# Elastic Constant Matrix: (Units=GPa)
#
#
# Indices 1 2 3 4 5 6 
#
# 1 103.4406 12.6402 34.2357 0.0000 0.0000 0.0000
# 2 12.6402 72.9353 -6.4222 0.0000 0.0000 0.0000
# 3 34.2357 -6.4222 70.7065 0.0000 0.0000 0.0000
# 4 0.0000 0.0000 0.0000 22.8921 0.0000 0.0000
# 5 0.0000 0.0000 0.0000 0.0000 20.3845 0.0000
# 6 0.0000 0.0000 0.0000 0.0000 0.0000 22.2490
#
#
#
# Elastic Compliance Matrix: (Units=1/GPa)
#
#
# Indices 1 2 3 4 5 6 
#
# 1 0.011985 -0.002609 -0.006040 0.000000 0.000000 0.000000
# 2 -0.002609 0.014389 0.002570 0.000000 0.000000 0.000000
# 3 -0.006040 0.002570 0.017301 0.000000 0.000000 0.000000
# 4 0.000000 0.000000 0.000000 0.043683 0.000000 0.000000
# 5 0.000000 0.000000 0.000000 0.000000 0.049057 0.000000
# 6 0.000000 0.000000 0.000000 0.000000 0.000000 0.044946
#
#
# Mechanical properties :
#
#
# Convention : Reuss Voigt Hill
#
# Bulk Modulus (GPa) = 31.72819 36.44329 34.08574
# Shear Modulus (GPa) = 24.50674 26.88036 25.69355
#
# Velocity S-wave (km/s) = 3.40805 3.56928 3.48960
# Velocity P-wave (km/s) = 5.52483 5.85307 5.69132
#
# Compressibility (1/GPa) = 0.03151771
#
# Stress axis : x y z
#
# Youngs Moduli (GPa) = 83.43538 69.49624 57.79995
#
# Poissons Ratio (x) = 0.18132 0.34912
# Poissons Ratio (y) = 0.21768 -0.14856
# Poissons Ratio (z) = 0.50397 -0.17862
#
# Static dielectric constant tensor:
#      x y z
#    x 1.792700 0.000000 0.000000 
#    y 0.000000 1.910880 0.000000 
#    z 0.000000 0.000000 1.717160 
# 
# From -- ./inp_files/8686.got.cif
#   From: 2010.05.17/outbox.cif.g08.bks.cpg/sg34_5_cif.got.tgz:8686.got - 2010.06.03 17:23:11.
