data_PCOD9347710
_publ_section_title
;
Structure prediction by ZEFSAII (Michael W. Deem and Ramdas Pophale) SiO2 
 PCOD9347710
Probable space group: P N N 2
;
_chemical_formula_sum "Si O2"
_cell_formula_units_Z 18
_cell_length_a 8.312535
_cell_length_b 7.016099
_cell_length_c 11.695168
_cell_angle_alpha 90.000000
_cell_angle_beta 90.000000
_cell_angle_gamma 90.000000
_cell_volume 682.080542
_symmetry_space_group_name_H-M "P N N 2"
_symmetry_group_IT_number 34
_symmetry_cell_setting 'orthorhombic'
loop_
_space_group_symop_operation_xyz
x,y,z
-x,-y,z
1/2-x,1/2+y,1/2+z
1/2+x,1/2-y,1/2+z
loop_
_atom_site_type_symbol
_atom_site_label
_atom_site_fract_x
_atom_site_fract_y
_atom_site_fract_z
Si Si1 0.681816 0.021755 0.688580
Si Si2 0.322755 0.787317 0.067874
Si Si3 0.864277 0.712617 0.816513
Si Si4 0.651707 0.366766 0.836996
Si Si5 0.500000 0.500000 0.498324
O O1 0.703421 0.231441 0.733417
O O2 0.500000 0.000000 0.653098
O O3 0.787117 0.939415 0.587244
O O4 0.722749 0.867011 0.787274
O O5 0.421282 0.820336 0.184551
O O6 0.389699 0.778159 0.940712
O O7 0.159813 0.919563 0.064692
O O8 0.797540 0.512298 0.857226
O O9 0.962747 0.824102 0.912198
O O10 0.500000 0.500000 0.812193
#
# Coordination Sequence:
#
# PCOD9347710 Si02
#       5
#     4   4   4   4   2
#     4  10  22  44  63 101 137 177 241 282 336 443
#     4  10  25  41  73  97 140 190 223 299 365 408
#     4  10  26  41  68 103 138 176 239 291 338 443
#     4  12  23  44  71 100 139 185 233 294 365 420
#     4  12  24  48  72 106 146 184 246 294 362 436
#
# _framework density 26.389845000000001
#
# number of rings (size 3 to 8) (size 9 to 14) (size 15 to 20)
#    1.333    0.000    4.444    0.000    9.333    0.000 
#    0.000    0.000    4.889    0.000    0.000    0.000 
#    0.000    0.000    0.000    0.000    0.000    0.000 
#
# Total GULP energy -100393.433921 kJ/mol
# GULP energy per Si atom -5577.412996 kJ/mol
# Density = 2.632978 g / cm^3
# Si number density = 26.389845 Si / 1000 Ang^3
#
#
#
# Elastic Constant Matrix: (Units=GPa)
#
#
# Indices 1 2 3 4 5 6 
#
# 1 51.7514 26.1170 13.4844 0.0000 0.0000 0.0000
# 2 26.1170 168.0231 42.1462 0.0000 0.0000 0.0000
# 3 13.4844 42.1462 116.3252 0.0000 0.0000 0.0000
# 4 0.0000 0.0000 0.0000 -35.8483 0.0000 0.0000
# 5 0.0000 0.0000 0.0000 0.0000 17.9537 0.0000
# 6 0.0000 0.0000 0.0000 0.0000 0.0000 56.5713
#
#
#
# Elastic Compliance Matrix: (Units=1/GPa)
#
#
# Indices 1 2 3 4 5 6 
#
# 1 0.021170 -0.002942 -0.001388 0.000000 0.000000 0.000000
# 2 -0.002942 0.006955 -0.002179 0.000000 0.000000 0.000000
# 3 -0.001388 -0.002179 0.009547 0.000000 0.000000 0.000000
# 4 0.000000 0.000000 0.000000 -0.027895 0.000000 0.000000
# 5 0.000000 0.000000 0.000000 0.000000 0.055699 0.000000
# 6 0.000000 0.000000 0.000000 0.000000 0.000000 0.017677
#
#
# Mechanical properties :
#
#
# Convention : Reuss Voigt Hill
#
# Bulk Modulus (GPa) = 40.56217 55.51057 48.03637
# Shear Modulus (GPa) = 47.89774 24.69214 36.29494
#
# Velocity S-wave (km/s) = 4.26491 3.06219 3.71258
# Velocity P-wave (km/s) = 6.29733 5.79510 6.05143
#
# Compressibility (1/GPa) = 0.02465351
#
# Stress axis : x y z
#
# Youngs Moduli (GPa) = 47.23732 143.77129 104.74542
#
# Poissons Ratio (x) = 0.42304 0.14538
# Poissons Ratio (y) = 0.13899 0.22824
# Poissons Ratio (z) = 0.06556 0.31328
#
# Static dielectric constant tensor:
#      x y z
#    x 2.149240 0.000000 0.000000 
#    y 0.000000 2.011600 0.000000 
#    z 0.000000 0.000000 2.125180 
# 
# From -- ./inp_files/5258.got.cif
#   From: 2010.05.17/outbox.cif.g08.bks.cpg/sg34_3_cif.got.tgz:5258.got - 2010.06.03 17:23:11.
