data_PCOD9347438
_publ_section_title
;
Structure prediction by ZEFSAII (Michael W. Deem and Ramdas Pophale) SiO2 
 PCOD9347438
Probable space group: P N N 2
;
_chemical_formula_sum "Si O2"
_cell_formula_units_Z 26
_cell_length_a 25.689114
_cell_length_b 7.876792
_cell_length_c 5.209964
_cell_angle_alpha 90.000000
_cell_angle_beta 90.000000
_cell_angle_gamma 90.000000
_cell_volume 1054.224793
_symmetry_space_group_name_H-M "P N N 2"
_symmetry_group_IT_number 34
_symmetry_cell_setting 'orthorhombic'
loop_
_space_group_symop_operation_xyz
x,y,z
-x,-y,z
1/2-x,1/2+y,1/2+z
1/2+x,1/2-y,1/2+z
loop_
_atom_site_type_symbol
_atom_site_label
_atom_site_fract_x
_atom_site_fract_y
_atom_site_fract_z
Si Si1 0.500000 0.000000 0.079100
Si Si2 0.910386 0.942560 0.062802
Si Si3 0.409745 0.079754 0.894759
Si Si4 0.140090 0.929617 0.561870
Si Si5 0.264490 0.205088 0.137414
Si Si6 0.803027 0.497007 0.143467
Si Si7 0.509418 0.758247 0.550200
O O1 0.516610 0.848673 0.283602
O O2 0.564444 0.069400 0.050435
O O3 0.949703 0.787763 0.088478
O O4 0.880212 0.962554 0.798326
O O5 0.951717 0.099690 0.064340
O O6 0.872368 0.976221 0.298863
O O7 0.388053 0.245126 0.037597
O O8 0.364753 0.035557 0.693215
O O9 0.468430 0.126350 0.783582
O O10 0.198721 0.870425 0.599939
O O11 0.209433 0.302166 0.137074
O O12 0.282949 0.104881 0.392139
O O13 0.275431 0.084410 0.895350
#
# Coordination Sequence:
#
# PCOD9347438 Si02
#       7
#     2   4   4   4   4   4   4
#     4  12  22  40  62  90 136 176 224 262 338 412
#     4  10  21  37  65  90 124 169 225 267 312 383
#     4  10  23  41  64  93 134 181 216 266 348 405
#     4  10  20  40  67  92 128 173 219 265 334 393
#     4  11  23  46  74 105 135 181 230 288 355 415
#     4  11  25  46  76  99 141 178 233 287 351 414
#     4  10  22  37  59  91 128 173 220 266 320 392
#
# _framework density 24.662671
#
# number of rings (size 3 to 8) (size 9 to 14) (size 15 to 20)
#    0.000    1.538    1.538    4.154    4.308    1.231 
#    2.769    1.538    0.000    0.000    0.000    0.000 
#    0.000    0.000    0.000    0.000    0.000    0.000 
#
# Total GULP energy -145048.290608 kJ/mol
# GULP energy per Si atom -5578.780408 kJ/mol
# Density = 2.460654 g / cm^3
# Si number density = 24.662671 Si / 1000 Ang^3
#
#
#
# Elastic Constant Matrix: (Units=GPa)
#
#
# Indices 1 2 3 4 5 6 
#
# 1 93.0288 49.9859 42.9161 0.0000 0.0000 0.0000
# 2 49.9859 56.7527 40.6264 0.0000 0.0000 0.0000
# 3 42.9161 40.6264 178.5220 0.0000 0.0000 0.0000
# 4 0.0000 0.0000 0.0000 -34.8397 0.0000 0.0000
# 5 0.0000 0.0000 0.0000 0.0000 32.3675 0.0000
# 6 0.0000 0.0000 0.0000 0.0000 0.0000 58.1938
#
#
#
# Elastic Compliance Matrix: (Units=1/GPa)
#
#
# Indices 1 2 3 4 5 6 
#
# 1 0.020550 -0.017397 -0.000981 0.000000 0.000000 0.000000
# 2 -0.017397 0.035778 -0.003960 0.000000 0.000000 0.000000
# 3 -0.000981 -0.003960 0.006738 0.000000 0.000000 0.000000
# 4 0.000000 0.000000 0.000000 -0.028703 0.000000 0.000000
# 5 0.000000 0.000000 0.000000 0.000000 0.030895 0.000000
# 6 0.000000 0.000000 0.000000 0.000000 0.000000 0.017184
#
#
# Mechanical properties :
#
#
# Convention : Reuss Voigt Hill
#
# Bulk Modulus (GPa) = 54.37719 66.15113 60.26416
# Shear Modulus (GPa) = 37.52384 24.12932 30.82658
#
# Velocity S-wave (km/s) = 3.90485 3.13129 3.53927
# Velocity P-wave (km/s) = 6.51358 6.32091 6.41797
#
# Compressibility (1/GPa) = 0.01839007
#
# Stress axis : x y z
#
# Youngs Moduli (GPa) = 48.66230 27.95022 148.40119
#
# Poissons Ratio (x) = 0.48626 0.14558
# Poissons Ratio (y) = 0.84659 0.58763
# Poissons Ratio (z) = 0.04774 0.11068
#
# Static dielectric constant tensor:
#      x y z
#    x 2.039280 0.000000 0.000000 
#    y 0.000000 1.826490 0.000000 
#    z 0.000000 0.000000 1.996350 
# 
# From -- ./inp_files/1752.got.cif
#   From: 2010.05.17/outbox.cif.g08.bks.cpg/sg34_1_cif.got.tgz:1752.got - 2010.06.03 17:23:11.
