data_PCOD9347522
_publ_section_title
;
Structure prediction by ZEFSAII (Michael W. Deem and Ramdas Pophale) SiO2 
 PCOD9347522
Probable space group: P N N 2
;
_chemical_formula_sum "Si O2"
_cell_formula_units_Z 28
_cell_length_a 9.407185
_cell_length_b 18.040162
_cell_length_c 8.698768
_cell_angle_alpha 90.000000
_cell_angle_beta 90.000000
_cell_angle_gamma 90.000000
_cell_volume 1476.243051
_symmetry_space_group_name_H-M "P N N 2"
_symmetry_group_IT_number 34
_symmetry_cell_setting 'orthorhombic'
loop_
_space_group_symop_operation_xyz
x,y,z
-x,-y,z
1/2-x,1/2+y,1/2+z
1/2+x,1/2-y,1/2+z
loop_
_atom_site_type_symbol
_atom_site_label
_atom_site_fract_x
_atom_site_fract_y
_atom_site_fract_z
Si Si1 0.102032 0.133335 0.348650
Si Si2 0.000000 0.500000 0.461066
Si Si3 0.000000 0.000000 0.564278
Si Si4 0.905259 0.136399 0.048865
Si Si5 0.826944 0.838447 0.870298
Si Si6 0.125202 0.641655 0.638557
Si Si7 0.637615 0.239864 0.089730
Si Si8 0.203716 0.985534 0.833876
O O1 0.259734 0.128158 0.272762
O O2 0.093611 0.209947 0.444235
O O3 0.068118 0.064505 0.460697
O O4 0.986701 0.131208 0.210853
O O5 0.936477 0.435145 0.568683
O O6 0.871372 0.529162 0.354043
O O7 0.879053 0.034503 0.677431
O O8 0.760007 0.181446 0.052277
O O9 0.869282 0.056743 0.975656
O O10 0.016043 0.175644 0.934410
O O11 0.800538 0.796330 0.714528
O O12 0.815624 0.926485 0.846414
O O13 0.715258 0.819994 0.002217
O O14 0.992767 0.695269 0.665709
#
# Coordination Sequence:
#
# PCOD9347522 Si02
#       8
#     4   2   2   4   4   4   4   4
#     4  11  26  39  63 103 129 164 220 283 324 383
#     4  10  22  40  66  90 122 174 226 256 318 402
#     4  12  24  40  68  92 134 164 230 280 318 386
#     4  11  22  38  68  91 123 173 220 256 329 406
#     4  10  21  38  62  88 127 167 215 261 323 388
#     4  10  23  40  64  91 131 166 214 268 327 391
#     4  12  21  42  62  96 131 167 210 275 335 389
#     4  11  20  42  64  92 120 181 220 263 326 404
#
# _framework density 18.967064000000001
#
# number of rings (size 3 to 8) (size 9 to 14) (size 15 to 20)
#    0.000    1.143    4.286    1.714    6.000    0.000 
#    0.000    2.143    0.000    0.000    0.000    0.000 
#    0.000    0.000    0.000    0.000    0.000    0.000 
#
# Total GULP energy -156268.624401 kJ/mol
# GULP energy per Si atom -5581.022300 kJ/mol
# Density = 1.892389 g / cm^3
# Si number density = 18.967064 Si / 1000 Ang^3
#
#
#
# Elastic Constant Matrix: (Units=GPa)
#
#
# Indices 1 2 3 4 5 6 
#
# 1 114.2582 41.1074 31.5054 0.0000 0.0000 0.0000
# 2 41.1074 96.4061 43.1936 0.0000 0.0000 0.0000
# 3 31.5054 43.1936 90.9113 0.0000 0.0000 0.0000
# 4 0.0000 0.0000 0.0000 37.1876 0.0000 0.0000
# 5 0.0000 0.0000 0.0000 0.0000 23.2604 0.0000
# 6 0.0000 0.0000 0.0000 0.0000 0.0000 27.5872
#
#
#
# Elastic Compliance Matrix: (Units=1/GPa)
#
#
# Indices 1 2 3 4 5 6 
#
# 1 0.010600 -0.003651 -0.001939 0.000000 0.000000 0.000000
# 2 -0.003651 0.014436 -0.005593 0.000000 0.000000 0.000000
# 3 -0.001939 -0.005593 0.014329 0.000000 0.000000 0.000000
# 4 0.000000 0.000000 0.000000 0.026891 0.000000 0.000000
# 5 0.000000 0.000000 0.000000 0.000000 0.042991 0.000000
# 6 0.000000 0.000000 0.000000 0.000000 0.000000 0.036249
#
#
# Mechanical properties :
#
#
# Convention : Reuss Voigt Hill
#
# Bulk Modulus (GPa) = 58.82909 59.24316 59.03612
# Shear Modulus (GPa) = 28.81364 29.99166 29.40265
#
# Velocity S-wave (km/s) = 3.90184 3.98081 3.94152
# Velocity P-wave (km/s) = 7.16819 7.24097 7.20467
#
# Compressibility (1/GPa) = 0.01699839
#
# Stress axis : x y z
#
# Youngs Moduli (GPa) = 94.33642 69.27264 69.78817
#
# Poissons Ratio (x) = 0.25294 0.13530
# Poissons Ratio (y) = 0.34445 0.39035
# Poissons Ratio (z) = 0.18289 0.38746
#
# Static dielectric constant tensor:
#      x y z
#    x 1.693420 0.000000 0.000000 
#    y 0.000000 1.662270 0.000000 
#    z 0.000000 0.000000 1.654670 
# 
# From -- ./inp_files/2806.got.cif
#   From: 2010.05.17/outbox.cif.g08.bks.cpg/sg34_2_cif.got.tgz:2806.got - 2010.06.03 17:23:11.
