data_PCOD9347714
_publ_section_title
;
Structure prediction by ZEFSAII (Michael W. Deem and Ramdas Pophale) SiO2 
 PCOD9347714
Probable space group: P N N 2
;
_chemical_formula_sum "Si O2"
_cell_formula_units_Z 20
_cell_length_a 7.651490
_cell_length_b 16.541121
_cell_length_c 6.807566
_cell_angle_alpha 90.000000
_cell_angle_beta 90.000000
_cell_angle_gamma 90.000000
_cell_volume 861.594294
_symmetry_space_group_name_H-M "P N N 2"
_symmetry_group_IT_number 34
_symmetry_cell_setting 'orthorhombic'
loop_
_space_group_symop_operation_xyz
x,y,z
-x,-y,z
1/2-x,1/2+y,1/2+z
1/2+x,1/2-y,1/2+z
loop_
_atom_site_type_symbol
_atom_site_label
_atom_site_fract_x
_atom_site_fract_y
_atom_site_fract_z
Si Si1 0.201072 0.327076 0.634040
Si Si2 0.232928 0.824439 0.561147
Si Si3 0.678331 0.541844 0.370130
Si Si4 0.339377 0.690112 0.880698
Si Si5 0.615939 0.927750 0.145370
O O1 0.337922 0.392243 0.549010
O O2 0.252087 0.239098 0.558641
O O3 0.014735 0.360349 0.556576
O O4 0.160628 0.327567 0.862265
O O5 0.245291 0.904968 0.690394
O O6 0.302279 0.752174 0.699275
O O7 0.035412 0.818612 0.467958
O O8 0.500000 0.500000 0.313089
O O9 0.793582 0.471312 0.461940
O O10 0.251396 0.608887 0.800980
O O11 0.500000 0.000000 0.237372
#
# Coordination Sequence:
#
# PCOD9347714 Si02
#       5
#     4   4   4   4   4
#     4  10  23  44  69 106 144 189 246 307 381 449
#     4  11  25  42  74 105 148 194 250 307 391 449
#     4  10  23  44  68 100 147 192 244 302 370 457
#     4  11  23  44  69 109 148 196 250 317 372 466
#     4  10  22  44  70 102 148 193 246 309 373 456
#
# _framework density 23.212779999999999
#
# number of rings (size 3 to 8) (size 9 to 14) (size 15 to 20)
#    0.000    1.600    2.000    1.200    2.800    5.600 
#    0.000   19.000    0.000    0.000    0.000    0.000 
#    0.000    0.000    0.000    0.000    0.000    0.000 
#
# Total GULP energy -111567.897156 kJ/mol
# GULP energy per Si atom -5578.394858 kJ/mol
# Density = 2.315995 g / cm^3
# Si number density = 23.212780 Si / 1000 Ang^3
#
#
#
# Elastic Constant Matrix: (Units=GPa)
#
#
# Indices 1 2 3 4 5 6 
#
# 1 75.6373 40.0366 22.1703 0.0000 0.0000 0.0000
# 2 40.0366 106.6083 59.2562 0.0000 0.0000 0.0000
# 3 22.1703 59.2562 154.7248 0.0000 0.0000 0.0000
# 4 0.0000 0.0000 0.0000 19.7453 0.0000 0.0000
# 5 0.0000 0.0000 0.0000 0.0000 21.6832 0.0000
# 6 0.0000 0.0000 0.0000 0.0000 0.0000 13.8488
#
#
#
# Elastic Compliance Matrix: (Units=1/GPa)
#
#
# Indices 1 2 3 4 5 6 
#
# 1 0.016501 -0.006203 0.000011 0.000000 0.000000 0.000000
# 2 -0.006203 0.014249 -0.004568 0.000000 0.000000 0.000000
# 3 0.000011 -0.004568 0.008211 0.000000 0.000000 0.000000
# 4 0.000000 0.000000 0.000000 0.050645 0.000000 0.000000
# 5 0.000000 0.000000 0.000000 0.000000 0.046119 0.000000
# 6 0.000000 0.000000 0.000000 0.000000 0.000000 0.072208
#
#
# Mechanical properties :
#
#
# Convention : Reuss Voigt Hill
#
# Bulk Modulus (GPa) = 57.33686 64.43295 60.88491
# Shear Modulus (GPa) = 21.25245 25.42261 23.33753
#
# Velocity S-wave (km/s) = 3.02909 3.31297 3.17420
# Velocity P-wave (km/s) = 6.08178 6.51553 6.30239
#
# Compressibility (1/GPa) = 0.01744079
#
# Stress axis : x y z
#
# Youngs Moduli (GPa) = 60.60150 70.18094 121.78824
#
# Poissons Ratio (x) = 0.43535 -0.00137
# Poissons Ratio (y) = 0.37593 0.55635
# Poissons Ratio (z) = -0.00068 0.32060
#
# Static dielectric constant tensor:
#      x y z
#    x 2.014660 0.000000 0.000000 
#    y 0.000000 1.940340 0.000000 
#    z 0.000000 0.000000 1.898110 
# 
# From -- ./inp_files/420.got.cif
#   From: 2010.05.17/outbox.cif.g08.bks.cpg/sg34_1_cif.got.tgz:420.got - 2010.06.03 17:23:11.
