data_PCOD9347048
_publ_section_title
;
Structure prediction by ZEFSAII (Michael W. Deem and Ramdas Pophale) SiO2 
 PCOD9347048
Probable space group: P N A 21
;
_chemical_formula_sum "Si O2"
_cell_formula_units_Z 24
_cell_length_a 16.235851
_cell_length_b 3.741402
_cell_length_c 12.212234
_cell_angle_alpha 90.000000
_cell_angle_beta 90.000000
_cell_angle_gamma 90.000000
_cell_volume 741.830266
_symmetry_space_group_name_H-M "P N A 21"
_symmetry_group_IT_number 33
_symmetry_cell_setting 'orthorhombic'
loop_
_space_group_symop_operation_xyz
x,y,z
-x,-y,1/2+z
1/2-x,1/2+y,1/2+z
1/2+x,1/2-y,z
loop_
_atom_site_type_symbol
_atom_site_label
_atom_site_fract_x
_atom_site_fract_y
_atom_site_fract_z
Si Si1 0.821284 0.500000 0.737660
Si Si2 0.063556 0.040617 0.073409
Si Si3 0.563557 0.540616 0.401911
Si Si4 0.065364 0.999997 0.737661
Si Si5 0.192196 0.024554 0.906235
Si Si6 0.692196 0.524562 0.569087
O O1 0.755962 0.671635 0.824238
O O2 0.755961 0.328369 0.651083
O O3 0.879065 0.733559 0.657124
O O4 0.879064 0.266441 0.818197
O O5 0.127710 0.847017 0.991276
O O6 0.999880 0.829426 0.152380
O O7 0.999999 0.223481 0.987660
O O8 0.499881 0.329424 0.322942
O O9 0.627711 0.347021 0.484046
O O10 0.128178 0.202285 0.819548
O O11 0.128178 0.797709 0.655775
O O12 0.250000 0.249996 0.987661
#
# Coordination Sequence:
#
# PCOD9347048 Si02
#       6
#     4   4   4   4   4   4
#     4   9  16  30  52  71  94 132 168 203 248 298
#     4   9  17  30  48  72 100 130 164 206 251 294
#     4   9  17  30  48  72 100 130 164 206 251 294
#     4   9  16  28  48  73 100 128 160 203 246 288
#     4   8  15  29  51  71  93 132 169 197 242 297
#     4   8  15  29  51  71  93 132 169 197 242 297
#
# _framework density 32.352410999999996
#
# number of rings (size 3 to 8) (size 9 to 14) (size 15 to 20)
#    0.000    3.333    0.000    0.000    0.000    0.000 
#    0.000    6.667    0.000   68.000    0.000    0.000 
#    0.000    0.000    0.000    0.000    0.000    0.000 
#
# Total GULP energy -133624.948868 kJ/mol
# GULP energy per Si atom -5567.706203 kJ/mol
# Density = 3.227878 g / cm^3
# Si number density = 32.352411 Si / 1000 Ang^3
#
#
#
# Elastic Constant Matrix: (Units=GPa)
#
#
# Indices 1 2 3 4 5 6 
#
# 1 317.7041 87.9250 199.2135 0.0000 0.0000 0.0000
# 2 87.9250 69.3022 87.8935 0.0000 0.0000 0.0000
# 3 199.2135 87.8935 329.3890 0.0000 0.0000 0.0000
# 4 0.0000 0.0000 0.0000 78.7178 0.0000 0.0000
# 5 0.0000 0.0000 0.0000 0.0000 229.8041 0.0000
# 6 0.0000 0.0000 0.0000 0.0000 0.0000 62.5150
#
#
#
# Elastic Compliance Matrix: (Units=1/GPa)
#
#
# Indices 1 2 3 4 5 6 
#
# 1 0.005853 -0.004438 -0.002356 0.000000 0.000000 0.000000
# 2 -0.004438 0.025176 -0.004034 0.000000 0.000000 0.000000
# 3 -0.002356 -0.004034 0.005537 0.000000 0.000000 0.000000
# 4 0.000000 0.000000 0.000000 0.012704 0.000000 0.000000
# 5 0.000000 0.000000 0.000000 0.000000 0.004352 0.000000
# 6 0.000000 0.000000 0.000000 0.000000 0.000000 0.015996
#
#
# Mechanical properties :
#
#
# Convention : Reuss Voigt Hill
#
# Bulk Modulus (GPa) = 67.06430 162.93993 115.00211
# Shear Modulus (GPa) = 51.95194 96.96492 74.45843
#
# Velocity S-wave (km/s) = 4.01161 5.48056 4.80258
# Velocity P-wave (km/s) = 6.49859 9.51431 8.14720
#
# Compressibility (1/GPa) = 0.01491106
#
# Stress axis : x y z
#
# Youngs Moduli (GPa) = 170.85624 39.71984 180.60679
#
# Poissons Ratio (x) = 0.17629 0.42542
# Poissons Ratio (y) = 0.75830 0.72853
# Poissons Ratio (z) = 0.40245 0.16022
#
# Static dielectric constant tensor:
#      x y z
#    x 2.347730 0.000000 0.000000 
#    y 0.000000 2.855300 0.000000 
#    z 0.000000 0.000000 2.401120 
# 
# From -- ./inp_files/6686.got.cif
#   From: 2010.05.17/outbox.cif.g08.bks.cpg/sg33_4_cif.got.tgz:6686.got - 2010.06.03 17:15:25.
