data_PCOD9347497
_publ_section_title
;
Structure prediction by ZEFSAII (Michael W. Deem and Ramdas Pophale) SiO2 
 PCOD9347497
Probable space group: P N N 2
;
_chemical_formula_sum "Si O2"
_cell_formula_units_Z 32
_cell_length_a 11.462338
_cell_length_b 8.575702
_cell_length_c 15.860761
_cell_angle_alpha 90.000000
_cell_angle_beta 90.000000
_cell_angle_gamma 90.000000
_cell_volume 1559.074660
_symmetry_space_group_name_H-M "P N N 2"
_symmetry_group_IT_number 34
_symmetry_cell_setting 'orthorhombic'
loop_
_space_group_symop_operation_xyz
x,y,z
-x,-y,z
1/2-x,1/2+y,1/2+z
1/2+x,1/2-y,1/2+z
loop_
_atom_site_type_symbol
_atom_site_label
_atom_site_fract_x
_atom_site_fract_y
_atom_site_fract_z
Si Si1 0.433727 0.169072 0.756760
Si Si2 0.431111 0.726829 0.904782
Si Si3 0.552717 0.822909 0.566255
Si Si4 0.380048 0.409950 0.174579
Si Si5 0.261971 0.515945 0.999877
Si Si6 0.335299 0.674805 0.484638
Si Si7 0.754782 0.019395 0.843572
Si Si8 0.912261 0.361107 0.554211
O O1 0.509744 0.284229 0.813574
O O2 0.414506 0.219867 0.661558
O O3 0.317380 0.127102 0.806571
O O4 0.500000 0.000000 0.754262
O O5 0.336172 0.866728 0.891437
O O6 0.364590 0.578704 0.941429
O O7 0.529389 0.775403 0.973017
O O8 0.664602 0.849036 0.507632
O O9 0.455109 0.705184 0.533228
O O10 0.500000 0.000000 0.569580
O O11 0.500000 0.500000 0.188961
O O12 0.307389 0.485998 0.096036
O O13 0.308045 0.401238 0.260637
O O14 0.413009 0.244698 0.136280
O O15 0.208172 0.353487 0.967114
O O16 0.346702 0.559135 0.406274
O O17 0.223538 0.606239 0.535206
O O18 0.000000 0.500000 0.568172
#
# Coordination Sequence:
#
# PCOD9347497 Si02
#       8
#     4   4   4   4   4   4   4   4
#     4   9  17  32  57  88 119 155 208 266 309 374
#     4  11  20  35  62  91 125 164 212 267 323 384
#     4   9  18  36  61  89 121 164 208 262 320 387
#     4  11  23  38  63  93 128 171 212 267 329 396
#     4  10  21  38  61  91 126 169 218 261 327 391
#     4  10  21  35  64  91 123 168 213 263 322 388
#     4  11  21  38  61  94 124 163 218 266 322 381
#     4  11  20  38  61  95 123 169 215 267 324 386
#
# _framework density 20.524996000000002
#
# number of rings (size 3 to 8) (size 9 to 14) (size 15 to 20)
#    0.000    1.750    5.000    0.375    5.250    1.000 
#    0.000    1.250    2.750    1.500    0.000    0.000 
#    0.000    0.000    0.000    0.000    0.000    0.000 
#
# Total GULP energy -178561.234745 kJ/mol
# GULP energy per Si atom -5580.038586 kJ/mol
# Density = 2.047828 g / cm^3
# Si number density = 20.524996 Si / 1000 Ang^3
#
#
#
# Elastic Constant Matrix: (Units=GPa)
#
#
# Indices 1 2 3 4 5 6 
#
# 1 53.4464 28.9481 0.6074 0.0000 0.0000 0.0000
# 2 28.9481 46.2780 37.3046 0.0000 0.0000 0.0000
# 3 0.6074 37.3046 68.8678 0.0000 0.0000 0.0000
# 4 0.0000 0.0000 0.0000 22.1403 0.0000 0.0000
# 5 0.0000 0.0000 0.0000 0.0000 -5.2378 0.0000
# 6 0.0000 0.0000 0.0000 0.0000 0.0000 32.8256
#
#
#
# Elastic Compliance Matrix: (Units=1/GPa)
#
#
# Indices 1 2 3 4 5 6 
#
# 1 0.045404 -0.049842 0.026598 0.000000 0.000000 0.000000
# 2 -0.049842 0.093071 -0.049976 0.000000 0.000000 0.000000
# 3 0.026598 -0.049976 0.041357 0.000000 0.000000 0.000000
# 4 0.000000 0.000000 0.000000 0.045166 0.000000 0.000000
# 5 0.000000 0.000000 0.000000 0.000000 -0.190921 0.000000
# 6 0.000000 0.000000 0.000000 0.000000 0.000000 0.030464
#
#
# Mechanical properties :
#
#
# Convention : Reuss Voigt Hill
#
# Bulk Modulus (GPa) = 29.94622 33.59027 31.76825
# Shear Modulus (GPa) = 22.51124 16.72779 19.61951
#
# Velocity S-wave (km/s) = 3.31535 2.85791 3.09509
# Velocity P-wave (km/s) = 5.41084 5.22411 5.31829
#
# Compressibility (1/GPa) = 0.03339319
#
# Stress axis : x y z
#
# Youngs Moduli (GPa) = 22.02452 10.74446 24.17970
#
# Poissons Ratio (x) = 0.53553 -0.64314
# Poissons Ratio (y) = 1.09775 1.20840
# Poissons Ratio (z) = -0.58581 0.53696
#
# Static dielectric constant tensor:
#      x y z
#    x 1.761690 0.000000 0.000000 
#    y 0.000000 1.789500 0.000000 
#    z 0.000000 0.000000 1.712880 
# 
# From -- ./inp_files/6828.got.cif
#   From: 2010.05.17/outbox.cif.g08.bks.cpg/sg34_4_cif.got.tgz:6828.got - 2010.06.03 17:23:11.
