data_PCOD9347482
_publ_section_title
;
Structure prediction by ZEFSAII (Michael W. Deem and Ramdas Pophale) SiO2 
 PCOD9347482
Probable space group: P N N 2
;
_chemical_formula_sum "Si O2"
_cell_formula_units_Z 26
_cell_length_a 10.577169
_cell_length_b 18.167581
_cell_length_c 5.220189
_cell_angle_alpha 90.000000
_cell_angle_beta 90.000000
_cell_angle_gamma 90.000000
_cell_volume 1003.119738
_symmetry_space_group_name_H-M "P N N 2"
_symmetry_group_IT_number 34
_symmetry_cell_setting 'orthorhombic'
loop_
_space_group_symop_operation_xyz
x,y,z
-x,-y,z
1/2-x,1/2+y,1/2+z
1/2+x,1/2-y,1/2+z
loop_
_atom_site_type_symbol
_atom_site_label
_atom_site_fract_x
_atom_site_fract_y
_atom_site_fract_z
Si Si1 0.431144 0.247015 0.341170
Si Si2 0.810402 0.678261 0.461110
Si Si3 0.168257 0.905709 0.315394
Si Si4 0.067651 0.645404 0.333052
Si Si5 0.000000 0.000000 0.679272
Si Si6 0.909359 0.822355 0.215549
Si Si7 0.288325 0.549797 0.495834
O O1 0.326427 0.312344 0.325847
O O2 0.401343 0.194250 0.585486
O O3 0.562232 0.283186 0.441953
O O4 0.422525 0.196850 0.088907
O O5 0.781777 0.651062 0.750261
O O6 0.863865 0.759511 0.406039
O O7 0.917657 0.626982 0.333897
O O8 0.044205 0.855558 0.287702
O O9 0.114558 0.960178 0.531830
O O10 0.204275 0.967423 0.100550
O O11 0.162128 0.576812 0.357097
O O12 0.079504 0.057630 0.843768
O O13 0.811369 0.888928 0.213300
#
# Coordination Sequence:
#
# PCOD9347482 Si02
#       7
#     4   4   4   4   2   4   4
#     4  10  24  42  70 108 147 194 249 321 387 460
#     4  10  24  46  71 108 150 195 254 324 399 467
#     4  11  24  47  71 105 148 200 259 326 392 479
#     4  11  26  43  72 109 151 198 249 321 394 468
#     4  12  24  42  76 110 146 204 270 330 396 488
#     4  10  20  44  70 105 145 190 260 321 384 456
#     4  12  24  43  74 107 149 203 256 324 394 476
#
# _framework density 25.919141
#
# number of rings (size 3 to 8) (size 9 to 14) (size 15 to 20)
#    0.000    1.231    4.615    0.000    6.462    3.077 
#    5.538    0.000    0.000    0.000    0.000    0.000 
#    0.000    0.000    0.000    0.000    0.000    0.000 
#
# Total GULP energy -145020.530223 kJ/mol
# GULP energy per Si atom -5577.712701 kJ/mol
# Density = 2.586015 g / cm^3
# Si number density = 25.919141 Si / 1000 Ang^3
#
#
#
# Elastic Constant Matrix: (Units=GPa)
#
#
# Indices 1 2 3 4 5 6 
#
# 1 108.9215 39.3746 20.3179 0.0000 0.0000 0.0000
# 2 39.3746 132.7422 34.2461 0.0000 0.0000 0.0000
# 3 20.3179 34.2461 110.3704 0.0000 0.0000 0.0000
# 4 0.0000 0.0000 0.0000 39.1812 0.0000 0.0000
# 5 0.0000 0.0000 0.0000 0.0000 34.3873 0.0000
# 6 0.0000 0.0000 0.0000 0.0000 0.0000 65.4563
#
#
#
# Elastic Compliance Matrix: (Units=1/GPa)
#
#
# Indices 1 2 3 4 5 6 
#
# 1 0.010392 -0.002814 -0.001040 0.000000 0.000000 0.000000
# 2 -0.002814 0.008951 -0.002259 0.000000 0.000000 0.000000
# 3 -0.001040 -0.002259 0.009953 0.000000 0.000000 0.000000
# 4 0.000000 0.000000 0.000000 0.025522 0.000000 0.000000
# 5 0.000000 0.000000 0.000000 0.000000 0.029081 0.000000
# 6 0.000000 0.000000 0.000000 0.000000 0.000000 0.015277
#
#
# Mechanical properties :
#
#
# Convention : Reuss Voigt Hill
#
# Bulk Modulus (GPa) = 58.58491 59.99014 59.28752
# Shear Modulus (GPa) = 42.70102 45.01131 43.85617
#
# Velocity S-wave (km/s) = 4.06331 4.17178 4.11790
# Velocity P-wave (km/s) = 6.68326 6.81178 6.74783
#
# Compressibility (1/GPa) = 0.01706924
#
# Stress axis : x y z
#
# Youngs Moduli (GPa) = 96.22540 111.71856 100.47380
#
# Poissons Ratio (x) = 0.31441 0.10448
# Poissons Ratio (y) = 0.27081 0.22700
# Poissons Ratio (z) = 0.10006 0.25240
#
# Static dielectric constant tensor:
#      x y z
#    x 2.170660 0.000000 0.000000 
#    y 0.000000 2.150580 0.000000 
#    z 0.000000 0.000000 2.160370 
# 
# From -- ./inp_files/952.got.cif
#   From: 2010.05.17/outbox.cif.g08.bks.cpg/sg34_1_cif.got.tgz:952.got - 2010.06.03 17:23:11.
