data_PCOD9347565
_publ_section_title
;
Structure prediction by ZEFSAII (Michael W. Deem and Ramdas Pophale) SiO2 
 PCOD9347565
Probable space group: P N N 2
;
_chemical_formula_sum "Si O2"
_cell_formula_units_Z 26
_cell_length_a 7.517711
_cell_length_b 9.490449
_cell_length_c 17.026745
_cell_angle_alpha 90.000000
_cell_angle_beta 90.000000
_cell_angle_gamma 90.000000
_cell_volume 1214.797859
_symmetry_space_group_name_H-M "P N N 2"
_symmetry_group_IT_number 34
_symmetry_cell_setting 'orthorhombic'
loop_
_space_group_symop_operation_xyz
x,y,z
-x,-y,z
1/2-x,1/2+y,1/2+z
1/2+x,1/2-y,1/2+z
loop_
_atom_site_type_symbol
_atom_site_label
_atom_site_fract_x
_atom_site_fract_y
_atom_site_fract_z
Si Si1 0.822265 0.408841 0.037280
Si Si2 0.717978 0.528941 0.695325
Si Si3 0.500000 0.500000 0.925166
Si Si4 0.162063 0.660714 0.216373
Si Si5 0.708667 0.522754 0.360071
Si Si6 0.696849 0.566127 0.524879
Si Si7 0.852777 0.798141 0.298526
O O1 0.801844 0.412686 0.132901
O O2 0.823095 0.237593 0.022925
O O3 0.000000 0.500000 0.019948
O O4 0.667338 0.476876 0.983459
O O5 0.500000 0.500000 0.695555
O O6 0.759392 0.688478 0.718104
O O7 0.781143 0.515990 0.606432
O O8 0.771611 0.415001 0.758732
O O9 0.514587 0.370372 0.862357
O O10 0.208649 0.569241 0.291497
O O11 0.959109 0.712196 0.230794
O O12 0.500000 0.500000 0.360702
O O13 0.784227 0.502024 0.447245
O O14 0.738759 0.685154 0.342745
O O15 0.500000 0.500000 0.526620
#
# Coordination Sequence:
#
# PCOD9347565 Si02
#       7
#     4   4   2   4   4   4   4
#     4  11  24  43  67  97 133 183 223 273 348 408
#     4   8  16  35  65  83 116 163 216 256 325 405
#     4  12  24  40  68 100 136 172 226 286 320 418
#     4  10  21  40  67  92 124 174 222 267 342 404
#     4  11  23  37  59  95 132 162 219 279 331 385
#     4   9  19  37  61  93 123 165 219 278 326 396
#     4  11  20  43  65  94 124 177 221 272 338 405
#
# _framework density 21.402736999999998
#
# number of rings (size 3 to 8) (size 9 to 14) (size 15 to 20)
#    0.000    1.846    3.846    2.308    1.077    2.462 
#    0.000    0.769    0.000    0.000    4.000    0.000 
#    0.000    0.000    0.000    0.000    0.000    0.000 
#
# Total GULP energy -144796.936669 kJ/mol
# GULP energy per Si atom -5569.112949 kJ/mol
# Density = 2.135402 g / cm^3
# Si number density = 21.402737 Si / 1000 Ang^3
#
#
#
# Elastic Constant Matrix: (Units=GPa)
#
#
# Indices 1 2 3 4 5 6 
#
# 1 56.5261 32.1179 24.4256 0.0000 0.0000 0.0000
# 2 32.1179 90.0979 68.2586 0.0000 0.0000 0.0000
# 3 24.4256 68.2586 182.1740 0.0000 0.0000 0.0000
# 4 0.0000 0.0000 0.0000 79.8655 0.0000 0.0000
# 5 0.0000 0.0000 0.0000 0.0000 10.8720 0.0000
# 6 0.0000 0.0000 0.0000 0.0000 0.0000 18.0337
#
#
#
# Elastic Compliance Matrix: (Units=1/GPa)
#
#
# Indices 1 2 3 4 5 6 
#
# 1 0.022184 -0.007896 -0.000016 0.000000 0.000000 0.000000
# 2 -0.007896 0.018309 -0.005802 0.000000 0.000000 0.000000
# 3 -0.000016 -0.005802 0.007665 0.000000 0.000000 0.000000
# 4 0.000000 0.000000 0.000000 0.012521 0.000000 0.000000
# 5 0.000000 0.000000 0.000000 0.000000 0.091980 0.000000
# 6 0.000000 0.000000 0.000000 0.000000 0.000000 0.055452
#
#
# Mechanical properties :
#
#
# Convention : Reuss Voigt Hill
#
# Bulk Modulus (GPa) = 48.23579 64.26693 56.25136
# Shear Modulus (GPa) = 20.62292 35.35397 27.98845
#
# Velocity S-wave (km/s) = 3.10750 4.06870 3.62014
# Velocity P-wave (km/s) = 5.95496 7.22254 6.61916
#
# Compressibility (1/GPa) = 0.02073150
#
# Stress axis : x y z
#
# Youngs Moduli (GPa) = 45.07673 54.61758 130.46082
#
# Poissons Ratio (x) = 0.43127 0.00206
# Poissons Ratio (y) = 0.35594 0.75687
# Poissons Ratio (z) = 0.00071 0.31686
#
# Static dielectric constant tensor:
#      x y z
#    x 1.819460 0.000000 0.000000 
#    y 0.000000 1.754540 0.000000 
#    z 0.000000 0.000000 1.818040 
# 
# From -- ./inp_files/7486.got.cif
#   From: 2010.05.17/outbox.cif.g08.bks.cpg/sg34_4_cif.got.tgz:7486.got - 2010.06.03 17:23:11.
