data_PCOD9347446
_publ_section_title
;
Structure prediction by ZEFSAII (Michael W. Deem and Ramdas Pophale) SiO2 
 PCOD9347446
Probable space group: P N N 2
;
_chemical_formula_sum "Si O2"
_cell_formula_units_Z 24
_cell_length_a 23.669480
_cell_length_b 4.819374
_cell_length_c 10.306618
_cell_angle_alpha 90.000000
_cell_angle_beta 90.000000
_cell_angle_gamma 90.000000
_cell_volume 1175.697317
_symmetry_space_group_name_H-M "P N N 2"
_symmetry_group_IT_number 34
_symmetry_cell_setting 'orthorhombic'
loop_
_space_group_symop_operation_xyz
x,y,z
-x,-y,z
1/2-x,1/2+y,1/2+z
1/2+x,1/2-y,1/2+z
loop_
_atom_site_type_symbol
_atom_site_label
_atom_site_fract_x
_atom_site_fract_y
_atom_site_fract_z
Si Si1 0.836433 0.765150 0.752480
Si Si2 0.741076 0.542083 0.912873
Si Si3 0.436082 0.549922 0.603623
Si Si4 0.853573 0.288455 0.918091
Si Si5 0.936253 0.441254 0.281178
Si Si6 0.333837 0.940936 0.966259
O O1 0.772917 0.667064 0.788523
O O2 0.840286 0.080008 0.798773
O O3 0.847042 0.697035 0.604471
O O4 0.874836 0.569235 0.847265
O O5 0.706936 0.790867 0.979629
O O6 0.699193 0.292740 0.884899
O O7 0.795185 0.397612 0.984306
O O8 0.500000 0.500000 0.552404
O O9 0.433228 0.374428 0.735885
O O10 0.391698 0.398103 0.510621
O O11 0.426863 0.864111 0.652381
O O12 0.889971 0.487882 0.389265
O O13 0.000000 0.500000 0.324966
#
# Coordination Sequence:
#
# PCOD9347446 Si02
#       6
#     4   4   4   4   4   4
#     4  10  22  39  55  86 126 144 199 242 287 360
#     4  10  22  37  55  89 116 157 193 238 290 365
#     4  10  21  40  65  88 118 154 201 250 295 358
#     4  10  20  41  56  87 122 151 187 255 288 342
#     4  10  23  40  59  90 118 151 205 252 292 355
#     4  12  22  39  61  85 117 164 191 241 310 352
#
# _framework density 20.413418
#
# number of rings (size 3 to 8) (size 9 to 14) (size 15 to 20)
#    1.000    0.667    1.667    3.000    0.000    4.000 
#    0.000    1.667    0.000    0.000    0.000    0.000 
#    0.000    0.000    0.000    0.000    0.000    0.000 
#
# Total GULP energy -133710.082438 kJ/mol
# GULP energy per Si atom -5571.253435 kJ/mol
# Density = 2.036696 g / cm^3
# Si number density = 20.413418 Si / 1000 Ang^3
#
#
#
# Elastic Constant Matrix: (Units=GPa)
#
#
# Indices 1 2 3 4 5 6 
#
# 1 65.8853 6.7160 29.9346 0.0000 0.0000 0.0000
# 2 6.7160 107.7137 -0.1586 0.0000 0.0000 0.0000
# 3 29.9346 -0.1586 49.3952 0.0000 0.0000 0.0000
# 4 0.0000 0.0000 0.0000 15.9429 0.0000 0.0000
# 5 0.0000 0.0000 0.0000 0.0000 21.3912 0.0000
# 6 0.0000 0.0000 0.0000 0.0000 0.0000 14.6570
#
#
#
# Elastic Compliance Matrix: (Units=1/GPa)
#
#
# Indices 1 2 3 4 5 6 
#
# 1 0.021136 -0.001337 -0.012813 0.000000 0.000000 0.000000
# 2 -0.001337 0.009368 0.000840 0.000000 0.000000 0.000000
# 3 -0.012813 0.000840 0.028012 0.000000 0.000000 0.000000
# 4 0.000000 0.000000 0.000000 0.062724 0.000000 0.000000
# 5 0.000000 0.000000 0.000000 0.000000 0.046748 0.000000
# 6 0.000000 0.000000 0.000000 0.000000 0.000000 0.068227
#
#
# Mechanical properties :
#
#
# Convention : Reuss Voigt Hill
#
# Bulk Modulus (GPa) = 31.35034 32.88648 32.11841
# Shear Modulus (GPa) = 18.28375 22.83170 20.55772
#
# Velocity S-wave (km/s) = 2.99603 3.34797 3.17688
# Velocity P-wave (km/s) = 5.23061 5.57588 5.40600
#
# Compressibility (1/GPa) = 0.03189758
#
# Stress axis : x y z
#
# Youngs Moduli (GPa) = 47.31351 106.74123 35.69838
#
# Poissons Ratio (x) = 0.14268 0.45740
# Poissons Ratio (y) = 0.06324 -0.02999
# Poissons Ratio (z) = 0.60622 -0.08968
#
# Static dielectric constant tensor:
#      x y z
#    x 1.760090 0.000000 0.000000 
#    y 0.000000 1.734110 0.000000 
#    z 0.000000 0.000000 1.718340 
# 
# From -- ./inp_files/5903.got.cif
#   From: 2010.05.17/outbox.cif.g08.bks.cpg/sg34_3_cif.got.tgz:5903.got - 2010.06.03 17:23:11.
