data_PCOD9347042
_publ_section_title
;
Structure prediction by ZEFSAII (Michael W. Deem and Ramdas Pophale) SiO2 
 PCOD9347042
Probable space group: P N A 21
;
_chemical_formula_sum "Si O2"
_cell_formula_units_Z 32
_cell_length_a 13.979751
_cell_length_b 5.650336
_cell_length_c 13.888665
_cell_angle_alpha 90.000000
_cell_angle_beta 90.000000
_cell_angle_gamma 90.000000
_cell_volume 1097.069681
_symmetry_space_group_name_H-M "P N A 21"
_symmetry_group_IT_number 33
_symmetry_cell_setting 'orthorhombic'
loop_
_space_group_symop_operation_xyz
x,y,z
-x,-y,1/2+z
1/2-x,1/2+y,1/2+z
1/2+x,1/2-y,z
loop_
_atom_site_type_symbol
_atom_site_label
_atom_site_fract_x
_atom_site_fract_y
_atom_site_fract_z
Si Si1 0.836611 0.509203 0.864520
Si Si2 0.412740 0.999133 0.609819
Si Si3 0.170637 0.469608 0.857050
Si Si4 0.420182 0.508102 0.114079
Si Si5 0.750056 0.747200 0.029783
Si Si6 0.999516 0.249202 0.277277
Si Si7 0.495685 0.734750 0.441385
Si Si8 0.748890 0.763327 0.695929
O O1 0.909275 0.732450 0.846515
O O2 0.910410 0.296805 0.880245
O O3 0.768944 0.547123 0.772467
O O4 0.773278 0.533091 0.959444
O O5 0.344652 0.222969 0.593570
O O6 0.478770 0.966514 0.702547
O O7 0.339067 0.777470 0.626778
O O8 0.475174 0.950847 0.516211
O O9 0.231198 0.542399 0.950694
O O10 0.235178 0.505768 0.762038
O O11 0.093445 0.680316 0.836670
O O12 0.101207 0.248054 0.878514
O O13 0.484403 0.477516 0.209384
O O14 0.345550 0.292086 0.135383
O O15 0.344656 0.712482 0.092830
O O16 0.481218 0.468636 0.017810
#
# Coordination Sequence:
#
# PCOD9347042 Si02
#       8
#     4   4   4   4   4   4   4   4
#     4   9  16  27  46  66  89 117 154 191 230 273
#     4   8  14  25  44  66  87 113 154 189 218 261
#     4   8  14  25  44  66  87 113 154 189 218 261
#     4   9  16  27  46  66  89 117 154 191 230 273
#     4   9  16  26  44  69  92 114 146 193 234 270
#     4   8  14  26  46  64  84 122 160 178 212 288
#     4   9  16  26  44  69  92 116 152 197 232 270
#     4   8  14  26  46  66  84 120 158 184 218 290
#
# _framework density 29.168614000000002
#
# number of rings (size 3 to 8) (size 9 to 14) (size 15 to 20)
#    0.000    3.500    0.000    0.000    0.000    0.000 
#    0.000    0.000    0.000   87.000    0.000    0.000 
#    0.000    0.000    0.000    0.000    0.000    0.000 
#
# Total GULP energy -178659.082707 kJ/mol
# GULP energy per Si atom -5583.096335 kJ/mol
# Density = 2.910223 g / cm^3
# Si number density = 29.168614 Si / 1000 Ang^3
#
#
#
# Elastic Constant Matrix: (Units=GPa)
#
#
# Indices 1 2 3 4 5 6 
#
# 1 137.2933 57.9503 29.4054 0.0000 0.0000 0.0000
# 2 57.9503 78.4814 64.5673 0.0000 0.0000 0.0000
# 3 29.4054 64.5673 144.1483 0.0000 0.0000 0.0000
# 4 0.0000 0.0000 0.0000 30.4772 0.0000 0.0000
# 5 0.0000 0.0000 0.0000 0.0000 49.6220 0.0000
# 6 0.0000 0.0000 0.0000 0.0000 0.0000 29.9270
#
#
#
# Elastic Compliance Matrix: (Units=1/GPa)
#
#
# Indices 1 2 3 4 5 6 
#
# 1 0.011009 -0.009947 0.002210 0.000000 0.000000 0.000000
# 2 -0.009947 0.029165 -0.011034 0.000000 0.000000 0.000000
# 3 0.002210 -0.011034 0.011429 0.000000 0.000000 0.000000
# 4 0.000000 0.000000 0.000000 0.032811 0.000000 0.000000
# 5 0.000000 0.000000 0.000000 0.000000 0.020152 0.000000
# 6 0.000000 0.000000 0.000000 0.000000 0.000000 0.033415
#
#
# Mechanical properties :
#
#
# Convention : Reuss Voigt Hill
#
# Bulk Modulus (GPa) = 71.12629 73.75211 72.43920
# Shear Modulus (GPa) = 27.74532 35.87191 31.80861
#
# Velocity S-wave (km/s) = 3.08751 3.51067 3.30587
# Velocity P-wave (km/s) = 6.09489 6.46318 6.28174
#
# Compressibility (1/GPa) = 0.01405950
#
# Stress axis : x y z
#
# Youngs Moduli (GPa) = 90.83590 34.28812 87.49591
#
# Poissons Ratio (x) = 0.34106 -0.19333
# Poissons Ratio (y) = 0.90352 0.96547
# Poissons Ratio (z) = -0.20071 0.37835
#
# Static dielectric constant tensor:
#      x y z
#    x 2.254030 0.000000 0.000000 
#    y 0.000000 2.146700 0.000000 
#    z 0.000000 0.000000 2.265200 
# 
# From -- ./inp_files/8289.got.cif
#   From: 2010.05.17/outbox.cif.g08.bks.cpg/sg33_5_cif.got.tgz:8289.got - 2010.06.03 17:15:25.
