data_PCOD9347707
_publ_section_title
;
Structure prediction by ZEFSAII (Michael W. Deem and Ramdas Pophale) SiO2 
 PCOD9347707
Probable space group: P N N 2
;
_chemical_formula_sum "Si O2"
_cell_formula_units_Z 24
_cell_length_a 5.222918
_cell_length_b 13.786280
_cell_length_c 13.275400
_cell_angle_alpha 90.000000
_cell_angle_beta 90.000000
_cell_angle_gamma 90.000000
_cell_volume 955.889999
_symmetry_space_group_name_H-M "P N N 2"
_symmetry_group_IT_number 34
_symmetry_cell_setting 'orthorhombic'
loop_
_space_group_symop_operation_xyz
x,y,z
-x,-y,z
1/2-x,1/2+y,1/2+z
1/2+x,1/2-y,1/2+z
loop_
_atom_site_type_symbol
_atom_site_label
_atom_site_fract_x
_atom_site_fract_y
_atom_site_fract_z
Si Si1 0.500000 0.000000 0.134120
Si Si2 0.470854 0.701844 0.287115
Si Si3 0.186849 0.112942 0.299282
Si Si4 0.000000 0.000000 0.690339
Si Si5 0.728103 0.239901 0.498660
Si Si6 0.759739 0.890096 0.515433
Si Si7 0.336786 0.336289 0.644796
O O1 0.340080 0.064356 0.210421
O O2 0.677144 0.082529 0.082671
O O3 0.703003 0.777036 0.305859
O O4 0.561455 0.593976 0.258129
O O5 0.305701 0.708953 0.389904
O O6 0.312783 0.743678 0.190715
O O7 0.213225 0.062951 0.405621
O O8 0.906396 0.116011 0.252632
O O9 0.793472 0.959636 0.610207
O O10 0.522127 0.153975 0.509294
O O11 0.592829 0.308799 0.582956
O O12 0.008740 0.191962 0.510601
#
# Coordination Sequence:
#
# PCOD9347707 Si02
#       7
#     2   4   4   2   4   4   4
#     4  10  24  38  66 108 136 180 250 306 364 430
#     4  10  23  45  67 102 146 188 241 302 382 439
#     4  10  22  43  69  98 144 185 237 311 367 448
#     4  12  24  44  70 112 146 190 250 316 362 458
#     4  11  24  47  71  98 140 200 233 298 376 450
#     4  11  25  42  72 103 138 186 242 293 376 438
#     4  11  21  43  69  96 141 190 237 306 360 445
#
# _framework density 25.107489000000001
#
# number of rings (size 3 to 8) (size 9 to 14) (size 15 to 20)
#    0.000    1.333    3.333    1.500    4.667    0.667 
#    6.000    0.000    0.000    0.000    0.000    0.000 
#    0.000    0.000    0.000    0.000    0.000    0.000 
#
# Total GULP energy -133910.416427 kJ/mol
# GULP energy per Si atom -5579.600684 kJ/mol
# Density = 2.505034 g / cm^3
# Si number density = 25.107489 Si / 1000 Ang^3
#
#
#
# Elastic Constant Matrix: (Units=GPa)
#
#
# Indices 1 2 3 4 5 6 
#
# 1 65.9238 35.1457 26.8875 0.0000 0.0000 0.0000
# 2 35.1457 136.8819 29.6777 0.0000 0.0000 0.0000
# 3 26.8875 29.6777 118.6896 0.0000 0.0000 0.0000
# 4 0.0000 0.0000 0.0000 29.6141 0.0000 0.0000
# 5 0.0000 0.0000 0.0000 0.0000 10.3942 0.0000
# 6 0.0000 0.0000 0.0000 0.0000 0.0000 45.3077
#
#
#
# Elastic Compliance Matrix: (Units=1/GPa)
#
#
# Indices 1 2 3 4 5 6 
#
# 1 0.018659 -0.004097 -0.003203 0.000000 0.000000 0.000000
# 2 -0.004097 0.008624 -0.001228 0.000000 0.000000 0.000000
# 3 -0.003203 -0.001228 0.009458 0.000000 0.000000 0.000000
# 4 0.000000 0.000000 0.000000 0.033768 0.000000 0.000000
# 5 0.000000 0.000000 0.000000 0.000000 0.096207 0.000000
# 6 0.000000 0.000000 0.000000 0.000000 0.000000 0.022071
#
#
# Mechanical properties :
#
#
# Convention : Reuss Voigt Hill
#
# Bulk Modulus (GPa) = 50.79781 56.10193 53.44987
# Shear Modulus (GPa) = 23.54004 32.38217 27.96111
#
# Velocity S-wave (km/s) = 3.06530 3.59519 3.34077
# Velocity P-wave (km/s) = 5.72749 6.29501 6.01794
#
# Compressibility (1/GPa) = 0.01968589
#
# Stress axis : x y z
#
# Youngs Moduli (GPa) = 53.59270 115.95941 105.73074
#
# Poissons Ratio (x) = 0.47503 0.33862
# Poissons Ratio (y) = 0.21955 0.12987
# Poissons Ratio (z) = 0.17164 0.14243
#
# Static dielectric constant tensor:
#      x y z
#    x 2.300270 0.000000 0.000000 
#    y 0.000000 2.246830 0.000000 
#    z 0.000000 0.000000 1.990780 
# 
# From -- ./inp_files/6126.got.cif
#   From: 2010.05.17/outbox.cif.g08.bks.cpg/sg34_4_cif.got.tgz:6126.got - 2010.06.03 17:23:11.
