data_PCOD9347733
_publ_section_title
;
Structure prediction by ZEFSAII (Michael W. Deem and Ramdas Pophale) SiO2 
 PCOD9347733
Probable space group: P N N 2
;
_chemical_formula_sum "Si O2"
_cell_formula_units_Z 22
_cell_length_a 10.433382
_cell_length_b 16.233026
_cell_length_c 4.692566
_cell_angle_alpha 90.000000
_cell_angle_beta 90.000000
_cell_angle_gamma 90.000000
_cell_volume 794.758136
_symmetry_space_group_name_H-M "P N N 2"
_symmetry_group_IT_number 34
_symmetry_cell_setting 'orthorhombic'
loop_
_space_group_symop_operation_xyz
x,y,z
-x,-y,z
1/2-x,1/2+y,1/2+z
1/2+x,1/2-y,1/2+z
loop_
_atom_site_type_symbol
_atom_site_label
_atom_site_fract_x
_atom_site_fract_y
_atom_site_fract_z
Si Si1 0.581983 0.848370 0.177180
Si Si2 0.534931 0.385199 0.982103
Si Si3 0.255125 0.917019 0.486187
Si Si4 0.447257 0.783270 0.655312
Si Si5 0.817076 0.953210 0.013307
Si Si6 0.000000 0.500000 0.054657
O O1 0.512404 0.846086 0.876041
O O2 0.722624 0.878076 0.105919
O O3 0.521124 0.923322 0.348628
O O4 0.549052 0.773569 0.394362
O O5 0.564442 0.292645 0.873078
O O6 0.555096 0.430026 0.684781
O O7 0.389896 0.399746 0.086955
O O8 0.322221 0.826227 0.515946
O O9 0.354840 0.977838 0.663104
O O10 0.236065 0.964155 0.180951
O O11 0.364126 0.571937 0.195177
#
# Coordination Sequence:
#
# PCOD9347733 Si02
#       6
#     4   4   4   4   4   2
#     4  10  22  45  74 109 155 206 282 345 429 522
#     4  12  27  47  77 117 170 216 284 363 454 517
#     4  10  25  49  80 112 166 218 293 351 439 531
#     4  11  25  46  77 116 162 221 274 363 448 530
#     4  11  26  49  76 116 163 225 285 362 434 539
#     4   8  20  44  76 110 144 212 278 354 402 508
#
# _framework density 27.681376
#
# number of rings (size 3 to 8) (size 9 to 14) (size 15 to 20)
#    0.000    1.455    0.000    2.727    2.545   14.545 
#    9.818    0.000    0.000    0.000    0.000    0.000 
#    0.000    0.000    0.000    0.000    0.000    0.000 
#
# Total GULP energy -122526.035907 kJ/mol
# GULP energy per Si atom -5569.365269 kJ/mol
# Density = 2.761837 g / cm^3
# Si number density = 27.681376 Si / 1000 Ang^3
#
#
#
# Elastic Constant Matrix: (Units=GPa)
#
#
# Indices 1 2 3 4 5 6 
#
# 1 189.0328 71.2700 36.2489 0.0000 0.0000 0.0000
# 2 71.2700 132.6341 57.0396 0.0000 0.0000 0.0000
# 3 36.2489 57.0396 174.4994 0.0000 0.0000 0.0000
# 4 0.0000 0.0000 0.0000 19.5387 0.0000 0.0000
# 5 0.0000 0.0000 0.0000 0.0000 11.2801 0.0000
# 6 0.0000 0.0000 0.0000 0.0000 0.0000 25.1325
#
#
#
# Elastic Compliance Matrix: (Units=1/GPa)
#
#
# Indices 1 2 3 4 5 6 
#
# 1 0.006643 -0.003463 -0.000248 0.000000 0.000000 0.000000
# 2 -0.003463 0.010578 -0.002738 0.000000 0.000000 0.000000
# 3 -0.000248 -0.002738 0.006677 0.000000 0.000000 0.000000
# 4 0.000000 0.000000 0.000000 0.051181 0.000000 0.000000
# 5 0.000000 0.000000 0.000000 0.000000 0.088652 0.000000
# 6 0.000000 0.000000 0.000000 0.000000 0.000000 0.039789
#
#
# Mechanical properties :
#
#
# Convention : Reuss Voigt Hill
#
# Bulk Modulus (GPa) = 90.91074 91.69813 91.30444
# Shear Modulus (GPa) = 22.71843 33.29745 28.00794
#
# Velocity S-wave (km/s) = 2.86791 3.47202 3.18433
# Velocity P-wave (km/s) = 6.62418 7.01936 6.82463
#
# Compressibility (1/GPa) = 0.01099980
#
# Stress axis : x y z
#
# Youngs Moduli (GPa) = 150.52739 94.53573 149.76147
#
# Poissons Ratio (x) = 0.32738 0.03714
# Poissons Ratio (y) = 0.52129 0.41009
# Poissons Ratio (z) = 0.03733 0.25887
#
# Static dielectric constant tensor:
#      x y z
#    x 2.341070 0.000000 0.000000 
#    y 0.000000 2.611680 0.000000 
#    z 0.000000 0.000000 2.118590 
# 
# From -- ./inp_files/889.got.cif
#   From: 2010.05.17/outbox.cif.g08.bks.cpg/sg34_1_cif.got.tgz:889.got - 2010.06.03 17:23:11.
