data_PCOD9347656
_publ_section_title
;
Structure prediction by ZEFSAII (Michael W. Deem and Ramdas Pophale) SiO2 
 PCOD9347656
Probable space group: P N N 2
;
_chemical_formula_sum "Si O2"
_cell_formula_units_Z 22
_cell_length_a 13.966478
_cell_length_b 12.760604
_cell_length_c 4.734449
_cell_angle_alpha 90.000000
_cell_angle_beta 90.000000
_cell_angle_gamma 90.000000
_cell_volume 843.776791
_symmetry_space_group_name_H-M "P N N 2"
_symmetry_group_IT_number 34
_symmetry_cell_setting 'orthorhombic'
loop_
_space_group_symop_operation_xyz
x,y,z
-x,-y,z
1/2-x,1/2+y,1/2+z
1/2+x,1/2-y,1/2+z
loop_
_atom_site_type_symbol
_atom_site_label
_atom_site_fract_x
_atom_site_fract_y
_atom_site_fract_z
Si Si1 0.809616 0.729040 0.130960
Si Si2 0.884922 0.296359 0.932899
Si Si3 0.000000 0.000000 0.157730
Si Si4 0.814239 0.950423 0.826775
Si Si5 0.002779 0.776498 0.434973
Si Si6 0.701058 0.010601 0.322946
O O1 0.712250 0.743620 0.314350
O O2 0.902401 0.730780 0.331244
O O3 0.813303 0.830242 0.924843
O O4 0.813239 0.625078 0.943018
O O5 0.972278 0.247119 0.756361
O O6 0.876912 0.420978 0.883495
O O7 0.909621 0.273669 0.256037
O O8 0.001673 0.897572 0.351279
O O9 0.909163 0.000283 0.950709
O O10 0.793440 0.966331 0.498887
O O11 0.727158 0.005609 0.995146
#
# Coordination Sequence:
#
# PCOD9347656 Si02
#       6
#     4   4   2   4   4   4
#     4  10  24  43  68  96 132 175 222 269 326 396
#     4  11  24  44  65  97 136 171 218 275 323 386
#     4  10  22  40  66 100 132 166 220 280 326 380
#     4  10  23  39  65  97 128 172 221 272 330 384
#     4  11  25  42  68  99 132 173 221 269 328 392
#     4  11  23  42  65  91 132 178 214 266 332 387
#
# _framework density 26.073246000000001
#
# number of rings (size 3 to 8) (size 9 to 14) (size 15 to 20)
#    0.000    1.455    0.000    4.364    0.000   16.727 
#    0.000    3.636    0.000    0.000    0.000    0.000 
#    0.000    0.000    0.000    0.000    0.000    0.000 
#
# Total GULP energy -123622.250587 kJ/mol
# GULP energy per Si atom -5619.193208 kJ/mol
# Density = 2.601390 g / cm^3
# Si number density = 26.073246 Si / 1000 Ang^3
#
#
#
# Elastic Constant Matrix: (Units=GPa)
#
#
# Indices 1 2 3 4 5 6 
#
# 1 104.4960 35.0837 14.4719 0.0000 0.0000 0.0000
# 2 35.0837 155.1671 9.9622 0.0000 0.0000 0.0000
# 3 14.4719 9.9622 98.1620 0.0000 0.0000 0.0000
# 4 0.0000 0.0000 0.0000 37.7732 0.0000 0.0000
# 5 0.0000 0.0000 0.0000 0.0000 42.3299 0.0000
# 6 0.0000 0.0000 0.0000 0.0000 0.0000 36.9891
#
#
#
# Elastic Compliance Matrix: (Units=1/GPa)
#
#
# Indices 1 2 3 4 5 6 
#
# 1 0.010523 -0.002295 -0.001318 0.000000 0.000000 0.000000
# 2 -0.002295 0.006987 -0.000371 0.000000 0.000000 0.000000
# 3 -0.001318 -0.000371 0.010419 0.000000 0.000000 0.000000
# 4 0.000000 0.000000 0.000000 0.026474 0.000000 0.000000
# 5 0.000000 0.000000 0.000000 0.000000 0.023624 0.000000
# 6 0.000000 0.000000 0.000000 0.000000 0.000000 0.027035
#
#
# Mechanical properties :
#
#
# Convention : Reuss Voigt Hill
#
# Bulk Modulus (GPa) = 50.09643 52.98451 51.54047
# Shear Modulus (GPa) = 41.77683 43.30561 42.54122
#
# Velocity S-wave (km/s) = 4.00720 4.07986 4.04369
# Velocity P-wave (km/s) = 6.37696 6.52374 6.45077
#
# Compressibility (1/GPa) = 0.01996150
#
# Stress axis : x y z
#
# Youngs Moduli (GPa) = 95.03244 143.11720 95.97613
#
# Poissons Ratio (x) = 0.32839 0.12654
# Poissons Ratio (y) = 0.21806 0.03559
# Poissons Ratio (z) = 0.12530 0.05307
#
# Static dielectric constant tensor:
#      x y z
#    x 2.055010 0.000000 0.000000 
#    y 0.000000 2.018470 0.000000 
#    z 0.000000 0.000000 1.948060 
# 
# From -- ./inp_files/1199.got.cif
#   From: 2010.05.17/outbox.cif.g08.bks.cpg/sg34_1_cif.got.tgz:1199.got - 2010.06.03 17:23:11.
