data_PCOD9347683
_publ_section_title
;
Structure prediction by ZEFSAII (Michael W. Deem and Ramdas Pophale) SiO2 
 PCOD9347683
Probable space group: P N N 2
;
_chemical_formula_sum "Si O2"
_cell_formula_units_Z 14
_cell_length_a 11.106574
_cell_length_b 7.318570
_cell_length_c 8.122063
_cell_angle_alpha 90.000000
_cell_angle_beta 90.000000
_cell_angle_gamma 90.000000
_cell_volume 660.195712
_symmetry_space_group_name_H-M "P N N 2"
_symmetry_group_IT_number 34
_symmetry_cell_setting 'orthorhombic'
loop_
_space_group_symop_operation_xyz
x,y,z
-x,-y,z
1/2-x,1/2+y,1/2+z
1/2+x,1/2-y,1/2+z
loop_
_atom_site_type_symbol
_atom_site_label
_atom_site_fract_x
_atom_site_fract_y
_atom_site_fract_z
Si Si1 0.428069 0.732912 0.458030
Si Si2 0.500000 0.500000 0.754706
Si Si3 0.675613 0.615758 0.336224
Si Si4 0.233682 0.016211 0.470166
O O1 0.479989 0.678208 0.637450
O O2 0.538513 0.692481 0.335970
O O3 0.329499 0.573106 0.435362
O O4 0.360084 0.919492 0.425578
O O5 0.382161 0.463413 0.862866
O O6 0.750565 0.768842 0.432745
O O7 0.714746 0.556652 0.154963
#
# Coordination Sequence:
#
# PCOD9347683 Si02
#       4
#     4   2   4   4
#     4  10  24  45  64  99 139 176 234 289 342 423
#     4  10  22  42  68 102 132 176 230 288 344 420
#     4  10  24  40  70  96 137 181 226 287 344 416
#     4  12  22  45  68 100 137 180 227 289 355 409
#
# _framework density 21.205832000000001
#
# number of rings (size 3 to 8) (size 9 to 14) (size 15 to 20)
#    0.000    1.714    2.857    2.571    8.000    0.000 
#    0.000    1.429    0.000    0.000    0.000    0.000 
#    0.000    0.000    0.000    0.000    0.000    0.000 
#
# Total GULP energy -78059.263564 kJ/mol
# GULP energy per Si atom -5575.661683 kJ/mol
# Density = 2.115757 g / cm^3
# Si number density = 21.205832 Si / 1000 Ang^3
#
#
#
# Elastic Constant Matrix: (Units=GPa)
#
#
# Indices 1 2 3 4 5 6 
#
# 1 70.4497 8.1292 31.5368 0.0000 0.0000 0.0000
# 2 8.1292 98.0314 36.7827 0.0000 0.0000 0.0000
# 3 31.5368 36.7827 82.7348 0.0000 0.0000 0.0000
# 4 0.0000 0.0000 0.0000 20.9203 0.0000 0.0000
# 5 0.0000 0.0000 0.0000 0.0000 26.9040 0.0000
# 6 0.0000 0.0000 0.0000 0.0000 0.0000 24.7385
#
#
#
# Elastic Compliance Matrix: (Units=1/GPa)
#
#
# Indices 1 2 3 4 5 6 
#
# 1 0.017240 0.001244 -0.007125 0.000000 0.000000 0.000000
# 2 0.001244 0.012333 -0.005957 0.000000 0.000000 0.000000
# 3 -0.007125 -0.005957 0.017451 0.000000 0.000000 0.000000
# 4 0.000000 0.000000 0.000000 0.047800 0.000000 0.000000
# 5 0.000000 0.000000 0.000000 0.000000 0.037169 0.000000
# 6 0.000000 0.000000 0.000000 0.000000 0.000000 0.040423
#
#
# Mechanical properties :
#
#
# Convention : Reuss Voigt Hill
#
# Bulk Modulus (GPa) = 42.82995 44.90148 43.86572
# Shear Modulus (GPa) = 24.52480 26.16370 25.34425
#
# Velocity S-wave (km/s) = 3.40444 3.51636 3.46085
# Velocity P-wave (km/s) = 5.97451 6.14056 6.05810
#
# Compressibility (1/GPa) = 0.02334815
#
# Stress axis : x y z
#
# Youngs Moduli (GPa) = 58.00355 81.08421 57.30351
#
# Poissons Ratio (x) = -0.10083 0.40826
# Poissons Ratio (y) = -0.07213 0.34136
# Poissons Ratio (z) = 0.41325 0.48302
#
# Static dielectric constant tensor:
#      x y z
#    x 1.809800 0.000000 0.000000 
#    y 0.000000 1.827990 0.000000 
#    z 0.000000 0.000000 1.810740 
# 
# From -- ./inp_files/2243.got.cif
#   From: 2010.05.17/outbox.cif.g08.bks.cpg/sg34_2_cif.got.tgz:2243.got - 2010.06.03 17:23:11.
