data_PCOD9347114
_publ_section_title
;
Structure prediction by ZEFSAII (Michael W. Deem and Ramdas Pophale) SiO2 
 PCOD9347114
Probable space group: P N N 2
;
_chemical_formula_sum "Si O2"
_cell_formula_units_Z 24
_cell_length_a 9.958197
_cell_length_b 15.203565
_cell_length_c 7.284845
_cell_angle_alpha 90.000000
_cell_angle_beta 90.000000
_cell_angle_gamma 90.000000
_cell_volume 1102.926228
_symmetry_space_group_name_H-M "P N N 2"
_symmetry_group_IT_number 34
_symmetry_cell_setting 'orthorhombic'
loop_
_space_group_symop_operation_xyz
x,y,z
-x,-y,z
1/2-x,1/2+y,1/2+z
1/2+x,1/2-y,1/2+z
loop_
_atom_site_type_symbol
_atom_site_label
_atom_site_fract_x
_atom_site_fract_y
_atom_site_fract_z
Si Si1 0.500000 0.500000 0.799381
Si Si2 0.874797 0.629090 0.870031
Si Si3 0.579803 0.678097 0.984182
Si Si4 0.289372 0.044821 0.211922
Si Si5 0.000000 0.500000 0.403825
Si Si6 0.375406 0.230429 0.353502
Si Si7 0.888458 0.670587 0.438048
O O1 0.518891 0.585304 0.925985
O O2 0.363381 0.513395 0.685542
O O3 0.736587 0.673507 0.932705
O O4 0.850231 0.523046 0.866019
O O5 0.902572 0.642467 0.651550
O O6 0.000212 0.682531 0.954193
O O7 0.495265 0.754789 0.888057
O O8 0.568218 0.704717 0.196379
O O9 0.297231 0.145370 0.273245
O O10 0.379739 0.037982 0.030654
O O11 0.074952 0.415734 0.317515
O O12 0.260338 0.289877 0.440670
#
# Coordination Sequence:
#
# PCOD9347114 Si02
#       7
#     2   4   4   4   2   4   4
#     4  10  20  32  56  84 110 144 186 224 274 328
#     4   9  20  35  55  82 106 144 186 227 266 325
#     4  10  20  35  56  80 113 141 180 229 274 326
#     4  10  16  33  59  79 105 141 194 222 262 325
#     4  10  18  38  56  78 112 150 188 222 278 318
#     4  11  19  35  58  83 107 146 179 232 279 325
#     4  10  20  35  58  78 110 147 183 226 274 327
#
# _framework density 21.760297000000001
#
# number of rings (size 3 to 8) (size 9 to 14) (size 15 to 20)
#    0.000    2.000    6.667    0.000    0.000    1.333 
#    3.000    3.333    7.333    0.000    0.000    0.000 
#    0.000    0.000    0.000    0.000    0.000    0.000 
#
# Total GULP energy -133627.753680 kJ/mol
# GULP energy per Si atom -5567.823070 kJ/mol
# Density = 2.171077 g / cm^3
# Si number density = 21.760297 Si / 1000 Ang^3
#
#
#
# Elastic Constant Matrix: (Units=GPa)
#
#
# Indices 1 2 3 4 5 6 
#
# 1 124.9697 23.3864 -12.2401 0.0000 0.0000 0.0000
# 2 23.3864 125.8403 4.3274 0.0000 0.0000 0.0000
# 3 -12.2401 4.3274 15.7631 0.0000 0.0000 0.0000
# 4 0.0000 0.0000 0.0000 -142.9326 0.0000 0.0000
# 5 0.0000 0.0000 0.0000 0.0000 17.8140 0.0000
# 6 0.0000 0.0000 0.0000 0.0000 0.0000 36.6932
#
#
#
# Elastic Compliance Matrix: (Units=1/GPa)
#
#
# Indices 1 2 3 4 5 6 
#
# 1 0.009114 -0.001956 0.007614 0.000000 0.000000 0.000000
# 2 -0.001956 0.008442 -0.003836 0.000000 0.000000 0.000000
# 3 0.007614 -0.003836 0.070404 0.000000 0.000000 0.000000
# 4 0.000000 0.000000 0.000000 -0.006996 0.000000 0.000000
# 5 0.000000 0.000000 0.000000 0.000000 0.056136 0.000000
# 6 0.000000 0.000000 0.000000 0.000000 0.000000 0.027253
#
#
# Mechanical properties :
#
#
# Convention : Reuss Voigt Hill
#
# Bulk Modulus (GPa) = 10.91659 33.05786 21.98723
# Shear Modulus (GPa) = 26.14483 -0.94511 12.59986
#
# Velocity S-wave (km/s) = 3.47002 -0.65975 2.40891
# Velocity P-wave (km/s) = 4.59155 3.82681 4.22651
#
# Compressibility (1/GPa) = 0.09160373
#
# Stress axis : x y z
#
# Youngs Moduli (GPa) = 109.72628 118.45664 14.20371
#
# Poissons Ratio (x) = 0.23164 -0.10814
# Poissons Ratio (y) = 0.21457 0.05449
# Poissons Ratio (z) = -0.83541 0.45440
#
# Static dielectric constant tensor:
#      x y z
#    x 1.845270 0.000000 0.000000 
#    y 0.000000 1.881900 0.000000 
#    z 0.000000 0.000000 1.850270 
# 
# From -- ./inp_files/2642.got.cif
#   From: 2010.05.17/outbox.cif.g08.bks.cpg/sg34_2_cif.got.tgz:2642.got - 2010.06.03 17:23:11.
