data_PCOD9347561
_publ_section_title
;
Structure prediction by ZEFSAII (Michael W. Deem and Ramdas Pophale) SiO2 
 PCOD9347561
Probable space group: P N N 2
;
_chemical_formula_sum "Si O2"
_cell_formula_units_Z 24
_cell_length_a 10.708526
_cell_length_b 11.408796
_cell_length_c 8.922396
_cell_angle_alpha 90.000000
_cell_angle_beta 90.000000
_cell_angle_gamma 90.000000
_cell_volume 1090.061509
_symmetry_space_group_name_H-M "P N N 2"
_symmetry_group_IT_number 34
_symmetry_cell_setting 'orthorhombic'
loop_
_space_group_symop_operation_xyz
x,y,z
-x,-y,z
1/2-x,1/2+y,1/2+z
1/2+x,1/2-y,1/2+z
loop_
_atom_site_type_symbol
_atom_site_label
_atom_site_fract_x
_atom_site_fract_y
_atom_site_fract_z
Si Si1 0.213105 0.107116 0.440580
Si Si2 0.089812 0.662008 0.705907
Si Si3 0.078861 0.313321 0.276723
Si Si4 0.225085 0.843001 0.521512
Si Si5 0.295395 0.232580 0.716772
Si Si6 0.836433 0.572598 0.579125
O O1 0.347494 0.145511 0.368261
O O2 0.117727 0.184599 0.341972
O O3 0.214714 0.148030 0.612579
O O4 0.194954 0.968462 0.448171
O O5 0.117441 0.785148 0.625655
O O6 0.166646 0.563904 0.611415
O O7 0.946993 0.624326 0.686396
O O8 0.157989 0.347854 0.132148
O O9 0.118600 0.398326 0.412544
O O10 0.934538 0.313569 0.238093
O O11 0.251847 0.757718 0.382956
O O12 0.285485 0.355117 0.624192
#
# Coordination Sequence:
#
# PCOD9347561 Si02
#       6
#     4   4   4   4   4   4
#     4  10  24  42  65  98 129 169 225 271 336 399
#     4  10  21  40  64  93 131 170 217 279 333 396
#     4  10  24  42  65  98 129 169 225 271 336 399
#     4  11  23  42  66  95 129 172 219 274 334 396
#     4  11  23  42  66  95 129 172 219 274 334 396
#     4  10  21  40  64  93 131 170 217 279 333 396
#
# _framework density 22.017105999999998
#
# number of rings (size 3 to 8) (size 9 to 14) (size 15 to 20)
#    0.000    1.667    3.333    0.000    4.667    1.333 
#    0.000    0.000    0.000    2.000    0.000    0.000 
#    0.000    0.000    0.000    0.000    0.000    0.000 
#
# Total GULP energy -134045.957311 kJ/mol
# GULP energy per Si atom -5585.248221 kJ/mol
# Density = 2.196699 g / cm^3
# Si number density = 22.017106 Si / 1000 Ang^3
#
#
#
# Elastic Constant Matrix: (Units=GPa)
#
#
# Indices 1 2 3 4 5 6 
#
# 1 15.0223 -10.6678 1.1428 0.0000 0.0000 0.0000
# 2 -10.6678 75.9515 20.5147 0.0000 0.0000 0.0000
# 3 1.1428 20.5147 62.4420 0.0000 0.0000 0.0000
# 4 0.0000 0.0000 0.0000 26.1887 0.0000 0.0000
# 5 0.0000 0.0000 0.0000 0.0000 27.3130 0.0000
# 6 0.0000 0.0000 0.0000 0.0000 0.0000 18.0229
#
#
#
# Elastic Compliance Matrix: (Units=1/GPa)
#
#
# Indices 1 2 3 4 5 6 
#
# 1 0.075532 0.012052 -0.005342 0.000000 0.000000 0.000000
# 2 0.012052 0.016371 -0.005599 0.000000 0.000000 0.000000
# 3 -0.005342 -0.005599 0.017952 0.000000 0.000000 0.000000
# 4 0.000000 0.000000 0.000000 0.038184 0.000000 0.000000
# 5 0.000000 0.000000 0.000000 0.000000 0.036613 0.000000
# 6 0.000000 0.000000 0.000000 0.000000 0.000000 0.055485
#
#
# Mechanical properties :
#
#
# Convention : Reuss Voigt Hill
#
# Bulk Modulus (GPa) = 8.92242 19.48835 14.20539
# Shear Modulus (GPa) = 18.16365 23.80001 20.98183
#
# Velocity S-wave (km/s) = 2.87536 3.29139 3.09038
# Velocity P-wave (km/s) = 3.88393 4.82856 4.38177
#
# Compressibility (1/GPa) = 0.11207716
#
# Stress axis : x y z
#
# Youngs Moduli (GPa) = 13.23940 61.08222 55.70351
#
# Poissons Ratio (x) = -0.73615 0.29756
# Poissons Ratio (y) = -0.15956 0.31190
# Poissons Ratio (z) = 0.07072 0.34201
#
# Static dielectric constant tensor:
#      x y z
#    x 1.822210 0.000000 0.000000 
#    y 0.000000 1.881580 0.000000 
#    z 0.000000 0.000000 1.808750 
# 
# From -- ./inp_files/3148.got.cif
#   From: 2010.05.17/outbox.cif.g08.bks.cpg/sg34_2_cif.got.tgz:3148.got - 2010.06.03 17:23:11.
