data_PCOD9347065
_publ_section_title
;
Structure prediction by ZEFSAII (Michael W. Deem and Ramdas Pophale) SiO2 
 PCOD9347065
Probable space group: P N A 21
;
_chemical_formula_sum "Si O2"
_cell_formula_units_Z 32
_cell_length_a 18.000000
_cell_length_b 6.000000
_cell_length_c 15.000000
_cell_angle_alpha 90.000000
_cell_angle_beta 90.000000
_cell_angle_gamma 90.000000
_cell_volume 1620.000000
_symmetry_space_group_name_H-M "P N A 21"
_symmetry_group_IT_number 33
_symmetry_cell_setting 'orthorhombic'
loop_
_space_group_symop_operation_xyz
x,y,z
-x,-y,1/2+z
1/2-x,1/2+y,1/2+z
1/2+x,1/2-y,z
loop_
_atom_site_type_symbol
_atom_site_label
_atom_site_fract_x
_atom_site_fract_y
_atom_site_fract_z
Si Si1 0.994615 0.022130 0.969380
Si Si2 0.645282 0.246960 0.542198
Si Si3 0.000736 0.264452 0.289701
Si Si4 0.295766 0.311847 0.758253
Si Si5 0.603189 0.901530 0.400204
Si Si6 0.346855 0.056880 0.211663
Si Si7 0.755774 0.569631 0.627718
Si Si8 0.394327 0.612545 0.627186
O O1 0.008805 0.915084 0.870815
O O2 0.958656 0.265472 0.955074
O O3 0.928434 0.881127 0.015061
O O4 0.064187 0.032835 0.037170
O O5 0.717157 0.405884 0.555393
O O6 0.651061 0.057907 0.465929
O O7 0.633502 0.129275 0.637753
O O8 0.057330 0.447066 0.330674
O O9 0.042014 0.180940 0.199428
O O10 0.920243 0.362743 0.262853
O O11 0.344608 0.268890 0.845774
O O12 0.220509 0.454552 0.770857
O O13 0.345436 0.431949 0.682004
O O14 0.273166 0.076644 0.715382
O O15 0.307635 0.254906 0.156064
O O16 0.832855 0.695847 0.604710
#
# Coordination Sequence:
#
# PCOD9347065 Si02
#       8
#     4   4   4   4   4   4   4   4
#     4  11  25  41  67 101 133 173 227 281 341 399
#     4  10  22  39  64  96 133 174 221 272 340 403
#     4  11  23  41  68  99 133 177 225 280 341 401
#     4  10  22  41  67  93 130 179 221 268 340 400
#     4  11  22  41  65  97 131 176 220 277 336 405
#     4  10  23  42  67  96 129 177 217 273 338 400
#     4  10  21  42  64  95 128 180 221 270 342 398
#     4  11  22  41  70  93 133 178 224 279 334 410
#
# _framework density 19.753086
#
# number of rings (size 3 to 8) (size 9 to 14) (size 15 to 20)
#    0.000    1.500    2.500    2.250    1.750    4.000 
#    0.000   16.250    0.000    0.000    0.000    0.000 
#    0.000    0.000    0.000    0.000    0.000    0.000 
#
# Total GULP energy -178760.810844 kJ/mol
# GULP energy per Si atom -5586.275339 kJ/mol
# Density = 1.970813 g / cm^3
# Si number density = 19.753086 Si / 1000 Ang^3
#
#
#
# Elastic Constant Matrix: (Units=GPa)
#
#
# Indices 1 2 3 4 5 6 
#
# 1 124.5198 28.6663 57.6377 0.0000 0.0000 0.0000
# 2 28.6663 66.3786 29.9036 0.0000 0.0000 0.0000
# 3 57.6377 29.9036 93.4928 0.0000 0.0000 0.0000
# 4 0.0000 0.0000 0.0000 35.1664 0.0000 0.0000
# 5 0.0000 0.0000 0.0000 0.0000 37.4293 0.0000
# 6 0.0000 0.0000 0.0000 0.0000 0.0000 34.3688
#
#
#
# Elastic Compliance Matrix: (Units=1/GPa)
#
#
# Indices 1 2 3 4 5 6 
#
# 1 0.011475 -0.002066 -0.006413 0.000000 0.000000 0.000000
# 2 -0.002066 0.017973 -0.004475 0.000000 0.000000 0.000000
# 3 -0.006413 -0.004475 0.016081 0.000000 0.000000 0.000000
# 4 0.000000 0.000000 0.000000 0.028436 0.000000 0.000000
# 5 0.000000 0.000000 0.000000 0.000000 0.026717 0.000000
# 6 0.000000 0.000000 0.000000 0.000000 0.000000 0.029096
#
#
# Mechanical properties :
#
#
# Convention : Reuss Voigt Hill
#
# Bulk Modulus (GPa) = 50.96757 57.42294 54.19526
# Shear Modulus (GPa) = 30.82067 32.60515 31.71291
#
# Velocity S-wave (km/s) = 3.95434 4.06721 4.01117
# Velocity P-wave (km/s) = 6.83429 7.15470 6.99633
#
# Compressibility (1/GPa) = 0.01962032
#
# Stress axis : x y z
#
# Youngs Moduli (GPa) = 87.14420 55.63772 62.18465
#
# Poissons Ratio (x) = 0.11497 0.39882
# Poissons Ratio (y) = 0.18008 0.27827
# Poissons Ratio (z) = 0.55890 0.24897
#
# Static dielectric constant tensor:
#      x y z
#    x 1.661110 0.000000 0.000000 
#    y 0.000000 1.748150 0.000000 
#    z 0.000000 0.000000 1.676260 
# 
# From -- ./inp_files/8223.got.cif
#   From: 2010.05.17/outbox.ucp.g08.bks.cvg/sg33_5_cif.got.tgz:8223.got - 2010.06.11 10:35:07.
