data_PCOD9347367
_publ_section_title
;
Structure prediction by ZEFSAII (Michael W. Deem and Ramdas Pophale) SiO2 
 PCOD9347367
Probable space group: P N N 2
;
_chemical_formula_sum "Si O2"
_cell_formula_units_Z 30
_cell_length_a 14.107672
_cell_length_b 11.539563
_cell_length_c 9.742354
_cell_angle_alpha 90.000000
_cell_angle_beta 90.000000
_cell_angle_gamma 90.000000
_cell_volume 1586.019865
_symmetry_space_group_name_H-M "P N N 2"
_symmetry_group_IT_number 34
_symmetry_cell_setting 'orthorhombic'
loop_
_space_group_symop_operation_xyz
x,y,z
-x,-y,z
1/2-x,1/2+y,1/2+z
1/2+x,1/2-y,1/2+z
loop_
_atom_site_type_symbol
_atom_site_label
_atom_site_fract_x
_atom_site_fract_y
_atom_site_fract_z
Si Si1 0.499973 0.639010 0.516860
Si Si2 0.500000 0.000000 0.978081
Si Si3 0.181582 0.261282 0.881402
Si Si4 0.712950 0.871012 0.648252
Si Si5 0.712995 0.128949 0.648260
Si Si6 0.318471 0.238732 0.381387
Si Si7 0.393195 0.999996 0.251626
Si Si8 0.999982 0.669314 0.224539
O O1 0.500000 0.500000 0.522031
O O2 0.409592 0.689654 0.434222
O O3 0.590327 0.689687 0.434189
O O4 0.499982 0.696551 0.670794
O O5 0.588089 0.000003 0.086390
O O6 0.500005 0.112794 0.877673
O O7 0.244610 0.185087 0.782481
O O8 0.154089 0.382063 0.805893
O O9 0.238450 0.295472 0.017219
O O10 0.738398 0.795419 0.517220
O O11 0.598578 0.873976 0.659491
O O12 0.748901 0.999972 0.630312
O O13 0.755465 0.185039 0.782475
O O14 0.598624 0.126031 0.659520
O O15 0.345912 0.117932 0.305884
O O16 0.500000 0.000000 0.311387
#
# Coordination Sequence:
#
# PCOD9347367 Si02
#       8
#     4   2   4   4   4   4   4   4
#     4  10  21  41  62  90 128 168 207 259 323 375
#     4  10  20  36  70  94 118 156 224 258 306 368
#     4  11  23  40  66  92 125 164 211 261 320 376
#     4  11  23  40  63  91 125 164 211 257 317 376
#     4  11  23  40  63  91 125 164 211 257 317 376
#     4  11  23  40  66  92 125 164 211 261 320 376
#     4  10  22  39  68  92 121 158 212 267 309 380
#     4  10  22  39  65  87 125 167 205 258 310 369
#
# _framework density 18.915272999999999
#
# number of rings (size 3 to 8) (size 9 to 14) (size 15 to 20)
#    0.400    1.067    4.000    0.800    3.733    0.000 
#    9.600    0.000    0.000    0.000    0.000    0.000 
#    0.000    0.000    0.000    0.000    0.000    0.000 
#
# Total GULP energy -167146.423496 kJ/mol
# GULP energy per Si atom -5571.547450 kJ/mol
# Density = 1.887222 g / cm^3
# Si number density = 18.915273 Si / 1000 Ang^3
#
#
#
# Elastic Constant Matrix: (Units=GPa)
#
#
# Indices 1 2 3 4 5 6 
#
# 1 39.4134 28.7461 23.7049 0.0000 0.0000 0.0000
# 2 28.7461 145.6505 53.3002 0.0000 0.0000 0.0000
# 3 23.7049 53.3002 139.5717 0.0000 0.0000 0.0000
# 4 0.0000 0.0000 0.0000 44.9424 0.0000 0.0000
# 5 0.0000 0.0000 0.0000 0.0000 23.1656 0.0000
# 6 0.0000 0.0000 0.0000 0.0000 0.0000 -49.9818
#
#
#
# Elastic Compliance Matrix: (Units=1/GPa)
#
#
# Indices 1 2 3 4 5 6 
#
# 1 0.030967 -0.004867 -0.003401 0.000000 0.000000 0.000000
# 2 -0.004867 0.008746 -0.002513 0.000000 0.000000 0.000000
# 3 -0.003401 -0.002513 0.008702 0.000000 0.000000 0.000000
# 4 0.000000 0.000000 0.000000 0.022251 0.000000 0.000000
# 5 0.000000 0.000000 0.000000 0.000000 0.043167 0.000000
# 6 0.000000 0.000000 0.000000 0.000000 0.000000 -0.020007
#
#
# Mechanical properties :
#
#
# Convention : Reuss Voigt Hill
#
# Bulk Modulus (GPa) = 37.23998 59.57089 48.40544
# Shear Modulus (GPa) = 40.21216 18.21753 29.21485
#
# Velocity S-wave (km/s) = 4.61576 3.10677 3.93429
# Velocity P-wave (km/s) = 6.93812 6.66568 6.80326
#
# Compressibility (1/GPa) = 0.02685286
#
# Stress axis : x y z
#
# Youngs Moduli (GPa) = 32.29197 114.33615 114.91397
#
# Poissons Ratio (x) = 0.55652 0.39079
# Poissons Ratio (y) = 0.15718 0.28882
# Poissons Ratio (z) = 0.10982 0.28737
#
# Static dielectric constant tensor:
#      x y z
#    x 1.648570 0.000000 0.000000 
#    y 0.000000 1.654300 0.000000 
#    z 0.000000 0.000000 1.668330 
# 
# From -- ./inp_files/3631.got.cif
#   From: 2010.05.17/outbox.cif.g08.bks.cpg/sg34_2_cif.got.tgz:3631.got - 2010.06.03 17:23:11.
