data_PCOD9347181
_publ_section_title
;
Structure prediction by ZEFSAII (Michael W. Deem and Ramdas Pophale) SiO2 
 PCOD9347181
Probable space group: P N N 2
;
_chemical_formula_sum "Si O2"
_cell_formula_units_Z 28
_cell_length_a 17.512882
_cell_length_b 8.998849
_cell_length_c 9.346325
_cell_angle_alpha 90.000000
_cell_angle_beta 90.000000
_cell_angle_gamma 90.000000
_cell_volume 1472.941385
_symmetry_space_group_name_H-M "P N N 2"
_symmetry_group_IT_number 34
_symmetry_cell_setting 'orthorhombic'
loop_
_space_group_symop_operation_xyz
x,y,z
-x,-y,z
1/2-x,1/2+y,1/2+z
1/2+x,1/2-y,1/2+z
loop_
_atom_site_type_symbol
_atom_site_label
_atom_site_fract_x
_atom_site_fract_y
_atom_site_fract_z
Si Si1 0.849032 0.478948 0.507860
Si Si2 0.380326 0.534777 0.446911
Si Si3 0.335885 0.378695 0.001542
Si Si4 0.258842 0.052302 0.740418
Si Si5 0.500000 0.500000 0.067794
Si Si6 0.500000 0.000000 0.172638
Si Si7 0.211526 0.883555 0.183507
Si Si8 0.991423 0.203131 0.823632
O O1 0.845323 0.299022 0.519845
O O2 0.825039 0.514108 0.343366
O O3 0.787640 0.553942 0.611878
O O4 0.929905 0.532119 0.566844
O O5 0.307494 0.589460 0.357123
O O6 0.354666 0.470800 0.598503
O O7 0.444722 0.662011 0.440959
O O8 0.417736 0.392939 0.365701
O O9 0.283056 0.446856 0.126507
O O10 0.421561 0.448104 0.995130
O O11 0.295728 0.410933 0.851170
O O12 0.288356 0.204235 0.668256
O O13 0.477381 0.632445 0.175878
O O14 0.476377 0.130825 0.280603
#
# Coordination Sequence:
#
# PCOD9347181 Si02
#       8
#     4   4   4   4   2   2   4   4
#     4  10  23  37  56  89 116 149 196 252 286 353
#     4   9  18  38  55  84 114 153 191 238 286 353
#     4  11  21  39  59  87 118 154 199 238 298 350
#     4  10  19  37  59  79 117 153 189 240 292 348
#     4  10  18  36  58  84 110 160 188 236 276 354
#     4  12  20  36  62  94 110 158 202 246 292 362
#     4  10  23  36  60  87 118 150 199 243 294 348
#     4  10  19  33  64  82 117 154 194 233 292 348
#
# _framework density 19.009582999999999
#
# number of rings (size 3 to 8) (size 9 to 14) (size 15 to 20)
#    0.000    2.000    4.286    0.857    0.000    4.571 
#    0.000    0.000    0.000    7.714    0.000    0.000 
#    0.000    0.000    0.000    0.000    0.000    0.000 
#
# Total GULP energy -155966.076708 kJ/mol
# GULP energy per Si atom -5570.217025 kJ/mol
# Density = 1.896632 g / cm^3
# Si number density = 19.009583 Si / 1000 Ang^3
#
#
#
# Elastic Constant Matrix: (Units=GPa)
#
#
# Indices 1 2 3 4 5 6 
#
# 1 81.6532 0.5232 30.7152 0.0000 0.0000 0.0000
# 2 0.5232 20.5540 18.8849 0.0000 0.0000 0.0000
# 3 30.7152 18.8849 89.0905 0.0000 0.0000 0.0000
# 4 0.0000 0.0000 0.0000 24.2003 0.0000 0.0000
# 5 0.0000 0.0000 0.0000 0.0000 27.4895 0.0000
# 6 0.0000 0.0000 0.0000 0.0000 0.0000 21.6319
#
#
#
# Elastic Compliance Matrix: (Units=1/GPa)
#
#
# Indices 1 2 3 4 5 6 
#
# 1 0.014514 0.005251 -0.006117 0.000000 0.000000 0.000000
# 2 0.005251 0.062319 -0.015020 0.000000 0.000000 0.000000
# 3 -0.006117 -0.015020 0.016517 0.000000 0.000000 0.000000
# 4 0.000000 0.000000 0.000000 0.041322 0.000000 0.000000
# 5 0.000000 0.000000 0.000000 0.000000 0.036377 0.000000
# 6 0.000000 0.000000 0.000000 0.000000 0.000000 0.046228
#
#
# Mechanical properties :
#
#
# Convention : Reuss Voigt Hill
#
# Bulk Modulus (GPa) = 16.23960 32.39379 24.31670
# Shear Modulus (GPa) = 18.54754 24.07597 21.31176
#
# Velocity S-wave (km/s) = 3.12700 3.56268 3.35192
# Velocity P-wave (km/s) = 4.64746 5.83107 5.27258
#
# Compressibility (1/GPa) = 0.06157786
#
# Stress axis : x y z
#
# Youngs Moduli (GPa) = 68.89753 16.04640 60.54212
#
# Poissons Ratio (x) = -0.08426 0.37034
# Poissons Ratio (y) = -0.36177 0.90937
# Poissons Ratio (z) = 0.42145 0.24102
#
# Static dielectric constant tensor:
#      x y z
#    x 1.688700 0.000000 0.000000 
#    y 0.000000 1.706730 0.000000 
#    z 0.000000 0.000000 1.667760 
# 
# From -- ./inp_files/3895.got.cif
#   From: 2010.05.17/outbox.cif.g08.bks.cpg/sg34_2_cif.got.tgz:3895.got - 2010.06.03 17:23:11.
