data_PCOD9347404
_publ_section_title
;
Structure prediction by ZEFSAII (Michael W. Deem and Ramdas Pophale) SiO2 
 PCOD9347404
Probable space group: P N N 2
;
_chemical_formula_sum "Si O2"
_cell_formula_units_Z 30
_cell_length_a 26.000202
_cell_length_b 5.453549
_cell_length_c 9.833588
_cell_angle_alpha 90.000000
_cell_angle_beta 90.000000
_cell_angle_gamma 90.000000
_cell_volume 1394.337637
_symmetry_space_group_name_H-M "P N N 2"
_symmetry_group_IT_number 34
_symmetry_cell_setting 'orthorhombic'
loop_
_space_group_symop_operation_xyz
x,y,z
-x,-y,z
1/2-x,1/2+y,1/2+z
1/2+x,1/2-y,1/2+z
loop_
_atom_site_type_symbol
_atom_site_label
_atom_site_fract_x
_atom_site_fract_y
_atom_site_fract_z
Si Si1 0.150302 0.357396 0.159610
Si Si2 0.500000 0.500000 0.300219
Si Si3 0.113349 0.389288 0.432579
Si Si4 0.779531 0.335846 0.478073
Si Si5 0.102435 0.224037 0.874086
Si Si6 0.154507 0.989276 0.632559
Si Si7 0.437905 0.111494 0.168054
Si Si8 0.785231 0.139849 0.186493
O O1 0.105714 0.373306 0.272920
O O2 0.180551 0.618464 0.149964
O O3 0.183772 0.118439 0.206206
O O4 0.127071 0.289408 0.015371
O O5 0.447025 0.541751 0.381944
O O6 0.487260 0.272572 0.201369
O O7 0.163485 0.565291 0.442962
O O8 0.133855 0.146711 0.506627
O O9 0.066044 0.476043 0.523949
O O10 0.761090 0.217098 0.334772
O O11 0.750122 0.554521 0.557587
O O12 0.791199 0.127272 0.591954
O O13 0.147744 0.140552 0.770997
O O14 0.076538 0.449979 0.797295
O O15 0.111430 0.786941 0.656897
#
# Coordination Sequence:
#
# PCOD9347404 Si02
#       8
#     4   2   4   4   4   4   4   4
#     4  11  25  44  65 100 137 184 227 281 359 419
#     4  10  20  38  68  98 134 166 224 292 346 416
#     4   9  19  40  63  89 130 179 221 274 337 406
#     4  10  22  42  63  96 132 181 238 292 338 404
#     4  10  22  39  66  99 133 172 225 278 352 427
#     4   9  18  37  64  90 124 171 214 272 336 399
#     4   9  19  36  63  97 125 167 217 276 336 410
#     4  11  26  42  68  95 141 182 238 295 346 413
#
# _framework density 21.515591000000001
#
# number of rings (size 3 to 8) (size 9 to 14) (size 15 to 20)
#    0.000    2.133    1.333    0.400    5.600    3.200 
#    2.400    0.000    0.000   19.200    0.000    0.000 
#    0.000    0.000    0.000    0.000    0.000    0.000 
#
# Total GULP energy -167083.578678 kJ/mol
# GULP energy per Si atom -5569.452623 kJ/mol
# Density = 2.146662 g / cm^3
# Si number density = 21.515591 Si / 1000 Ang^3
#
#
#
# Elastic Constant Matrix: (Units=GPa)
#
#
# Indices 1 2 3 4 5 6 
#
# 1 65.5599 35.7137 44.8233 0.0000 0.0000 0.0000
# 2 35.7137 108.4111 50.9622 0.0000 0.0000 0.0000
# 3 44.8233 50.9622 179.9643 0.0000 0.0000 0.0000
# 4 0.0000 0.0000 0.0000 -49.9666 0.0000 0.0000
# 5 0.0000 0.0000 0.0000 0.0000 0.5431 0.0000
# 6 0.0000 0.0000 0.0000 0.0000 0.0000 29.1630
#
#
#
# Elastic Compliance Matrix: (Units=1/GPa)
#
#
# Indices 1 2 3 4 5 6 
#
# 1 0.020510 -0.005024 -0.003686 0.000000 0.000000 0.000000
# 2 -0.005024 0.011871 -0.002110 0.000000 0.000000 0.000000
# 3 -0.003686 -0.002110 0.007072 0.000000 0.000000 0.000000
# 4 0.000000 0.000000 0.000000 -0.020013 0.000000 0.000000
# 5 0.000000 0.000000 0.000000 0.000000 1.841120 0.000000
# 6 0.000000 0.000000 0.000000 0.000000 0.000000 0.034290
#
#
# Mechanical properties :
#
#
# Convention : Reuss Voigt Hill
#
# Bulk Modulus (GPa) = 56.13763 68.54820 62.34291
# Shear Modulus (GPa) = 2.60088 10.77697 6.68892
#
# Velocity S-wave (km/s) = 1.10066 2.24049 1.76511
# Velocity P-wave (km/s) = 5.26911 6.21466 5.76132
#
# Compressibility (1/GPa) = 0.01781336
#
# Stress axis : x y z
#
# Youngs Moduli (GPa) = 48.75685 84.23719 141.39752
#
# Poissons Ratio (x) = 0.42321 0.52115
# Poissons Ratio (y) = 0.24495 0.29840
# Poissons Ratio (z) = 0.17970 0.17777
#
# Static dielectric constant tensor:
#      x y z
#    x 1.818970 0.000000 0.000000 
#    y 0.000000 1.936740 0.000000 
#    z 0.000000 0.000000 1.813120 
# 
# From -- ./inp_files/4151.got.cif
#   From: 2010.05.17/outbox.cif.g08.bks.cpg/sg34_3_cif.got.tgz:4151.got - 2010.06.03 17:23:11.
