data_PCOD9347116
_publ_section_title
;
Structure prediction by ZEFSAII (Michael W. Deem and Ramdas Pophale) SiO2 
 PCOD9347116
Probable space group: P N N 2
;
_chemical_formula_sum "Si O2"
_cell_formula_units_Z 32
_cell_length_a 14.557413
_cell_length_b 8.502506
_cell_length_c 10.798945
_cell_angle_alpha 90.000000
_cell_angle_beta 90.000000
_cell_angle_gamma 90.000000
_cell_volume 1336.633925
_symmetry_space_group_name_H-M "P N N 2"
_symmetry_group_IT_number 34
_symmetry_cell_setting 'orthorhombic'
loop_
_space_group_symop_operation_xyz
x,y,z
-x,-y,z
1/2-x,1/2+y,1/2+z
1/2+x,1/2-y,1/2+z
loop_
_atom_site_type_symbol
_atom_site_label
_atom_site_fract_x
_atom_site_fract_y
_atom_site_fract_z
Si Si1 0.712039 0.047980 0.870690
Si Si2 0.444677 0.663278 0.645840
Si Si3 0.393325 0.460621 0.000787
Si Si4 0.113765 0.065430 0.782936
Si Si5 0.220326 0.936990 0.144457
Si Si6 0.722056 0.884002 0.358894
Si Si7 0.093787 0.708373 0.301331
Si Si8 0.031861 0.761046 0.899797
O O1 0.783200 0.912047 0.826396
O O2 0.618844 0.971783 0.823410
O O3 0.744348 0.211841 0.811536
O O4 0.726691 0.081540 0.016217
O O5 0.500000 0.500000 0.646010
O O6 0.343240 0.593859 0.638283
O O7 0.489631 0.753112 0.760980
O O8 0.472844 0.755003 0.523016
O O9 0.500000 0.500000 0.967866
O O10 0.307484 0.560664 0.945335
O O11 0.382817 0.294131 0.931671
O O12 0.388568 0.486516 0.148015
O O13 0.045077 0.213053 0.792725
O O14 0.081771 0.931856 0.882722
O O15 0.286849 0.983487 0.255036
O O16 0.155098 0.794403 0.192245
O O17 0.617880 0.855390 0.404266
#
# Coordination Sequence:
#
# PCOD9347116 Si02
#       8
#     4   4   4   4   4   4   4   4
#     4  11  23  37  60  94 125 164 209 272 324 374
#     4  10  16  35  60  81 113 154 209 255 304 375
#     4  11  22  39  62  92 124 167 213 261 313 397
#     4  10  19  33  58  89 122 154 211 256 321 377
#     4  10  21  40  58  88 123 161 208 262 316 395
#     4  10  23  38  61  92 129 159 214 268 317 376
#     4  10  22  35  61  89 121 161 212 258 324 380
#     4  10  17  35  58  89 113 160 208 267 304 367
#
# _framework density 23.940733999999999
#
# number of rings (size 3 to 8) (size 9 to 14) (size 15 to 20)
#    0.000    1.750    3.750    4.125    7.000    0.000 
#    0.000    2.500    0.000    3.000    0.000    0.000 
#    0.000    0.000    0.000    0.000    0.000    0.000 
#
# Total GULP energy -178228.399850 kJ/mol
# GULP energy per Si atom -5569.637495 kJ/mol
# Density = 2.388624 g / cm^3
# Si number density = 23.940734 Si / 1000 Ang^3
#
#
#
# Elastic Constant Matrix: (Units=GPa)
#
#
# Indices 1 2 3 4 5 6 
#
# 1 52.4159 28.2781 22.6888 0.0000 0.0000 0.0000
# 2 28.2781 63.5799 31.5018 0.0000 0.0000 0.0000
# 3 22.6888 31.5018 115.4660 0.0000 0.0000 0.0000
# 4 0.0000 0.0000 0.0000 5.2969 0.0000 0.0000
# 5 0.0000 0.0000 0.0000 0.0000 32.7876 0.0000
# 6 0.0000 0.0000 0.0000 0.0000 0.0000 41.1725
#
#
#
# Elastic Compliance Matrix: (Units=1/GPa)
#
#
# Indices 1 2 3 4 5 6 
#
# 1 0.025585 -0.010278 -0.002223 0.000000 0.000000 0.000000
# 2 -0.010278 0.022315 -0.004069 0.000000 0.000000 0.000000
# 3 -0.002223 -0.004069 0.010207 0.000000 0.000000 0.000000
# 4 0.000000 0.000000 0.000000 0.188789 0.000000 0.000000
# 5 0.000000 0.000000 0.000000 0.000000 0.030499 0.000000
# 6 0.000000 0.000000 0.000000 0.000000 0.000000 0.024288
#
#
# Mechanical properties :
#
#
# Convention : Reuss Voigt Hill
#
# Bulk Modulus (GPa) = 40.05046 44.04435 42.04741
# Shear Modulus (GPa) = 14.57100 25.78428 20.17764
#
# Velocity S-wave (km/s) = 2.46971 3.28533 2.90628
# Velocity P-wave (km/s) = 4.98979 5.72961 5.37245
#
# Compressibility (1/GPa) = 0.02496850
#
# Stress axis : x y z
#
# Youngs Moduli (GPa) = 39.08467 44.81229 97.96760
#
# Poissons Ratio (x) = 0.46057 0.21783
# Poissons Ratio (y) = 0.40171 0.39859
# Poissons Ratio (z) = 0.08690 0.18232
#
# Static dielectric constant tensor:
#      x y z
#    x 2.082600 0.000000 0.000000 
#    y 0.000000 1.933720 0.000000 
#    z 0.000000 0.000000 1.955270 
# 
# From -- ./inp_files/5681.got.cif
#   From: 2010.05.17/outbox.cif.g08.bks.cpg/sg34_3_cif.got.tgz:5681.got - 2010.06.03 17:23:11.
