data_PCOD9347369
_publ_section_title
;
Structure prediction by ZEFSAII (Michael W. Deem and Ramdas Pophale) SiO2 
 PCOD9347369
Probable space group: P N N 2
;
_chemical_formula_sum "Si O2"
_cell_formula_units_Z 28
_cell_length_a 15.531819
_cell_length_b 11.618061
_cell_length_c 7.947404
_cell_angle_alpha 90.000000
_cell_angle_beta 90.000000
_cell_angle_gamma 90.000000
_cell_volume 1434.106036
_symmetry_space_group_name_H-M "P N N 2"
_symmetry_group_IT_number 34
_symmetry_cell_setting 'orthorhombic'
loop_
_space_group_symop_operation_xyz
x,y,z
-x,-y,z
1/2-x,1/2+y,1/2+z
1/2+x,1/2-y,1/2+z
loop_
_atom_site_type_symbol
_atom_site_label
_atom_site_fract_x
_atom_site_fract_y
_atom_site_fract_z
Si Si1 0.735577 0.856270 0.453010
Si Si2 0.479161 0.122160 0.029852
Si Si3 0.620037 0.207590 0.776789
Si Si4 0.406261 0.296381 0.273756
Si Si5 0.835409 0.283097 0.309064
Si Si6 0.738913 0.607301 0.046981
Si Si7 0.979661 0.131595 0.126735
O O1 0.817589 0.783848 0.393448
O O2 0.657472 0.804395 0.342737
O O3 0.709319 0.835763 0.646573
O O4 0.753930 0.991247 0.440852
O O5 0.553392 0.140872 0.893462
O O6 0.389401 0.129539 0.925939
O O7 0.500000 0.000000 0.113881
O O8 0.473782 0.229422 0.156751
O O9 0.679393 0.124113 0.666975
O O10 0.563814 0.291351 0.659196
O O11 0.346990 0.381720 0.162695
O O12 0.447797 0.356577 0.434695
O O13 0.768023 0.216529 0.424652
O O14 0.904921 0.188654 0.241921
O O15 0.000000 0.000000 0.169700
#
# Coordination Sequence:
#
# PCOD9347369 Si02
#       7
#     4   4   4   4   4   4   4
#     4  10  20  37  56  78 108 140 174 221 264 307
#     4  10  20  37  55  77 109 141 172 219 264 308
#     4  10  22  34  54  84 104 134 186 214 254 326
#     4   9  22  36  52  81 108 138 182 213 260 324
#     4   9  20  36  56  79 106 138 176 213 264 320
#     4  10  20  37  56  78 108 140 174 221 264 307
#     4  10  20  37  55  77 109 141 172 219 264 308
#
# _framework density 19.524357999999999
#
# number of rings (size 3 to 8) (size 9 to 14) (size 15 to 20)
#    0.000    2.286    0.000    1.714    0.000    5.714 
#    0.000   11.429    0.000    0.000    0.000    0.000 
#    0.000    0.000    0.000    0.000    0.000    0.000 
#
# Total GULP energy -156274.089357 kJ/mol
# GULP energy per Si atom -5581.217477 kJ/mol
# Density = 1.947992 g / cm^3
# Si number density = 19.524358 Si / 1000 Ang^3
#
#
#
# Elastic Constant Matrix: (Units=GPa)
#
#
# Indices 1 2 3 4 5 6 
#
# 1 39.7261 4.3083 -6.1001 0.0000 0.0000 0.0000
# 2 4.3083 55.9793 -21.2168 0.0000 0.0000 0.0000
# 3 -6.1001 -21.2168 36.4060 0.0000 0.0000 0.0000
# 4 0.0000 0.0000 0.0000 17.1704 0.0000 0.0000
# 5 0.0000 0.0000 0.0000 0.0000 16.3382 0.0000
# 6 0.0000 0.0000 0.0000 0.0000 0.0000 11.2959
#
#
#
# Elastic Compliance Matrix: (Units=1/GPa)
#
#
# Indices 1 2 3 4 5 6 
#
# 1 0.025846 -0.000446 0.004070 0.000000 0.000000 0.000000
# 2 -0.000446 0.022936 0.013292 0.000000 0.000000 0.000000
# 3 0.004070 0.013292 0.035896 0.000000 0.000000 0.000000
# 4 0.000000 0.000000 0.000000 0.058240 0.000000 0.000000
# 5 0.000000 0.000000 0.000000 0.000000 0.061206 0.000000
# 6 0.000000 0.000000 0.000000 0.000000 0.000000 0.088528
#
#
# Mechanical properties :
#
#
# Convention : Reuss Voigt Hill
#
# Bulk Modulus (GPa) = 8.43813 9.56604 9.00208
# Shear Modulus (GPa) = 16.76035 19.30224 18.03130
#
# Velocity S-wave (km/s) = 2.93308 3.14765 3.04226
# Velocity P-wave (km/s) = 3.97515 4.25681 4.11839
#
# Compressibility (1/GPa) = 0.11850970
#
# Stress axis : x y z
#
# Youngs Moduli (GPa) = 38.69103 43.59985 27.85805
#
# Poissons Ratio (x) = 0.01946 -0.11340
# Poissons Ratio (y) = 0.01727 -0.37028
# Poissons Ratio (z) = -0.15749 -0.57952
#
# Static dielectric constant tensor:
#      x y z
#    x 1.676120 0.000000 0.000000 
#    y 0.000000 1.677250 0.000000 
#    z 0.000000 0.000000 1.676590 
# 
# From -- ./inp_files/3271.got.cif
#   From: 2010.05.17/outbox.cif.g08.bks.cpg/sg34_2_cif.got.tgz:3271.got - 2010.06.03 17:23:11.
