data_PCOD9347180
_publ_section_title
;
Structure prediction by ZEFSAII (Michael W. Deem and Ramdas Pophale) SiO2 
 PCOD9347180
Probable space group: P N N 2
;
_chemical_formula_sum "Si O2"
_cell_formula_units_Z 22
_cell_length_a 9.310807
_cell_length_b 14.286762
_cell_length_c 7.651296
_cell_angle_alpha 90.000000
_cell_angle_beta 90.000000
_cell_angle_gamma 90.000000
_cell_volume 1017.785215
_symmetry_space_group_name_H-M "P N N 2"
_symmetry_group_IT_number 34
_symmetry_cell_setting 'orthorhombic'
loop_
_space_group_symop_operation_xyz
x,y,z
-x,-y,z
1/2-x,1/2+y,1/2+z
1/2+x,1/2-y,1/2+z
loop_
_atom_site_type_symbol
_atom_site_label
_atom_site_fract_x
_atom_site_fract_y
_atom_site_fract_z
Si Si1 0.483238 0.752420 0.863010
Si Si2 0.721051 0.856515 0.355758
Si Si3 0.000000 0.500000 0.901594
Si Si4 0.674236 0.068057 0.727944
Si Si5 0.046823 0.819509 0.748867
Si Si6 0.740327 0.868232 0.763979
O O1 0.376922 0.673476 0.780612
O O2 0.399105 0.849398 0.835961
O O3 0.640937 0.777970 0.793356
O O4 0.504507 0.726729 0.064153
O O5 0.614632 0.938775 0.293226
O O6 0.627075 0.762223 0.352633
O O7 0.750877 0.883564 0.555814
O O8 0.908017 0.563404 0.040111
O O9 0.840297 0.098091 0.710736
O O10 0.670448 0.966669 0.819420
O O11 0.899412 0.853023 0.835045
#
# Coordination Sequence:
#
# PCOD9347180 Si02
#       6
#     4   4   2   4   4   4
#     4  10  19  34  55  83 108 141 181 234 275 325
#     4   9  20  35  53  79 107 145 186 223 275 338
#     4  10  18  36  58  74 108 156 184 228 270 348
#     4  10  18  36  58  77 106 148 187 218 276 339
#     4  10  22  32  56  86 109 136 189 237 275 323
#     4  10  19  36  58  77 110 148 186 224 276 340
#
# _framework density 21.615561
#
# number of rings (size 3 to 8) (size 9 to 14) (size 15 to 20)
#    0.000    2.182    3.636    0.545    2.545    0.000 
#    3.273    0.000    0.000    0.000    0.000    2.545 
#    0.000    0.000    0.000    0.000    0.000    0.000 
#
# Total GULP energy -122507.813401 kJ/mol
# GULP energy per Si atom -5568.536973 kJ/mol
# Density = 2.156636 g / cm^3
# Si number density = 21.615561 Si / 1000 Ang^3
#
#
#
# Elastic Constant Matrix: (Units=GPa)
#
#
# Indices 1 2 3 4 5 6 
#
# 1 149.8673 41.7197 0.1080 0.0000 0.0000 0.0000
# 2 41.7197 76.5615 12.5320 0.0000 0.0000 0.0000
# 3 0.1080 12.5320 24.4454 0.0000 0.0000 0.0000
# 4 0.0000 0.0000 0.0000 23.5525 0.0000 0.0000
# 5 0.0000 0.0000 0.0000 0.0000 13.6288 0.0000
# 6 0.0000 0.0000 0.0000 0.0000 0.0000 37.9939
#
#
#
# Elastic Compliance Matrix: (Units=1/GPa)
#
#
# Indices 1 2 3 4 5 6 
#
# 1 0.007993 -0.004748 0.002399 0.000000 0.000000 0.000000
# 2 -0.004748 0.017078 -0.008734 0.000000 0.000000 0.000000
# 3 0.002399 -0.008734 0.045375 0.000000 0.000000 0.000000
# 4 0.000000 0.000000 0.000000 0.042458 0.000000 0.000000
# 5 0.000000 0.000000 0.000000 0.000000 0.073374 0.000000
# 6 0.000000 0.000000 0.000000 0.000000 0.000000 0.026320
#
#
# Mechanical properties :
#
#
# Convention : Reuss Voigt Hill
#
# Bulk Modulus (GPa) = 20.71314 39.95485 30.33400
# Shear Modulus (GPa) = 19.93162 28.13600 24.03381
#
# Velocity S-wave (km/s) = 3.03990 3.61176 3.33810
# Velocity P-wave (km/s) = 4.68237 5.99312 5.37783
#
# Compressibility (1/GPa) = 0.04827853
#
# Stress axis : x y z
#
# Youngs Moduli (GPa) = 125.11641 58.55382 22.03874
#
# Poissons Ratio (x) = 0.27801 -0.05287
# Poissons Ratio (y) = 0.59404 0.19249
# Poissons Ratio (z) = -0.30012 0.51143
#
# Static dielectric constant tensor:
#      x y z
#    x 1.899610 0.000000 0.000000 
#    y 0.000000 1.819940 0.000000 
#    z 0.000000 0.000000 1.782110 
# 
# From -- ./inp_files/2559.got.cif
#   From: 2010.05.17/outbox.cif.g08.bks.cpg/sg34_2_cif.got.tgz:2559.got - 2010.06.03 17:23:11.
