data_PCOD9347185
_publ_section_title
;
Structure prediction by ZEFSAII (Michael W. Deem and Ramdas Pophale) SiO2 
 PCOD9347185
Probable space group: P N N 2
;
_chemical_formula_sum "Si O2"
_cell_formula_units_Z 22
_cell_length_a 9.481776
_cell_length_b 7.767806
_cell_length_c 11.023759
_cell_angle_alpha 90.000000
_cell_angle_beta 90.000000
_cell_angle_gamma 90.000000
_cell_volume 811.928474
_symmetry_space_group_name_H-M "P N N 2"
_symmetry_group_IT_number 34
_symmetry_cell_setting 'orthorhombic'
loop_
_space_group_symop_operation_xyz
x,y,z
-x,-y,z
1/2-x,1/2+y,1/2+z
1/2+x,1/2-y,1/2+z
loop_
_atom_site_type_symbol
_atom_site_label
_atom_site_fract_x
_atom_site_fract_y
_atom_site_fract_z
Si Si1 0.450588 0.326570 0.953280
Si Si2 0.823799 0.676136 0.048245
Si Si3 0.237173 0.719739 0.962285
Si Si4 0.202878 0.793462 0.223047
Si Si5 0.500000 0.000000 0.738442
Si Si6 0.511879 0.301250 0.316219
O O1 0.500000 0.500000 0.019455
O O2 0.373741 0.398549 0.829520
O O3 0.332085 0.244312 0.039302
O O4 0.599398 0.231837 0.936352
O O5 0.796070 0.474744 0.010591
O O6 0.920555 0.652888 0.164102
O O7 0.913629 0.769343 0.946063
O O8 0.182528 0.826231 0.080618
O O9 0.145073 0.736295 0.841400
O O10 0.372466 0.788736 0.232347
O O11 0.137784 0.610655 0.276807
O O12 0.500000 0.500000 0.287572
#
# Coordination Sequence:
#
# PCOD9347185 Si02
#       6
#     4   4   4   4   2   4
#     4   9  20  36  62  86 112 149 206 245 289 352
#     4   9  17  39  62  81 110 158 195 235 295 354
#     4  10  20  41  61  82 120 159 196 243 292 359
#     4  10  22  36  58  86 117 152 200 236 296 357
#     4  10  18  36  62  80 116 164 198 242 290 364
#     4  11  22  35  58  92 121 148 195 250 298 344
#
# _framework density 27.095983
#
# number of rings (size 3 to 8) (size 9 to 14) (size 15 to 20)
#    0.000    2.182    3.636    0.000    2.545    4.364 
#    0.000    0.000    0.000   13.091    0.000    0.000 
#    0.000    0.000    0.000    0.000    0.000    0.000 
#
# Total GULP energy -122519.515817 kJ/mol
# GULP energy per Si atom -5569.068901 kJ/mol
# Density = 2.703431 g / cm^3
# Si number density = 27.095983 Si / 1000 Ang^3
#
#
#
# Elastic Constant Matrix: (Units=GPa)
#
#
# Indices 1 2 3 4 5 6 
#
# 1 217.5303 -10.1247 25.7086 0.0000 0.0000 0.0000
# 2 -10.1247 16.7972 -3.9851 0.0000 0.0000 0.0000
# 3 25.7086 -3.9851 87.2278 0.0000 0.0000 0.0000
# 4 0.0000 0.0000 0.0000 -4.6986 0.0000 0.0000
# 5 0.0000 0.0000 0.0000 0.0000 23.4406 0.0000
# 6 0.0000 0.0000 0.0000 0.0000 0.0000 34.3514
#
#
#
# Elastic Compliance Matrix: (Units=1/GPa)
#
#
# Indices 1 2 3 4 5 6 
#
# 1 0.004875 0.002626 -0.001317 0.000000 0.000000 0.000000
# 2 0.002626 0.061601 0.002040 0.000000 0.000000 0.000000
# 3 -0.001317 0.002040 0.011946 0.000000 0.000000 0.000000
# 4 0.000000 0.000000 0.000000 -0.212828 0.000000 0.000000
# 5 0.000000 0.000000 0.000000 0.000000 0.042661 0.000000
# 6 0.000000 0.000000 0.000000 0.000000 0.000000 0.029111
#
#
# Mechanical properties :
#
#
# Convention : Reuss Voigt Hill
#
# Bulk Modulus (GPa) = 11.74809 38.30587 25.02698
# Shear Modulus (GPa) = -122.06993 31.28243 -45.39375
#
# Velocity S-wave (km/s) = -6.71928 3.40149 -4.09748
# Velocity P-wave (km/s) = 7.47350 5.44009 3.62344
#
# Compressibility (1/GPa) = 0.08512025
#
# Stress axis : x y z
#
# Youngs Moduli (GPa) = 205.13201 16.23359 83.71313
#
# Poissons Ratio (x) = -0.04263 0.11023
# Poissons Ratio (y) = -0.53868 -0.17081
# Poissons Ratio (z) = 0.27012 -0.03312
#
# Static dielectric constant tensor:
#      x y z
#    x 2.223530 0.000000 0.000000 
#    y 0.000000 2.358150 0.000000 
#    z 0.000000 0.000000 2.270600 
# 
# From -- ./inp_files/6342.got.cif
#   From: 2010.05.17/outbox.cif.g08.bks.cpg/sg34_4_cif.got.tgz:6342.got - 2010.06.03 17:23:11.
