data_PCOD9347641
_publ_section_title
;
Structure prediction by ZEFSAII (Michael W. Deem and Ramdas Pophale) SiO2 
 PCOD9347641
Probable space group: P N N 2
;
_chemical_formula_sum "Si O2"
_cell_formula_units_Z 30
_cell_length_a 16.727004
_cell_length_b 10.662290
_cell_length_c 6.888154
_cell_angle_alpha 90.000000
_cell_angle_beta 90.000000
_cell_angle_gamma 90.000000
_cell_volume 1228.489643
_symmetry_space_group_name_H-M "P N N 2"
_symmetry_group_IT_number 34
_symmetry_cell_setting 'orthorhombic'
loop_
_space_group_symop_operation_xyz
x,y,z
-x,-y,z
1/2-x,1/2+y,1/2+z
1/2+x,1/2-y,1/2+z
loop_
_atom_site_type_symbol
_atom_site_label
_atom_site_fract_x
_atom_site_fract_y
_atom_site_fract_z
Si Si1 0.442547 0.831918 0.077090
Si Si2 0.955796 0.243412 0.090266
Si Si3 0.500000 0.000000 0.767145
Si Si4 0.878811 0.832244 0.284990
Si Si5 0.106459 0.740012 0.682455
Si Si6 0.345033 0.976043 0.356883
Si Si7 0.244438 0.389210 0.203046
Si Si8 0.196215 0.911445 0.140584
O O1 0.535793 0.800271 0.042674
O O2 0.422561 0.897472 0.281822
O O3 0.433213 0.937650 0.908585
O O4 0.394848 0.709077 0.008759
O O5 0.870098 0.195068 0.162917
O O6 0.965912 0.390799 0.131275
O O7 0.035371 0.181861 0.179089
O O8 0.946036 0.209437 0.863628
O O9 0.814668 0.729981 0.214786
O O10 0.156745 0.034698 0.232791
O O11 0.148150 0.613965 0.764986
O O12 0.172372 0.837070 0.612943
O O13 0.278471 0.891398 0.250383
O O14 0.306790 0.983178 0.570647
O O15 0.274831 0.429135 0.416730
#
# Coordination Sequence:
#
# PCOD9347641 Si02
#       8
#     4   4   2   4   4   4   4   4
#     4  11  23  41  74 109 147 192 257 318 374 464
#     4  10  25  42  74 100 143 196 254 308 379 448
#     4  10  22  38  72 108 138 190 250 312 368 444
#     4  11  23  47  72 103 147 197 244 312 382 457
#     4  11  24  46  67 109 146 188 256 317 372 455
#     4  12  24  42  75 104 148 193 244 314 386 444
#     4  11  26  46  71 107 146 197 250 309 385 449
#     4  11  25  50  68 107 151 191 252 315 376 463
#
# _framework density 24.42023
#
# number of rings (size 3 to 8) (size 9 to 14) (size 15 to 20)
#    0.000    1.067    4.000    1.200    9.333    0.000 
#    9.600    0.000    0.000    0.000    0.000    0.000 
#    0.000    0.000    0.000    0.000    0.000    0.000 
#
# Total GULP energy -167538.135670 kJ/mol
# GULP energy per Si atom -5584.604522 kJ/mol
# Density = 2.436465 g / cm^3
# Si number density = 24.420230 Si / 1000 Ang^3
#
#
#
# Elastic Constant Matrix: (Units=GPa)
#
#
# Indices 1 2 3 4 5 6 
#
# 1 126.1363 27.0542 32.9493 0.0000 0.0000 0.0000
# 2 27.0542 75.2711 17.7961 0.0000 0.0000 0.0000
# 3 32.9493 17.7961 95.2642 0.0000 0.0000 0.0000
# 4 0.0000 0.0000 0.0000 21.7506 0.0000 0.0000
# 5 0.0000 0.0000 0.0000 0.0000 50.4009 0.0000
# 6 0.0000 0.0000 0.0000 0.0000 0.0000 48.4519
#
#
#
# Elastic Compliance Matrix: (Units=1/GPa)
#
#
# Indices 1 2 3 4 5 6 
#
# 1 0.009202 -0.002673 -0.002683 0.000000 0.000000 0.000000
# 2 -0.002673 0.014676 -0.001817 0.000000 0.000000 0.000000
# 3 -0.002683 -0.001817 0.011765 0.000000 0.000000 0.000000
# 4 0.000000 0.000000 0.000000 0.045976 0.000000 0.000000
# 5 0.000000 0.000000 0.000000 0.000000 0.019841 0.000000
# 6 0.000000 0.000000 0.000000 0.000000 0.000000 0.020639
#
#
# Mechanical properties :
#
#
# Convention : Reuss Voigt Hill
#
# Bulk Modulus (GPa) = 46.95813 50.25232 48.60522
# Shear Modulus (GPa) = 34.83260 38.71216 36.77238
#
# Velocity S-wave (km/s) = 3.78085 3.98584 3.88469
# Velocity P-wave (km/s) = 6.19118 6.46571 6.32993
#
# Compressibility (1/GPa) = 0.02129557
#
# Stress axis : x y z
#
# Youngs Moduli (GPa) = 108.66924 68.14003 85.00014
#
# Poissons Ratio (x) = 0.18214 0.22809
# Poissons Ratio (y) = 0.29048 0.15444
# Poissons Ratio (z) = 0.29161 0.12381
#
# Static dielectric constant tensor:
#      x y z
#    x 1.995900 0.000000 0.000000 
#    y 0.000000 1.935100 0.000000 
#    z 0.000000 0.000000 2.078660 
# 
# From -- ./inp_files/3749.got.cif
#   From: 2010.05.17/outbox.cif.g08.bks.cpg/sg34_2_cif.got.tgz:3749.got - 2010.06.03 17:23:11.
