data_PCOD9347205
_publ_section_title
;
Structure prediction by ZEFSAII (Michael W. Deem and Ramdas Pophale) SiO2 
 PCOD9347205
Probable space group: P N N 2
;
_chemical_formula_sum "Si O2"
_cell_formula_units_Z 28
_cell_length_a 12.815456
_cell_length_b 11.932178
_cell_length_c 7.143052
_cell_angle_alpha 90.000000
_cell_angle_beta 90.000000
_cell_angle_gamma 90.000000
_cell_volume 1092.289098
_symmetry_space_group_name_H-M "P N N 2"
_symmetry_group_IT_number 34
_symmetry_cell_setting 'orthorhombic'
loop_
_space_group_symop_operation_xyz
x,y,z
-x,-y,z
1/2-x,1/2+y,1/2+z
1/2+x,1/2-y,1/2+z
loop_
_atom_site_type_symbol
_atom_site_label
_atom_site_fract_x
_atom_site_fract_y
_atom_site_fract_z
Si Si1 0.200367 0.421442 0.059730
Si Si2 0.359691 0.226947 0.178515
Si Si3 0.510931 0.207559 0.504876
Si Si4 0.675904 0.006850 0.968617
Si Si5 0.387638 0.544022 0.962263
Si Si6 0.952459 0.725794 0.429771
Si Si7 0.896464 0.943831 0.911656
O O1 0.091422 0.392621 0.962480
O O2 0.170561 0.497196 0.240007
O O3 0.283615 0.475156 0.920443
O O4 0.263581 0.311989 0.143547
O O5 0.461074 0.275542 0.069048
O O6 0.352698 0.106901 0.075289
O O7 0.404433 0.213186 0.388048
O O8 0.496904 0.203320 0.728180
O O9 0.584177 0.314606 0.455958
O O10 0.605424 0.115781 0.007632
O O11 0.799844 0.009504 0.998209
O O12 0.500000 0.500000 0.895136
O O13 0.389100 0.541057 0.188686
O O14 0.373007 0.671831 0.901691
O O15 0.000000 0.000000 0.981826
#
# Coordination Sequence:
#
# PCOD9347205 Si02
#       7
#     4   4   4   4   4   4   4
#     4  10  22  44  75 109 151 203 266 324 386 480
#     4  12  22  48  77 102 151 206 250 325 398 459
#     4  11  23  43  70 107 147 197 260 308 391 479
#     4  10  23  42  72 108 150 197 247 328 392 457
#     4  10  18  39  72 100 144 200 254 323 384 455
#     4  11  24  42  68 108 153 195 257 321 391 466
#     4  10  19  41  72 102 141 197 257 316 386 462
#
# _framework density 25.634238
#
# number of rings (size 3 to 8) (size 9 to 14) (size 15 to 20)
#    0.000    1.429    4.286    2.143    0.000    0.571 
#    2.571   18.571    0.000    0.000    0.000    0.000 
#    0.000    0.000    0.000    0.000    0.000    0.000 
#
# Total GULP energy -156574.945620 kJ/mol
# GULP energy per Si atom -5591.962344 kJ/mol
# Density = 2.557589 g / cm^3
# Si number density = 25.634238 Si / 1000 Ang^3
#
#
#
# Elastic Constant Matrix: (Units=GPa)
#
#
# Indices 1 2 3 4 5 6 
#
# 1 85.5008 25.4563 18.1296 0.0000 0.0000 0.0000
# 2 25.4563 120.2443 25.6113 0.0000 0.0000 0.0000
# 3 18.1296 25.6113 135.4073 0.0000 0.0000 0.0000
# 4 0.0000 0.0000 0.0000 40.0746 0.0000 0.0000
# 5 0.0000 0.0000 0.0000 0.0000 24.1487 0.0000
# 6 0.0000 0.0000 0.0000 0.0000 0.0000 53.5367
#
#
#
# Elastic Compliance Matrix: (Units=1/GPa)
#
#
# Indices 1 2 3 4 5 6 
#
# 1 0.012679 -0.002420 -0.001240 0.000000 0.000000 0.000000
# 2 -0.002420 0.009127 -0.001402 0.000000 0.000000 0.000000
# 3 -0.001240 -0.001402 0.007816 0.000000 0.000000 0.000000
# 4 0.000000 0.000000 0.000000 0.024953 0.000000 0.000000
# 5 0.000000 0.000000 0.000000 0.000000 0.041410 0.000000
# 6 0.000000 0.000000 0.000000 0.000000 0.000000 0.018679
#
#
# Mechanical properties :
#
#
# Convention : Reuss Voigt Hill
#
# Bulk Modulus (GPa) = 51.28652 53.28300 52.28476
# Shear Modulus (GPa) = 38.08373 41.68234 39.88304
#
# Velocity S-wave (km/s) = 3.85861 4.03680 3.94871
# Velocity P-wave (km/s) = 6.31682 6.52370 6.42109
#
# Compressibility (1/GPa) = 0.01949830
#
# Stress axis : x y z
#
# Youngs Moduli (GPa) = 78.86889 109.55949 127.93656
#
# Poissons Ratio (x) = 0.26515 0.15862
# Poissons Ratio (y) = 0.19088 0.17941
# Poissons Ratio (z) = 0.09779 0.15364
#
# Static dielectric constant tensor:
#      x y z
#    x 2.064830 0.000000 0.000000 
#    y 0.000000 2.024490 0.000000 
#    z 0.000000 0.000000 2.009030 
# 
# From -- ./inp_files/3591.got.cif
#   From: 2010.05.17/outbox.cif.g08.bks.cpg/sg34_2_cif.got.tgz:3591.got - 2010.06.03 17:23:11.
