data_PCOD9347903
_publ_section_title
;
Structure prediction by ZEFSAII (Michael W. Deem and Ramdas Pophale) SiO2 
 PCOD9347903
Probable space group: P N N 2
;
_chemical_formula_sum "Si O2"
_cell_formula_units_Z 14
_cell_length_a 5.196549
_cell_length_b 17.562582
_cell_length_c 6.338193
_cell_angle_alpha 90.000000
_cell_angle_beta 90.000000
_cell_angle_gamma 90.000000
_cell_volume 578.454030
_symmetry_space_group_name_H-M "P N N 2"
_symmetry_group_IT_number 34
_symmetry_cell_setting 'orthorhombic'
loop_
_space_group_symop_operation_xyz
x,y,z
-x,-y,z
1/2-x,1/2+y,1/2+z
1/2+x,1/2-y,1/2+z
loop_
_atom_site_type_symbol
_atom_site_label
_atom_site_fract_x
_atom_site_fract_y
_atom_site_fract_z
Si Si1 0.213024 0.658339 0.201640
Si Si2 0.247611 0.956977 0.168873
Si Si3 0.217847 0.809857 0.968917
Si Si4 0.500000 0.000000 0.748553
O O1 0.493891 0.665614 0.306363
O O2 0.003406 0.680292 0.378936
O O3 0.125054 0.573390 0.140346
O O4 0.182073 0.721887 0.024567
O O5 0.500000 0.000000 0.250818
O O6 0.210226 0.866292 0.173162
O O7 0.000000 0.000000 0.250591
O O8 0.282890 0.971602 0.915829
#
# Coordination Sequence:
#
# PCOD9347903 Si02
#       4
#     4   4   4   2
#     4  11  22  37  63  84 123 147 206 235 301 339
#     4   9  15  30  54  79  99 143 200 225 253 342
#     4  11  21  37  59  93 111 157 191 254 283 352
#     4   8  18  32  58  78 104 158 192 226 262 372
#
# _framework density 24.202444
#
# number of rings (size 3 to 8) (size 9 to 14) (size 15 to 20)
#    0.857    1.143    2.857    1.714    0.000    0.000 
#    0.000    0.000    9.429    0.000    0.000    0.000 
#    0.000    0.000    0.000    0.000    0.000    0.000 
#
# Total GULP energy -78100.731206 kJ/mol
# GULP energy per Si atom -5578.623658 kJ/mol
# Density = 2.414736 g / cm^3
# Si number density = 24.202444 Si / 1000 Ang^3
#
#
#
# Elastic Constant Matrix: (Units=GPa)
#
#
# Indices 1 2 3 4 5 6 
#
# 1 123.0538 16.2266 4.8921 0.0000 0.0000 0.0000
# 2 16.2266 175.6098 37.0829 0.0000 0.0000 0.0000
# 3 4.8921 37.0829 34.2154 0.0000 0.0000 0.0000
# 4 0.0000 0.0000 0.0000 25.1859 0.0000 0.0000
# 5 0.0000 0.0000 0.0000 0.0000 -18.0712 0.0000
# 6 0.0000 0.0000 0.0000 0.0000 0.0000 40.8814
#
#
#
# Elastic Compliance Matrix: (Units=1/GPa)
#
#
# Indices 1 2 3 4 5 6 
#
# 1 0.008232 -0.000664 -0.000457 0.000000 0.000000 0.000000
# 2 -0.000664 0.007438 -0.007966 0.000000 0.000000 0.000000
# 3 -0.000457 -0.007966 0.037926 0.000000 0.000000 0.000000
# 4 0.000000 0.000000 0.000000 0.039705 0.000000 0.000000
# 5 0.000000 0.000000 0.000000 0.000000 -0.055337 0.000000
# 6 0.000000 0.000000 0.000000 0.000000 0.000000 0.024461
#
#
# Mechanical properties :
#
#
# Convention : Reuss Voigt Hill
#
# Bulk Modulus (GPa) = 28.23207 49.92024 39.07615
# Shear Modulus (GPa) = 54.10777 27.91104 41.00940
#
# Velocity S-wave (km/s) = 4.73338 3.39961 4.12081
# Velocity P-wave (km/s) = 6.44697 6.00672 6.23074
#
# Compressibility (1/GPa) = 0.03542071
#
# Stress axis : x y z
#
# Youngs Moduli (GPa) = 121.47300 134.44372 26.36707
#
# Poissons Ratio (x) = 0.08929 0.01206
# Poissons Ratio (y) = 0.08067 0.21005
# Poissons Ratio (z) = 0.05555 1.07104
#
# Static dielectric constant tensor:
#      x y z
#    x 1.887380 0.000000 0.000000 
#    y 0.000000 2.075650 0.000000 
#    z 0.000000 0.000000 2.006470 
# 
# From -- ./inp_files/1936.got.cif
#   From: 2010.05.17/outbox.cif.g08.bks.cpg/sg34_1_cif.got.tgz:1936.got - 2010.06.03 17:23:11.
