data_PCOD9347688
_publ_section_title
;
Structure prediction by ZEFSAII (Michael W. Deem and Ramdas Pophale) SiO2 
 PCOD9347688
Probable space group: P N N 2
;
_chemical_formula_sum "Si O2"
_cell_formula_units_Z 32
_cell_length_a 8.129067
_cell_length_b 11.260014
_cell_length_c 15.455691
_cell_angle_alpha 90.000000
_cell_angle_beta 90.000000
_cell_angle_gamma 90.000000
_cell_volume 1414.712074
_symmetry_space_group_name_H-M "P N N 2"
_symmetry_group_IT_number 34
_symmetry_cell_setting 'orthorhombic'
loop_
_space_group_symop_operation_xyz
x,y,z
-x,-y,z
1/2-x,1/2+y,1/2+z
1/2+x,1/2-y,1/2+z
loop_
_atom_site_type_symbol
_atom_site_label
_atom_site_fract_x
_atom_site_fract_y
_atom_site_fract_z
Si Si1 0.758221 0.936400 0.932610
Si Si2 0.671599 0.045970 0.477517
Si Si3 0.876971 0.792246 0.772019
Si Si4 0.592876 0.285249 0.575967
Si Si5 0.760091 0.823172 0.584462
Si Si6 0.676921 0.551749 0.801837
Si Si7 0.402161 0.811365 0.924935
Si Si8 0.261188 0.192961 0.260801
O O1 0.846308 0.887320 0.847052
O O2 0.583080 0.867204 0.929879
O O3 0.720504 0.075673 0.927748
O O4 0.854935 0.898892 0.019383
O O5 0.647784 0.175666 0.515350
O O6 0.810442 0.044564 0.405465
O O7 0.500000 0.000000 0.436036
O O8 0.703219 0.951800 0.552381
O O9 0.845927 0.837749 0.675759
O O10 0.750532 0.680437 0.781042
O O11 0.063966 0.751183 0.778051
O O12 0.399489 0.262688 0.590994
O O13 0.684187 0.278273 0.667706
O O14 0.871737 0.768424 0.509068
O O15 0.500000 0.500000 0.772372
O O16 0.790468 0.447960 0.764228
O O17 0.360420 0.736705 0.838217
#
# Coordination Sequence:
#
# PCOD9347688 Si02
#       8
#     4   4   4   4   4   4   4   4
#     4  11  25  45  67  95 134 174 218 271 328 388
#     4  10  22  42  68  97 130 167 210 270 332 386
#     4  12  26  44  67  97 134 172 220 271 327 389
#     4  11  24  43  68  98 133 171 217 269 329 390
#     4  11  24  43  68  98 133 171 217 269 329 390
#     4  12  24  42  70  97 128 169 220 270 328 390
#     4  11  25  45  67  95 134 174 218 271 328 388
#     4  12  26  44  67  97 134 172 220 271 327 389
#
# _framework density 22.619446
#
# number of rings (size 3 to 8) (size 9 to 14) (size 15 to 20)
#    0.000    0.750    2.500    4.875    3.500    3.000 
#    0.000    0.000    0.000    0.000    0.000    0.000 
#    0.000    0.000    0.000    0.000    0.000    0.000 
#
# Total GULP energy -179135.551536 kJ/mol
# GULP energy per Si atom -5597.985985 kJ/mol
# Density = 2.256796 g / cm^3
# Si number density = 22.619446 Si / 1000 Ang^3
#
#
#
# Elastic Constant Matrix: (Units=GPa)
#
#
# Indices 1 2 3 4 5 6 
#
# 1 58.5358 -13.7766 22.6444 0.0000 0.0000 0.0000
# 2 -13.7766 49.9192 -6.4138 0.0000 0.0000 0.0000
# 3 22.6444 -6.4138 97.4343 0.0000 0.0000 0.0000
# 4 0.0000 0.0000 0.0000 19.3722 0.0000 0.0000
# 5 0.0000 0.0000 0.0000 0.0000 16.1161 0.0000
# 6 0.0000 0.0000 0.0000 0.0000 0.0000 33.3911
#
#
#
# Elastic Compliance Matrix: (Units=1/GPa)
#
#
# Indices 1 2 3 4 5 6 
#
# 1 0.019911 0.004942 -0.004302 0.000000 0.000000 0.000000
# 2 0.004942 0.021430 0.000262 0.000000 0.000000 0.000000
# 3 -0.004302 0.000262 0.011280 0.000000 0.000000 0.000000
# 4 0.000000 0.000000 0.000000 0.051620 0.000000 0.000000
# 5 0.000000 0.000000 0.000000 0.000000 0.062050 0.000000
# 6 0.000000 0.000000 0.000000 0.000000 0.000000 0.029948
#
#
# Mechanical properties :
#
#
# Convention : Reuss Voigt Hill
#
# Bulk Modulus (GPa) = 18.37366 23.42194 20.89780
# Shear Modulus (GPa) = 23.52085 27.33822 25.42953
#
# Velocity S-wave (km/s) = 3.22817 3.48029 3.35660
# Velocity P-wave (km/s) = 4.69418 5.15045 4.92760
#
# Compressibility (1/GPa) = 0.05442573
#
# Stress axis : x y z
#
# Youngs Moduli (GPa) = 50.22348 46.66360 88.64917
#
# Poissons Ratio (x) = -0.23062 0.38138
# Poissons Ratio (y) = -0.24822 -0.02323
# Poissons Ratio (z) = 0.21607 -0.01223
#
# Static dielectric constant tensor:
#      x y z
#    x 1.889150 0.000000 0.000000 
#    y 0.000000 1.825840 0.000000 
#    z 0.000000 0.000000 1.786260 
# 
# From -- ./inp_files/6562.got.cif
#   From: 2010.05.17/outbox.cif.g08.bks.cpg/sg34_4_cif.got.tgz:6562.got - 2010.06.03 17:23:11.
