data_PCOD9347578
_publ_section_title
;
Structure prediction by ZEFSAII (Michael W. Deem and Ramdas Pophale) SiO2 
 PCOD9347578
Probable space group: P N N 2
;
_chemical_formula_sum "Si O2"
_cell_formula_units_Z 32
_cell_length_a 15.989090
_cell_length_b 14.023315
_cell_length_c 5.574994
_cell_angle_alpha 90.000000
_cell_angle_beta 90.000000
_cell_angle_gamma 90.000000
_cell_volume 1250.025409
_symmetry_space_group_name_H-M "P N N 2"
_symmetry_group_IT_number 34
_symmetry_cell_setting 'orthorhombic'
loop_
_space_group_symop_operation_xyz
x,y,z
-x,-y,z
1/2-x,1/2+y,1/2+z
1/2+x,1/2-y,1/2+z
loop_
_atom_site_type_symbol
_atom_site_label
_atom_site_fract_x
_atom_site_fract_y
_atom_site_fract_z
Si Si1 0.738213 0.766144 0.266650
Si Si2 0.780874 0.412208 0.152964
Si Si3 0.151361 0.925541 0.746191
Si Si4 0.401039 0.123724 0.030375
Si Si5 0.685150 0.049909 0.250293
Si Si6 0.113212 0.963203 0.232084
Si Si7 0.906254 0.820864 0.103867
Si Si8 0.429240 0.783450 0.118057
O O1 0.761843 0.828798 0.496754
O O2 0.724197 0.654192 0.254303
O O3 0.647171 0.806012 0.207497
O O4 0.806148 0.802006 0.077032
O O5 0.701195 0.472953 0.253763
O O6 0.856476 0.355123 0.279632
O O7 0.828809 0.495309 0.001402
O O8 0.097893 0.924356 0.499676
O O9 0.095909 0.909835 0.983086
O O10 0.362675 0.019324 0.068555
O O11 0.496287 0.139821 0.083212
O O12 0.784856 0.041040 0.231020
O O13 0.650634 0.153480 0.197864
O O14 0.080856 0.069752 0.184857
O O15 0.925971 0.761625 0.349641
O O16 0.943467 0.785149 0.849673
#
# Coordination Sequence:
#
# PCOD9347578 Si02
#       8
#     4   4   4   4   4   4   4   4
#     4  11  24  40  74 100 140 187 244 293 357 425
#     4  10  21  41  69  98 147 181 236 293 363 422
#     4  11  21  38  65 106 126 173 232 296 344 418
#     4  11  24  45  64  98 146 193 222 298 361 449
#     4  10  21  42  62  97 135 185 224 284 350 439
#     4  11  21  41  67  98 137 170 230 296 354 400
#     4  12  24  44  66 102 138 183 231 304 341 421
#     4  12  29  41  69 104 146 183 239 282 376 440
#
# _framework density 25.599481000000001
#
# number of rings (size 3 to 8) (size 9 to 14) (size 15 to 20)
#    0.000    1.000    5.000    3.375    8.750    0.000 
#    0.000    0.000    0.000    4.500    0.000    0.000 
#    0.000    0.000    0.000    0.000    0.000    0.000 
#
# Total GULP energy -178534.892250 kJ/mol
# GULP energy per Si atom -5579.215383 kJ/mol
# Density = 2.554122 g / cm^3
# Si number density = 25.599481 Si / 1000 Ang^3
#
#
#
# Elastic Constant Matrix: (Units=GPa)
#
#
# Indices 1 2 3 4 5 6 
#
# 1 68.4536 5.7619 6.8908 0.0000 0.0000 0.0000
# 2 5.7619 115.2721 19.2617 0.0000 0.0000 0.0000
# 3 6.8908 19.2617 148.5214 0.0000 0.0000 0.0000
# 4 0.0000 0.0000 0.0000 24.6332 0.0000 0.0000
# 5 0.0000 0.0000 0.0000 0.0000 20.2318 0.0000
# 6 0.0000 0.0000 0.0000 0.0000 0.0000 28.5182
#
#
#
# Elastic Compliance Matrix: (Units=1/GPa)
#
#
# Indices 1 2 3 4 5 6 
#
# 1 0.014722 -0.000636 -0.000601 0.000000 0.000000 0.000000
# 2 -0.000636 0.008895 -0.001124 0.000000 0.000000 0.000000
# 3 -0.000601 -0.001124 0.006907 0.000000 0.000000 0.000000
# 4 0.000000 0.000000 0.000000 0.040596 0.000000 0.000000
# 5 0.000000 0.000000 0.000000 0.000000 0.049427 0.000000
# 6 0.000000 0.000000 0.000000 0.000000 0.000000 0.035065
#
#
# Mechanical properties :
#
#
# Convention : Reuss Voigt Hill
#
# Bulk Modulus (GPa) = 38.75471 44.00843 41.38157
# Shear Modulus (GPa) = 29.59746 34.69882 32.14814
#
# Velocity S-wave (km/s) = 3.40395 3.68564 3.54759
# Velocity P-wave (km/s) = 5.53361 5.94478 5.74287
#
# Compressibility (1/GPa) = 0.02580332
#
# Stress axis : x y z
#
# Youngs Moduli (GPa) = 67.92375 112.42617 144.78727
#
# Poissons Ratio (x) = 0.07145 0.08696
# Poissons Ratio (y) = 0.04317 0.16275
# Poissons Ratio (z) = 0.04080 0.12637
#
# Static dielectric constant tensor:
#      x y z
#    x 2.024190 0.000000 0.000000 
#    y 0.000000 2.006280 0.000000 
#    z 0.000000 0.000000 2.297680 
# 
# From -- ./inp_files/1506.got.cif
#   From: 2010.05.17/outbox.cif.g08.bks.cpg/sg34_1_cif.got.tgz:1506.got - 2010.06.03 17:23:11.
