data_PCOD9347636
_publ_section_title
;
Structure prediction by ZEFSAII (Michael W. Deem and Ramdas Pophale) SiO2 
 PCOD9347636
Probable space group: P N N 2
;
_chemical_formula_sum "Si O2"
_cell_formula_units_Z 28
_cell_length_a 15.083480
_cell_length_b 13.397375
_cell_length_c 5.135702
_cell_angle_alpha 90.000000
_cell_angle_beta 90.000000
_cell_angle_gamma 90.000000
_cell_volume 1037.817719
_symmetry_space_group_name_H-M "P N N 2"
_symmetry_group_IT_number 34
_symmetry_cell_setting 'orthorhombic'
loop_
_space_group_symop_operation_xyz
x,y,z
-x,-y,z
1/2-x,1/2+y,1/2+z
1/2+x,1/2-y,1/2+z
loop_
_atom_site_type_symbol
_atom_site_label
_atom_site_fract_x
_atom_site_fract_y
_atom_site_fract_z
Si Si1 0.749605 0.634734 0.536130
Si Si2 0.552818 0.194597 0.939628
Si Si3 0.753489 0.332640 0.334545
Si Si4 0.000000 0.000000 0.138278
Si Si5 0.416574 0.135738 0.585223
Si Si6 0.423625 0.327477 0.276671
Si Si7 0.500000 0.000000 0.256432
Si Si8 0.312155 0.559139 0.812569
O O1 0.842325 0.679792 0.437550
O O2 0.731110 0.717495 0.761607
O O3 0.675223 0.621159 0.305631
O O4 0.746296 0.530349 0.690619
O O5 0.495535 0.288338 0.059413
O O6 0.523390 0.096013 0.094846
O O7 0.513078 0.176865 0.656611
O O8 0.854629 0.371407 0.334934
O O9 0.698800 0.356299 0.589435
O O10 0.713356 0.392901 0.087421
O O11 0.912669 0.981238 0.309392
O O12 0.020952 0.903402 0.959443
O O13 0.387578 0.221847 0.390453
O O14 0.421392 0.031330 0.447957
#
# Coordination Sequence:
#
# PCOD9347636 Si02
#       8
#     4   4   4   2   4   4   2   4
#     4  10  24  45  67 107 139 188 242 297 355 440
#     4  11  22  41  70  94 140 180 229 291 362 422
#     4  11  26  45  70 102 146 185 239 294 360 423
#     4  10  22  48  70  98 140 182 248 290 354 422
#     4  10  23  38  64  99 134 180 226 287 349 425
#     4   9  22  44  62 100 133 185 230 296 348 427
#     4  10  22  38  62  96 136 172 228 280 356 424
#     4  11  26  46  74 106 141 193 238 300 360 428
#
# _framework density 26.979687999999999
#
# number of rings (size 3 to 8) (size 9 to 14) (size 15 to 20)
#    0.000    1.714    0.000    2.143   12.000    1.714 
#   12.857    0.000    0.000    0.000    0.000    0.000 
#    0.000    0.000    0.000    0.000    0.000    0.000 
#
# Total GULP energy -156333.837388 kJ/mol
# GULP energy per Si atom -5583.351335 kJ/mol
# Density = 2.691828 g / cm^3
# Si number density = 26.979688 Si / 1000 Ang^3
#
#
#
# Elastic Constant Matrix: (Units=GPa)
#
#
# Indices 1 2 3 4 5 6 
#
# 1 151.0989 17.5406 21.1539 0.0000 0.0000 0.0000
# 2 17.5406 127.3431 38.5457 0.0000 0.0000 0.0000
# 3 21.1539 38.5457 89.4949 0.0000 0.0000 0.0000
# 4 0.0000 0.0000 0.0000 23.8859 0.0000 0.0000
# 5 0.0000 0.0000 0.0000 0.0000 9.6224 0.0000
# 6 0.0000 0.0000 0.0000 0.0000 0.0000 34.6194
#
#
#
# Elastic Compliance Matrix: (Units=1/GPa)
#
#
# Indices 1 2 3 4 5 6 
#
# 1 0.006875 -0.000523 -0.001400 0.000000 0.000000 0.000000
# 2 -0.000523 0.009070 -0.003783 0.000000 0.000000 0.000000
# 3 -0.001400 -0.003783 0.013134 0.000000 0.000000 0.000000
# 4 0.000000 0.000000 0.000000 0.041866 0.000000 0.000000
# 5 0.000000 0.000000 0.000000 0.000000 0.103924 0.000000
# 6 0.000000 0.000000 0.000000 0.000000 0.000000 0.028886
#
#
# Mechanical properties :
#
#
# Convention : Reuss Voigt Hill
#
# Bulk Modulus (GPa) = 56.60169 58.04637 57.32403
# Shear Modulus (GPa) = 22.61889 33.00533 27.81211
#
# Velocity S-wave (km/s) = 2.89860 3.50142 3.21417
# Velocity P-wave (km/s) = 5.67692 6.15696 5.92181
#
# Compressibility (1/GPa) = 0.01766732
#
# Stress axis : x y z
#
# Youngs Moduli (GPa) = 145.45713 110.25499 76.13896
#
# Poissons Ratio (x) = 0.05770 0.10657
# Poissons Ratio (y) = 0.07612 0.28801
# Poissons Ratio (z) = 0.20358 0.41707
#
# Static dielectric constant tensor:
#      x y z
#    x 2.268750 0.000000 0.000000 
#    y 0.000000 2.167420 0.000000 
#    z 0.000000 0.000000 2.129860 
# 
# From -- ./inp_files/1474.got.cif
#   From: 2010.05.17/outbox.cif.g08.bks.cpg/sg34_1_cif.got.tgz:1474.got - 2010.06.03 17:23:11.
