data_PCOD9347718
_publ_section_title
;
Structure prediction by ZEFSAII (Michael W. Deem and Ramdas Pophale) SiO2 
 PCOD9347718
Probable space group: P N N 2
;
_chemical_formula_sum "Si O2"
_cell_formula_units_Z 20
_cell_length_a 8.870289
_cell_length_b 8.794696
_cell_length_c 11.358402
_cell_angle_alpha 90.000000
_cell_angle_beta 90.000000
_cell_angle_gamma 90.000000
_cell_volume 886.085923
_symmetry_space_group_name_H-M "P N N 2"
_symmetry_group_IT_number 34
_symmetry_cell_setting 'orthorhombic'
loop_
_space_group_symop_operation_xyz
x,y,z
-x,-y,z
1/2-x,1/2+y,1/2+z
1/2+x,1/2-y,1/2+z
loop_
_atom_site_type_symbol
_atom_site_label
_atom_site_fract_x
_atom_site_fract_y
_atom_site_fract_z
Si Si1 0.676797 0.165934 0.889330
Si Si2 0.523518 0.823313 0.473856
Si Si3 0.555314 0.666967 0.720223
Si Si4 0.633627 0.392211 0.326211
Si Si5 0.890018 0.639313 0.664806
O O1 0.828033 0.269137 0.901373
O O2 0.545668 0.257295 0.821906
O O3 0.723091 0.004889 0.826629
O O4 0.633215 0.132223 0.024775
O O5 0.546677 0.775851 0.607998
O O6 0.375511 0.735676 0.426759
O O7 0.500000 0.000000 0.463711
O O8 0.500000 0.500000 0.688052
O O9 0.732245 0.634668 0.735437
O O10 0.500000 0.500000 0.368831
O O11 0.570874 0.310748 0.207584
O O12 0.000000 0.500000 0.696392
#
# Coordination Sequence:
#
# PCOD9347718 Si02
#       5
#     4   4   4   4   4
#     4  10  25  45  71 108 147 193 252 304 372 445
#     4  10  22  44  72 103 146 194 244 305 383 448
#     4  11  26  45  69 105 147 188 247 307 366 447
#     4  10  23  44  69 100 147 190 237 305 366 444
#     4  11  26  44  73 106 143 194 240 297 377 442
#
# _framework density 22.571173999999999
#
# number of rings (size 3 to 8) (size 9 to 14) (size 15 to 20)
#    0.000    1.600    0.000    3.600   16.800    0.800 
#    0.000    0.000    0.000    0.000    0.000    0.000 
#    0.000    0.000    0.000    0.000    0.000    0.000 
#
# Total GULP energy -111508.573487 kJ/mol
# GULP energy per Si atom -5575.428674 kJ/mol
# Density = 2.251980 g / cm^3
# Si number density = 22.571174 Si / 1000 Ang^3
#
#
#
# Elastic Constant Matrix: (Units=GPa)
#
#
# Indices 1 2 3 4 5 6 
#
# 1 116.8863 68.5728 58.9913 0.0000 0.0000 0.0000
# 2 68.5728 190.4092 53.6256 0.0000 0.0000 0.0000
# 3 58.9913 53.6256 100.8079 0.0000 0.0000 0.0000
# 4 0.0000 0.0000 0.0000 12.4721 0.0000 0.0000
# 5 0.0000 0.0000 0.0000 0.0000 -61.7381 0.0000
# 6 0.0000 0.0000 0.0000 0.0000 0.0000 44.8402
#
#
#
# Elastic Compliance Matrix: (Units=1/GPa)
#
#
# Indices 1 2 3 4 5 6 
#
# 1 0.013546 -0.003112 -0.006272 0.000000 0.000000 0.000000
# 2 -0.003112 0.006892 -0.001845 0.000000 0.000000 0.000000
# 3 -0.006272 -0.001845 0.014571 0.000000 0.000000 0.000000
# 4 0.000000 0.000000 0.000000 0.080179 0.000000 0.000000
# 5 0.000000 0.000000 0.000000 0.000000 -0.016197 0.000000
# 6 0.000000 0.000000 0.000000 0.000000 0.000000 0.022301
#
#
# Mechanical properties :
#
#
# Convention : Reuss Voigt Hill
#
# Bulk Modulus (GPa) = 79.66749 85.60919 82.63834
# Shear Modulus (GPa) = 33.79858 14.24242 24.02050
#
# Velocity S-wave (km/s) = 3.87385 2.51470 3.26576
# Velocity P-wave (km/s) = 7.44189 6.81487 7.13527
#
# Compressibility (1/GPa) = 0.01255217
#
# Stress axis : x y z
#
# Youngs Moduli (GPa) = 73.82080 145.08873 68.62743
#
# Poissons Ratio (x) = 0.45155 0.43040
# Poissons Ratio (y) = 0.22975 0.12663
# Poissons Ratio (z) = 0.46297 0.26772
#
# Static dielectric constant tensor:
#      x y z
#    x 2.751400 0.000000 0.000000 
#    y 0.000000 3.748790 0.000000 
#    z 0.000000 0.000000 1.851520 
# 
# From -- ./inp_files/4768.got.cif
#   From: 2010.05.17/outbox.cif.g08.bks.cpg/sg34_3_cif.got.tgz:4768.got - 2010.06.03 17:23:11.
