data_PCOD9347136
_publ_section_title
;
Structure prediction by ZEFSAII (Michael W. Deem and Ramdas Pophale) SiO2 
 PCOD9347136
Probable space group: P N N 2
;
_chemical_formula_sum "Si O2"
_cell_formula_units_Z 30
_cell_length_a 15.953552
_cell_length_b 16.841854
_cell_length_c 5.300582
_cell_angle_alpha 90.000000
_cell_angle_beta 90.000000
_cell_angle_gamma 90.000000
_cell_volume 1424.199562
_symmetry_space_group_name_H-M "P N N 2"
_symmetry_group_IT_number 34
_symmetry_cell_setting 'orthorhombic'
loop_
_space_group_symop_operation_xyz
x,y,z
-x,-y,z
1/2-x,1/2+y,1/2+z
1/2+x,1/2-y,1/2+z
loop_
_atom_site_type_symbol
_atom_site_label
_atom_site_fract_x
_atom_site_fract_y
_atom_site_fract_z
Si Si1 0.082379 0.154402 0.252580
Si Si2 0.330052 0.315813 0.910340
Si Si3 0.687844 0.018351 0.892183
Si Si4 0.412886 0.732667 0.251606
Si Si5 0.500000 0.500000 0.668713
Si Si6 0.632476 0.606682 0.403895
Si Si7 0.753013 0.843127 0.955246
Si Si8 0.646716 0.099680 0.393811
O O1 0.060045 0.217053 0.467627
O O2 0.045659 0.069155 0.322534
O O3 0.047003 0.182178 0.979467
O O4 0.182103 0.147666 0.190570
O O5 0.383096 0.358319 0.128114
O O6 0.239315 0.359775 0.910588
O O7 0.363871 0.329022 0.629813
O O8 0.314908 0.225451 0.990859
O O9 0.775955 0.065836 0.894362
O O10 0.645007 0.040993 0.156339
O O11 0.636442 0.052326 0.654265
O O12 0.712385 0.926005 0.879924
O O13 0.318002 0.695421 0.253795
O O14 0.410687 0.823771 0.337221
O O15 0.569647 0.539307 0.493358
#
# Coordination Sequence:
#
# PCOD9347136 Si02
#       8
#     4   4   4   4   2   4   4   4
#     4  10  22  32  52  74 102 155 178 231 261 338
#     4   9  20  32  52  70 103 147 188 225 278 326
#     4  10  18  29  48  77 101 135 174 221 287 312
#     4   9  19  34  48  69 100 146 184 215 279 315
#     4  12  24  40  54  82 126 150 202 216 280 358
#     4  10  21  35  49  76 106 154 180 228 266 335
#     4   9  20  32  53  74 108 140 189 228 288 335
#     4   9  18  29  49  70 101 130 177 234 264 335
#
# _framework density 21.064463
#
# number of rings (size 3 to 8) (size 9 to 14) (size 15 to 20)
#    0.800    1.600    1.333    0.800    7.467    4.267 
#    0.000    0.000    0.000    0.000    0.000    0.000 
#    0.000   16.000    0.000    0.000    0.000    0.000 
#
# Total GULP energy -167235.857680 kJ/mol
# GULP energy per Si atom -5574.528589 kJ/mol
# Density = 2.101652 g / cm^3
# Si number density = 21.064463 Si / 1000 Ang^3
#
#
#
# Elastic Constant Matrix: (Units=GPa)
#
#
# Indices 1 2 3 4 5 6 
#
# 1 14.5840 0.4843 -1.1000 0.0000 0.0000 0.0000
# 2 0.4843 86.9254 32.6016 0.0000 0.0000 0.0000
# 3 -1.1000 32.6016 100.3945 0.0000 0.0000 0.0000
# 4 0.0000 0.0000 0.0000 13.2495 0.0000 0.0000
# 5 0.0000 0.0000 0.0000 0.0000 6.0725 0.0000
# 6 0.0000 0.0000 0.0000 0.0000 0.0000 28.8366
#
#
#
# Elastic Compliance Matrix: (Units=1/GPa)
#
#
# Indices 1 2 3 4 5 6 
#
# 1 0.068669 -0.000757 0.000998 0.000000 0.000000 0.000000
# 2 -0.000757 0.013108 -0.004265 0.000000 0.000000 0.000000
# 3 0.000998 -0.004265 0.011357 0.000000 0.000000 0.000000
# 4 0.000000 0.000000 0.000000 0.075474 0.000000 0.000000
# 5 0.000000 0.000000 0.000000 0.000000 0.164677 0.000000
# 6 0.000000 0.000000 0.000000 0.000000 0.000000 0.034678
#
#
# Mechanical properties :
#
#
# Convention : Reuss Voigt Hill
#
# Bulk Modulus (GPa) = 11.75284 29.54175 20.64730
# Shear Modulus (GPa) = 12.36485 20.95959 16.66222
#
# Velocity S-wave (km/s) = 2.42544 3.15782 2.81554
# Velocity P-wave (km/s) = 3.66541 5.22978 4.51585
#
# Compressibility (1/GPa) = 0.08508583
#
# Stress axis : x y z
#
# Youngs Moduli (GPa) = 14.56268 76.28999 88.05458
#
# Poissons Ratio (x) = 0.05775 -0.08789
# Poissons Ratio (y) = 0.01102 0.37554
# Poissons Ratio (z) = -0.01454 0.32537
#
# Static dielectric constant tensor:
#      x y z
#    x 1.823450 0.000000 0.000000 
#    y 0.000000 1.752460 0.000000 
#    z 0.000000 0.000000 1.763950 
# 
# From -- ./inp_files/1620.got.cif
#   From: 2010.05.17/outbox.cif.g08.bks.cpg/sg34_1_cif.got.tgz:1620.got - 2010.06.03 17:23:11.
