data_PCOD9347163
_publ_section_title
;
Structure prediction by ZEFSAII (Michael W. Deem and Ramdas Pophale) SiO2 
 PCOD9347163
Probable space group: P N N 2
;
_chemical_formula_sum "Si O2"
_cell_formula_units_Z 24
_cell_length_a 7.007359
_cell_length_b 10.274151
_cell_length_c 15.869189
_cell_angle_alpha 90.000000
_cell_angle_beta 90.000000
_cell_angle_gamma 90.000000
_cell_volume 1142.496938
_symmetry_space_group_name_H-M "P N N 2"
_symmetry_group_IT_number 34
_symmetry_cell_setting 'orthorhombic'
loop_
_space_group_symop_operation_xyz
x,y,z
-x,-y,z
1/2-x,1/2+y,1/2+z
1/2+x,1/2-y,1/2+z
loop_
_atom_site_type_symbol
_atom_site_label
_atom_site_fract_x
_atom_site_fract_y
_atom_site_fract_z
Si Si1 0.229055 0.979940 0.834810
Si Si2 0.309694 0.281971 0.186801
Si Si3 0.765645 0.286256 0.225107
Si Si4 0.676835 0.598306 0.511971
Si Si5 0.487128 0.855681 0.562663
Si Si6 0.211685 0.485599 0.693899
O O1 0.263203 0.874926 0.761562
O O2 0.300101 0.119685 0.803685
O O3 0.288237 0.932578 0.926724
O O4 0.000000 0.000000 0.840145
O O5 0.539872 0.288024 0.197725
O O6 0.226861 0.330035 0.097252
O O7 0.226639 0.135286 0.193390
O O8 0.811528 0.134303 0.240686
O O9 0.885153 0.344714 0.147769
O O10 0.500000 0.500000 0.520597
O O11 0.579075 0.740479 0.508001
O O12 0.792000 0.569748 0.597677
O O13 0.500000 0.000000 0.526385
O O14 0.000000 0.500000 0.729343
#
# Coordination Sequence:
#
# PCOD9347163 Si02
#       6
#     4   4   4   4   4   4
#     4   9  18  33  52  76 111 143 170 227 281 312
#     4  10  18  34  55  77 107 142 179 229 268 324
#     4   9  19  33  53  80 106 134 186 227 260 330
#     4  10  19  34  52  78 114 140 177 231 278 322
#     4  11  20  32  56  83 102 147 190 220 269 330
#     4   9  18  33  54  77 100 141 182 220 272 324
#
# _framework density 21.006620999999999
#
# number of rings (size 3 to 8) (size 9 to 14) (size 15 to 20)
#    0.000    2.333    3.333    0.000    0.000    0.000 
#    3.000    5.833    0.000    0.000    0.000    4.667 
#    0.000    0.000    0.000    0.000    0.000    0.000 
#
# Total GULP energy -133719.300853 kJ/mol
# GULP energy per Si atom -5571.637536 kJ/mol
# Density = 2.095881 g / cm^3
# Si number density = 21.006621 Si / 1000 Ang^3
#
#
#
# Elastic Constant Matrix: (Units=GPa)
#
#
# Indices 1 2 3 4 5 6 
#
# 1 75.2228 -6.5760 -9.1458 0.0000 0.0000 0.0000
# 2 -6.5760 175.3469 32.6565 0.0000 0.0000 0.0000
# 3 -9.1458 32.6565 63.6800 0.0000 0.0000 0.0000
# 4 0.0000 0.0000 0.0000 17.3669 0.0000 0.0000
# 5 0.0000 0.0000 0.0000 0.0000 8.6229 0.0000
# 6 0.0000 0.0000 0.0000 0.0000 0.0000 17.6713
#
#
#
# Elastic Compliance Matrix: (Units=1/GPa)
#
#
# Indices 1 2 3 4 5 6 
#
# 1 0.013534 0.000161 0.001861 0.000000 0.000000 0.000000
# 2 0.000161 0.006307 -0.003211 0.000000 0.000000 0.000000
# 3 0.001861 -0.003211 0.017618 0.000000 0.000000 0.000000
# 4 0.000000 0.000000 0.000000 0.057581 0.000000 0.000000
# 5 0.000000 0.000000 0.000000 0.000000 0.115971 0.000000
# 6 0.000000 0.000000 0.000000 0.000000 0.000000 0.056589
#
#
# Mechanical properties :
#
#
# Convention : Reuss Voigt Hill
#
# Bulk Modulus (GPa) = 28.50566 38.67990 33.59278
# Shear Modulus (GPa) = 17.75120 28.55322 23.15221
#
# Velocity S-wave (km/s) = 2.91009 3.69080 3.32345
# Velocity P-wave (km/s) = 4.98907 6.05110 5.54557
#
# Compressibility (1/GPa) = 0.03508075
#
# Stress axis : x y z
#
# Youngs Moduli (GPa) = 73.88685 158.55177 56.76123
#
# Poissons Ratio (x) = -0.02552 -0.10565
# Poissons Ratio (y) = -0.01189 0.18228
# Poissons Ratio (z) = -0.13752 0.50916
#
# Static dielectric constant tensor:
#      x y z
#    x 1.898660 0.000000 0.000000 
#    y 0.000000 1.806760 0.000000 
#    z 0.000000 0.000000 1.762240 
# 
# From -- ./inp_files/7454.got.cif
#   From: 2010.05.17/outbox.cif.g08.bks.cpg/sg34_4_cif.got.tgz:7454.got - 2010.06.03 17:23:11.
