data_PCOD9347810
_publ_section_title
;
Structure prediction by ZEFSAII (Michael W. Deem and Ramdas Pophale) SiO2 
 PCOD9347810
Probable space group: P N N 2
;
_chemical_formula_sum "Si O2"
_cell_formula_units_Z 26
_cell_length_a 17.378647
_cell_length_b 11.789079
_cell_length_c 5.375889
_cell_angle_alpha 90.000000
_cell_angle_beta 90.000000
_cell_angle_gamma 90.000000
_cell_volume 1101.402690
_symmetry_space_group_name_H-M "P N N 2"
_symmetry_group_IT_number 34
_symmetry_cell_setting 'orthorhombic'
loop_
_space_group_symop_operation_xyz
x,y,z
-x,-y,z
1/2-x,1/2+y,1/2+z
1/2+x,1/2-y,1/2+z
loop_
_atom_site_type_symbol
_atom_site_label
_atom_site_fract_x
_atom_site_fract_y
_atom_site_fract_z
Si Si1 0.869040 0.283394 0.208520
Si Si2 0.256500 0.656845 0.880675
Si Si3 0.713885 0.568537 0.647992
Si Si4 0.971485 0.695584 0.046769
Si Si5 0.000000 0.500000 0.721302
Si Si6 0.347809 0.640002 0.394497
Si Si7 0.361206 0.957846 0.860564
O O1 0.847132 0.408153 0.310334
O O2 0.960612 0.267894 0.232954
O O3 0.827353 0.168619 0.295451
O O4 0.825730 0.288569 0.938372
O O5 0.248162 0.521080 0.838086
O O6 0.296685 0.691459 0.622344
O O7 0.310908 0.663985 0.125852
O O8 0.655748 0.492211 0.478523
O O9 0.784489 0.598976 0.466019
O O10 0.903966 0.613692 0.148197
O O11 0.930346 0.800687 0.917351
O O12 0.020531 0.609458 0.879981
O O13 0.072254 0.460723 0.565169
#
# Coordination Sequence:
#
# PCOD9347810 Si02
#       7
#     4   4   4   4   2   4   4
#     4  12  22  47  71 105 145 192 244 304 371 440
#     4  10  23  49  67 109 137 193 239 301 352 440
#     4  10  26  43  76  99 145 191 252 290 371 441
#     4  12  26  43  73 105 151 185 245 311 378 429
#     4  12  24  40  68 108 142 190 234 318 370 440
#     4  10  25  46  72 102 147 187 244 296 368 429
#     4  12  24  46  68 110 142 190 247 310 373 441
#
# _framework density 23.606262000000001
#
# number of rings (size 3 to 8) (size 9 to 14) (size 15 to 20)
#    0.923    0.000    4.615    1.846    4.308    0.615 
#    8.308    0.000    3.385    0.000    0.000    0.000 
#    0.000    0.000    0.000    0.000    0.000    0.000 
#
# Total GULP energy -144993.137610 kJ/mol
# GULP energy per Si atom -5576.659139 kJ/mol
# Density = 2.355253 g / cm^3
# Si number density = 23.606262 Si / 1000 Ang^3
#
#
#
# Elastic Constant Matrix: (Units=GPa)
#
#
# Indices 1 2 3 4 5 6 
#
# 1 97.9219 37.5549 0.0024 0.0000 0.0000 0.0000
# 2 37.5549 79.7448 -0.3350 0.0000 0.0000 0.0000
# 3 0.0024 -0.3350 68.0799 0.0000 0.0000 0.0000
# 4 0.0000 0.0000 0.0000 29.8449 0.0000 0.0000
# 5 0.0000 0.0000 0.0000 0.0000 15.7584 0.0000
# 6 0.0000 0.0000 0.0000 0.0000 0.0000 51.5088
#
#
#
# Elastic Compliance Matrix: (Units=1/GPa)
#
#
# Indices 1 2 3 4 5 6 
#
# 1 0.012463 -0.005870 -0.000029 0.000000 0.000000 0.000000
# 2 -0.005870 0.015305 0.000076 0.000000 0.000000 0.000000
# 3 -0.000029 0.000076 0.014689 0.000000 0.000000 0.000000
# 4 0.000000 0.000000 0.000000 0.033507 0.000000 0.000000
# 5 0.000000 0.000000 0.000000 0.000000 0.063458 0.000000
# 6 0.000000 0.000000 0.000000 0.000000 0.000000 0.019414
#
#
# Mechanical properties :
#
#
# Convention : Reuss Voigt Hill
#
# Bulk Modulus (GPa) = 32.45689 35.57677 34.01683
# Shear Modulus (GPa) = 27.66213 33.32405 30.49309
#
# Velocity S-wave (km/s) = 3.42689 3.76128 3.59797
# Velocity P-wave (km/s) = 5.42561 5.82809 5.63045
#
# Compressibility (1/GPa) = 0.03081010
#
# Stress axis : x y z
#
# Youngs Moduli (GPa) = 80.23546 65.34012 68.07814
#
# Poissons Ratio (x) = 0.38352 0.00200
# Poissons Ratio (y) = 0.47095 -0.00514
# Poissons Ratio (z) = 0.00235 -0.00493
#
# Static dielectric constant tensor:
#      x y z
#    x 1.962280 0.000000 0.000000 
#    y 0.000000 1.930370 0.000000 
#    z 0.000000 0.000000 1.976530 
# 
# From -- ./inp_files/1445.got.cif
#   From: 2010.05.17/outbox.cif.g08.bks.cpg/sg34_1_cif.got.tgz:1445.got - 2010.06.03 17:23:11.
