data_PCOD9347604
_publ_section_title
;
Structure prediction by ZEFSAII (Michael W. Deem and Ramdas Pophale) SiO2 
 PCOD9347604
Probable space group: P N N 2
;
_chemical_formula_sum "Si O2"
_cell_formula_units_Z 18
_cell_length_a 5.391751
_cell_length_b 5.300913
_cell_length_c 25.588507
_cell_angle_alpha 90.000000
_cell_angle_beta 90.000000
_cell_angle_gamma 90.000000
_cell_volume 731.350312
_symmetry_space_group_name_H-M "P N N 2"
_symmetry_group_IT_number 34
_symmetry_cell_setting 'orthorhombic'
loop_
_space_group_symop_operation_xyz
x,y,z
-x,-y,z
1/2-x,1/2+y,1/2+z
1/2+x,1/2-y,1/2+z
loop_
_atom_site_type_symbol
_atom_site_label
_atom_site_fract_x
_atom_site_fract_y
_atom_site_fract_z
Si Si1 0.746828 0.152238 0.459650
Si Si2 0.249031 0.172199 0.191180
Si Si3 0.842244 0.260512 0.348187
Si Si4 0.248235 0.159594 0.077857
Si Si5 0.000000 0.000000 0.772888
O O1 0.766903 0.324290 0.408400
O O2 0.730383 0.230114 0.519933
O O3 0.500000 0.000000 0.448691
O O4 0.000000 0.000000 0.457732
O O5 0.248768 0.302848 0.133319
O O6 0.293249 0.380238 0.235020
O O7 0.500000 0.000000 0.192546
O O8 0.000000 0.000000 0.198025
O O9 0.607496 0.280344 0.310171
O O10 0.000000 0.500000 0.331423
O O11 0.000000 0.000000 0.345285
O O12 0.500000 0.000000 0.077083
O O13 0.000000 0.000000 0.082382
#
# Coordination Sequence:
#
# PCOD9347604 Si02
#       5
#     4   4   4   4   2
#     4  11  25  44  73 112 153 197 256 325 399 479
#     4  10  26  48  73 114 154 204 267 327 399 476
#     4  11  30  51  78 118 157 211 269 330 405 478
#     4  10  21  43  73 105 150 198 255 324 396 475
#     4  12  30  46  84 104 168 212 280 326 408 484
#
# _framework density 24.612009
#
# number of rings (size 3 to 8) (size 9 to 14) (size 15 to 20)
#    0.000    1.333    0.000    2.000   15.556    0.000 
#    0.000    0.000    0.000    0.000    0.000    0.000 
#    0.000    0.000    0.000    0.000    0.000    0.000 
#
# Total GULP energy -100561.773778 kJ/mol
# GULP energy per Si atom -5586.765210 kJ/mol
# Density = 2.455599 g / cm^3
# Si number density = 24.612009 Si / 1000 Ang^3
#
#
#
# Elastic Constant Matrix: (Units=GPa)
#
#
# Indices 1 2 3 4 5 6 
#
# 1 161.8975 37.0563 32.3323 0.0000 0.0000 0.0000
# 2 37.0563 72.7268 42.8206 0.0000 0.0000 0.0000
# 3 32.3323 42.8206 239.9289 0.0000 0.0000 0.0000
# 4 0.0000 0.0000 0.0000 -4.5259 0.0000 0.0000
# 5 0.0000 0.0000 0.0000 0.0000 70.3076 0.0000
# 6 0.0000 0.0000 0.0000 0.0000 0.0000 45.3841
#
#
#
# Elastic Compliance Matrix: (Units=1/GPa)
#
#
# Indices 1 2 3 4 5 6 
#
# 1 0.007017 -0.003373 -0.000344 0.000000 0.000000 0.000000
# 2 -0.003373 0.016986 -0.002577 0.000000 0.000000 0.000000
# 3 -0.000344 -0.002577 0.004674 0.000000 0.000000 0.000000
# 4 0.000000 0.000000 0.000000 -0.220949 0.000000 0.000000
# 5 0.000000 0.000000 0.000000 0.000000 0.014223 0.000000
# 6 0.000000 0.000000 0.000000 0.000000 0.000000 0.022034
#
#
# Mechanical properties :
#
#
# Convention : Reuss Voigt Hill
#
# Bulk Modulus (GPa) = 62.15040 77.66350 69.90695
# Shear Modulus (GPa) = -36.21539 46.38943 5.08702
#
# Velocity S-wave (km/s) = -3.84011 4.34617 1.43923
# Velocity P-wave (km/s) = 2.37591 7.53719 5.58812
#
# Compressibility (1/GPa) = 0.01609000
#
# Stress axis : x y z
#
# Youngs Moduli (GPa) = 142.50140 58.87148 213.94377
#
# Poissons Ratio (x) = 0.19859 0.07352
# Poissons Ratio (y) = 0.48070 0.55133
# Poissons Ratio (z) = 0.04897 0.15171
#
# Static dielectric constant tensor:
#      x y z
#    x 1.913030 0.000000 0.000000 
#    y 0.000000 1.206380 0.000000 
#    z 0.000000 0.000000 2.066320 
# 
# From -- ./inp_files/8214.got.cif
#   From: 2010.05.17/outbox.cif.g08.bks.cpg/sg34_5_cif.got.tgz:8214.got - 2010.06.03 17:23:11.
