data_PCOD9347513
_publ_section_title
;
Structure prediction by ZEFSAII (Michael W. Deem and Ramdas Pophale) SiO2 
 PCOD9347513
Probable space group: P N N 2
;
_chemical_formula_sum "Si O2"
_cell_formula_units_Z 30
_cell_length_a 9.751005
_cell_length_b 9.964430
_cell_length_c 13.924408
_cell_angle_alpha 90.000000
_cell_angle_beta 90.000000
_cell_angle_gamma 90.000000
_cell_volume 1352.940133
_symmetry_space_group_name_H-M "P N N 2"
_symmetry_group_IT_number 34
_symmetry_cell_setting 'orthorhombic'
loop_
_space_group_symop_operation_xyz
x,y,z
-x,-y,z
1/2-x,1/2+y,1/2+z
1/2+x,1/2-y,1/2+z
loop_
_atom_site_type_symbol
_atom_site_label
_atom_site_fract_x
_atom_site_fract_y
_atom_site_fract_z
Si Si1 0.127977 0.923627 0.040740
Si Si2 0.496916 0.660211 0.203848
Si Si3 0.290775 0.281231 0.360913
Si Si4 0.337370 0.008213 0.469432
Si Si5 0.185389 0.660617 0.156955
Si Si6 0.583909 0.644354 0.993220
Si Si7 0.003824 0.279632 0.314634
Si Si8 0.500000 0.500000 0.712501
O O1 0.112944 0.778262 0.092996
O O2 0.130421 0.013179 0.138684
O O3 0.217709 0.885995 0.949590
O O4 0.000000 0.000000 0.992891
O O5 0.500000 0.500000 0.216209
O O6 0.572625 0.716301 0.297205
O O7 0.339120 0.702259 0.186134
O O8 0.574906 0.688135 0.103790
O O9 0.281625 0.133391 0.407593
O O10 0.160961 0.311826 0.295433
O O11 0.311364 0.040253 0.581866
O O12 0.500000 0.000000 0.453202
O O13 0.237186 0.883051 0.453501
O O14 0.100083 0.634335 0.252512
O O15 0.500000 0.500000 0.987912
O O16 0.520296 0.760989 0.927449
O O17 0.980655 0.128287 0.276745
#
# Coordination Sequence:
#
# PCOD9347513 Si02
#       8
#     4   4   4   4   4   4   4   2
#     4   8  17  36  60  84 114 158 206 250 295 373
#     4  11  23  40  61  89 125 168 202 259 317 379
#     4  11  22  37  58  93 122 161 206 251 322 372
#     4  11  23  39  61  92 125 157 212 271 301 376
#     4  10  21  37  60  91 117 158 213 248 318 372
#     4  11  19  40  63  82 121 166 202 251 320 359
#     4  11  20  35  63  91 118 158 209 256 300 380
#     4   8  16  34  58  86 110 158 200 244 302 352
#
# _framework density 22.173932000000001
#
# number of rings (size 3 to 8) (size 9 to 14) (size 15 to 20)
#    0.400    1.333    4.667    1.200    3.733    0.000 
#    0.000    0.000    0.000    0.000   10.400    0.000 
#    0.000    0.000    0.000    0.000    0.000    0.000 
#
# Total GULP energy -167012.997673 kJ/mol
# GULP energy per Si atom -5567.099922 kJ/mol
# Density = 2.212346 g / cm^3
# Si number density = 22.173932 Si / 1000 Ang^3
#
#
#
# Elastic Constant Matrix: (Units=GPa)
#
#
# Indices 1 2 3 4 5 6 
#
# 1 120.3504 10.6150 12.0174 0.0000 0.0000 0.0000
# 2 10.6150 25.5433 7.2351 0.0000 0.0000 0.0000
# 3 12.0174 7.2351 94.4573 0.0000 0.0000 0.0000
# 4 0.0000 0.0000 0.0000 -3.8825 0.0000 0.0000
# 5 0.0000 0.0000 0.0000 0.0000 21.1157 0.0000
# 6 0.0000 0.0000 0.0000 0.0000 0.0000 25.1041
#
#
#
# Elastic Compliance Matrix: (Units=1/GPa)
#
#
# Indices 1 2 3 4 5 6 
#
# 1 0.008691 -0.003372 -0.000847 0.000000 0.000000 0.000000
# 2 -0.003372 0.041325 -0.002736 0.000000 0.000000 0.000000
# 3 -0.000847 -0.002736 0.010904 0.000000 0.000000 0.000000
# 4 0.000000 0.000000 0.000000 -0.257569 0.000000 0.000000
# 5 0.000000 0.000000 0.000000 0.000000 0.047358 0.000000
# 6 0.000000 0.000000 0.000000 0.000000 0.000000 0.039834
#
#
# Mechanical properties :
#
#
# Convention : Reuss Voigt Hill
#
# Bulk Modulus (GPa) = 21.27225 33.34289 27.30757
# Shear Modulus (GPa) = -62.59781 22.49971 -20.04905
#
# Velocity S-wave (km/s) = -5.31899 3.18888 -3.01021
# Velocity P-wave (km/s) = 5.30170 5.35053 0.51000
#
# Compressibility (1/GPa) = 0.04700959
#
# Stress axis : x y z
#
# Youngs Moduli (GPa) = 115.06050 24.19815 91.70764
#
# Poissons Ratio (x) = 0.08159 0.07772
# Poissons Ratio (y) = 0.38795 0.25095
# Poissons Ratio (z) = 0.09751 0.06622
#
# Static dielectric constant tensor:
#      x y z
#    x 1.936040 0.000000 0.000000 
#    y 0.000000 1.830240 0.000000 
#    z 0.000000 0.000000 1.823440 
# 
# From -- ./inp_files/6550.got.cif
#   From: 2010.05.17/outbox.cif.g08.bks.cpg/sg34_4_cif.got.tgz:6550.got - 2010.06.03 17:23:11.
