data_PCOD9347332
_publ_section_title
;
Structure prediction by ZEFSAII (Michael W. Deem and Ramdas Pophale) SiO2 
 PCOD9347332
Probable space group: P N N 2
;
_chemical_formula_sum "Si O2"
_cell_formula_units_Z 30
_cell_length_a 9.237042
_cell_length_b 5.238933
_cell_length_c 30.750792
_cell_angle_alpha 90.000000
_cell_angle_beta 90.000000
_cell_angle_gamma 90.000000
_cell_volume 1488.099834
_symmetry_space_group_name_H-M "P N N 2"
_symmetry_group_IT_number 34
_symmetry_cell_setting 'orthorhombic'
loop_
_space_group_symop_operation_xyz
x,y,z
-x,-y,z
1/2-x,1/2+y,1/2+z
1/2+x,1/2-y,1/2+z
loop_
_atom_site_type_symbol
_atom_site_label
_atom_site_fract_x
_atom_site_fract_y
_atom_site_fract_z
Si Si1 0.677048 0.001897 0.865620
Si Si2 0.703291 0.633457 0.079158
Si Si3 0.836879 0.613575 0.463026
Si Si4 0.324999 0.498053 0.713174
Si Si5 0.675256 0.501822 0.815330
Si Si6 0.839551 0.106709 0.048964
Si Si7 0.500000 0.500000 0.006625
Si Si8 0.834348 0.999836 0.678072
O O1 0.719495 0.050432 0.915518
O O2 0.725447 0.235252 0.835460
O O3 0.500000 0.000000 0.865951
O O4 0.726293 0.737099 0.844782
O O5 0.806303 0.402650 0.060686
O O6 0.577815 0.674259 0.043018
O O7 0.658065 0.538501 0.126212
O O8 0.769389 0.914280 0.083796
O O9 0.732045 0.545711 0.502235
O O10 0.000000 0.500000 0.467024
O O11 0.875171 0.906983 0.474157
O O12 0.500000 0.500000 0.707232
O O13 0.292395 0.468641 0.764637
O O14 0.249474 0.260339 0.689370
O O15 0.256272 0.763422 0.697330
O O16 0.500000 0.500000 0.818281
O O17 0.000000 0.000000 0.046692
O O18 0.000000 0.000000 0.694774
#
# Coordination Sequence:
#
# PCOD9347332 Si02
#       8
#     4   4   4   4   4   4   2   4
#     4   9  18  28  54  85 117 148 195 250 296 361
#     4  11  23  40  61  82 118 160 203 246 302 356
#     4  10  20  33  58  85 120 155 203 248 302 359
#     4  11  24  42  67  92 128 167 209 262 329 388
#     4   9  18  35  54  86 120 150 190 251 317 359
#     4  11  24  39  58  84 121 163 199 244 300 363
#     4  10  20  36  56  86 120 156 194 250 302 352
#     4  12  25  42  66  95 125 164 215 268 317 378
#
# _framework density 20.159935999999998
#
# number of rings (size 3 to 8) (size 9 to 14) (size 15 to 20)
#    0.000    1.600    2.000    2.800    4.667    5.333 
#    0.000    0.000    0.000    4.800    0.000    0.000 
#    0.000    0.000    0.000    0.000    0.000    0.000 
#
# Total GULP energy -167199.823415 kJ/mol
# GULP energy per Si atom -5573.327447 kJ/mol
# Density = 2.011405 g / cm^3
# Si number density = 20.159936 Si / 1000 Ang^3
#
#
#
# Elastic Constant Matrix: (Units=GPa)
#
#
# Indices 1 2 3 4 5 6 
#
# 1 56.9590 12.6943 11.1831 0.0000 0.0000 0.0000
# 2 12.6943 105.8077 32.5112 0.0000 0.0000 0.0000
# 3 11.1831 32.5112 115.2374 0.0000 0.0000 0.0000
# 4 0.0000 0.0000 0.0000 31.7738 0.0000 0.0000
# 5 0.0000 0.0000 0.0000 0.0000 11.6260 0.0000
# 6 0.0000 0.0000 0.0000 0.0000 0.0000 17.4533
#
#
#
# Elastic Compliance Matrix: (Units=1/GPa)
#
#
# Indices 1 2 3 4 5 6 
#
# 1 0.018204 -0.001797 -0.001260 0.000000 0.000000 0.000000
# 2 -0.001797 0.010526 -0.002795 0.000000 0.000000 0.000000
# 3 -0.001260 -0.002795 0.009589 0.000000 0.000000 0.000000
# 4 0.000000 0.000000 0.000000 0.031472 0.000000 0.000000
# 5 0.000000 0.000000 0.000000 0.000000 0.086014 0.000000
# 6 0.000000 0.000000 0.000000 0.000000 0.000000 0.057296
#
#
# Mechanical properties :
#
#
# Convention : Reuss Voigt Hill
#
# Bulk Modulus (GPa) = 37.57300 43.42015 40.49658
# Shear Modulus (GPa) = 21.39716 26.94498 24.17107
#
# Velocity S-wave (km/s) = 3.26140 3.65987 3.46636
# Velocity P-wave (km/s) = 5.73239 6.28045 6.01267
#
# Compressibility (1/GPa) = 0.02661485
#
# Stress axis : x y z
#
# Youngs Moduli (GPa) = 54.93204 95.00684 104.29109
#
# Poissons Ratio (x) = 0.17073 0.13137
# Poissons Ratio (y) = 0.09871 0.29151
# Poissons Ratio (z) = 0.06919 0.26556
#
# Static dielectric constant tensor:
#      x y z
#    x 1.762930 0.000000 0.000000 
#    y 0.000000 1.872880 0.000000 
#    z 0.000000 0.000000 1.682270 
# 
# From -- ./inp_files/8691.got.cif
#   From: 2010.05.17/outbox.cif.g08.bks.cpg/sg34_5_cif.got.tgz:8691.got - 2010.06.03 17:23:11.
