data_PCOD9347942
_publ_section_title
;
Structure prediction by ZEFSAII (Michael W. Deem and Ramdas Pophale) SiO2 
 PCOD9347942
Probable space group: P N N 2
;
_chemical_formula_sum "Si O2"
_cell_formula_units_Z 24
_cell_length_a 5.021935
_cell_length_b 13.469524
_cell_length_c 15.267527
_cell_angle_alpha 90.000000
_cell_angle_beta 90.000000
_cell_angle_gamma 90.000000
_cell_volume 1032.742459
_symmetry_space_group_name_H-M "P N N 2"
_symmetry_group_IT_number 34
_symmetry_cell_setting 'orthorhombic'
loop_
_space_group_symop_operation_xyz
x,y,z
-x,-y,z
1/2-x,1/2+y,1/2+z
1/2+x,1/2-y,1/2+z
loop_
_atom_site_type_symbol
_atom_site_label
_atom_site_fract_x
_atom_site_fract_y
_atom_site_fract_z
Si Si1 0.746856 0.935048 0.089170
Si Si2 0.668574 0.705741 0.123883
Si Si3 0.668574 0.705741 0.319248
Si Si4 0.139581 0.599810 0.055977
Si Si5 0.753143 0.435048 0.853962
Si Si6 0.639580 0.900190 0.887154
O O1 0.691244 0.824291 0.122011
O O2 0.500000 0.000000 0.116348
O O3 0.745185 0.926776 0.983148
O O4 0.000000 0.000000 0.115845
O O5 0.752628 0.673009 0.221566
O O6 0.382508 0.655328 0.104575
O O7 0.885668 0.671870 0.052743
O O8 0.691244 0.824291 0.321120
O O9 0.382508 0.655328 0.338557
O O10 0.885668 0.671870 0.390389
O O11 0.000000 0.500000 0.094485
O O12 0.245188 0.573225 0.959983
O O13 0.500000 0.500000 0.827287
O O14 0.000000 0.500000 0.826785
O O15 0.500000 0.000000 0.848646
#
# Coordination Sequence:
#
# PCOD9347942 Si02
#       6
#     4   4   4   4   4   4
#     4  11  23  42  67  91 121 165 215 263 310 371
#     4  12  25  40  63  95 130 165 204 260 323 380
#     4  12  25  40  63  95 130 165 204 260 323 380
#     4  11  23  42  65  91 125 167 214 258 309 376
#     4  11  23  42  67  91 121 165 215 263 310 371
#     4  11  23  42  65  91 125 167 214 258 309 376
#
# _framework density 23.239094999999999
#
# number of rings (size 3 to 8) (size 9 to 14) (size 15 to 20)
#    0.000    0.667    0.000   10.000    0.000    5.333 
#    0.000    0.000    0.000    0.000    0.000    0.000 
#    0.000    0.000    0.000    0.000    0.000    0.000 
#
# Total GULP energy -134105.794965 kJ/mol
# GULP energy per Si atom -5587.741457 kJ/mol
# Density = 2.318620 g / cm^3
# Si number density = 23.239095 Si / 1000 Ang^3
#
#
#
# Elastic Constant Matrix: (Units=GPa)
#
#
# Indices 1 2 3 4 5 6 
#
# 1 189.7424 72.5683 28.0571 0.0000 0.0000 0.0000
# 2 72.5683 165.4073 34.6154 0.0000 0.0000 0.0000
# 3 28.0571 34.6154 69.2077 0.0000 0.0000 0.0000
# 4 0.0000 0.0000 0.0000 -46.7924 0.0000 0.0000
# 5 0.0000 0.0000 0.0000 0.0000 -36.2595 0.0000
# 6 0.0000 0.0000 0.0000 0.0000 0.0000 46.4848
#
#
#
# Elastic Compliance Matrix: (Units=1/GPa)
#
#
# Indices 1 2 3 4 5 6 
#
# 1 0.006442 -0.002546 -0.001338 0.000000 0.000000 0.000000
# 2 -0.002546 0.007759 -0.002848 0.000000 0.000000 0.000000
# 3 -0.001338 -0.002848 0.016416 0.000000 0.000000 0.000000
# 4 0.000000 0.000000 0.000000 -0.021371 0.000000 0.000000
# 5 0.000000 0.000000 0.000000 0.000000 -0.027579 0.000000
# 6 0.000000 0.000000 0.000000 0.000000 0.000000 0.021512
#
#
# Mechanical properties :
#
#
# Convention : Reuss Voigt Hill
#
# Bulk Modulus (GPa) = 58.30313 77.20434 67.75374
# Shear Modulus (GPa) = 223.58819 11.96103 117.77461
#
# Velocity S-wave (km/s) = 9.81942 2.27115 7.12668
# Velocity P-wave (km/s) = 12.39775 6.33809 9.84570
#
# Compressibility (1/GPa) = 0.01715174
#
# Stress axis : x y z
#
# Youngs Moduli (GPa) = 155.23150 128.88435 60.91456
#
# Poissons Ratio (x) = 0.32817 0.08151
# Poissons Ratio (y) = 0.39526 0.17351
# Poissons Ratio (z) = 0.20771 0.36712
#
# Static dielectric constant tensor:
#      x y z
#    x 1.800130 0.000000 0.000000 
#    y 0.000000 1.901500 0.000000 
#    z 0.000000 0.000000 1.855380 
# 
# From -- ./inp_files/7178.got.cif
#   From: 2010.05.17/outbox.cif.g08.bks.cpg/sg34_4_cif.got.tgz:7178.got - 2010.06.03 17:23:11.
