data_PCOD9347413
_publ_section_title
;
Structure prediction by ZEFSAII (Michael W. Deem and Ramdas Pophale) SiO2 
 PCOD9347413
Probable space group: P N N 2
;
_chemical_formula_sum "Si O2"
_cell_formula_units_Z 22
_cell_length_a 8.384957
_cell_length_b 7.703831
_cell_length_c 16.627918
_cell_angle_alpha 90.000000
_cell_angle_beta 90.000000
_cell_angle_gamma 90.000000
_cell_volume 1074.101841
_symmetry_space_group_name_H-M "P N N 2"
_symmetry_group_IT_number 34
_symmetry_cell_setting 'orthorhombic'
loop_
_space_group_symop_operation_xyz
x,y,z
-x,-y,z
1/2-x,1/2+y,1/2+z
1/2+x,1/2-y,1/2+z
loop_
_atom_site_type_symbol
_atom_site_label
_atom_site_fract_x
_atom_site_fract_y
_atom_site_fract_z
Si Si1 0.610523 0.831794 0.093820
Si Si2 0.862483 0.353410 0.887974
Si Si3 0.806799 0.513907 0.045213
Si Si4 0.000000 0.000000 0.843983
Si Si5 0.186682 0.022565 0.234671
Si Si6 0.335691 0.658726 0.200631
O O1 0.706551 0.694714 0.037422
O O2 0.750470 0.902467 0.150767
O O3 0.495015 0.720174 0.152766
O O4 0.500000 0.000000 0.066473
O O5 0.947905 0.167628 0.893332
O O6 0.755780 0.367468 0.808521
O O7 0.000000 0.500000 0.877806
O O8 0.762887 0.396899 0.967975
O O9 0.762600 0.434961 0.131326
O O10 0.000000 0.500000 0.043040
O O11 0.136918 0.045489 0.779589
O O12 0.260758 0.832168 0.235477
O O13 0.000000 0.000000 0.237996
#
# Coordination Sequence:
#
# PCOD9347413 Si02
#       6
#     4   4   4   2   4   4
#     4  10  20  39  63  91 127 182 229 275 341 423
#     4  11  23  43  65  94 137 183 220 278 359 410
#     4  11  23  39  62 100 141 170 229 297 346 397
#     4  12  20  42  76  90 124 188 234 256 328 440
#     4  11  21  38  66  99 132 169 235 288 329 403
#     4  11  20  38  69  91 127 181 234 263 336 422
#
# _framework density 20.482230000000001
#
# number of rings (size 3 to 8) (size 9 to 14) (size 15 to 20)
#    0.000    1.091    5.455    1.636    0.000    1.455 
#   14.727    0.000    0.000    0.000    0.000    0.000 
#    0.000    0.000    0.000    0.000    0.000    0.000 
#
# Total GULP energy -122630.952890 kJ/mol
# GULP energy per Si atom -5574.134222 kJ/mol
# Density = 2.043561 g / cm^3
# Si number density = 20.482230 Si / 1000 Ang^3
#
#
#
# Elastic Constant Matrix: (Units=GPa)
#
#
# Indices 1 2 3 4 5 6 
#
# 1 92.4898 32.9256 11.3084 0.0000 0.0000 0.0000
# 2 32.9256 136.4681 45.3062 0.0000 0.0000 0.0000
# 3 11.3084 45.3062 72.4853 0.0000 0.0000 0.0000
# 4 0.0000 0.0000 0.0000 23.1938 0.0000 0.0000
# 5 0.0000 0.0000 0.0000 0.0000 -1.4116 0.0000
# 6 0.0000 0.0000 0.0000 0.0000 0.0000 24.3514
#
#
#
# Elastic Compliance Matrix: (Units=1/GPa)
#
#
# Indices 1 2 3 4 5 6 
#
# 1 0.011828 -0.002828 -0.000078 0.000000 0.000000 0.000000
# 2 -0.002828 0.009923 -0.005761 0.000000 0.000000 0.000000
# 3 -0.000078 -0.005761 0.017409 0.000000 0.000000 0.000000
# 4 0.000000 0.000000 0.000000 0.043115 0.000000 0.000000
# 5 0.000000 0.000000 0.000000 0.000000 -0.708433 0.000000
# 6 0.000000 0.000000 0.000000 0.000000 0.000000 0.041065
#
#
# Mechanical properties :
#
#
# Convention : Reuss Voigt Hill
#
# Bulk Modulus (GPa) = 45.81578 53.39153 49.60366
# Shear Modulus (GPa) = -8.92085 23.35358 7.21637
#
# Velocity S-wave (km/s) = -2.08923 3.38033 1.87906
# Velocity P-wave (km/s) = 4.07398 6.43112 5.38315
#
# Compressibility (1/GPa) = 0.02182654
#
# Stress axis : x y z
#
# Youngs Moduli (GPa) = 84.54342 100.78038 57.44237
#
# Poissons Ratio (x) = 0.28501 0.00446
# Poissons Ratio (y) = 0.23909 0.33091
# Poissons Ratio (z) = 0.00657 0.58058
#
# Static dielectric constant tensor:
#      x y z
#    x 1.711450 0.000000 0.000000 
#    y 0.000000 1.833780 0.000000 
#    z 0.000000 0.000000 1.738880 
# 
# From -- ./inp_files/6416.got.cif
#   From: 2010.05.17/outbox.cif.g08.bks.cpg/sg34_4_cif.got.tgz:6416.got - 2010.06.03 17:23:11.
