data_PCOD9347769
_publ_section_title
;
Structure prediction by ZEFSAII (Michael W. Deem and Ramdas Pophale) SiO2 
 PCOD9347769
Probable space group: P N N 2
;
_chemical_formula_sum "Si O2"
_cell_formula_units_Z 30
_cell_length_a 10.668577
_cell_length_b 6.554803
_cell_length_c 19.549190
_cell_angle_alpha 90.000000
_cell_angle_beta 90.000000
_cell_angle_gamma 90.000000
_cell_volume 1367.083078
_symmetry_space_group_name_H-M "P N N 2"
_symmetry_group_IT_number 34
_symmetry_cell_setting 'orthorhombic'
loop_
_space_group_symop_operation_xyz
x,y,z
-x,-y,z
1/2-x,1/2+y,1/2+z
1/2+x,1/2-y,1/2+z
loop_
_atom_site_type_symbol
_atom_site_label
_atom_site_fract_x
_atom_site_fract_y
_atom_site_fract_z
Si Si1 0.107237 0.334074 0.289430
Si Si2 0.735824 0.072446 0.516892
Si Si3 0.157467 0.298322 0.439269
Si Si4 0.875189 0.869072 0.915195
Si Si5 0.119964 0.545452 0.566797
Si Si6 0.797709 0.250770 0.135680
Si Si7 0.357937 0.584576 0.263292
Si Si8 0.500000 0.500000 0.702226
O O1 0.082112 0.291990 0.369474
O O2 0.248190 0.417227 0.278455
O O3 0.000000 0.500000 0.268793
O O4 0.095713 0.123106 0.249547
O O5 0.633756 0.203602 0.475289
O O6 0.841853 0.230051 0.543357
O O7 0.789209 0.919443 0.459753
O O8 0.695623 0.934486 0.581184
O O9 0.263156 0.470945 0.428272
O O10 0.090879 0.380256 0.506735
O O11 0.864458 0.794194 0.836182
O O12 0.000000 0.000000 0.919848
O O13 0.242850 0.450665 0.600216
O O14 0.000000 0.500000 0.614300
O O15 0.703215 0.305938 0.197688
O O16 0.931903 0.176986 0.160792
O O17 0.500000 0.500000 0.250870
#
# Coordination Sequence:
#
# PCOD9347769 Si02
#       8
#     4   4   4   4   4   4   4   2
#     4  11  23  43  71 101 141 182 232 294 351 421
#     4  10  23  44  65  95 137 178 231 289 360 414
#     4   9  21  39  64 100 127 173 228 287 353 415
#     4   9  20  43  66  97 132 176 234 293 349 425
#     4  10  23  42  65  96 134 173 232 287 352 426
#     4  11  26  44  65 103 135 191 232 288 351 434
#     4  10  23  45  74  99 139 181 234 299 359 417
#     4  12  28  44  66 106 144 186 242 276 360 434
#
# _framework density 21.944531999999999
#
# number of rings (size 3 to 8) (size 9 to 14) (size 15 to 20)
#    0.000    1.867    1.333    0.400    5.600    4.267 
#   13.200    0.000    0.000    0.000    0.000    0.000 
#    0.000    0.000    0.000    0.000    0.000    0.000 
#
# Total GULP energy -167286.474913 kJ/mol
# GULP energy per Si atom -5576.215830 kJ/mol
# Density = 2.189459 g / cm^3
# Si number density = 21.944532 Si / 1000 Ang^3
#
#
#
# Elastic Constant Matrix: (Units=GPa)
#
#
# Indices 1 2 3 4 5 6 
#
# 1 69.9106 14.3753 31.4892 0.0000 0.0000 0.0000
# 2 14.3753 91.0648 53.2682 0.0000 0.0000 0.0000
# 3 31.4892 53.2682 98.9929 0.0000 0.0000 0.0000
# 4 0.0000 0.0000 0.0000 -0.7522 0.0000 0.0000
# 5 0.0000 0.0000 0.0000 0.0000 15.5132 0.0000
# 6 0.0000 0.0000 0.0000 0.0000 0.0000 27.8952
#
#
#
# Elastic Compliance Matrix: (Units=1/GPa)
#
#
# Indices 1 2 3 4 5 6 
#
# 1 0.016726 0.000689 -0.005691 0.000000 0.000000 0.000000
# 2 0.000689 0.016054 -0.008858 0.000000 0.000000 0.000000
# 3 -0.005691 -0.008858 0.016678 0.000000 0.000000 0.000000
# 4 0.000000 0.000000 0.000000 -1.329361 0.000000 0.000000
# 5 0.000000 0.000000 0.000000 0.000000 0.064461 0.000000
# 6 0.000000 0.000000 0.000000 0.000000 0.000000 0.035848
#
#
# Mechanical properties :
#
#
# Convention : Reuss Voigt Hill
#
# Bulk Modulus (GPa) = 46.00257 50.91487 48.45872
# Shear Modulus (GPa) = -4.36823 19.25362 7.44270
#
# Velocity S-wave (km/s) = -1.41241 2.96527 1.84363
# Velocity P-wave (km/s) = 4.28354 5.91403 5.16355
#
# Compressibility (1/GPa) = 0.02173792
#
# Stress axis : x y z
#
# Youngs Moduli (GPa) = 59.78830 62.29093 59.95831
#
# Poissons Ratio (x) = -0.04289 0.34122
# Poissons Ratio (y) = -0.04117 0.53108
# Poissons Ratio (z) = 0.34025 0.55175
#
# Static dielectric constant tensor:
#      x y z
#    x 2.161020 0.000000 0.000000 
#    y 0.000000 1.767810 0.000000 
#    z 0.000000 0.000000 1.864750 
# 
# From -- ./inp_files/8164.got.cif
#   From: 2010.05.17/outbox.cif.g08.bks.cpg/sg34_5_cif.got.tgz:8164.got - 2010.06.03 17:23:11.
