data_PCOD9347579
_publ_section_title
;
Structure prediction by ZEFSAII (Michael W. Deem and Ramdas Pophale) SiO2 
 PCOD9347579
Probable space group: P N N 2
;
_chemical_formula_sum "Si O2"
_cell_formula_units_Z 30
_cell_length_a 10.669160
_cell_length_b 21.299078
_cell_length_c 5.365821
_cell_angle_alpha 90.000000
_cell_angle_beta 90.000000
_cell_angle_gamma 90.000000
_cell_volume 1219.346716
_symmetry_space_group_name_H-M "P N N 2"
_symmetry_group_IT_number 34
_symmetry_cell_setting 'orthorhombic'
loop_
_space_group_symop_operation_xyz
x,y,z
-x,-y,z
1/2-x,1/2+y,1/2+z
1/2+x,1/2-y,1/2+z
loop_
_atom_site_type_symbol
_atom_site_label
_atom_site_fract_x
_atom_site_fract_y
_atom_site_fract_z
Si Si1 0.241505 0.051331 0.710310
Si Si2 0.741385 0.369802 0.721281
Si Si3 0.367884 0.418066 0.167798
Si Si4 0.518916 0.319682 0.431550
Si Si5 0.500000 0.000000 0.818255
Si Si6 0.308289 0.324853 0.791695
Si Si7 0.943506 0.277856 0.574997
Si Si8 0.116368 0.373654 0.445253
O O1 0.215925 0.099274 0.487011
O O2 0.149748 0.991704 0.691440
O O3 0.381476 0.023933 0.662199
O O4 0.247884 0.081117 0.987577
O O5 0.627133 0.325958 0.631737
O O6 0.869954 0.330749 0.729360
O O7 0.482889 0.387518 0.316299
O O8 0.236820 0.387750 0.272490
O O9 0.374441 0.388545 0.893044
O O10 0.389231 0.300315 0.560517
O O11 0.537847 0.268979 0.216764
O O12 0.451305 0.940238 0.972189
O O13 0.174188 0.347421 0.701692
O O14 0.334564 0.269326 0.982543
O O15 0.019344 0.318972 0.370318
#
# Coordination Sequence:
#
# PCOD9347579 Si02
#       8
#     4   4   4   4   2   4   4   4
#     4  11  27  46  74 109 147 186 242 311 369 452
#     4  12  28  47  72 114 145 190 251 302 371 439
#     4   9  23  45  68 104 136 196 236 301 375 441
#     4  10  25  45  68 103 147 194 246 301 362 453
#     4  10  22  46  72 108 146 184 246 308 384 448
#     4  10  23  42  69  97 140 192 243 294 367 436
#     4  11  24  42  72 103 146 192 243 308 366 435
#     4  10  21  41  70 100 141 181 245 296 375 434
#
# _framework density 24.603338000000001
#
# number of rings (size 3 to 8) (size 9 to 14) (size 15 to 20)
#    0.000    1.600    1.333    0.800   11.200    7.467 
#    0.000    0.000    0.000    0.000    0.000    0.000 
#    0.000    0.000    0.000    0.000    0.000    0.000 
#
# Total GULP energy -167602.834544 kJ/mol
# GULP energy per Si atom -5586.761151 kJ/mol
# Density = 2.454734 g / cm^3
# Si number density = 24.603338 Si / 1000 Ang^3
#
#
#
# Elastic Constant Matrix: (Units=GPa)
#
#
# Indices 1 2 3 4 5 6 
#
# 1 98.9297 34.3637 12.1286 0.0000 0.0000 0.0000
# 2 34.3637 140.1059 33.6881 0.0000 0.0000 0.0000
# 3 12.1286 33.6881 68.3128 0.0000 0.0000 0.0000
# 4 0.0000 0.0000 0.0000 18.4373 0.0000 0.0000
# 5 0.0000 0.0000 0.0000 0.0000 24.2111 0.0000
# 6 0.0000 0.0000 0.0000 0.0000 0.0000 40.7171
#
#
#
# Elastic Compliance Matrix: (Units=1/GPa)
#
#
# Indices 1 2 3 4 5 6 
#
# 1 0.011080 -0.002547 -0.000711 0.000000 0.000000 0.000000
# 2 -0.002547 0.008683 -0.003830 0.000000 0.000000 0.000000
# 3 -0.000711 -0.003830 0.016654 0.000000 0.000000 0.000000
# 4 0.000000 0.000000 0.000000 0.054238 0.000000 0.000000
# 5 0.000000 0.000000 0.000000 0.000000 0.041303 0.000000
# 6 0.000000 0.000000 0.000000 0.000000 0.000000 0.024560
#
#
# Mechanical properties :
#
#
# Convention : Reuss Voigt Hill
#
# Bulk Modulus (GPa) = 44.96216 51.96769 48.46493
# Shear Modulus (GPa) = 28.07312 31.81763 29.94537
#
# Velocity S-wave (km/s) = 3.38158 3.60004 3.49252
# Velocity P-wave (km/s) = 5.79321 6.20068 6.00041
#
# Compressibility (1/GPa) = 0.02224092
#
# Stress axis : x y z
#
# Youngs Moduli (GPa) = 90.25309 115.16872 60.04738
#
# Poissons Ratio (x) = 0.29328 0.04272
# Poissons Ratio (y) = 0.22983 0.22997
# Poissons Ratio (z) = 0.06421 0.44108
#
# Static dielectric constant tensor:
#      x y z
#    x 1.998130 0.000000 0.000000 
#    y 0.000000 1.927690 0.000000 
#    z 0.000000 0.000000 1.974370 
# 
# From -- ./inp_files/1063.got.cif
#   From: 2010.05.17/outbox.cif.g08.bks.cpg/sg34_1_cif.got.tgz:1063.got - 2010.06.03 17:23:11.
