data_PCOD9347779
_publ_section_title
;
Structure prediction by ZEFSAII (Michael W. Deem and Ramdas Pophale) SiO2 
 PCOD9347779
Probable space group: P N N 2
;
_chemical_formula_sum "Si O2"
_cell_formula_units_Z 14
_cell_length_a 14.961197
_cell_length_b 5.307639
_cell_length_c 7.608145
_cell_angle_alpha 90.000000
_cell_angle_beta 90.000000
_cell_angle_gamma 90.000000
_cell_volume 604.152392
_symmetry_space_group_name_H-M "P N N 2"
_symmetry_group_IT_number 34
_symmetry_cell_setting 'orthorhombic'
loop_
_space_group_symop_operation_xyz
x,y,z
-x,-y,z
1/2-x,1/2+y,1/2+z
1/2+x,1/2-y,1/2+z
loop_
_atom_site_type_symbol
_atom_site_label
_atom_site_fract_x
_atom_site_fract_y
_atom_site_fract_z
Si Si1 0.826471 0.791358 0.829040
Si Si2 0.222862 0.214556 0.232358
Si Si3 0.000000 0.000000 0.653361
Si Si4 0.470713 0.743585 0.820894
O O1 0.789143 0.514991 0.778061
O O2 0.767130 0.012565 0.743935
O O3 0.814662 0.819948 0.037118
O O4 0.925330 0.864258 0.766837
O O5 0.134522 0.224172 0.354899
O O6 0.973774 0.210502 0.504194
O O7 0.500000 0.500000 0.712877
O O8 0.500000 0.000000 0.734247
#
# Coordination Sequence:
#
# PCOD9347779 Si02
#       4
#     4   4   2   4
#     4  12  27  45  73 102 143 185 235 290 347 424
#     4  12  26  48  70 104 141 188 234 286 356 413
#     4  10  26  42  72 104 142 176 240 284 360 400
#     4  10  23  42  72  97 140 179 229 287 350 410
#
# _framework density 23.172961000000001
#
# number of rings (size 3 to 8) (size 9 to 14) (size 15 to 20)
#    0.857    0.000    0.000    6.857   10.000    0.000 
#    0.000    0.000    0.000    0.000    0.000    0.000 
#    0.000    0.000    0.000    0.000    0.000    0.000 
#
# Total GULP energy -78153.203791 kJ/mol
# GULP energy per Si atom -5582.371699 kJ/mol
# Density = 2.312022 g / cm^3
# Si number density = 23.172961 Si / 1000 Ang^3
#
#
#
# Elastic Constant Matrix: (Units=GPa)
#
#
# Indices 1 2 3 4 5 6 
#
# 1 54.6072 18.5982 -1.8596 0.0000 0.0000 0.0000
# 2 18.5982 137.2683 -7.9186 0.0000 0.0000 0.0000
# 3 -1.8596 -7.9186 98.3405 0.0000 0.0000 0.0000
# 4 0.0000 0.0000 0.0000 21.0808 0.0000 0.0000
# 5 0.0000 0.0000 0.0000 0.0000 33.8837 0.0000
# 6 0.0000 0.0000 0.0000 0.0000 0.0000 33.7476
#
#
#
# Elastic Compliance Matrix: (Units=1/GPa)
#
#
# Indices 1 2 3 4 5 6 
#
# 1 0.019201 -0.002593 0.000154 0.000000 0.000000 0.000000
# 2 -0.002593 0.007669 0.000569 0.000000 0.000000 0.000000
# 3 0.000154 0.000569 0.010217 0.000000 0.000000 0.000000
# 4 0.000000 0.000000 0.000000 0.047437 0.000000 0.000000
# 5 0.000000 0.000000 0.000000 0.000000 0.029513 0.000000
# 6 0.000000 0.000000 0.000000 0.000000 0.000000 0.029632
#
#
# Mechanical properties :
#
#
# Convention : Reuss Voigt Hill
#
# Bulk Modulus (GPa) = 29.98693 34.20622 32.09658
# Shear Modulus (GPa) = 31.54100 36.50215 34.02158
#
# Velocity S-wave (km/s) = 3.69333 3.97319 3.83581
# Velocity P-wave (km/s) = 5.58177 5.98679 5.78782
#
# Compressibility (1/GPa) = 0.03334786
#
# Stress axis : x y z
#
# Youngs Moduli (GPa) = 52.08102 130.39408 97.87183
#
# Poissons Ratio (x) = 0.33806 -0.01510
# Poissons Ratio (y) = 0.13502 -0.05564
# Poissons Ratio (z) = -0.00804 -0.07413
#
# Static dielectric constant tensor:
#      x y z
#    x 1.941020 0.000000 0.000000 
#    y 0.000000 1.933840 0.000000 
#    z 0.000000 0.000000 1.892860 
# 
# From -- ./inp_files/1949.got.cif
#   From: 2010.05.17/outbox.cif.g08.bks.cpg/sg34_1_cif.got.tgz:1949.got - 2010.06.03 17:23:11.
