data_PCOD9347470
_publ_section_title
;
Structure prediction by ZEFSAII (Michael W. Deem and Ramdas Pophale) SiO2 
 PCOD9347470
Probable space group: P N N 2
;
_chemical_formula_sum "Si O2"
_cell_formula_units_Z 28
_cell_length_a 24.141846
_cell_length_b 8.458723
_cell_length_c 6.475006
_cell_angle_alpha 90.000000
_cell_angle_beta 90.000000
_cell_angle_gamma 90.000000
_cell_volume 1322.255718
_symmetry_space_group_name_H-M "P N N 2"
_symmetry_group_IT_number 34
_symmetry_cell_setting 'orthorhombic'
loop_
_space_group_symop_operation_xyz
x,y,z
-x,-y,z
1/2-x,1/2+y,1/2+z
1/2+x,1/2-y,1/2+z
loop_
_atom_site_type_symbol
_atom_site_label
_atom_site_fract_x
_atom_site_fract_y
_atom_site_fract_z
Si Si1 0.801388 0.208329 0.964530
Si Si2 0.000000 0.500000 0.923772
Si Si3 0.888772 0.640037 0.932449
Si Si4 0.532644 0.722786 0.729007
Si Si5 0.790204 0.493624 0.680383
Si Si6 0.592753 0.511555 0.390316
Si Si7 0.133219 0.579334 0.295442
Si Si8 0.000000 0.000000 0.550585
O O1 0.774539 0.332396 0.802818
O O2 0.849258 0.102143 0.859825
O O3 0.833146 0.316541 0.129893
O O4 0.759800 0.095560 0.088282
O O5 0.940198 0.542550 0.825176
O O6 0.991534 0.345849 0.065704
O O7 0.885332 0.574659 0.166554
O O8 0.830511 0.595983 0.827172
O O9 0.898275 0.825855 0.922255
O O10 0.562283 0.588831 0.588905
O O11 0.579349 0.820022 0.850425
O O12 0.492436 0.647273 0.896408
O O13 0.828457 0.450700 0.487332
O O14 0.552112 0.530452 0.196411
#
# Coordination Sequence:
#
# PCOD9347470 Si02
#       8
#     4   2   4   4   4   4   4   2
#     4  10  25  43  65  94 132 172 218 279 330 387
#     4  10  20  42  68  88 142 170 208 274 330 392
#     4  10  23  40  64 100 129 173 216 269 335 395
#     4  10  22  40  62  92 127 170 209 262 329 388
#     4  11  24  43  68  95 127 175 224 271 332 398
#     4  11  24  42  63  98 137 167 215 279 327 394
#     4   9  22  43  63  90 128 165 214 267 325 394
#     4  12  22  38  64  94 130 170 222 256 332 404
#
# _framework density 21.175934999999999
#
# number of rings (size 3 to 8) (size 9 to 14) (size 15 to 20)
#    0.000    1.714    0.000    3.857    4.000    5.714 
#    2.571    1.429    0.000    0.000    0.000    0.000 
#    0.000    0.000    0.000    0.000    0.000    0.000 
#
# Total GULP energy -156418.303528 kJ/mol
# GULP energy per Si atom -5586.367983 kJ/mol
# Density = 2.112774 g / cm^3
# Si number density = 21.175935 Si / 1000 Ang^3
#
#
#
# Elastic Constant Matrix: (Units=GPa)
#
#
# Indices 1 2 3 4 5 6 
#
# 1 97.8278 44.1934 13.9486 0.0000 0.0000 0.0000
# 2 44.1934 136.5956 45.8817 0.0000 0.0000 0.0000
# 3 13.9486 45.8817 43.7454 0.0000 0.0000 0.0000
# 4 0.0000 0.0000 0.0000 22.7836 0.0000 0.0000
# 5 0.0000 0.0000 0.0000 0.0000 26.3511 0.0000
# 6 0.0000 0.0000 0.0000 0.0000 0.0000 29.5429
#
#
#
# Elastic Compliance Matrix: (Units=1/GPa)
#
#
# Indices 1 2 3 4 5 6 
#
# 1 0.011976 -0.004002 0.000379 0.000000 0.000000 0.000000
# 2 -0.004002 0.012640 -0.011981 0.000000 0.000000 0.000000
# 3 0.000379 -0.011981 0.035305 0.000000 0.000000 0.000000
# 4 0.000000 0.000000 0.000000 0.043891 0.000000 0.000000
# 5 0.000000 0.000000 0.000000 0.000000 0.037949 0.000000
# 6 0.000000 0.000000 0.000000 0.000000 0.000000 0.033849
#
#
# Mechanical properties :
#
#
# Convention : Reuss Voigt Hill
#
# Bulk Modulus (GPa) = 34.82843 54.02401 44.42622
# Shear Modulus (GPa) = 23.10641 27.34521 25.22581
#
# Velocity S-wave (km/s) = 3.30686 3.59741 3.45519
# Velocity P-wave (km/s) = 5.57345 6.54389 6.07807
#
# Compressibility (1/GPa) = 0.02871217
#
# Stress axis : x y z
#
# Youngs Moduli (GPa) = 83.50135 79.11358 28.32439
#
# Poissons Ratio (x) = 0.31659 -0.01072
# Poissons Ratio (y) = 0.33415 0.33936
# Poissons Ratio (z) = -0.03161 0.94789
#
# Static dielectric constant tensor:
#      x y z
#    x 1.811820 0.000000 0.000000 
#    y 0.000000 1.768750 0.000000 
#    z 0.000000 0.000000 1.758960 
# 
# From -- ./inp_files/605.got.cif
#   From: 2010.05.17/outbox.cif.g08.bks.cpg/sg34_1_cif.got.tgz:605.got - 2010.06.03 17:23:11.
