data_PCOD9347506
_publ_section_title
;
Structure prediction by ZEFSAII (Michael W. Deem and Ramdas Pophale) SiO2 
 PCOD9347506
Probable space group: P N N 2
;
_chemical_formula_sum "Si O2"
_cell_formula_units_Z 30
_cell_length_a 16.324408
_cell_length_b 18.463414
_cell_length_c 4.879259
_cell_angle_alpha 90.000000
_cell_angle_beta 90.000000
_cell_angle_gamma 90.000000
_cell_volume 1470.629659
_symmetry_space_group_name_H-M "P N N 2"
_symmetry_group_IT_number 34
_symmetry_cell_setting 'orthorhombic'
loop_
_space_group_symop_operation_xyz
x,y,z
-x,-y,z
1/2-x,1/2+y,1/2+z
1/2+x,1/2-y,1/2+z
loop_
_atom_site_type_symbol
_atom_site_label
_atom_site_fract_x
_atom_site_fract_y
_atom_site_fract_z
Si Si1 0.226244 0.886343 0.023630
Si Si2 0.500000 0.500000 0.896866
Si Si3 0.836893 0.724878 0.706273
Si Si4 0.046299 0.135358 0.039888
Si Si5 0.187044 0.756036 0.640981
Si Si6 0.001618 0.780457 0.546777
Si Si7 0.287286 0.637968 0.819655
Si Si8 0.679970 0.517839 0.034956
O O1 0.315010 0.852349 0.074443
O O2 0.190168 0.921146 0.298832
O O3 0.184288 0.814658 0.889860
O O4 0.219684 0.949097 0.802782
O O5 0.492662 0.567637 0.691694
O O6 0.583233 0.504255 0.067978
O O7 0.935601 0.729523 0.703791
O O8 0.816420 0.797044 0.524893
O O9 0.769146 0.726874 0.955595
O O10 0.025297 0.202398 0.238955
O O11 0.144536 0.129528 0.078250
O O12 0.011674 0.148232 0.738856
O O13 0.096360 0.761061 0.524099
O O14 0.203448 0.672890 0.719469
O O15 0.282757 0.559329 0.951737
#
# Coordination Sequence:
#
# PCOD9347506 Si02
#       8
#     4   2   4   4   4   4   4   4
#     4  11  23  39  60  88 121 161 206 240 304 364
#     4  10  22  34  54  84 128 158 194 224 304 376
#     4  10  22  42  61  91 120 160 205 255 298 365
#     4  10  21  37  52  87 121 157 191 242 292 373
#     4  11  21  39  63  92 120 159 204 258 301 370
#     4  11  23  36  61  85 118 153 204 249 304 347
#     4   9  22  36  61  87 126 154 200 249 305 361
#     4  11  23  38  59  89 122 167 194 248 302 372
#
# _framework density 20.399426999999999
#
# number of rings (size 3 to 8) (size 9 to 14) (size 15 to 20)
#    0.000    1.600    2.667    1.600    5.600    4.267 
#    0.000    0.000    0.000    0.800    3.467    0.000 
#    0.000    0.000    0.000    0.000    0.000    0.000 
#
# Total GULP energy -167237.391012 kJ/mol
# GULP energy per Si atom -5574.579700 kJ/mol
# Density = 2.035300 g / cm^3
# Si number density = 20.399427 Si / 1000 Ang^3
#
#
#
# Elastic Constant Matrix: (Units=GPa)
#
#
# Indices 1 2 3 4 5 6 
#
# 1 63.7711 28.1228 4.2003 0.0000 0.0000 0.0000
# 2 28.1228 86.5648 3.1871 0.0000 0.0000 0.0000
# 3 4.2003 3.1871 73.4989 0.0000 0.0000 0.0000
# 4 0.0000 0.0000 0.0000 29.8776 0.0000 0.0000
# 5 0.0000 0.0000 0.0000 0.0000 20.1660 0.0000
# 6 0.0000 0.0000 0.0000 0.0000 0.0000 31.3973
#
#
#
# Elastic Compliance Matrix: (Units=1/GPa)
#
#
# Indices 1 2 3 4 5 6 
#
# 1 0.018349 -0.005932 -0.000791 0.000000 0.000000 0.000000
# 2 -0.005932 0.013488 -0.000246 0.000000 0.000000 0.000000
# 3 -0.000791 -0.000246 0.013662 0.000000 0.000000 0.000000
# 4 0.000000 0.000000 0.000000 0.033470 0.000000 0.000000
# 5 0.000000 0.000000 0.000000 0.000000 0.049588 0.000000
# 6 0.000000 0.000000 0.000000 0.000000 0.000000 0.031850
#
#
# Mechanical properties :
#
#
# Convention : Reuss Voigt Hill
#
# Bulk Modulus (GPa) = 31.68533 32.76168 32.22351
# Shear Modulus (GPa) = 27.04659 28.84313 27.94486
#
# Velocity S-wave (km/s) = 3.64517 3.76429 3.70521
# Velocity P-wave (km/s) = 5.76910 5.91508 5.84255
#
# Compressibility (1/GPa) = 0.03156035
#
# Stress axis : x y z
#
# Youngs Moduli (GPa) = 54.49811 74.13835 73.19823
#
# Poissons Ratio (x) = 0.43980 0.05793
# Poissons Ratio (y) = 0.32329 0.01800
# Poissons Ratio (z) = 0.04313 0.01823
#
# Static dielectric constant tensor:
#      x y z
#    x 1.762250 0.000000 0.000000 
#    y 0.000000 1.756450 0.000000 
#    z 0.000000 0.000000 1.841530 
# 
# From -- ./inp_files/1309.got.cif
#   From: 2010.05.17/outbox.cif.g08.bks.cpg/sg34_1_cif.got.tgz:1309.got - 2010.06.03 17:23:11.
