data_PCOD9347945
_publ_section_title
;
Structure prediction by ZEFSAII (Michael W. Deem and Ramdas Pophale) SiO2 
 PCOD9347945
Probable space group: P N N 2
;
_chemical_formula_sum "Si O2"
_cell_formula_units_Z 26
_cell_length_a 15.826227
_cell_length_b 6.625400
_cell_length_c 11.515381
_cell_angle_alpha 90.000000
_cell_angle_beta 90.000000
_cell_angle_gamma 90.000000
_cell_volume 1207.446246
_symmetry_space_group_name_H-M "P N N 2"
_symmetry_group_IT_number 34
_symmetry_cell_setting 'orthorhombic'
loop_
_space_group_symop_operation_xyz
x,y,z
-x,-y,z
1/2-x,1/2+y,1/2+z
1/2+x,1/2-y,1/2+z
loop_
_atom_site_type_symbol
_atom_site_label
_atom_site_fract_x
_atom_site_fract_y
_atom_site_fract_z
Si Si1 0.133025 0.318501 0.961330
Si Si2 0.000000 0.000000 0.886939
Si Si3 0.593311 0.587329 0.839482
Si Si4 0.200155 0.306677 0.375609
Si Si5 0.404342 0.056543 0.691480
Si Si6 0.873563 0.319764 0.793088
Si Si7 0.320224 0.153419 0.027527
O O1 0.121859 0.452771 0.844440
O O2 0.069071 0.129075 0.959121
O O3 0.107798 0.474927 0.062841
O O4 0.228476 0.242181 0.988190
O O5 0.046745 0.825794 0.812445
O O6 0.500000 0.500000 0.841814
O O7 0.658504 0.408286 0.857116
O O8 0.606810 0.708356 0.719597
O O9 0.610757 0.739761 0.945183
O O10 0.163080 0.443615 0.272407
O O11 0.299281 0.284045 0.366482
O O12 0.177883 0.417883 0.494387
O O13 0.500000 0.000000 0.728862
O O14 0.842276 0.317692 0.660856
#
# Coordination Sequence:
#
# PCOD9347945 Si02
#       7
#     4   2   4   4   4   4   4
#     4  12  26  49  73 109 146 195 252 308 377 450
#     4  12  28  50  72 108 154 200 252 308 374 452
#     4  11  24  45  74 109 143 185 240 305 369 445
#     4  11  23  45  72 106 139 188 239 300 370 436
#     4  11  23  42  71 109 142 180 242 303 371 434
#     4  12  26  49  73 105 147 198 250 306 373 450
#     4  11  26  46  75 105 147 196 246 307 377 447
#
# _framework density 21.533048999999998
#
# number of rings (size 3 to 8) (size 9 to 14) (size 15 to 20)
#    0.000    0.615    6.154    1.385    1.077    4.923 
#    4.154    0.000    0.000    0.000    0.000    0.000 
#    0.000    0.000    0.000    0.000    0.000    0.000 
#
# Total GULP energy -145357.506265 kJ/mol
# GULP energy per Si atom -5590.673318 kJ/mol
# Density = 2.148404 g / cm^3
# Si number density = 21.533049 Si / 1000 Ang^3
#
#
#
# Elastic Constant Matrix: (Units=GPa)
#
#
# Indices 1 2 3 4 5 6 
#
# 1 82.0713 37.7824 16.8755 0.0000 0.0000 0.0000
# 2 37.7824 119.9841 54.8818 0.0000 0.0000 0.0000
# 3 16.8755 54.8818 91.5357 0.0000 0.0000 0.0000
# 4 0.0000 0.0000 0.0000 40.3944 0.0000 0.0000
# 5 0.0000 0.0000 0.0000 0.0000 23.5026 0.0000
# 6 0.0000 0.0000 0.0000 0.0000 0.0000 49.3475
#
#
#
# Elastic Compliance Matrix: (Units=1/GPa)
#
#
# Indices 1 2 3 4 5 6 
#
# 1 0.014251 -0.004527 0.000087 0.000000 0.000000 0.000000
# 2 -0.004527 0.012922 -0.006913 0.000000 0.000000 0.000000
# 3 0.000087 -0.006913 0.015053 0.000000 0.000000 0.000000
# 4 0.000000 0.000000 0.000000 0.024756 0.000000 0.000000
# 5 0.000000 0.000000 0.000000 0.000000 0.042549 0.000000
# 6 0.000000 0.000000 0.000000 0.000000 0.000000 0.020264
#
#
# Mechanical properties :
#
#
# Convention : Reuss Voigt Hill
#
# Bulk Modulus (GPa) = 51.22956 56.96339 54.09647
# Shear Modulus (GPa) = 31.44485 34.91898 33.18191
#
# Velocity S-wave (km/s) = 3.82554 4.03134 3.92979
# Velocity P-wave (km/s) = 6.58451 6.94120 6.76521
#
# Compressibility (1/GPa) = 0.01951998
#
# Stress axis : x y z
#
# Youngs Moduli (GPa) = 70.17133 77.38625 66.42989
#
# Poissons Ratio (x) = 0.35036 -0.00579
# Poissons Ratio (y) = 0.31769 0.45923
# Poissons Ratio (z) = -0.00612 0.53498
#
# Static dielectric constant tensor:
#      x y z
#    x 1.768040 0.000000 0.000000 
#    y 0.000000 1.826570 0.000000 
#    z 0.000000 0.000000 1.768600 
# 
# From -- ./inp_files/4459.got.cif
#   From: 2010.05.17/outbox.cif.g08.bks.cpg/sg34_3_cif.got.tgz:4459.got - 2010.06.03 17:23:11.
