data_PCOD9347224
_publ_section_title
;
Structure prediction by ZEFSAII (Michael W. Deem and Ramdas Pophale) SiO2 
 PCOD9347224
Probable space group: P N N 2
;
_chemical_formula_sum "Si O2"
_cell_formula_units_Z 32
_cell_length_a 17.318481
_cell_length_b 11.886782
_cell_length_c 5.745371
_cell_angle_alpha 90.000000
_cell_angle_beta 90.000000
_cell_angle_gamma 90.000000
_cell_volume 1182.747867
_symmetry_space_group_name_H-M "P N N 2"
_symmetry_group_IT_number 34
_symmetry_cell_setting 'orthorhombic'
loop_
_space_group_symop_operation_xyz
x,y,z
-x,-y,z
1/2-x,1/2+y,1/2+z
1/2+x,1/2-y,1/2+z
loop_
_atom_site_type_symbol
_atom_site_label
_atom_site_fract_x
_atom_site_fract_y
_atom_site_fract_z
Si Si1 0.381825 0.595597 0.752240
Si Si2 0.735236 0.001769 0.789087
Si Si3 0.916323 0.555002 0.177904
Si Si4 0.045626 0.381290 0.682675
Si Si5 0.747082 0.747279 0.072829
Si Si6 0.911140 0.206440 0.772292
Si Si7 0.801089 0.130318 0.174950
Si Si8 0.588461 0.442169 0.239987
O O1 0.307161 0.673656 0.701501
O O2 0.353727 0.466249 0.792268
O O3 0.428399 0.598390 0.506542
O O4 0.425193 0.619388 0.993609
O O5 0.651297 0.962675 0.715803
O O6 0.740855 0.120768 0.659544
O O7 0.816375 0.942571 0.749632
O O8 0.740217 0.045924 0.052235
O O9 0.918254 0.627159 0.420400
O O10 0.000000 0.500000 0.163456
O O11 0.904936 0.612371 0.923835
O O12 0.000000 0.500000 0.668933
O O13 0.983678 0.285708 0.745448
O O14 0.656095 0.764671 0.117769
O O15 0.747049 0.727247 0.798303
O O16 0.933606 0.075076 0.725037
O O17 0.863019 0.191332 0.010114
#
# Coordination Sequence:
#
# PCOD9347224 Si02
#       8
#     4   4   4   4   4   4   4   4
#     4  10  19  32  51  84 115 143 194 234 304 376
#     4   9  20  36  55  79 125 158 201 253 302 366
#     4  10  23  38  55  81 119 166 205 236 293 366
#     4  10  23  38  54  85 117 162 208 237 290 369
#     4  10  20  33  60  86 117 162 195 259 321 351
#     4   9  20  36  56  79 124 158 202 249 302 365
#     4   9  19  37  54  87 115 160 201 255 316 360
#     4   9  20  34  55  83 111 157 198 252 306 346
#
# _framework density 27.055641000000001
#
# number of rings (size 3 to 8) (size 9 to 14) (size 15 to 20)
#    0.000    3.000    2.500    0.000    7.000    6.000 
#    2.250    0.000    0.000    0.000    0.000   11.375 
#    0.000    0.000    0.000    0.000    0.000    0.000 
#
# Total GULP energy -178386.675230 kJ/mol
# GULP energy per Si atom -5574.583601 kJ/mol
# Density = 2.699406 g / cm^3
# Si number density = 27.055641 Si / 1000 Ang^3
#
#
#
# Elastic Constant Matrix: (Units=GPa)
#
#
# Indices 1 2 3 4 5 6 
#
# 1 62.9247 0.4090 31.7473 0.0000 0.0000 0.0000
# 2 0.4090 109.2723 26.3079 0.0000 0.0000 0.0000
# 3 31.7473 26.3079 197.0371 0.0000 0.0000 0.0000
# 4 0.0000 0.0000 0.0000 0.0751 0.0000 0.0000
# 5 0.0000 0.0000 0.0000 0.0000 36.7949 0.0000
# 6 0.0000 0.0000 0.0000 0.0000 0.0000 29.5966
#
#
#
# Elastic Compliance Matrix: (Units=1/GPa)
#
#
# Indices 1 2 3 4 5 6 
#
# 1 0.017340 0.000628 -0.002878 0.000000 0.000000 0.000000
# 2 0.000628 0.009478 -0.001367 0.000000 0.000000 0.000000
# 3 -0.002878 -0.001367 0.005721 0.000000 0.000000 0.000000
# 4 0.000000 0.000000 0.000000 13.324230 0.000000 0.000000
# 5 0.000000 0.000000 0.000000 0.000000 0.027178 0.000000
# 6 0.000000 0.000000 0.000000 0.000000 0.000000 0.033788
#
#
# Mechanical properties :
#
#
# Convention : Reuss Voigt Hill
#
# Bulk Modulus (GPa) = 39.51571 54.01805 46.76688
# Shear Modulus (GPa) = 0.37221 34.01131 17.19176
#
# Velocity S-wave (km/s) = 0.37131 3.54939 2.52349
# Velocity P-wave (km/s) = 3.84979 6.06683 5.08071
#
# Compressibility (1/GPa) = 0.02530639
#
# Stress axis : x y z
#
# Youngs Moduli (GPa) = 57.67079 105.50603 174.78470
#
# Poissons Ratio (x) = -0.06625 0.50298
# Poissons Ratio (y) = -0.03621 0.23887
# Poissons Ratio (z) = 0.16596 0.14419
#
# Static dielectric constant tensor:
#      x y z
#    x 2.304750 0.000000 0.000000 
#    y 0.000000 2.179390 0.000000 
#    z 0.000000 0.000000 2.329730 
# 
# From -- ./inp_files/1503.got.cif
#   From: 2010.05.17/outbox.cif.g08.bks.cpg/sg34_1_cif.got.tgz:1503.got - 2010.06.03 17:23:11.
