data_PCOD9347213
_publ_section_title
;
Structure prediction by ZEFSAII (Michael W. Deem and Ramdas Pophale) SiO2 
 PCOD9347213
Probable space group: P N N 2
;
_chemical_formula_sum "Si O2"
_cell_formula_units_Z 26
_cell_length_a 23.791517
_cell_length_b 7.310891
_cell_length_c 5.830609
_cell_angle_alpha 90.000000
_cell_angle_beta 90.000000
_cell_angle_gamma 90.000000
_cell_volume 1014.159731
_symmetry_space_group_name_H-M "P N N 2"
_symmetry_group_IT_number 34
_symmetry_cell_setting 'orthorhombic'
loop_
_space_group_symop_operation_xyz
x,y,z
-x,-y,z
1/2-x,1/2+y,1/2+z
1/2+x,1/2-y,1/2+z
loop_
_atom_site_type_symbol
_atom_site_label
_atom_site_fract_x
_atom_site_fract_y
_atom_site_fract_z
Si Si1 0.195060 0.753581 0.903510
Si Si2 0.884694 0.585234 0.946593
Si Si3 0.073027 0.169730 0.548612
Si Si4 0.665890 0.775777 0.904461
Si Si5 0.181706 0.284343 0.313608
Si Si6 0.953294 0.223688 0.596699
Si Si7 0.000000 0.500000 0.978647
O O1 0.189171 0.820732 0.637054
O O2 0.260551 0.702791 0.899793
O O3 0.146162 0.602649 0.897357
O O4 0.184345 0.821707 0.165861
O O5 0.833286 0.704368 0.044980
O O6 0.909655 0.674036 0.723026
O O7 0.941814 0.565117 0.097644
O O8 0.127498 0.170937 0.393377
O O9 0.010851 0.205654 0.451970
O O10 0.065050 0.977808 0.678721
O O11 0.682677 0.995267 0.884605
O O12 0.598586 0.781725 0.939714
O O13 0.973175 0.344694 0.810896
#
# Coordination Sequence:
#
# PCOD9347213 Si02
#       7
#     4   4   4   4   4   4   2
#     4  11  25  43  72 101 142 188 238 291 357 424
#     4  10  22  44  68 103 138 189 240 303 370 427
#     4  10  22  44  67 102 142 183 239 304 368 438
#     4  11  24  47  70 102 138 188 239 295 360 422
#     4  11  25  42  71  99 142 188 244 292 361 439
#     4  10  21  42  73 103 140 185 243 301 374 437
#     4  10  18  42  76 100 146 180 246 300 372 436
#
# _framework density 25.636984999999999
#
# number of rings (size 3 to 8) (size 9 to 14) (size 15 to 20)
#    0.000    1.538    3.077    0.923    2.154    6.154 
#    2.769    3.077    0.000    0.000    0.000    0.000 
#    0.000    0.000    0.000    0.000    0.000    0.000 
#
# Total GULP energy -144739.927079 kJ/mol
# GULP energy per Si atom -5566.920272 kJ/mol
# Density = 2.557863 g / cm^3
# Si number density = 25.636985 Si / 1000 Ang^3
#
#
#
# Elastic Constant Matrix: (Units=GPa)
#
#
# Indices 1 2 3 4 5 6 
#
# 1 218.7498 12.8209 42.8597 0.0000 0.0000 0.0000
# 2 12.8209 49.7066 -3.2280 0.0000 0.0000 0.0000
# 3 42.8597 -3.2280 120.2849 0.0000 0.0000 0.0000
# 4 0.0000 0.0000 0.0000 9.8127 0.0000 0.0000
# 5 0.0000 0.0000 0.0000 0.0000 47.8560 0.0000
# 6 0.0000 0.0000 0.0000 0.0000 0.0000 13.5276
#
#
#
# Elastic Compliance Matrix: (Units=1/GPa)
#
#
# Indices 1 2 3 4 5 6 
#
# 1 0.005011 -0.001411 -0.001824 0.000000 0.000000 0.000000
# 2 -0.001411 0.020550 0.001054 0.000000 0.000000 0.000000
# 3 -0.001824 0.001054 0.008992 0.000000 0.000000 0.000000
# 4 0.000000 0.000000 0.000000 0.101909 0.000000 0.000000
# 5 0.000000 0.000000 0.000000 0.000000 0.020896 0.000000
# 6 0.000000 0.000000 0.000000 0.000000 0.000000 0.073923
#
#
# Mechanical properties :
#
#
# Convention : Reuss Voigt Hill
#
# Bulk Modulus (GPa) = 33.12032 54.84961 43.98496
# Shear Modulus (GPa) = 20.34948 36.65849 28.50399
#
# Velocity S-wave (km/s) = 2.82042 3.78551 3.33803
# Velocity P-wave (km/s) = 4.85318 6.36773 5.66133
#
# Compressibility (1/GPa) = 0.03019294
#
# Stress axis : x y z
#
# Youngs Moduli (GPa) = 199.54440 48.66075 111.21441
#
# Poissons Ratio (x) = 0.06866 0.20280
# Poissons Ratio (y) = 0.28156 -0.11725
# Poissons Ratio (z) = 0.36387 -0.05130
#
# Static dielectric constant tensor:
#      x y z
#    x 2.024320 0.000000 0.000000 
#    y 0.000000 2.101660 0.000000 
#    z 0.000000 0.000000 2.180260 
# 
# From -- ./inp_files/1674.got.cif
#   From: 2010.05.17/outbox.cif.g08.bks.cpg/sg34_1_cif.got.tgz:1674.got - 2010.06.03 17:23:11.
