data_PCOD9347409
_publ_section_title
;
Structure prediction by ZEFSAII (Michael W. Deem and Ramdas Pophale) SiO2 
 PCOD9347409
Probable space group: P N N 2
;
_chemical_formula_sum "Si O2"
_cell_formula_units_Z 32
_cell_length_a 8.849910
_cell_length_b 16.441129
_cell_length_c 11.424620
_cell_angle_alpha 90.000000
_cell_angle_beta 90.000000
_cell_angle_gamma 90.000000
_cell_volume 1662.310908
_symmetry_space_group_name_H-M "P N N 2"
_symmetry_group_IT_number 34
_symmetry_cell_setting 'orthorhombic'
loop_
_space_group_symop_operation_xyz
x,y,z
-x,-y,z
1/2-x,1/2+y,1/2+z
1/2+x,1/2-y,1/2+z
loop_
_atom_site_type_symbol
_atom_site_label
_atom_site_fract_x
_atom_site_fract_y
_atom_site_fract_z
Si Si1 0.183699 0.638446 0.151080
Si Si2 0.799797 0.207129 0.577886
Si Si3 0.823606 0.485389 0.424271
Si Si4 0.564529 0.242008 0.230348
Si Si5 0.325743 0.472875 0.184258
Si Si6 0.218671 0.367032 0.554831
Si Si7 0.984622 0.246054 0.998915
Si Si8 0.066012 0.683727 0.398878
O O1 0.343199 0.679026 0.186470
O O2 0.212420 0.543244 0.138690
O O3 0.076806 0.667576 0.259744
O O4 0.123608 0.679306 0.034502
O O5 0.904132 0.255866 0.667704
O O6 0.800859 0.113467 0.620739
O O7 0.633103 0.242715 0.575656
O O8 0.873805 0.231109 0.451144
O O9 0.718092 0.522582 0.322575
O O10 0.791272 0.536825 0.539634
O O11 0.819154 0.388651 0.440651
O O12 0.000000 0.500000 0.390084
O O13 0.538061 0.247602 0.366528
O O14 0.661029 0.167624 0.178177
O O15 0.500000 0.500000 0.170077
O O16 0.382837 0.332201 0.525482
O O17 0.097118 0.332699 0.457983
#
# Coordination Sequence:
#
# PCOD9347409 Si02
#       8
#     4   4   4   4   4   4   4   4
#     4  10  21  38  57  89 121 155 203 253 306 373
#     4  11  22  36  62  86 121 160 197 256 311 369
#     4   9  19  35  61  91 116 156 203 260 308 360
#     4  10  20  39  57  89 119 157 204 245 310 369
#     4  11  22  35  58  89 123 154 201 264 315 365
#     4   9  20  35  57  89 119 156 201 256 304 368
#     4  11  23  35  60  88 123 162 204 248 308 373
#     4   9  19  37  60  86 121 157 200 257 313 366
#
# _framework density 19.250309000000001
#
# number of rings (size 3 to 8) (size 9 to 14) (size 15 to 20)
#    0.000    2.000    2.500    0.750    7.000    0.000 
#    0.000    0.000   13.750    0.000    0.000    0.000 
#    0.000    0.000    0.000    0.000    0.000    0.000 
#
# Total GULP energy -178314.181253 kJ/mol
# GULP energy per Si atom -5572.318164 kJ/mol
# Density = 1.920649 g / cm^3
# Si number density = 19.250309 Si / 1000 Ang^3
#
#
#
# Elastic Constant Matrix: (Units=GPa)
#
#
# Indices 1 2 3 4 5 6 
#
# 1 97.1550 12.1577 40.8153 0.0000 0.0000 0.0000
# 2 12.1577 88.6626 29.2154 0.0000 0.0000 0.0000
# 3 40.8153 29.2154 46.4690 0.0000 0.0000 0.0000
# 4 0.0000 0.0000 0.0000 22.8582 0.0000 0.0000
# 5 0.0000 0.0000 0.0000 0.0000 26.3834 0.0000
# 6 0.0000 0.0000 0.0000 0.0000 0.0000 13.9828
#
#
#
# Elastic Compliance Matrix: (Units=1/GPa)
#
#
# Indices 1 2 3 4 5 6 
#
# 1 0.017032 0.003272 -0.017017 0.000000 0.000000 0.000000
# 2 0.003272 0.014854 -0.012213 0.000000 0.000000 0.000000
# 3 -0.017017 -0.012213 0.044145 0.000000 0.000000 0.000000
# 4 0.000000 0.000000 0.000000 0.043748 0.000000 0.000000
# 5 0.000000 0.000000 0.000000 0.000000 0.037903 0.000000
# 6 0.000000 0.000000 0.000000 0.000000 0.000000 0.071516
#
#
# Mechanical properties :
#
#
# Convention : Reuss Voigt Hill
#
# Bulk Modulus (GPa) = 41.46757 44.07371 42.77064
# Shear Modulus (GPa) = 17.29190 22.65145 19.97167
#
# Velocity S-wave (km/s) = 3.00036 3.43400 3.22448
# Velocity P-wave (km/s) = 5.79576 6.21835 6.01077
#
# Compressibility (1/GPa) = 0.02411523
#
# Stress axis : x y z
#
# Youngs Moduli (GPa) = 58.71171 67.32042 22.65278
#
# Poissons Ratio (x) = -0.22026 0.38549
# Poissons Ratio (y) = -0.19209 0.27665
# Poissons Ratio (z) = 0.99910 0.82217
#
# Static dielectric constant tensor:
#      x y z
#    x 1.717780 0.000000 0.000000 
#    y 0.000000 1.719400 0.000000 
#    z 0.000000 0.000000 1.709420 
# 
# From -- ./inp_files/5163.got.cif
#   From: 2010.05.17/outbox.cif.g08.bks.cpg/sg34_3_cif.got.tgz:5163.got - 2010.06.03 17:23:11.
