data_PCOD9347069
_publ_section_title
;
Structure prediction by ZEFSAII (Michael W. Deem and Ramdas Pophale) SiO2 
 PCOD9347069
Probable space group: P N A 21
;
_chemical_formula_sum "Si O2"
_cell_formula_units_Z 32
_cell_length_a 9.000000
_cell_length_b 15.000000
_cell_length_c 12.000000
_cell_angle_alpha 90.000000
_cell_angle_beta 90.000000
_cell_angle_gamma 90.000000
_cell_volume 1620.000000
_symmetry_space_group_name_H-M "P N A 21"
_symmetry_group_IT_number 33
_symmetry_cell_setting 'orthorhombic'
loop_
_space_group_symop_operation_xyz
x,y,z
-x,-y,1/2+z
1/2-x,1/2+y,1/2+z
1/2+x,1/2-y,z
loop_
_atom_site_type_symbol
_atom_site_label
_atom_site_fract_x
_atom_site_fract_y
_atom_site_fract_z
Si Si1 0.195850 0.934080 0.730200
Si Si2 0.955875 0.071653 0.692389
Si Si3 0.215361 0.344533 0.004320
Si Si4 0.300293 0.151849 0.471009
Si Si5 0.173348 0.489190 0.826159
Si Si6 0.483591 0.271320 0.864358
Si Si7 0.060124 0.846857 0.955296
Si Si8 0.401619 0.097743 0.721406
O O1 0.267405 0.866937 0.636709
O O2 0.125153 0.891094 0.841889
O O3 0.305198 0.014516 0.766341
O O4 0.070344 0.992294 0.667502
O O5 0.833082 0.027291 0.771767
O O6 0.021456 0.154960 0.767269
O O7 0.896993 0.107065 0.573654
O O8 0.163164 0.433925 0.941498
O O9 0.372037 0.318650 0.949723
O O10 0.108206 0.269816 0.947142
O O11 0.373046 0.248114 0.458215
O O12 0.349282 0.118352 0.595065
O O13 0.120448 0.154237 0.460350
O O14 0.353585 0.088727 0.369139
O O15 0.065061 0.444072 0.736231
O O16 0.408180 0.188474 0.795662
#
# Coordination Sequence:
#
# PCOD9347069 Si02
#       8
#     4   4   4   4   4   4   4   4
#     4  12  25  45  65  99 145 187 221 291 365 419
#     4  11  22  44  71 100 133 185 240 279 355 420
#     4  10  22  42  66  95 135 172 228 279 346 407
#     4  12  25  47  65 105 143 179 237 299 350 426
#     4  10  23  43  71  99 135 180 230 290 345 418
#     4  10  22  41  70 100 126 179 232 285 331 417
#     4  12  28  42  72 102 142 186 235 296 360 428
#     4  11  23  42  72  98 139 178 233 291 346 417
#
# _framework density 19.753086
#
# number of rings (size 3 to 8) (size 9 to 14) (size 15 to 20)
#    0.000    1.000    5.000    0.750    5.250    1.000 
#    0.000    0.000    0.000    0.000    0.000    0.000 
#    0.000    0.000    0.000    0.000    0.000    0.000 
#
# Total GULP energy -178396.293587 kJ/mol
# GULP energy per Si atom -5574.884175 kJ/mol
# Density = 1.970813 g / cm^3
# Si number density = 19.753086 Si / 1000 Ang^3
#
#
#
# Elastic Constant Matrix: (Units=GPa)
#
#
# Indices 1 2 3 4 5 6 
#
# 1 56.5828 23.6698 27.8779 0.0000 0.0000 0.0000
# 2 23.6698 109.3433 59.1746 0.0000 0.0000 0.0000
# 3 27.8779 59.1746 136.2894 0.0000 0.0000 0.0000
# 4 0.0000 0.0000 0.0000 38.3033 0.0000 0.0000
# 5 0.0000 0.0000 0.0000 0.0000 35.0475 0.0000
# 6 0.0000 0.0000 0.0000 0.0000 0.0000 33.1751
#
#
#
# Elastic Compliance Matrix: (Units=1/GPa)
#
#
# Indices 1 2 3 4 5 6 
#
# 1 0.020292 -0.002806 -0.002933 0.000000 0.000000 0.000000
# 2 -0.002806 0.012342 -0.004785 0.000000 0.000000 0.000000
# 3 -0.002933 -0.004785 0.010015 0.000000 0.000000 0.000000
# 4 0.000000 0.000000 0.000000 0.026107 0.000000 0.000000
# 5 0.000000 0.000000 0.000000 0.000000 0.028533 0.000000
# 6 0.000000 0.000000 0.000000 0.000000 0.000000 0.030143
#
#
# Mechanical properties :
#
#
# Convention : Reuss Voigt Hill
#
# Bulk Modulus (GPa) = 46.29057 58.18445 52.23751
# Shear Modulus (GPa) = 32.11738 34.07140 33.09439
#
# Velocity S-wave (km/s) = 4.03667 4.15765 4.09761
# Velocity P-wave (km/s) = 6.72397 7.25038 6.99213
#
# Compressibility (1/GPa) = 0.02160267
#
# Stress axis : x y z
#
# Youngs Moduli (GPa) = 49.28132 81.02165 99.85290
#
# Poissons Ratio (x) = 0.22731 0.29282
# Poissons Ratio (y) = 0.13826 0.47779
# Poissons Ratio (z) = 0.14452 0.38769
#
# Static dielectric constant tensor:
#      x y z
#    x 1.782150 0.000000 0.000000 
#    y 0.000000 1.704830 0.000000 
#    z 0.000000 0.000000 1.664390 
# 
# From -- ./inp_files/6032.got.cif
#   From: 2010.05.17/outbox.ucp.g08.bks.cvg/sg33_4_cif.got.tgz:6032.got - 2010.06.11 10:35:07.
