data_PCOD9347976
_publ_section_title
;
Structure prediction by ZEFSAII (Michael W. Deem and Ramdas Pophale) SiO2 
 PCOD9347976
Probable space group: P N N 2
;
_chemical_formula_sum "Si O2"
_cell_formula_units_Z 32
_cell_length_a 14.366789
_cell_length_b 8.522549
_cell_length_c 11.674665
_cell_angle_alpha 90.000000
_cell_angle_beta 90.000000
_cell_angle_gamma 90.000000
_cell_volume 1429.465400
_symmetry_space_group_name_H-M "P N N 2"
_symmetry_group_IT_number 34
_symmetry_cell_setting 'orthorhombic'
loop_
_space_group_symop_operation_xyz
x,y,z
-x,-y,z
1/2-x,1/2+y,1/2+z
1/2+x,1/2-y,1/2+z
loop_
_atom_site_type_symbol
_atom_site_label
_atom_site_fract_x
_atom_site_fract_y
_atom_site_fract_z
Si Si1 0.631011 0.932345 0.795930
Si Si2 0.752766 0.538385 0.933498
Si Si3 0.264872 0.706985 0.131889
Si Si4 0.543075 0.166560 0.418647
Si Si5 0.642473 0.810654 0.034173
Si Si6 0.021238 0.182475 0.681926
Si Si7 0.802394 0.956585 0.181085
Si Si8 0.966481 0.730314 0.180246
O O1 0.730298 0.880735 0.747092
O O2 0.558394 0.797351 0.755140
O O3 0.599035 0.090158 0.731251
O O4 0.628909 0.937255 0.932820
O O5 0.846124 0.641437 0.927180
O O6 0.733999 0.467027 0.810107
O O7 0.763011 0.403135 0.027056
O O8 0.667378 0.648740 0.969891
O O9 0.375465 0.726171 0.139248
O O10 0.212660 0.872271 0.127290
O O11 0.517888 0.285570 0.318075
O O12 0.509687 0.203151 0.547076
O O13 0.500000 0.000000 0.383818
O O14 0.554237 0.786265 0.114814
O O15 0.732897 0.847094 0.109727
O O16 0.000000 0.000000 0.659334
O O17 0.905815 0.887258 0.184261
#
# Coordination Sequence:
#
# PCOD9347976 Si02
#       8
#     4   4   4   4   4   4   4   4
#     4  11  24  48  76 102 151 195 244 303 374 449
#     4  12  24  49  73 102 157 194 238 316 377 441
#     4  12  25  47  74 108 144 197 247 304 380 443
#     4  12  22  50  74 101 152 195 246 308 374 451
#     4  12  26  48  73 111 147 191 248 308 368 458
#     4  12  28  46  74 111 150 195 249 313 379 452
#     4  12  27  45  76 114 144 196 250 307 376 456
#     4  11  25  47  73 107 145 198 244 306 380 449
#
# _framework density 22.38599
#
# number of rings (size 3 to 8) (size 9 to 14) (size 15 to 20)
#    0.000    0.250    7.500    0.750    3.500    1.500 
#    6.750    0.000    0.000    0.000    0.000    0.000 
#    0.000    0.000    0.000    0.000    0.000    0.000 
#
# Total GULP energy -179162.977378 kJ/mol
# GULP energy per Si atom -5598.843043 kJ/mol
# Density = 2.233504 g / cm^3
# Si number density = 22.385990 Si / 1000 Ang^3
#
#
#
# Elastic Constant Matrix: (Units=GPa)
#
#
# Indices 1 2 3 4 5 6 
#
# 1 99.4790 10.4840 21.5771 0.0000 0.0000 0.0000
# 2 10.4840 72.9666 23.8713 0.0000 0.0000 0.0000
# 3 21.5771 23.8713 147.1964 0.0000 0.0000 0.0000
# 4 0.0000 0.0000 0.0000 32.3380 0.0000 0.0000
# 5 0.0000 0.0000 0.0000 0.0000 33.4643 0.0000
# 6 0.0000 0.0000 0.0000 0.0000 0.0000 32.7949
#
#
#
# Elastic Compliance Matrix: (Units=1/GPa)
#
#
# Indices 1 2 3 4 5 6 
#
# 1 0.010459 -0.001057 -0.001362 0.000000 0.000000 0.000000
# 2 -0.001057 0.014580 -0.002209 0.000000 0.000000 0.000000
# 3 -0.001362 -0.002209 0.007352 0.000000 0.000000 0.000000
# 4 0.000000 0.000000 0.000000 0.030923 0.000000 0.000000
# 5 0.000000 0.000000 0.000000 0.000000 0.029883 0.000000
# 6 0.000000 0.000000 0.000000 0.000000 0.000000 0.030493
#
#
# Mechanical properties :
#
#
# Convention : Reuss Voigt Hill
#
# Bulk Modulus (GPa) = 43.22741 47.94518 45.58629
# Shear Modulus (GPa) = 35.54748 37.30008 36.42378
#
# Velocity S-wave (km/s) = 3.98921 4.08637 4.03808
# Velocity P-wave (km/s) = 6.36949 6.61276 6.49226
#
# Compressibility (1/GPa) = 0.02313347
#
# Stress axis : x y z
#
# Youngs Moduli (GPa) = 95.60996 68.58876 136.02547
#
# Poissons Ratio (x) = 0.07252 0.18523
# Poissons Ratio (y) = 0.10109 0.30054
# Poissons Ratio (z) = 0.13019 0.15154
#
# Static dielectric constant tensor:
#      x y z
#    x 1.835510 0.000000 0.000000 
#    y 0.000000 1.853110 0.000000 
#    z 0.000000 0.000000 1.793810 
# 
# From -- ./inp_files/5691.got.cif
#   From: 2010.05.17/outbox.cif.g08.bks.cpg/sg34_3_cif.got.tgz:5691.got - 2010.06.03 17:23:11.
