data_PCOD9347639
_publ_section_title
;
Structure prediction by ZEFSAII (Michael W. Deem and Ramdas Pophale) SiO2 
 PCOD9347639
Probable space group: P N N 2
;
_chemical_formula_sum "Si O2"
_cell_formula_units_Z 16
_cell_length_a 8.850305
_cell_length_b 14.858996
_cell_length_c 4.590287
_cell_angle_alpha 90.000000
_cell_angle_beta 90.000000
_cell_angle_gamma 90.000000
_cell_volume 603.653250
_symmetry_space_group_name_H-M "P N N 2"
_symmetry_group_IT_number 34
_symmetry_cell_setting 'orthorhombic'
loop_
_space_group_symop_operation_xyz
x,y,z
-x,-y,z
1/2-x,1/2+y,1/2+z
1/2+x,1/2-y,1/2+z
loop_
_atom_site_type_symbol
_atom_site_label
_atom_site_fract_x
_atom_site_fract_y
_atom_site_fract_z
Si Si1 0.811091 0.560513 0.976010
Si Si2 0.500000 0.000000 0.963950
Si Si3 0.500000 0.500000 0.047396
Si Si4 0.911806 0.820372 0.876000
Si Si5 0.757363 0.239175 0.846517
O O1 0.923320 0.565792 0.702244
O O2 0.645748 0.531804 0.868806
O O3 0.791794 0.652017 0.158591
O O4 0.868613 0.487933 0.219651
O O5 0.547025 0.416588 0.246796
O O6 0.845606 0.760549 0.618065
O O7 0.072671 0.775295 0.957728
O O8 0.785071 0.820239 0.126281
#
# Coordination Sequence:
#
# PCOD9347639 Si02
#       5
#     4   2   2   4   4
#     4  10  23  42  63  95 129 165 212 261 317 383
#     4  10  22  38  64  94 130 168 212 262 318 378
#     4  10  26  44  66  96 132 170 212 264 322 380
#     4  11  25  44  67  95 130 170 214 263 319 380
#     4  11  24  42  65  92 128 169 214 263 316 377
#
# _framework density 26.505282000000001
#
# number of rings (size 3 to 8) (size 9 to 14) (size 15 to 20)
#    0.000    1.500    0.000    3.000    0.000   22.000 
#    0.000    0.000    0.000    0.000    0.000    0.000 
#    0.000    0.000    0.000    0.000    0.000    0.000 
#
# Total GULP energy -89482.313053 kJ/mol
# GULP energy per Si atom -5592.644566 kJ/mol
# Density = 2.644495 g / cm^3
# Si number density = 26.505282 Si / 1000 Ang^3
#
#
#
# Elastic Constant Matrix: (Units=GPa)
#
#
# Indices 1 2 3 4 5 6 
#
# 1 118.5803 46.0350 14.2441 0.0000 0.0000 0.0000
# 2 46.0350 80.9714 15.2557 0.0000 0.0000 0.0000
# 3 14.2441 15.2557 114.4956 0.0000 0.0000 0.0000
# 4 0.0000 0.0000 0.0000 33.1594 0.0000 0.0000
# 5 0.0000 0.0000 0.0000 0.0000 -60.2942 0.0000
# 6 0.0000 0.0000 0.0000 0.0000 0.0000 17.9434
#
#
#
# Elastic Compliance Matrix: (Units=1/GPa)
#
#
# Indices 1 2 3 4 5 6 
#
# 1 0.010854 -0.006069 -0.000542 0.000000 0.000000 0.000000
# 2 -0.006069 0.016061 -0.001385 0.000000 0.000000 0.000000
# 3 -0.000542 -0.001385 0.008986 0.000000 0.000000 0.000000
# 4 0.000000 0.000000 0.000000 0.030157 0.000000 0.000000
# 5 0.000000 0.000000 0.000000 0.000000 -0.016585 0.000000
# 6 0.000000 0.000000 0.000000 0.000000 0.000000 0.055731
#
#
# Mechanical properties :
#
#
# Convention : Reuss Voigt Hill
#
# Bulk Modulus (GPa) = 50.22564 51.67967 50.95266
# Shear Modulus (GPa) = 39.11366 14.06255 26.58811
#
# Velocity S-wave (km/s) = 3.84564 2.30588 3.17065
# Velocity P-wave (km/s) = 6.22166 5.16039 5.71571
#
# Compressibility (1/GPa) = 0.01991015
#
# Stress axis : x y z
#
# Youngs Moduli (GPa) = 92.12984 62.26107 111.28550
#
# Poissons Ratio (x) = 0.37786 0.06028
# Poissons Ratio (y) = 0.55913 0.15414
# Poissons Ratio (z) = 0.04991 0.08623
#
# Static dielectric constant tensor:
#      x y z
#    x 2.047320 0.000000 0.000000 
#    y 0.000000 2.198750 0.000000 
#    z 0.000000 0.000000 2.056360 
# 
# From -- ./inp_files/327.got.cif
#   From: 2010.05.17/outbox.cif.g08.bks.cpg/sg34_1_cif.got.tgz:327.got - 2010.06.03 17:23:11.
