data_PCOD9347044
_publ_section_title
;
Structure prediction by ZEFSAII (Michael W. Deem and Ramdas Pophale) SiO2 
 PCOD9347044
Probable space group: P N A 21
;
_chemical_formula_sum "Si O2"
_cell_formula_units_Z 32
_cell_length_a 22.587527
_cell_length_b 6.858729
_cell_length_c 7.089172
_cell_angle_alpha 90.000000
_cell_angle_beta 90.000000
_cell_angle_gamma 90.000000
_cell_volume 1098.266766
_symmetry_space_group_name_H-M "P N A 21"
_symmetry_group_IT_number 33
_symmetry_cell_setting 'orthorhombic'
loop_
_space_group_symop_operation_xyz
x,y,z
-x,-y,1/2+z
1/2-x,1/2+y,1/2+z
1/2+x,1/2-y,z
loop_
_atom_site_type_symbol
_atom_site_label
_atom_site_fract_x
_atom_site_fract_y
_atom_site_fract_z
Si Si1 0.920326 0.742653 0.762000
Si Si2 0.793789 0.682499 0.243699
Si Si3 0.169905 0.765290 0.235894
Si Si4 0.954230 0.293747 0.700965
Si Si5 0.795084 0.689368 0.791711
Si Si6 0.955311 0.185127 0.258525
Si Si7 0.077498 0.388205 0.688899
Si Si8 0.327519 0.393075 0.311892
O O1 0.936341 0.524113 0.692574
O O2 0.853194 0.796525 0.707836
O O3 0.977234 0.874833 0.710224
O O4 0.916206 0.714565 0.987618
O O5 0.727967 0.613309 0.301910
O O6 0.857711 0.586925 0.280398
O O7 0.802646 0.892107 0.335072
O O8 0.790266 0.713694 0.017679
O O9 0.186123 0.538678 0.268414
O O10 0.102766 0.800884 0.303948
O O11 0.164963 0.793587 0.012459
O O12 0.958731 0.229291 0.482929
O O13 0.020834 0.284796 0.786512
O O14 0.728105 0.717438 0.712601
O O15 0.943805 0.392068 0.159258
O O16 0.892900 0.078821 0.226506
#
# Coordination Sequence:
#
# PCOD9347044 Si02
#       8
#     4   4   4   4   4   4   4   4
#     4   8  14  26  46  65  83 116 163 199 227 280
#     4   9  16  26  44  69  94 121 156 200 250 299
#     4   8  14  26  46  66  86 121 169 202 231 290
#     4   8  14  26  46  65  83 116 163 199 227 280
#     4   8  14  26  46  66  86 121 169 202 231 290
#     4   9  16  26  44  69  91 114 152 202 245 286
#     4   9  16  26  44  69  91 114 152 202 245 286
#     4   9  16  26  44  69  94 121 156 200 250 299
#
# _framework density 29.136821999999999
#
# number of rings (size 3 to 8) (size 9 to 14) (size 15 to 20)
#    0.000    3.500    0.000    0.000    0.000    0.000 
#    0.000    0.000    0.000   79.500    0.000    7.000 
#    0.000    0.000    0.000    0.000    0.000    0.000 
#
# Total GULP energy -178823.009899 kJ/mol
# GULP energy per Si atom -5588.219059 kJ/mol
# Density = 2.907051 g / cm^3
# Si number density = 29.136822 Si / 1000 Ang^3
#
#
#
# Elastic Constant Matrix: (Units=GPa)
#
#
# Indices 1 2 3 4 5 6 
#
# 1 405.0773 40.8774 12.9574 0.0000 0.0000 0.0000
# 2 40.8774 60.8292 30.6892 0.0000 0.0000 0.0000
# 3 12.9574 30.6892 139.9283 0.0000 0.0000 0.0000
# 4 0.0000 0.0000 0.0000 -1.9633 0.0000 0.0000
# 5 0.0000 0.0000 0.0000 0.0000 2.0634 0.0000
# 6 0.0000 0.0000 0.0000 0.0000 0.0000 59.9930
#
#
#
# Elastic Compliance Matrix: (Units=1/GPa)
#
#
# Indices 1 2 3 4 5 6 
#
# 1 0.002652 -0.001864 0.000163 0.000000 0.000000 0.000000
# 2 -0.001864 0.019796 -0.004169 0.000000 0.000000 0.000000
# 3 0.000163 -0.004169 0.008046 0.000000 0.000000 0.000000
# 4 0.000000 0.000000 0.000000 -0.509334 0.000000 0.000000
# 5 0.000000 0.000000 0.000000 0.000000 0.484631 0.000000
# 6 0.000000 0.000000 0.000000 0.000000 0.000000 0.016669
#
#
# Mechanical properties :
#
#
# Convention : Reuss Voigt Hill
#
# Bulk Modulus (GPa) = 53.32450 86.09808 69.71129
# Shear Modulus (GPa) = 123.61269 46.77268 85.19269
#
# Velocity S-wave (km/s) = 6.52051 4.01094 5.41316
# Velocity P-wave (km/s) = 8.66201 7.14590 7.94023
#
# Compressibility (1/GPa) = 0.01875311
#
# Stress axis : x y z
#
# Youngs Moduli (GPa) = 377.13538 50.51634 124.28951
#
# Poissons Ratio (x) = 0.09418 -0.02030
# Poissons Ratio (y) = 0.70308 0.51816
# Poissons Ratio (z) = -0.06160 0.21060
#
# Static dielectric constant tensor:
#      x y z
#    x 2.467610 0.000000 0.000000 
#    y 0.000000 2.361180 0.000000 
#    z 0.000000 0.000000 2.120840 
# 
# From -- ./inp_files/5203.got.cif
#   From: 2010.05.17/outbox.cif.g08.bks.cpg/sg33_3_cif.got.tgz:5203.got - 2010.06.03 17:15:25.
