data_PCOD9347954
_publ_section_title
;
Structure prediction by ZEFSAII (Michael W. Deem and Ramdas Pophale) SiO2 
 PCOD9347954
Probable space group: P N N 2
;
_chemical_formula_sum "Si O2"
_cell_formula_units_Z 18
_cell_length_a 8.384565
_cell_length_b 8.294347
_cell_length_c 11.059227
_cell_angle_alpha 90.000000
_cell_angle_beta 90.000000
_cell_angle_gamma 90.000000
_cell_volume 769.108319
_symmetry_space_group_name_H-M "P N N 2"
_symmetry_group_IT_number 34
_symmetry_cell_setting 'orthorhombic'
loop_
_space_group_symop_operation_xyz
x,y,z
-x,-y,z
1/2-x,1/2+y,1/2+z
1/2+x,1/2-y,1/2+z
loop_
_atom_site_type_symbol
_atom_site_label
_atom_site_fract_x
_atom_site_fract_y
_atom_site_fract_z
Si Si1 0.000000 0.500000 0.236591
Si Si2 0.500000 0.000000 0.137674
Si Si3 0.500000 0.500000 0.736451
Si Si4 0.735108 0.033680 0.924125
Si Si5 0.516929 0.765805 0.548880
Si Si6 0.810757 0.682510 0.834888
O O1 0.891640 0.603000 0.327798
O O2 0.904191 0.386205 0.145011
O O3 0.432511 0.863289 0.227388
O O4 0.358054 0.028330 0.042572
O O5 0.440849 0.636006 0.641151
O O6 0.647388 0.581952 0.809483
O O7 0.794963 0.874619 0.855162
O O8 0.861171 0.165853 0.965952
O O9 0.392772 0.857052 0.463295
#
# Coordination Sequence:
#
# PCOD9347954 Si02
#       6
#     2   2   2   4   4   4
#     4  11  25  42  74 112 143 189 258 312 380 449
#     4  11  23  44  76 106 145 199 260 308 378 451
#     4  12  24  48  76 104 158 192 246 320 378 452
#     4  11  23  46  74 107 153 199 246 315 385 451
#     4  12  24  47  75 108 152 196 250 320 377 453
#     4  12  24  46  73 109 145 205 247 311 385 454
#
# _framework density 23.403725999999999
#
# number of rings (size 3 to 8) (size 9 to 14) (size 15 to 20)
#    0.000    0.444    6.667    0.667    0.000    5.333 
#    4.000    0.000    0.000    0.000    0.000    0.000 
#    0.000    0.000    0.000    0.000    0.000    0.000 
#
# Total GULP energy -100332.003088 kJ/mol
# GULP energy per Si atom -5574.000172 kJ/mol
# Density = 2.335046 g / cm^3
# Si number density = 23.403726 Si / 1000 Ang^3
#
#
#
# Elastic Constant Matrix: (Units=GPa)
#
#
# Indices 1 2 3 4 5 6 
#
# 1 136.0390 50.6573 92.8860 0.0000 0.0000 0.0000
# 2 50.6573 81.3097 84.8032 0.0000 0.0000 0.0000
# 3 92.8860 84.8032 201.4767 0.0000 0.0000 0.0000
# 4 0.0000 0.0000 0.0000 54.4151 0.0000 0.0000
# 5 0.0000 0.0000 0.0000 0.0000 40.4193 0.0000
# 6 0.0000 0.0000 0.0000 0.0000 0.0000 28.0863
#
#
#
# Elastic Compliance Matrix: (Units=1/GPa)
#
#
# Indices 1 2 3 4 5 6 
#
# 1 0.011076 -0.002807 -0.003925 0.000000 0.000000 0.000000
# 2 -0.002807 0.022634 -0.008233 0.000000 0.000000 0.000000
# 3 -0.003925 -0.008233 0.010238 0.000000 0.000000 0.000000
# 4 0.000000 0.000000 0.000000 0.018377 0.000000 0.000000
# 5 0.000000 0.000000 0.000000 0.000000 0.024741 0.000000
# 6 0.000000 0.000000 0.000000 0.000000 0.000000 0.035605
#
#
# Mechanical properties :
#
#
# Convention : Reuss Voigt Hill
#
# Bulk Modulus (GPa) = 71.33295 97.27983 84.30639
# Shear Modulus (GPa) = 31.79202 37.28272 34.53737
#
# Velocity S-wave (km/s) = 3.68967 3.99560 3.84568
# Velocity P-wave (km/s) = 6.97833 7.93364 7.47127
#
# Compressibility (1/GPa) = 0.01401877
#
# Stress axis : x y z
#
# Youngs Moduli (GPa) = 90.28613 44.18149 97.67574
#
# Poissons Ratio (x) = 0.12402 0.38335
# Poissons Ratio (y) = 0.25344 0.80413
# Poissons Ratio (z) = 0.35435 0.36373
#
# Static dielectric constant tensor:
#      x y z
#    x 2.002490 0.000000 0.000000 
#    y 0.000000 2.024500 0.000000 
#    z 0.000000 0.000000 1.874980 
# 
# From -- ./inp_files/4758.got.cif
#   From: 2010.05.17/outbox.cif.g08.bks.cpg/sg34_3_cif.got.tgz:4758.got - 2010.06.03 17:23:11.
