data_PCOD9347827
_publ_section_title
;
Structure prediction by ZEFSAII (Michael W. Deem and Ramdas Pophale) SiO2 
 PCOD9347827
Probable space group: P N N 2
;
_chemical_formula_sum "Si O2"
_cell_formula_units_Z 18
_cell_length_a 14.270951
_cell_length_b 7.563300
_cell_length_c 7.282317
_cell_angle_alpha 90.000000
_cell_angle_beta 90.000000
_cell_angle_gamma 90.000000
_cell_volume 786.020408
_symmetry_space_group_name_H-M "P N N 2"
_symmetry_group_IT_number 34
_symmetry_cell_setting 'orthorhombic'
loop_
_space_group_symop_operation_xyz
x,y,z
-x,-y,z
1/2-x,1/2+y,1/2+z
1/2+x,1/2-y,1/2+z
loop_
_atom_site_type_symbol
_atom_site_label
_atom_site_fract_x
_atom_site_fract_y
_atom_site_fract_z
Si Si1 0.231574 0.272542 0.138830
Si Si2 0.066135 0.649734 0.495255
Si Si3 0.842693 0.053130 0.933789
Si Si4 0.500000 0.500000 0.138603
Si Si5 0.402016 0.072026 0.571698
O O1 0.249429 0.362764 0.337697
O O2 0.182325 0.434955 0.028772
O O3 0.171945 0.097869 0.087068
O O4 0.334868 0.203173 0.084478
O O5 0.087661 0.587720 0.290691
O O6 0.000000 0.500000 0.582193
O O7 0.008444 0.829939 0.511164
O O8 0.909713 0.980664 0.771898
O O9 0.889564 0.228655 0.009756
O O10 0.500000 0.000000 0.498851
#
# Coordination Sequence:
#
# PCOD9347827 Si02
#       5
#     4   4   4   2   4
#     4  11  24  44  68 107 139 189 240 298 375 444
#     4  10  24  45  70 103 142 187 238 303 369 441
#     4  11  25  42  71 102 140 189 242 304 371 450
#     4  10  24  44  70 100 138 192 238 298 372 440
#     4  11  25  45  70 104 144 188 243 308 372 450
#
# _framework density 22.900169999999999
#
# number of rings (size 3 to 8) (size 9 to 14) (size 15 to 20)
#    0.000    1.333    2.222    1.333    3.111   15.111 
#    0.000    0.000    0.000    0.000    0.000    0.000 
#    0.000    0.000    0.000    0.000    0.000    0.000 
#
# Total GULP energy -100371.742364 kJ/mol
# GULP energy per Si atom -5576.207909 kJ/mol
# Density = 2.284805 g / cm^3
# Si number density = 22.900170 Si / 1000 Ang^3
#
#
#
# Elastic Constant Matrix: (Units=GPa)
#
#
# Indices 1 2 3 4 5 6 
#
# 1 85.7752 56.0784 15.2421 0.0000 0.0000 0.0000
# 2 56.0784 167.2236 5.4102 0.0000 0.0000 0.0000
# 3 15.2421 5.4102 54.1518 0.0000 0.0000 0.0000
# 4 0.0000 0.0000 0.0000 32.5392 0.0000 0.0000
# 5 0.0000 0.0000 0.0000 0.0000 3.8977 0.0000
# 6 0.0000 0.0000 0.0000 0.0000 0.0000 56.7925
#
#
#
# Elastic Compliance Matrix: (Units=1/GPa)
#
#
# Indices 1 2 3 4 5 6 
#
# 1 0.015716 -0.005144 -0.003910 0.000000 0.000000 0.000000
# 2 -0.005144 0.007683 0.000680 0.000000 0.000000 0.000000
# 3 -0.003910 0.000680 0.019499 0.000000 0.000000 0.000000
# 4 0.000000 0.000000 0.000000 0.030732 0.000000 0.000000
# 5 0.000000 0.000000 0.000000 0.000000 0.256560 0.000000
# 6 0.000000 0.000000 0.000000 0.000000 0.000000 0.017608
#
#
# Mechanical properties :
#
#
# Convention : Reuss Voigt Hill
#
# Bulk Modulus (GPa) = 38.23865 51.17910 44.70887
# Shear Modulus (GPa) = 13.39542 34.00722 23.70132
#
# Velocity S-wave (km/s) = 2.42119 3.85778 3.22061
# Velocity P-wave (km/s) = 4.95484 6.49927 5.77889
#
# Compressibility (1/GPa) = 0.02615155
#
# Stress axis : x y z
#
# Youngs Moduli (GPa) = 63.62892 130.15721 51.28438
#
# Poissons Ratio (x) = 0.66952 0.20051
# Poissons Ratio (y) = 0.32730 -0.03489
# Poissons Ratio (z) = 0.24877 -0.08854
#
# Static dielectric constant tensor:
#      x y z
#    x 1.891090 0.000000 0.000000 
#    y 0.000000 1.814820 0.000000 
#    z 0.000000 0.000000 1.922280 
# 
# From -- ./inp_files/3777.got.cif
#   From: 2010.05.17/outbox.cif.g08.bks.cpg/sg34_2_cif.got.tgz:3777.got - 2010.06.03 17:23:11.
