data_PCOD9347876
_publ_section_title
;
Structure prediction by ZEFSAII (Michael W. Deem and Ramdas Pophale) SiO2 
 PCOD9347876
Probable space group: P N N 2
;
_chemical_formula_sum "Si O2"
_cell_formula_units_Z 12
_cell_length_a 5.303426
_cell_length_b 5.105852
_cell_length_c 17.881570
_cell_angle_alpha 90.000000
_cell_angle_beta 90.000000
_cell_angle_gamma 90.000000
_cell_volume 484.206241
_symmetry_space_group_name_H-M "P N N 2"
_symmetry_group_IT_number 34
_symmetry_cell_setting 'orthorhombic'
loop_
_space_group_symop_operation_xyz
x,y,z
-x,-y,z
1/2-x,1/2+y,1/2+z
1/2+x,1/2-y,1/2+z
loop_
_atom_site_type_symbol
_atom_site_label
_atom_site_fract_x
_atom_site_fract_y
_atom_site_fract_z
Si Si1 0.000000 0.500000 0.121951
Si Si2 0.159850 0.761652 0.753741
Si Si3 0.331757 0.255493 0.018771
Si Si4 0.000000 0.000000 0.374972
O O1 0.200565 0.388305 0.182637
O O2 0.063171 0.275871 0.059268
O O3 0.345179 0.678574 0.819137
O O4 0.000000 0.500000 0.732849
O O5 0.000000 0.000000 0.784424
O O6 0.500000 0.500000 0.050513
O O7 0.325647 0.330486 0.931114
O O8 0.500000 0.000000 0.030080
#
# Coordination Sequence:
#
# PCOD9347876 Si02
#       4
#     2   4   4   2
#     4  12  26  50  76 112 158 200 260 320 390 452
#     4  12  28  46  76 112 154 205 260 323 382 466
#     4  10  26  45  76 111 148 200 254 317 384 459
#     4  10  28  48  78 108 156 202 264 314 394 446
#
# _framework density 24.782831999999999
#
# number of rings (size 3 to 8) (size 9 to 14) (size 15 to 20)
#    1.000    0.000    0.000    4.000    9.333    6.667 
#    0.000    0.000    0.000    0.000    0.000    0.000 
#    0.000    0.000    0.000    0.000    0.000    0.000 
#
# Total GULP energy -66831.096035 kJ/mol
# GULP energy per Si atom -5569.258003 kJ/mol
# Density = 2.472642 g / cm^3
# Si number density = 24.782832 Si / 1000 Ang^3
#
#
#
# Elastic Constant Matrix: (Units=GPa)
#
#
# Indices 1 2 3 4 5 6 
#
# 1 93.1540 77.4293 80.5868 0.0000 0.0000 0.0000
# 2 77.4293 199.5379 53.7908 0.0000 0.0000 0.0000
# 3 80.5868 53.7908 187.3109 0.0000 0.0000 0.0000
# 4 0.0000 0.0000 0.0000 36.6131 0.0000 0.0000
# 5 0.0000 0.0000 0.0000 0.0000 47.1550 0.0000
# 6 0.0000 0.0000 0.0000 0.0000 0.0000 50.8856
#
#
#
# Elastic Compliance Matrix: (Units=1/GPa)
#
#
# Indices 1 2 3 4 5 6 
#
# 1 0.023544 -0.006943 -0.008135 0.000000 0.000000 0.000000
# 2 -0.006943 0.007480 0.000839 0.000000 0.000000 0.000000
# 3 -0.008135 0.000839 0.008598 0.000000 0.000000 0.000000
# 4 0.000000 0.000000 0.000000 0.027313 0.000000 0.000000
# 5 0.000000 0.000000 0.000000 0.000000 0.021207 0.000000
# 6 0.000000 0.000000 0.000000 0.000000 0.000000 0.019652
#
#
# Mechanical properties :
#
#
# Convention : Reuss Voigt Hill
#
# Bulk Modulus (GPa) = 89.74456 100.40185 95.07321
# Shear Modulus (GPa) = 35.71820 44.81047 40.26434
#
# Velocity S-wave (km/s) = 3.80050 4.25682 4.03511
# Velocity P-wave (km/s) = 7.45314 8.04744 7.75599
#
# Compressibility (1/GPa) = 0.01114274
#
# Stress axis : x y z
#
# Youngs Moduli (GPa) = 42.47432 133.69874 116.30840
#
# Poissons Ratio (x) = 0.92825 0.94621
# Poissons Ratio (y) = 0.29489 -0.09759
# Poissons Ratio (z) = 0.34554 -0.11219
#
# Static dielectric constant tensor:
#      x y z
#    x 2.092350 0.000000 0.000000 
#    y 0.000000 1.950670 0.000000 
#    z 0.000000 0.000000 1.925920 
# 
# From -- ./inp_files/6996.got.cif
#   From: 2010.05.17/outbox.cif.g08.bks.cpg/sg34_4_cif.got.tgz:6996.got - 2010.06.03 17:23:11.
