data_PCOD9347498
_publ_section_title
;
Structure prediction by ZEFSAII (Michael W. Deem and Ramdas Pophale) SiO2 
 PCOD9347498
Probable space group: P N N 2
;
_chemical_formula_sum "Si O2"
_cell_formula_units_Z 32
_cell_length_a 26.220374
_cell_length_b 5.118262
_cell_length_c 12.428388
_cell_angle_alpha 90.000000
_cell_angle_beta 90.000000
_cell_angle_gamma 90.000000
_cell_volume 1667.923771
_symmetry_space_group_name_H-M "P N N 2"
_symmetry_group_IT_number 34
_symmetry_cell_setting 'orthorhombic'
loop_
_space_group_symop_operation_xyz
x,y,z
-x,-y,z
1/2-x,1/2+y,1/2+z
1/2+x,1/2-y,1/2+z
loop_
_atom_site_type_symbol
_atom_site_label
_atom_site_fract_x
_atom_site_fract_y
_atom_site_fract_z
Si Si1 0.702393 0.721733 0.217810
Si Si2 0.311871 0.569270 0.733944
Si Si3 0.620692 0.863204 0.382165
Si Si4 0.966225 0.250807 0.714342
Si Si5 0.253924 0.161233 0.882594
Si Si6 0.350218 0.895547 0.919620
Si Si7 0.618745 0.615556 0.040441
Si Si8 0.346068 0.656174 0.503722
O O1 0.755709 0.854086 0.193116
O O2 0.666551 0.899139 0.294694
O O3 0.721749 0.475504 0.287664
O O4 0.668454 0.650693 0.116206
O O5 0.294298 0.356564 0.824675
O O6 0.343383 0.790686 0.798524
O O7 0.342894 0.539557 0.623888
O O8 0.569510 0.842709 0.312789
O O9 0.633569 0.583595 0.433103
O O10 0.621113 0.089761 0.471347
O O11 0.929285 0.158181 0.617781
O O12 0.000000 0.500000 0.681874
O O13 0.000000 0.000000 0.744718
O O14 0.210783 0.248315 0.965665
O O15 0.290211 0.952230 0.943366
O O16 0.375723 0.667288 0.988449
O O17 0.379641 0.158846 0.950258
#
# Coordination Sequence:
#
# PCOD9347498 Si02
#       8
#     4   4   4   4   4   4   4   4
#     4   9  21  32  54  81 120 162 203 245 287 335
#     4  11  22  35  55  82 122 170 219 240 271 334
#     4  10  22  40  56  88 121 153 193 254 311 365
#     4  11  23  43  71  98 119 143 189 254 332 402
#     4  10  21  36  52  82 122 167 218 248 279 324
#     4  11  23  37  52  83 122 164 208 246 285 341
#     4  11  23  38  61  87 121 158 196 247 316 365
#     4  11  23  35  57  81 123 170 210 244 291 338
#
# _framework density 19.185528999999999
#
# number of rings (size 3 to 8) (size 9 to 14) (size 15 to 20)
#    0.000    1.500    2.500    2.250    7.000    2.000 
#    0.000    0.000    0.000    0.000    0.000   17.500 
#    0.000    0.000    0.000    0.000    0.000    0.000 
#
# Total GULP energy -178261.671434 kJ/mol
# GULP energy per Si atom -5570.677232 kJ/mol
# Density = 1.914186 g / cm^3
# Si number density = 19.185529 Si / 1000 Ang^3
#
#
#
# Elastic Constant Matrix: (Units=GPa)
#
#
# Indices 1 2 3 4 5 6 
#
# 1 72.9525 32.6653 35.9592 0.0000 0.0000 0.0000
# 2 32.6653 92.1847 10.9261 0.0000 0.0000 0.0000
# 3 35.9592 10.9261 52.7896 0.0000 0.0000 0.0000
# 4 0.0000 0.0000 0.0000 19.7871 0.0000 0.0000
# 5 0.0000 0.0000 0.0000 0.0000 9.6380 0.0000
# 6 0.0000 0.0000 0.0000 0.0000 0.0000 16.7693
#
#
#
# Elastic Compliance Matrix: (Units=1/GPa)
#
#
# Indices 1 2 3 4 5 6 
#
# 1 0.024164 -0.006778 -0.015057 0.000000 0.000000 0.000000
# 2 -0.006778 0.013022 0.001922 0.000000 0.000000 0.000000
# 3 -0.015057 0.001922 0.028802 0.000000 0.000000 0.000000
# 4 0.000000 0.000000 0.000000 0.050538 0.000000 0.000000
# 5 0.000000 0.000000 0.000000 0.000000 0.103756 0.000000
# 6 0.000000 0.000000 0.000000 0.000000 0.000000 0.059633
#
#
# Mechanical properties :
#
#
# Convention : Reuss Voigt Hill
#
# Bulk Modulus (GPa) = 38.22449 41.89201 40.05825
# Shear Modulus (GPa) = 15.22241 18.46395 16.84318
#
# Velocity S-wave (km/s) = 2.81985 3.10561 2.96617
# Velocity P-wave (km/s) = 5.52892 5.89426 5.71451
#
# Compressibility (1/GPa) = 0.02616124
#
# Stress axis : x y z
#
# Youngs Moduli (GPa) = 41.38310 76.79468 34.71953
#
# Poissons Ratio (x) = 0.52051 0.52279
# Poissons Ratio (y) = 0.28049 -0.06672
# Poissons Ratio (z) = 0.62313 -0.14758
#
# Static dielectric constant tensor:
#      x y z
#    x 1.658320 0.000000 0.000000 
#    y 0.000000 1.745220 0.000000 
#    z 0.000000 0.000000 1.703930 
# 
# From -- ./inp_files/5890.got.cif
#   From: 2010.05.17/outbox.cif.g08.bks.cpg/sg34_3_cif.got.tgz:5890.got - 2010.06.03 17:23:11.
