data_PCOD9347490
_publ_section_title
;
Structure prediction by ZEFSAII (Michael W. Deem and Ramdas Pophale) SiO2 
 PCOD9347490
Probable space group: P N N 2
;
_chemical_formula_sum "Si O2"
_cell_formula_units_Z 30
_cell_length_a 12.403486
_cell_length_b 18.959011
_cell_length_c 5.127316
_cell_angle_alpha 90.000000
_cell_angle_beta 90.000000
_cell_angle_gamma 90.000000
_cell_volume 1205.728492
_symmetry_space_group_name_H-M "P N N 2"
_symmetry_group_IT_number 34
_symmetry_cell_setting 'orthorhombic'
loop_
_space_group_symop_operation_xyz
x,y,z
-x,-y,z
1/2-x,1/2+y,1/2+z
1/2+x,1/2-y,1/2+z
loop_
_atom_site_type_symbol
_atom_site_label
_atom_site_fract_x
_atom_site_fract_y
_atom_site_fract_z
Si Si1 0.895712 0.124885 0.136220
Si Si2 0.343854 0.613637 0.112385
Si Si3 0.432513 0.726972 0.732313
Si Si4 0.000000 0.000000 0.481836
Si Si5 0.516079 0.151089 0.052589
Si Si6 0.213217 0.592132 0.587948
Si Si7 0.797936 0.558995 0.322271
Si Si8 0.201412 0.326990 0.940132
O O1 0.996369 0.173952 0.054572
O O2 0.817096 0.174811 0.308569
O O3 0.939482 0.057433 0.299030
O O4 0.812065 0.096411 0.922302
O O5 0.406420 0.677557 0.978606
O O6 0.422393 0.547323 0.160201
O O7 0.272129 0.586839 0.864957
O O8 0.281199 0.635842 0.372371
O O9 0.504300 0.792604 0.825714
O O10 0.321811 0.768558 0.659151
O O11 0.403618 0.122412 0.147610
O O12 0.592387 0.089811 0.942906
O O13 0.596256 0.184990 0.263092
O O14 0.205453 0.520001 0.422241
O O15 0.805684 0.590534 0.031752
#
# Coordination Sequence:
#
# PCOD9347490 Si02
#       8
#     4   4   4   2   4   4   4   4
#     4  10  21  42  68  98 141 178 238 299 362 433
#     4  11  27  44  73 105 147 182 246 300 360 438
#     4  10  25  44  65 103 140 194 240 293 364 433
#     4  10  20  48  68 108 138 186 236 302 372 432
#     4  10  25  43  66  98 143 188 242 289 362 435
#     4  12  26  46  73 109 140 189 239 307 363 433
#     4  10  22  44  68 101 136 184 234 301 362 431
#     4  10  23  44  69  99 138 193 237 295 362 434
#
# _framework density 24.881222999999999
#
# number of rings (size 3 to 8) (size 9 to 14) (size 15 to 20)
#    0.000    1.600    1.333    1.200    9.333    3.733 
#    7.200    0.000    0.000    0.000    0.000    0.000 
#    0.000    0.000    0.000    0.000    0.000    0.000 
#
# Total GULP energy -167607.673109 kJ/mol
# GULP energy per Si atom -5586.922437 kJ/mol
# Density = 2.482459 g / cm^3
# Si number density = 24.881223 Si / 1000 Ang^3
#
#
#
# Elastic Constant Matrix: (Units=GPa)
#
#
# Indices 1 2 3 4 5 6 
#
# 1 131.3538 39.3054 21.3661 0.0000 0.0000 0.0000
# 2 39.3054 102.9416 -0.5854 0.0000 0.0000 0.0000
# 3 21.3661 -0.5854 52.1695 0.0000 0.0000 0.0000
# 4 0.0000 0.0000 0.0000 30.3804 0.0000 0.0000
# 5 0.0000 0.0000 0.0000 0.0000 21.8035 0.0000
# 6 0.0000 0.0000 0.0000 0.0000 0.0000 29.9292
#
#
#
# Elastic Compliance Matrix: (Units=1/GPa)
#
#
# Indices 1 2 3 4 5 6 
#
# 1 0.009310 -0.003577 -0.003853 0.000000 0.000000 0.000000
# 2 -0.003577 0.011089 0.001589 0.000000 0.000000 0.000000
# 3 -0.003853 0.001589 0.020764 0.000000 0.000000 0.000000
# 4 0.000000 0.000000 0.000000 0.032916 0.000000 0.000000
# 5 0.000000 0.000000 0.000000 0.000000 0.045864 0.000000
# 6 0.000000 0.000000 0.000000 0.000000 0.000000 0.033412
#
#
# Mechanical properties :
#
#
# Convention : Reuss Voigt Hill
#
# Bulk Modulus (GPa) = 33.91884 45.18191 39.55038
# Shear Modulus (GPa) = 28.59368 31.51454 30.05411
#
# Velocity S-wave (km/s) = 3.39367 3.56279 3.47926
# Velocity P-wave (km/s) = 5.38683 5.92648 5.66308
#
# Compressibility (1/GPa) = 0.02948214
#
# Stress axis : x y z
#
# Youngs Moduli (GPa) = 107.41092 90.17992 48.15990
#
# Poissons Ratio (x) = 0.32255 0.18556
# Poissons Ratio (y) = 0.38418 -0.07654
# Poissons Ratio (z) = 0.41386 -0.14332
#
# Static dielectric constant tensor:
#      x y z
#    x 1.947130 0.000000 0.000000 
#    y 0.000000 2.010220 0.000000 
#    z 0.000000 0.000000 2.131020 
# 
# From -- ./inp_files/1020.got.cif
#   From: 2010.05.17/outbox.cif.g08.bks.cpg/sg34_1_cif.got.tgz:1020.got - 2010.06.03 17:23:11.
