data_PCOD9347211
_publ_section_title
;
Structure prediction by ZEFSAII (Michael W. Deem and Ramdas Pophale) SiO2 
 PCOD9347211
Probable space group: P N N 2
;
_chemical_formula_sum "Si O2"
_cell_formula_units_Z 24
_cell_length_a 16.828073
_cell_length_b 11.791995
_cell_length_c 5.542250
_cell_angle_alpha 90.000000
_cell_angle_beta 90.000000
_cell_angle_gamma 90.000000
_cell_volume 1099.784984
_symmetry_space_group_name_H-M "P N N 2"
_symmetry_group_IT_number 34
_symmetry_cell_setting 'orthorhombic'
loop_
_space_group_symop_operation_xyz
x,y,z
-x,-y,z
1/2-x,1/2+y,1/2+z
1/2+x,1/2-y,1/2+z
loop_
_atom_site_type_symbol
_atom_site_label
_atom_site_fract_x
_atom_site_fract_y
_atom_site_fract_z
Si Si1 0.501897 0.289103 0.897960
Si Si2 0.212808 0.434472 0.038726
Si Si3 0.875500 0.116410 0.760761
Si Si4 0.500000 0.000000 0.192461
Si Si5 0.397771 0.155813 0.531350
Si Si6 0.859747 0.642136 0.533996
Si Si7 0.500000 0.500000 0.554925
O O1 0.448142 0.192301 0.767113
O O2 0.514057 0.386408 0.703995
O O3 0.447050 0.340892 0.099078
O O4 0.584342 0.251034 0.015178
O O5 0.306439 0.430900 0.089836
O O6 0.168977 0.557261 0.050385
O O7 0.182944 0.368768 0.277962
O O8 0.189603 0.376643 0.781644
O O9 0.858168 0.229062 0.923363
O O10 0.917094 0.020294 0.917752
O O11 0.465534 0.101093 0.358240
O O12 0.574481 0.042549 0.043310
#
# Coordination Sequence:
#
# PCOD9347211 Si02
#       7
#     4   4   4   2   4   4   2
#     4  11  22  46  72 104 136 196 251 298 361 442
#     4  11  27  45  70 111 150 180 237 306 379 431
#     4  11  25  49  67 107 144 195 246 295 373 437
#     4  10  18  42  72 102 132 174 244 294 366 424
#     4  10  22  42  73 102 141 187 234 313 358 441
#     4  11  23  43  72 107 139 184 239 304 364 435
#     4  10  26  46  76  96 146 202 250 310 348 456
#
# _framework density 21.822448999999999
#
# number of rings (size 3 to 8) (size 9 to 14) (size 15 to 20)
#    0.000    1.333    1.667    3.500    9.333    0.667 
#    9.000    0.000    0.000    0.000    0.000    0.000 
#    0.000    0.000    0.000    0.000    0.000    0.000 
#
# Total GULP energy -133958.285164 kJ/mol
# GULP energy per Si atom -5581.595215 kJ/mol
# Density = 2.177278 g / cm^3
# Si number density = 21.822449 Si / 1000 Ang^3
#
#
#
# Elastic Constant Matrix: (Units=GPa)
#
#
# Indices 1 2 3 4 5 6 
#
# 1 45.3688 51.7567 20.9159 0.0000 0.0000 0.0000
# 2 51.7567 82.9529 34.3135 0.0000 0.0000 0.0000
# 3 20.9159 34.3135 94.1383 0.0000 0.0000 0.0000
# 4 0.0000 0.0000 0.0000 25.7515 0.0000 0.0000
# 5 0.0000 0.0000 0.0000 0.0000 41.2018 0.0000
# 6 0.0000 0.0000 0.0000 0.0000 0.0000 22.8326
#
#
#
# Elastic Compliance Matrix: (Units=1/GPa)
#
#
# Indices 1 2 3 4 5 6 
#
# 1 0.076492 -0.047921 0.000472 0.000000 0.000000 0.000000
# 2 -0.047921 0.044217 -0.005470 0.000000 0.000000 0.000000
# 3 0.000472 -0.005470 0.012512 0.000000 0.000000 0.000000
# 4 0.000000 0.000000 0.000000 0.038833 0.000000 0.000000
# 5 0.000000 0.000000 0.000000 0.000000 0.024271 0.000000
# 6 0.000000 0.000000 0.000000 0.000000 0.000000 0.043797
#
#
# Mechanical properties :
#
#
# Convention : Reuss Voigt Hill
#
# Bulk Modulus (GPa) = 36.51906 48.49246 42.50576
# Shear Modulus (GPa) = 14.08112 25.65543 19.86827
#
# Velocity S-wave (km/s) = 2.54295 3.43249 3.02064
# Velocity P-wave (km/s) = 5.03915 6.16270 5.62903
#
# Compressibility (1/GPa) = 0.02738296
#
# Stress axis : x y z
#
# Youngs Moduli (GPa) = 13.07329 22.61591 79.92590
#
# Poissons Ratio (x) = 1.08377 -0.03772
# Poissons Ratio (y) = 0.62648 0.43718
# Poissons Ratio (z) = -0.00617 0.12371
#
# Static dielectric constant tensor:
#      x y z
#    x 1.825950 0.000000 0.000000 
#    y 0.000000 1.862910 0.000000 
#    z 0.000000 0.000000 1.855260 
# 
# From -- ./inp_files/939.got.cif
#   From: 2010.05.17/outbox.cif.g08.bks.cpg/sg34_1_cif.got.tgz:939.got - 2010.06.03 17:23:11.
