data_PCOD9347397
_publ_section_title
;
Structure prediction by ZEFSAII (Michael W. Deem and Ramdas Pophale) SiO2 
 PCOD9347397
Probable space group: P N N 2
;
_chemical_formula_sum "Si O2"
_cell_formula_units_Z 32
_cell_length_a 13.678638
_cell_length_b 10.142241
_cell_length_c 11.365311
_cell_angle_alpha 90.000000
_cell_angle_beta 90.000000
_cell_angle_gamma 90.000000
_cell_volume 1576.732816
_symmetry_space_group_name_H-M "P N N 2"
_symmetry_group_IT_number 34
_symmetry_cell_setting 'orthorhombic'
loop_
_space_group_symop_operation_xyz
x,y,z
-x,-y,z
1/2-x,1/2+y,1/2+z
1/2+x,1/2-y,1/2+z
loop_
_atom_site_type_symbol
_atom_site_label
_atom_site_fract_x
_atom_site_fract_y
_atom_site_fract_z
Si Si1 0.674776 0.787936 0.720420
Si Si2 0.037355 0.800126 0.811661
Si Si3 0.977874 0.346358 0.393607
Si Si4 0.592153 0.921311 0.496157
Si Si5 0.088421 0.605762 0.626992
Si Si6 0.148869 0.047456 0.751039
Si Si7 0.764154 0.516178 0.809811
Si Si8 0.593163 0.403484 0.973968
O O1 0.569246 0.781032 0.780209
O O2 0.656050 0.839450 0.588833
O O3 0.743462 0.901553 0.774077
O O4 0.729897 0.652133 0.749891
O O5 0.039733 0.730652 0.686526
O O6 0.933423 0.869334 0.819413
O O7 0.126107 0.902606 0.799106
O O8 0.052338 0.689073 0.907383
O O9 0.893495 0.355503 0.493421
O O10 0.000000 0.500000 0.368545
O O11 0.060602 0.248251 0.446063
O O12 0.500000 0.000000 0.548954
O O13 0.655543 0.021143 0.415161
O O14 0.179849 0.562226 0.705473
O O15 0.000000 0.500000 0.627472
O O16 0.128000 0.068611 0.609821
O O17 0.674247 0.445640 0.877107
O O18 0.500000 0.500000 0.958250
#
# Coordination Sequence:
#
# PCOD9347397 Si02
#       8
#     4   4   4   4   4   4   4   4
#     4  12  25  41  64  99 133 179 224 278 348 413
#     4  10  20  38  64  94 124 170 224 281 331 394
#     4  11  25  41  65  96 136 177 226 283 337 409
#     4  11  24  44  66  97 141 175 218 286 353 404
#     4  10  20  38  65  96 126 167 229 280 322 401
#     4  11  21  38  67  93 126 174 232 275 329 397
#     4  11  24  40  71  96 128 185 227 276 338 415
#     4  12  21  44  67  95 138 180 224 280 342 402
#
# _framework density 20.295131999999999
#
# number of rings (size 3 to 8) (size 9 to 14) (size 15 to 20)
#    0.000    1.000    5.000    3.375    1.750    3.000 
#    0.000    5.000    0.000    0.000    0.000    0.000 
#    0.000    0.000    0.000    0.000    0.000    0.000 
#
# Total GULP energy -178305.565735 kJ/mol
# GULP energy per Si atom -5572.048929 kJ/mol
# Density = 2.024894 g / cm^3
# Si number density = 20.295132 Si / 1000 Ang^3
#
#
#
# Elastic Constant Matrix: (Units=GPa)
#
#
# Indices 1 2 3 4 5 6 
#
# 1 61.6173 12.9649 21.5834 0.0000 0.0000 0.0000
# 2 12.9649 86.1732 8.2371 0.0000 0.0000 0.0000
# 3 21.5834 8.2371 67.7491 0.0000 0.0000 0.0000
# 4 0.0000 0.0000 0.0000 29.1660 0.0000 0.0000
# 5 0.0000 0.0000 0.0000 0.0000 55.6058 0.0000
# 6 0.0000 0.0000 0.0000 0.0000 0.0000 21.7839
#
#
#
# Elastic Compliance Matrix: (Units=1/GPa)
#
#
# Indices 1 2 3 4 5 6 
#
# 1 0.018697 -0.002270 -0.005680 0.000000 0.000000 0.000000
# 2 -0.002270 0.012017 -0.000738 0.000000 0.000000 0.000000
# 3 -0.005680 -0.000738 0.016660 0.000000 0.000000 0.000000
# 4 0.000000 0.000000 0.000000 0.034286 0.000000 0.000000
# 5 0.000000 0.000000 0.000000 0.000000 0.017984 0.000000
# 6 0.000000 0.000000 0.000000 0.000000 0.000000 0.045906
#
#
# Mechanical properties :
#
#
# Convention : Reuss Voigt Hill
#
# Bulk Modulus (GPa) = 33.33717 33.45671 33.39694
# Shear Modulus (GPa) = 28.91451 32.82809 30.87130
#
# Velocity S-wave (km/s) = 3.77862 4.02622 3.90438
# Velocity P-wave (km/s) = 5.95811 6.17534 6.06770
#
# Compressibility (1/GPa) = 0.02999655
#
# Stress axis : x y z
#
# Youngs Moduli (GPa) = 53.48585 83.21835 60.02516
#
# Poissons Ratio (x) = 0.18890 0.34096
# Poissons Ratio (y) = 0.12141 0.04429
# Poissons Ratio (z) = 0.30382 0.06140
#
# Static dielectric constant tensor:
#      x y z
#    x 1.731790 0.000000 0.000000 
#    y 0.000000 1.693660 0.000000 
#    z 0.000000 0.000000 1.735890 
# 
# From -- ./inp_files/5694.got.cif
#   From: 2010.05.17/outbox.cif.g08.bks.cpg/sg34_3_cif.got.tgz:5694.got - 2010.06.03 17:23:11.
