data_PCOD9347212
_publ_section_title
;
Structure prediction by ZEFSAII (Michael W. Deem and Ramdas Pophale) SiO2 
 PCOD9347212
Probable space group: P N N 2
;
_chemical_formula_sum "Si O2"
_cell_formula_units_Z 24
_cell_length_a 15.192594
_cell_length_b 5.196203
_cell_length_c 12.725982
_cell_angle_alpha 90.000000
_cell_angle_beta 90.000000
_cell_angle_gamma 90.000000
_cell_volume 1004.637410
_symmetry_space_group_name_H-M "P N N 2"
_symmetry_group_IT_number 34
_symmetry_cell_setting 'orthorhombic'
loop_
_space_group_symop_operation_xyz
x,y,z
-x,-y,z
1/2-x,1/2+y,1/2+z
1/2+x,1/2-y,1/2+z
loop_
_atom_site_type_symbol
_atom_site_label
_atom_site_fract_x
_atom_site_fract_y
_atom_site_fract_z
Si Si1 0.886975 0.127467 0.777060
Si Si2 0.000000 0.500000 0.900472
Si Si3 0.776714 0.625656 0.845129
Si Si4 0.350409 0.824964 0.550301
Si Si5 0.000000 0.500000 0.440112
Si Si6 0.000000 0.000000 0.583270
Si Si7 0.614521 0.873480 0.752968
Si Si8 0.000000 0.000000 0.127939
O O1 0.975153 0.256228 0.829309
O O2 0.820539 0.366833 0.798851
O O3 0.839397 0.873013 0.821247
O O4 0.917224 0.058653 0.659723
O O5 0.918734 0.513981 0.979407
O O6 0.685708 0.662806 0.785914
O O7 0.767699 0.654302 0.972501
O O8 0.411047 0.570082 0.564624
O O9 0.341770 0.946002 0.664790
O O10 0.083245 0.503824 0.361400
O O11 0.991111 0.750457 0.511278
O O12 0.530228 0.734995 0.700350
#
# Coordination Sequence:
#
# PCOD9347212 Si02
#       8
#     4   2   4   4   2   2   4   2
#     4  11  24  47  72 111 149 191 245 311 373 452
#     4  10  18  42  74 106 138 188 258 296 360 446
#     4  11  28  45  74 113 153 190 241 320 390 430
#     4  11  22  43  74 107 141 193 246 312 370 442
#     4  12  26  46  74 102 138 208 260 300 366 460
#     4  12  25  47  74 104 146 200 249 301 374 466
#     4  12  27  47  71 108 150 196 257 315 367 455
#     4  12  21  45  80 106 144 204 255 305 360 460
#
# _framework density 23.889216000000001
#
# number of rings (size 3 to 8) (size 9 to 14) (size 15 to 20)
#    0.000    0.667    3.333    5.000    4.667    1.333 
#    3.000    1.667    0.000    0.000    0.000    0.000 
#    0.000    0.000    0.000    0.000    0.000    0.000 
#
# Total GULP energy -134042.623466 kJ/mol
# GULP energy per Si atom -5585.109311 kJ/mol
# Density = 2.383484 g / cm^3
# Si number density = 23.889216 Si / 1000 Ang^3
#
#
#
# Elastic Constant Matrix: (Units=GPa)
#
#
# Indices 1 2 3 4 5 6 
#
# 1 46.3111 9.4574 23.1611 0.0000 0.0000 0.0000
# 2 9.4574 163.1854 76.2117 0.0000 0.0000 0.0000
# 3 23.1611 76.2117 173.4298 0.0000 0.0000 0.0000
# 4 0.0000 0.0000 0.0000 50.5932 0.0000 0.0000
# 5 0.0000 0.0000 0.0000 0.0000 27.0815 0.0000
# 6 0.0000 0.0000 0.0000 0.0000 0.0000 38.1902
#
#
#
# Elastic Compliance Matrix: (Units=1/GPa)
#
#
# Indices 1 2 3 4 5 6 
#
# 1 0.023141 0.000129 -0.003147 0.000000 0.000000 0.000000
# 2 0.000129 0.007711 -0.003406 0.000000 0.000000 0.000000
# 3 -0.003147 -0.003406 0.007683 0.000000 0.000000 0.000000
# 4 0.000000 0.000000 0.000000 0.019766 0.000000 0.000000
# 5 0.000000 0.000000 0.000000 0.000000 0.036926 0.000000
# 6 0.000000 0.000000 0.000000 0.000000 0.000000 0.026185
#
#
# Mechanical properties :
#
#
# Convention : Reuss Voigt Hill
#
# Bulk Modulus (GPa) = 38.93082 66.73183 52.83132
# Shear Modulus (GPa) = 35.00893 41.44605 38.22749
#
# Velocity S-wave (km/s) = 3.83230 4.16976 4.00459
# Velocity P-wave (km/s) = 5.99281 7.15382 6.59890
#
# Compressibility (1/GPa) = 0.02568659
#
# Stress axis : x y z
#
# Youngs Moduli (GPa) = 43.21395 129.68311 130.15949
#
# Poissons Ratio (x) = -0.01667 0.40959
# Poissons Ratio (y) = -0.00556 0.44329
# Poissons Ratio (z) = 0.13599 0.44166
#
# Static dielectric constant tensor:
#      x y z
#    x 2.080750 0.000000 0.000000 
#    y 0.000000 1.987670 0.000000 
#    z 0.000000 0.000000 1.937210 
# 
# From -- ./inp_files/4471.got.cif
#   From: 2010.05.17/outbox.cif.g08.bks.cpg/sg34_3_cif.got.tgz:4471.got - 2010.06.03 17:23:11.
