data_PCOD9347086
_publ_section_title
;
Structure prediction by ZEFSAII (Michael W. Deem and Ramdas Pophale) SiO2 
 PCOD9347086
Probable space group: P N A 21
;
_chemical_formula_sum "Si O2"
_cell_formula_units_Z 28
_cell_length_a 12.000000
_cell_length_b 12.000000
_cell_length_c 9.000000
_cell_angle_alpha 90.000000
_cell_angle_beta 90.000000
_cell_angle_gamma 90.000000
_cell_volume 1296.000000
_symmetry_space_group_name_H-M "P N A 21"
_symmetry_group_IT_number 33
_symmetry_cell_setting 'orthorhombic'
loop_
_space_group_symop_operation_xyz
x,y,z
-x,-y,1/2+z
1/2-x,1/2+y,1/2+z
1/2+x,1/2-y,z
loop_
_atom_site_type_symbol
_atom_site_label
_atom_site_fract_x
_atom_site_fract_y
_atom_site_fract_z
Si Si1 0.521938 0.685661 0.793350
Si Si2 0.931302 0.285747 0.757130
Si Si3 0.303929 0.387833 0.536126
Si Si4 0.684826 0.736289 0.557242
Si Si5 0.375021 0.897314 0.402597
Si Si6 0.706384 0.426885 0.238107
Si Si7 0.533181 0.098138 0.479831
O O1 0.571883 0.683255 0.626658
O O2 0.407817 0.614453 0.815122
O O3 0.492857 0.810171 0.852655
O O4 0.625220 0.641735 0.891551
O O5 0.864056 0.188604 0.664813
O O6 0.059890 0.292603 0.823113
O O7 0.956076 0.372038 0.623121
O O8 0.852409 0.293936 0.902272
O O9 0.330006 0.511987 0.587817
O O10 0.167331 0.387017 0.514079
O O11 0.790593 0.655978 0.523492
O O12 0.723227 0.821752 0.684269
O O13 0.289141 0.983356 0.317769
O O14 0.481924 0.977146 0.439301
#
# Coordination Sequence:
#
# PCOD9347086 Si02
#       7
#     4   4   4   4   4   4   4
#     4  11  27  43  74 104 148 193 246 311 378 450
#     4  11  24  43  72 105 146 192 246 304 365 454
#     4  11  25  48  71 107 147 196 245 309 382 445
#     4  12  25  47  73 111 147 195 250 311 379 465
#     4  12  26  46  75 110 149 196 253 313 383 453
#     4  12  25  46  70 110 151 188 255 313 376 458
#     4  11  24  49  75 107 148 194 251 309 381 453
#
# _framework density 21.604938000000001
#
# number of rings (size 3 to 8) (size 9 to 14) (size 15 to 20)
#    0.000    0.571    4.286    2.571    4.000    4.571 
#    0.000    2.857    0.000    0.000    0.000    0.000 
#    0.000    0.000    0.000    0.000    0.000    0.000 
#
# Total GULP energy -155869.661904 kJ/mol
# GULP energy per Si atom -5566.773639 kJ/mol
# Density = 2.155576 g / cm^3
# Si number density = 21.604938 Si / 1000 Ang^3
#
#
#
# Elastic Constant Matrix: (Units=GPa)
#
#
# Indices 1 2 3 4 5 6 
#
# 1 168.0779 56.1710 43.2623 0.0000 0.0000 0.0000
# 2 56.1710 73.2535 19.9934 0.0000 0.0000 0.0000
# 3 43.2623 19.9934 70.6111 0.0000 0.0000 0.0000
# 4 0.0000 0.0000 0.0000 31.8684 0.0000 0.0000
# 5 0.0000 0.0000 0.0000 0.0000 54.7069 0.0000
# 6 0.0000 0.0000 0.0000 0.0000 0.0000 55.8019
#
#
#
# Elastic Compliance Matrix: (Units=1/GPa)
#
#
# Indices 1 2 3 4 5 6 
#
# 1 0.008847 -0.005749 -0.003793 0.000000 0.000000 0.000000
# 2 -0.005749 0.018530 -0.001725 0.000000 0.000000 0.000000
# 3 -0.003793 -0.001725 0.016974 0.000000 0.000000 0.000000
# 4 0.000000 0.000000 0.000000 0.031379 0.000000 0.000000
# 5 0.000000 0.000000 0.000000 0.000000 0.018279 0.000000
# 6 0.000000 0.000000 0.000000 0.000000 0.000000 0.017921
#
#
# Mechanical properties :
#
#
# Convention : Reuss Voigt Hill
#
# Bulk Modulus (GPa) = 45.83125 61.19954 53.51539
# Shear Modulus (GPa) = 35.27702 41.30982 38.29342
#
# Velocity S-wave (km/s) = 4.04520 4.37745 4.21460
# Velocity P-wave (km/s) = 6.56335 7.34422 6.96474
#
# Compressibility (1/GPa) = 0.02181917
#
# Stress axis : x y z
#
# Youngs Moduli (GPa) = 113.03178 53.96621 58.91327
#
# Poissons Ratio (x) = 0.31024 0.22344
# Poissons Ratio (y) = 0.64980 0.10160
# Poissons Ratio (z) = 0.42870 0.09307
#
# Static dielectric constant tensor:
#      x y z
#    x 1.800890 0.000000 0.000000 
#    y 0.000000 1.828670 0.000000 
#    z 0.000000 0.000000 1.873310 
# 
# From -- ./inp_files/3829.got.cif
#   From: 2010.05.17/outbox.ucp.g08.bks.cvg/sg33_2_cif.got.tgz:3829.got - 2010.06.11 10:35:07.
