data_PCOD9347476
_publ_section_title
;
Structure prediction by ZEFSAII (Michael W. Deem and Ramdas Pophale) SiO2 
 PCOD9347476
Probable space group: P N N 2
;
_chemical_formula_sum "Si O2"
_cell_formula_units_Z 18
_cell_length_a 6.926906
_cell_length_b 9.121185
_cell_length_c 12.019215
_cell_angle_alpha 90.000000
_cell_angle_beta 90.000000
_cell_angle_gamma 90.000000
_cell_volume 759.393128
_symmetry_space_group_name_H-M "P N N 2"
_symmetry_group_IT_number 34
_symmetry_cell_setting 'orthorhombic'
loop_
_space_group_symop_operation_xyz
x,y,z
-x,-y,z
1/2-x,1/2+y,1/2+z
1/2+x,1/2-y,1/2+z
loop_
_atom_site_type_symbol
_atom_site_label
_atom_site_fract_x
_atom_site_fract_y
_atom_site_fract_z
Si Si1 0.767573 0.178495 0.704950
Si Si2 0.967521 0.261778 0.388140
Si Si3 0.794294 0.946588 0.045215
Si Si4 0.500000 0.500000 0.053558
Si Si5 0.130387 0.368160 0.742162
O O1 0.634732 0.170731 0.812329
O O2 0.679197 0.308689 0.629144
O O3 0.982228 0.234772 0.734887
O O4 0.812863 0.038789 0.628792
O O5 0.843676 0.383215 0.451672
O O6 0.816893 0.172394 0.311515
O O7 0.040160 0.141479 0.476978
O O8 0.302469 0.928013 0.121643
O O9 0.000000 0.000000 0.002616
O O10 0.000000 0.500000 0.792063
#
# Coordination Sequence:
#
# PCOD9347476 Si02
#       5
#     4   4   4   2   4
#     4  10  22  44  68 102 153 185 241 308 358 431
#     4  11  22  44  75 106 147 199 237 297 377 434
#     4  10  20  42  73 101 143 197 244 295 368 441
#     4  10  22  44  70 108 144 184 248 296 360 442
#     4  10  21  42  68 100 148 194 237 304 355 437
#
# _framework density 23.703139
#
# number of rings (size 3 to 8) (size 9 to 14) (size 15 to 20)
#    0.000    1.778    2.222    2.667    0.000    0.000 
#   22.000    5.556    0.000    0.000    0.000    0.000 
#    0.000    0.000    0.000    0.000    0.000    0.000 
#
# Total GULP energy -100805.710178 kJ/mol
# GULP energy per Si atom -5600.317232 kJ/mol
# Density = 2.364919 g / cm^3
# Si number density = 23.703139 Si / 1000 Ang^3
#
#
#
# Elastic Constant Matrix: (Units=GPa)
#
#
# Indices 1 2 3 4 5 6 
#
# 1 150.2436 80.1876 97.7410 0.0000 0.0000 0.0000
# 2 80.1876 95.9957 80.1399 0.0000 0.0000 0.0000
# 3 97.7410 80.1399 155.1019 0.0000 0.0000 0.0000
# 4 0.0000 0.0000 0.0000 28.1110 0.0000 0.0000
# 5 0.0000 0.0000 0.0000 0.0000 53.3835 0.0000
# 6 0.0000 0.0000 0.0000 0.0000 0.0000 12.8115
#
#
#
# Elastic Compliance Matrix: (Units=1/GPa)
#
#
# Indices 1 2 3 4 5 6 
#
# 1 0.013792 -0.007500 -0.004816 0.000000 0.000000 0.000000
# 2 -0.007500 0.022398 -0.006846 0.000000 0.000000 0.000000
# 3 -0.004816 -0.006846 0.013020 0.000000 0.000000 0.000000
# 4 0.000000 0.000000 0.000000 0.035573 0.000000 0.000000
# 5 0.000000 0.000000 0.000000 0.000000 0.018732 0.000000
# 6 0.000000 0.000000 0.000000 0.000000 0.000000 0.078055
#
#
# Mechanical properties :
#
#
# Convention : Reuss Voigt Hill
#
# Bulk Modulus (GPa) = 91.87502 101.94204 96.90853
# Shear Modulus (GPa) = 22.36907 28.41270 25.39089
#
# Velocity S-wave (km/s) = 3.07533 3.46597 3.27648
# Velocity P-wave (km/s) = 7.17322 7.68885 7.43551
#
# Compressibility (1/GPa) = 0.01088435
#
# Stress axis : x y z
#
# Youngs Moduli (GPa) = 72.50650 44.64740 76.80666
#
# Poissons Ratio (x) = 0.33486 0.36990
# Poissons Ratio (y) = 0.54381 0.52584
# Poissons Ratio (z) = 0.34919 0.30567
#
# Static dielectric constant tensor:
#      x y z
#    x 1.856260 0.000000 0.000000 
#    y 0.000000 1.934170 0.000000 
#    z 0.000000 0.000000 1.936170 
# 
# From -- ./inp_files/4304.got.cif
#   From: 2010.05.17/outbox.cif.g08.bks.cpg/sg34_3_cif.got.tgz:4304.got - 2010.06.03 17:23:11.
