data_PCOD9347883
_publ_section_title
;
Structure prediction by ZEFSAII (Michael W. Deem and Ramdas Pophale) SiO2 
 PCOD9347883
Probable space group: P N N 2
;
_chemical_formula_sum "Si O2"
_cell_formula_units_Z 20
_cell_length_a 5.263573
_cell_length_b 28.274648
_cell_length_c 5.153840
_cell_angle_alpha 90.000000
_cell_angle_beta 90.000000
_cell_angle_gamma 90.000000
_cell_volume 767.023711
_symmetry_space_group_name_H-M "P N N 2"
_symmetry_group_IT_number 34
_symmetry_cell_setting 'orthorhombic'
loop_
_space_group_symop_operation_xyz
x,y,z
-x,-y,z
1/2-x,1/2+y,1/2+z
1/2+x,1/2-y,1/2+z
loop_
_atom_site_type_symbol
_atom_site_label
_atom_site_fract_x
_atom_site_fract_y
_atom_site_fract_z
Si Si1 0.409924 0.808828 0.517630
Si Si2 0.518945 0.552771 0.960066
Si Si3 0.015601 0.553091 0.312620
Si Si4 0.418165 0.298777 0.515011
Si Si5 0.774659 0.372962 0.674870
O O1 0.535903 0.757080 0.495083
O O2 0.193426 0.808460 0.297864
O O3 0.603319 0.848908 0.427217
O O4 0.276305 0.813671 0.792776
O O5 0.500000 0.500000 0.843058
O O6 0.780167 0.558700 0.115931
O O7 0.458015 0.593065 0.753350
O O8 0.281878 0.555262 0.158960
O O9 0.000000 0.500000 0.426795
O O10 0.029513 0.593037 0.529490
O O11 0.172201 0.170109 0.999605
#
# Coordination Sequence:
#
# PCOD9347883 Si02
#       5
#     4   4   4   4   4
#     4  12  29  52  81 119 168 220 283 350 427 506
#     4  10  26  51  79 117 168 222 283 353 429 512
#     4  10  26  51  79 117 168 222 283 353 429 512
#     4  12  29  52  81 119 168 220 283 350 427 506
#     4  12  30  46  84 116 170 218 292 344 436 502
#
# _framework density 26.074815000000001
#
# number of rings (size 3 to 8) (size 9 to 14) (size 15 to 20)
#    0.000    0.800    2.000    1.200   11.200    4.800 
#    0.000    0.000    0.000    0.000    0.000    0.000 
#    0.000    0.000    0.000    0.000    0.000    0.000 
#
# Total GULP energy -112389.739097 kJ/mol
# GULP energy per Si atom -5619.486955 kJ/mol
# Density = 2.601547 g / cm^3
# Si number density = 26.074815 Si / 1000 Ang^3
#
#
#
# Elastic Constant Matrix: (Units=GPa)
#
#
# Indices 1 2 3 4 5 6 
#
# 1 117.7024 24.1418 25.7555 0.0000 0.0000 0.0000
# 2 24.1418 184.4710 31.3322 0.0000 0.0000 0.0000
# 3 25.7555 31.3322 33.5741 0.0000 0.0000 0.0000
# 4 0.0000 0.0000 0.0000 19.3174 0.0000 0.0000
# 5 0.0000 0.0000 0.0000 0.0000 55.3900 0.0000
# 6 0.0000 0.0000 0.0000 0.0000 0.0000 51.3129
#
#
#
# Elastic Compliance Matrix: (Units=1/GPa)
#
#
# Indices 1 2 3 4 5 6 
#
# 1 0.010210 -0.000007 -0.007826 0.000000 0.000000 0.000000
# 2 -0.000007 0.006442 -0.006006 0.000000 0.000000 0.000000
# 3 -0.007826 -0.006006 0.041394 0.000000 0.000000 0.000000
# 4 0.000000 0.000000 0.000000 0.051767 0.000000 0.000000
# 5 0.000000 0.000000 0.000000 0.000000 0.018054 0.000000
# 6 0.000000 0.000000 0.000000 0.000000 0.000000 0.019488
#
#
# Mechanical properties :
#
#
# Convention : Reuss Voigt Hill
#
# Bulk Modulus (GPa) = 32.93045 55.35628 44.14337
# Shear Modulus (GPa) = 27.00441 42.17195 34.58818
#
# Velocity S-wave (km/s) = 3.22164 4.02598 3.64606
# Velocity P-wave (km/s) = 5.14736 6.54884 5.88993
#
# Compressibility (1/GPa) = 0.03036703
#
# Stress axis : x y z
#
# Youngs Moduli (GPa) = 97.94464 155.23091 24.15837
#
# Poissons Ratio (x) = 0.00108 0.18906
# Poissons Ratio (y) = 0.00068 0.14511
# Poissons Ratio (z) = 0.76649 0.93239
#
# Static dielectric constant tensor:
#      x y z
#    x 2.035250 0.000000 0.000000 
#    y 0.000000 2.032560 0.000000 
#    z 0.000000 0.000000 2.019450 
# 
# From -- ./inp_files/206.got.cif
#   From: 2010.05.17/outbox.cif.g08.bks.cpg/sg34_1_cif.got.tgz:206.got - 2010.06.03 17:23:11.
