data_PCOD9347321
_publ_section_title
;
Structure prediction by ZEFSAII (Michael W. Deem and Ramdas Pophale) SiO2 
 PCOD9347321
Probable space group: P N N 2
;
_chemical_formula_sum "Si O2"
_cell_formula_units_Z 30
_cell_length_a 5.402831
_cell_length_b 13.549302
_cell_length_c 21.792503
_cell_angle_alpha 90.000000
_cell_angle_beta 90.000000
_cell_angle_gamma 90.000000
_cell_volume 1595.311223
_symmetry_space_group_name_H-M "P N N 2"
_symmetry_group_IT_number 34
_symmetry_cell_setting 'orthorhombic'
loop_
_space_group_symop_operation_xyz
x,y,z
-x,-y,z
1/2-x,1/2+y,1/2+z
1/2+x,1/2-y,1/2+z
loop_
_atom_site_type_symbol
_atom_site_label
_atom_site_fract_x
_atom_site_fract_y
_atom_site_fract_z
Si Si1 0.751272 0.064660 0.903260
Si Si2 0.801325 0.201836 0.562613
Si Si3 0.807778 0.330858 0.690572
Si Si4 0.701219 0.648595 0.269860
Si Si5 0.199998 0.624913 0.200686
Si Si6 0.000000 0.000000 0.604709
Si Si7 0.190415 0.856907 0.156880
Si Si8 0.300067 0.300364 0.522200
O O1 0.740146 0.124372 0.839517
O O2 0.789394 0.135833 0.961201
O O3 0.500000 0.000000 0.909879
O O4 0.000000 0.000000 0.899515
O O5 0.804633 0.256756 0.629917
O O6 0.545506 0.232872 0.530063
O O7 0.848346 0.085801 0.570619
O O8 0.042994 0.241812 0.527863
O O9 0.798825 0.263252 0.750562
O O10 0.563731 0.393564 0.683804
O O11 0.056632 0.391072 0.685549
O O12 0.424697 0.615056 0.249973
O O13 0.929554 0.605575 0.229214
O O14 0.297415 0.557966 0.145562
O O15 0.193218 0.738161 0.175356
O O16 0.192712 0.867303 0.083797
#
# Coordination Sequence:
#
# PCOD9347321 Si02
#       8
#     4   4   4   4   4   2   4   4
#     4  12  26  38  53  70  93 149 200 223 252 300
#     4  10  20  31  53  74 103 142 161 209 263 307
#     4   8  14  27  43  68  96 128 158 183 244 302
#     4  10  20  33  44  71 106 141 171 203 239 303
#     4  10  20  29  48  76 114 136 161 197 245 322
#     4  12  20  30  52  90 112 144 170 190 264 352
#     4   8  14  29  45  65  89 135 157 191 258 283
#     4  10  20  39  48  65  99 139 180 227 255 281
#
# _framework density 18.805108000000001
#
# number of rings (size 3 to 8) (size 9 to 14) (size 15 to 20)
#    0.000    2.133    4.000    1.600    2.800    1.600 
#    0.000    0.000    0.000    0.000    0.000    0.000 
#    0.000    0.000  204.000    0.000    0.800    0.000 
#
# Total GULP energy -167325.327322 kJ/mol
# GULP energy per Si atom -5577.510911 kJ/mol
# Density = 1.876231 g / cm^3
# Si number density = 18.805108 Si / 1000 Ang^3
#
#
#
# Elastic Constant Matrix: (Units=GPa)
#
#
# Indices 1 2 3 4 5 6 
#
# 1 197.1485 35.1117 45.3752 0.0000 0.0000 0.0000
# 2 35.1117 66.8984 42.7244 0.0000 0.0000 0.0000
# 3 45.3752 42.7244 109.6266 0.0000 0.0000 0.0000
# 4 0.0000 0.0000 0.0000 14.4424 0.0000 0.0000
# 5 0.0000 0.0000 0.0000 0.0000 22.0081 0.0000
# 6 0.0000 0.0000 0.0000 0.0000 0.0000 9.0770
#
#
#
# Elastic Compliance Matrix: (Units=1/GPa)
#
#
# Indices 1 2 3 4 5 6 
#
# 1 0.005803 -0.002013 -0.001618 0.000000 0.000000 0.000000
# 2 -0.002013 0.020600 -0.007195 0.000000 0.000000 0.000000
# 3 -0.001618 -0.007195 0.012595 0.000000 0.000000 0.000000
# 4 0.000000 0.000000 0.000000 0.069241 0.000000 0.000000
# 5 0.000000 0.000000 0.000000 0.000000 0.045438 0.000000
# 6 0.000000 0.000000 0.000000 0.000000 0.000000 0.110168
#
#
# Mechanical properties :
#
#
# Convention : Reuss Voigt Hill
#
# Bulk Modulus (GPa) = 57.64549 68.89957 63.27253
# Shear Modulus (GPa) = 17.16574 25.80299 21.48436
#
# Velocity S-wave (km/s) = 3.02457 3.70824 3.38372
# Velocity P-wave (km/s) = 6.55119 7.41977 6.99897
#
# Compressibility (1/GPa) = 0.01734741
#
# Stress axis : x y z
#
# Youngs Moduli (GPa) = 172.32275 48.54473 79.39346
#
# Poissons Ratio (x) = 0.09771 0.12842
# Poissons Ratio (y) = 0.34684 0.57124
# Poissons Ratio (z) = 0.27873 0.34928
#
# Static dielectric constant tensor:
#      x y z
#    x 1.745260 0.000000 0.000000 
#    y 0.000000 1.686310 0.000000 
#    z 0.000000 0.000000 1.620850 
# 
# From -- ./inp_files/7246.got.cif
#   From: 2010.05.17/outbox.cif.g08.bks.cpg/sg34_4_cif.got.tgz:7246.got - 2010.06.03 17:23:11.
