data_PCOD9347049
_publ_section_title
;
Structure prediction by ZEFSAII (Michael W. Deem and Ramdas Pophale) SiO2 
 PCOD9347049
Probable space group: P N A 21
;
_chemical_formula_sum "Si O2"
_cell_formula_units_Z 24
_cell_length_a 7.218695
_cell_length_b 6.613770
_cell_length_c 20.636909
_cell_angle_alpha 90.000000
_cell_angle_beta 90.000000
_cell_angle_gamma 90.000000
_cell_volume 985.263580
_symmetry_space_group_name_H-M "P N A 21"
_symmetry_group_IT_number 33
_symmetry_cell_setting 'orthorhombic'
loop_
_space_group_symop_operation_xyz
x,y,z
-x,-y,1/2+z
1/2-x,1/2+y,1/2+z
1/2+x,1/2-y,z
loop_
_atom_site_type_symbol
_atom_site_label
_atom_site_fract_x
_atom_site_fract_y
_atom_site_fract_z
Si Si1 0.013168 0.419990 0.260280
Si Si2 0.851194 0.039260 0.976892
Si Si3 0.887821 0.004356 0.214226
Si Si4 0.887819 0.995645 0.589387
Si Si5 0.851192 0.960741 0.826720
Si Si6 0.986834 0.419990 0.043333
O O1 0.170444 0.537038 0.220918
O O2 0.124294 0.280078 0.312391
O O3 0.911120 0.251125 0.215705
O O4 0.847903 0.524204 0.298687
O O5 0.652099 0.975796 0.004926
O O6 0.875708 0.280078 0.991222
O O7 0.872579 0.000000 0.901806
O O8 0.005527 0.944975 0.023749
O O9 0.000001 0.932651 0.151806
O O10 0.994475 0.944975 0.279864
O O11 0.911118 0.748876 0.587907
O O12 0.670443 0.037038 0.582695
#
# Coordination Sequence:
#
# PCOD9347049 Si02
#       6
#     4   4   4   4   4   4
#     4   8  17  26  41  64  86 110 137 162 215 251
#     4   9  17  28  40  61  89 112 139 169 203 251
#     4   9  15  25  42  63  87 109 129 171 215 254
#     4   9  15  25  42  63  87 109 129 171 215 254
#     4   9  17  28  40  61  89 112 139 169 203 251
#     4   8  17  26  41  64  86 110 137 162 215 251
#
# _framework density 24.358964
#
# number of rings (size 3 to 8) (size 9 to 14) (size 15 to 20)
#    2.000    1.333    0.000    1.000    0.000    1.333 
#    0.000    0.000    0.000    0.000    0.000    2.333 
#    0.000    0.000    0.000    0.000    0.000    0.000 
#
# Total GULP energy -133790.743151 kJ/mol
# GULP energy per Si atom -5574.614298 kJ/mol
# Density = 2.430352 g / cm^3
# Si number density = 24.358964 Si / 1000 Ang^3
#
#
#
# Elastic Constant Matrix: (Units=GPa)
#
#
# Indices 1 2 3 4 5 6 
#
# 1 142.4386 17.0050 34.7455 0.0000 0.0000 0.0000
# 2 17.0050 57.1461 22.8685 0.0000 0.0000 0.0000
# 3 34.7455 22.8685 126.8219 0.0000 0.0000 0.0000
# 4 0.0000 0.0000 0.0000 2.7609 0.0000 0.0000
# 5 0.0000 0.0000 0.0000 0.0000 27.8039 0.0000
# 6 0.0000 0.0000 0.0000 0.0000 0.0000 -0.0517
#
#
#
# Elastic Compliance Matrix: (Units=1/GPa)
#
#
# Indices 1 2 3 4 5 6 
#
# 1 0.007649 -0.001549 -0.001816 0.000000 0.000000 0.000000
# 2 -0.001549 0.019174 -0.003033 0.000000 0.000000 0.000000
# 3 -0.001816 -0.003033 0.008930 0.000000 0.000000 0.000000
# 4 0.000000 0.000000 0.000000 0.362202 0.000000 0.000000
# 5 0.000000 0.000000 0.000000 0.000000 0.035966 0.000000
# 6 0.000000 0.000000 0.000000 0.000000 0.000000-19.336984
#
#
# Mechanical properties :
#
#
# Convention : Reuss Voigt Hill
#
# Bulk Modulus (GPa) = 43.56312 52.84941 48.20626
# Shear Modulus (GPa) = -0.26479 22.88846 11.31183
#
# Velocity S-wave (km/s) = -0.33006 3.06867 2.15729
# Velocity P-wave (km/s) = 4.21632 5.85652 5.10275
#
# Compressibility (1/GPa) = 0.02295520
#
# Stress axis : x y z
#
# Youngs Moduli (GPa) = 130.74407 52.15472 111.98780
#
# Poissons Ratio (x) = 0.08080 0.20338
# Poissons Ratio (y) = 0.20255 0.33966
# Poissons Ratio (z) = 0.23745 0.15818
#
# Static dielectric constant tensor:
#      x y z
#    x 1.945820 0.000000 0.000000 
#    y 0.000000 2.105300 0.000000 
#    z 0.000000 0.000000 1.887070 
# 
# From -- ./inp_files/8910.got.cif
#   From: 2010.05.17/outbox.cif.g08.bks.cpg/sg33_5_cif.got.tgz:8910.got - 2010.06.03 17:15:25.
