data_PCOD9347849
_publ_section_title
;
Structure prediction by ZEFSAII (Michael W. Deem and Ramdas Pophale) SiO2 
 PCOD9347849
Probable space group: P N N 2
;
_chemical_formula_sum "Si O2"
_cell_formula_units_Z 22
_cell_length_a 5.142951
_cell_length_b 14.724425
_cell_length_c 11.904656
_cell_angle_alpha 90.000000
_cell_angle_beta 90.000000
_cell_angle_gamma 90.000000
_cell_volume 901.503841
_symmetry_space_group_name_H-M "P N N 2"
_symmetry_group_IT_number 34
_symmetry_cell_setting 'orthorhombic'
loop_
_space_group_symop_operation_xyz
x,y,z
-x,-y,z
1/2-x,1/2+y,1/2+z
1/2+x,1/2-y,1/2+z
loop_
_atom_site_type_symbol
_atom_site_label
_atom_site_fract_x
_atom_site_fract_y
_atom_site_fract_z
Si Si1 0.996752 0.147295 0.533620
Si Si2 0.000000 0.000000 0.354595
Si Si3 0.236795 0.125412 0.889410
Si Si4 0.253601 0.754698 0.858336
Si Si5 0.000000 0.500000 0.704159
Si Si6 0.217649 0.666915 0.624267
Si Si7 0.000000 0.000000 0.729059
O O1 0.247980 0.190062 0.469180
O O2 0.901417 0.080602 0.435773
O O3 0.843152 0.236319 0.568237
O O4 0.998523 0.084050 0.642506
O O5 0.755421 0.983817 0.276264
O O6 0.519554 0.170965 0.876138
O O7 0.022375 0.197044 0.843444
O O8 0.217036 0.034033 0.816957
O O9 0.150470 0.114023 0.019953
O O10 0.322860 0.698107 0.745698
O O11 0.023787 0.402554 0.643252
#
# Coordination Sequence:
#
# PCOD9347849 Si02
#       7
#     4   2   4   4   2   4   2
#     4  10  24  48  78 107 153 202 254 310 389 462
#     4  11  26  47  72 112 149 194 255 318 378 459
#     4  11  28  46  74 113 156 197 254 313 391 452
#     4  11  25  49  75 110 148 208 252 310 383 465
#     4  12  28  48  76 112 150 194 264 320 374 456
#     4  11  26  48  80 110 154 205 254 322 384 461
#     4  11  24  49  74 120 149 200 255 326 378 467
#
# _framework density 24.403669000000001
#
# number of rings (size 3 to 8) (size 9 to 14) (size 15 to 20)
#    0.000    1.091    3.636    0.000    7.636    7.273 
#    3.273    0.000    0.000    0.000    0.000    0.000 
#    0.000    0.000    0.000    0.000    0.000    0.000 
#
# Total GULP energy -122516.905080 kJ/mol
# GULP energy per Si atom -5568.950231 kJ/mol
# Density = 2.434813 g / cm^3
# Si number density = 24.403669 Si / 1000 Ang^3
#
#
#
# Elastic Constant Matrix: (Units=GPa)
#
#
# Indices 1 2 3 4 5 6 
#
# 1 65.0776 38.3711 12.3869 0.0000 0.0000 0.0000
# 2 38.3711 129.9348 43.3283 0.0000 0.0000 0.0000
# 3 12.3869 43.3283 137.0919 0.0000 0.0000 0.0000
# 4 0.0000 0.0000 0.0000 -7.5017 0.0000 0.0000
# 5 0.0000 0.0000 0.0000 0.0000 36.2118 0.0000
# 6 0.0000 0.0000 0.0000 0.0000 0.0000 28.9411
#
#
#
# Elastic Compliance Matrix: (Units=1/GPa)
#
#
# Indices 1 2 3 4 5 6 
#
# 1 0.018606 -0.005515 0.000062 0.000000 0.000000 0.000000
# 2 -0.005515 0.010238 -0.002737 0.000000 0.000000 0.000000
# 3 0.000062 -0.002737 0.008154 0.000000 0.000000 0.000000
# 4 0.000000 0.000000 0.000000 -0.133304 0.000000 0.000000
# 5 0.000000 0.000000 0.000000 0.000000 0.027615 0.000000
# 6 0.000000 0.000000 0.000000 0.000000 0.000000 0.034553
#
#
# Mechanical properties :
#
#
# Convention : Reuss Voigt Hill
#
# Bulk Modulus (GPa) = 48.50446 57.80853 53.15650
# Shear Modulus (GPa) = -459.40034 27.39811 -216.00112
#
# Velocity S-wave (km/s) = -13.73533 3.35431 -9.41827
# Velocity P-wave (km/s) = 15.21928 6.22429 9.82051
#
# Compressibility (1/GPa) = 0.02061666
#
# Stress axis : x y z
#
# Youngs Moduli (GPa) = 53.74485 97.67828 122.64050
#
# Poissons Ratio (x) = 0.53873 -0.00760
# Poissons Ratio (y) = 0.29642 0.33571
# Poissons Ratio (z) = -0.00333 0.26738
#
# Static dielectric constant tensor:
#      x y z
#    x 1.943250 0.000000 0.000000 
#    y 0.000000 2.032300 0.000000 
#    z 0.000000 0.000000 2.038530 
# 
# From -- ./inp_files/4405.got.cif
#   From: 2010.05.17/outbox.cif.g08.bks.cpg/sg34_3_cif.got.tgz:4405.got - 2010.06.03 17:23:11.
