data_PCOD9347320
_publ_section_title
;
Structure prediction by ZEFSAII (Michael W. Deem and Ramdas Pophale) SiO2 
 PCOD9347320
Probable space group: P N N 2
;
_chemical_formula_sum "Si O2"
_cell_formula_units_Z 20
_cell_length_a 11.188111
_cell_length_b 10.636975
_cell_length_c 7.572745
_cell_angle_alpha 90.000000
_cell_angle_beta 90.000000
_cell_angle_gamma 90.000000
_cell_volume 901.214640
_symmetry_space_group_name_H-M "P N N 2"
_symmetry_group_IT_number 34
_symmetry_cell_setting 'orthorhombic'
loop_
_space_group_symop_operation_xyz
x,y,z
-x,-y,z
1/2-x,1/2+y,1/2+z
1/2+x,1/2-y,1/2+z
loop_
_atom_site_type_symbol
_atom_site_label
_atom_site_fract_x
_atom_site_fract_y
_atom_site_fract_z
Si Si1 0.781052 0.236454 0.051830
Si Si2 0.136890 0.497770 0.443531
Si Si3 0.280112 0.255541 0.970896
Si Si4 0.471627 0.637555 0.430591
Si Si5 0.179570 0.022895 0.623905
O O1 0.727040 0.369889 0.993006
O O2 0.808032 0.243918 0.260945
O O3 0.901437 0.204734 0.946224
O O4 0.682981 0.126777 0.038348
O O5 0.161801 0.627986 0.545499
O O6 0.218967 0.499774 0.270752
O O7 0.000000 0.500000 0.395968
O O8 0.332244 0.386163 0.040423
O O9 0.137287 0.226420 0.997389
O O10 0.500000 0.500000 0.520394
O O11 0.422655 0.594080 0.238059
#
# Coordination Sequence:
#
# PCOD9347320 Si02
#       5
#     4   4   4   4   4
#     4  10  21  44  65  93 134 176 217 274 341 394
#     4  10  22  43  63  91 137 173 213 278 339 387
#     4  10  24  39  65 105 123 172 236 264 329 409
#     4  10  19  43  68  87 139 175 208 275 342 386
#     4  10  24  41  67 100 127 173 227 272 332 404
#
# _framework density 22.192273
#
# number of rings (size 3 to 8) (size 9 to 14) (size 15 to 20)
#    0.000    2.400    4.000    0.000    5.600    4.800 
#    7.200    1.000    0.000    0.000    0.000    0.000 
#    0.000    0.000    0.000    0.000    0.000    0.000 
#
# Total GULP energy -111382.136012 kJ/mol
# GULP energy per Si atom -5569.106801 kJ/mol
# Density = 2.214176 g / cm^3
# Si number density = 22.192273 Si / 1000 Ang^3
#
#
#
# Elastic Constant Matrix: (Units=GPa)
#
#
# Indices 1 2 3 4 5 6 
#
# 1 84.4226 -0.8020 12.6505 0.0000 0.0000 0.0000
# 2 -0.8020 149.3971 16.6036 0.0000 0.0000 0.0000
# 3 12.6505 16.6036 38.5293 0.0000 0.0000 0.0000
# 4 0.0000 0.0000 0.0000 22.6275 0.0000 0.0000
# 5 0.0000 0.0000 0.0000 0.0000 22.2457 0.0000
# 6 0.0000 0.0000 0.0000 0.0000 0.0000 85.3425
#
#
#
# Elastic Compliance Matrix: (Units=1/GPa)
#
#
# Indices 1 2 3 4 5 6 
#
# 1 0.012501 0.000550 -0.004341 0.000000 0.000000 0.000000
# 2 0.000550 0.007054 -0.003220 0.000000 0.000000 0.000000
# 3 -0.004341 -0.003220 0.028767 0.000000 0.000000 0.000000
# 4 0.000000 0.000000 0.000000 0.044194 0.000000 0.000000
# 5 0.000000 0.000000 0.000000 0.000000 0.044952 0.000000
# 6 0.000000 0.000000 0.000000 0.000000 0.000000 0.011717
#
#
# Mechanical properties :
#
#
# Convention : Reuss Voigt Hill
#
# Bulk Modulus (GPa) = 29.15583 36.58370 32.86977
# Shear Modulus (GPa) = 28.62969 42.30294 35.46631
#
# Velocity S-wave (km/s) = 3.59566 4.37074 4.00201
# Velocity P-wave (km/s) = 5.51404 6.48011 6.01650
#
# Compressibility (1/GPa) = 0.03429846
#
# Stress axis : x y z
#
# Youngs Moduli (GPa) = 79.99412 141.75479 34.76150
#
# Poissons Ratio (x) = -0.07791 0.15091
# Poissons Ratio (y) = -0.04396 0.11195
# Poissons Ratio (z) = 0.34728 0.45651
#
# Static dielectric constant tensor:
#      x y z
#    x 1.871950 0.000000 0.000000 
#    y 0.000000 2.516170 0.000000 
#    z 0.000000 0.000000 1.852520 
# 
# From -- ./inp_files/5302.got.cif
#   From: 2010.05.17/outbox.cif.g08.bks.cpg/sg34_3_cif.got.tgz:5302.got - 2010.06.03 17:23:11.
