data_PCOD9347006
_publ_section_title
;
Structure prediction by ZEFSAII (Michael W. Deem and Ramdas Pophale) SiO2 
 PCOD9347006
Probable space group: P N A 21
;
_chemical_formula_sum "Si O2"
_cell_formula_units_Z 16
_cell_length_a 5.885049
_cell_length_b 12.948462
_cell_length_c 7.292931
_cell_angle_alpha 90.000000
_cell_angle_beta 90.000000
_cell_angle_gamma 90.000000
_cell_volume 555.738359
_symmetry_space_group_name_H-M "P N A 21"
_symmetry_group_IT_number 33
_symmetry_cell_setting 'orthorhombic'
loop_
_space_group_symop_operation_xyz
x,y,z
-x,-y,1/2+z
1/2-x,1/2+y,1/2+z
1/2+x,1/2-y,z
loop_
_atom_site_type_symbol
_atom_site_label
_atom_site_fract_x
_atom_site_fract_y
_atom_site_fract_z
Si Si1 0.769273 0.909542 0.473830
Si Si2 0.403710 0.535119 0.067394
Si Si3 0.760959 0.764849 0.977316
Si Si4 0.790101 0.670647 0.575870
O O1 0.794836 0.939717 0.258932
O O2 0.800946 0.780196 0.479712
O O3 0.505728 0.899200 0.539075
O O4 0.825574 0.028042 0.567746
O O5 0.408828 0.411130 0.024407
O O6 0.294029 0.613357 0.926212
O O7 0.511518 0.752957 0.066657
O O8 0.759110 0.701458 0.788276
#
# Coordination Sequence:
#
# PCOD9347006 Si02
#       4
#     4   4   4   4
#     4  12  26  50  76 116 159 214 278 341 408 503
#     4  12  30  48  83 113 162 224 271 340 430 485
#     4  12  28  53  83 119 166 218 272 343 409 495
#     4  12  26  51  76 116 167 210 277 342 407 499
#
# _framework density 28.790526
#
# number of rings (size 3 to 8) (size 9 to 14) (size 15 to 20)
#    0.000    0.000    5.000    3.000   10.500    0.000 
#    0.000    0.000    0.000    0.000    0.000    0.000 
#    0.000    0.000    0.000    0.000    0.000    0.000 
#
# Total GULP energy -89212.567218 kJ/mol
# GULP energy per Si atom -5575.785451 kJ/mol
# Density = 2.872500 g / cm^3
# Si number density = 28.790526 Si / 1000 Ang^3
#
#
#
# Elastic Constant Matrix: (Units=GPa)
#
#
# Indices 1 2 3 4 5 6 
#
# 1 150.7741 54.0010 43.0134 0.0000 0.0000 0.0000
# 2 54.0010 151.6314 37.2218 0.0000 0.0000 0.0000
# 3 43.0134 37.2218 93.8410 0.0000 0.0000 0.0000
# 4 0.0000 0.0000 0.0000 55.6121 0.0000 0.0000
# 5 0.0000 0.0000 0.0000 0.0000 32.6246 0.0000
# 6 0.0000 0.0000 0.0000 0.0000 0.0000 76.3207
#
#
#
# Elastic Compliance Matrix: (Units=1/GPa)
#
#
# Indices 1 2 3 4 5 6 
#
# 1 0.008258 -0.002229 -0.002901 0.000000 0.000000 0.000000
# 2 -0.002229 0.007908 -0.002115 0.000000 0.000000 0.000000
# 3 -0.002901 -0.002115 0.012825 0.000000 0.000000 0.000000
# 4 0.000000 0.000000 0.000000 0.017982 0.000000 0.000000
# 5 0.000000 0.000000 0.000000 0.000000 0.030652 0.000000
# 6 0.000000 0.000000 0.000000 0.000000 0.000000 0.013103
#
#
# Mechanical properties :
#
#
# Convention : Reuss Voigt Hill
#
# Bulk Modulus (GPa) = 68.96057 73.85763 71.40910
# Shear Modulus (GPa) = 45.43330 50.37885 47.90608
#
# Velocity S-wave (km/s) = 3.97680 4.18765 4.08358
# Velocity P-wave (km/s) = 6.71499 7.00650 6.86229
#
# Compressibility (1/GPa) = 0.01450104
#
# Stress axis : x y z
#
# Youngs Moduli (GPa) = 121.08842 126.45568 77.97225
#
# Poissons Ratio (x) = 0.28186 0.22622
# Poissons Ratio (y) = 0.26989 0.16491
# Poissons Ratio (z) = 0.35131 0.26745
#
# Static dielectric constant tensor:
#      x y z
#    x 2.555490 0.000000 0.000000 
#    y 0.000000 2.494330 0.000000 
#    z 0.000000 0.000000 2.160450 
# 
# From -- ./inp_files/2590.got.cif
#   From: 2010.05.17/outbox.cif.g08.bks.cpg/sg33_2_cif.got.tgz:2590.got - 2010.06.03 17:15:25.
