data_PCOD9347694
_publ_section_title
;
Structure prediction by ZEFSAII (Michael W. Deem and Ramdas Pophale) SiO2 
 PCOD9347694
Probable space group: P N N 2
;
_chemical_formula_sum "Si O2"
_cell_formula_units_Z 16
_cell_length_a 22.102824
_cell_length_b 5.507398
_cell_length_c 5.006773
_cell_angle_alpha 90.000000
_cell_angle_beta 90.000000
_cell_angle_gamma 90.000000
_cell_volume 609.469714
_symmetry_space_group_name_H-M "P N N 2"
_symmetry_group_IT_number 34
_symmetry_cell_setting 'orthorhombic'
loop_
_space_group_symop_operation_xyz
x,y,z
-x,-y,z
1/2-x,1/2+y,1/2+z
1/2+x,1/2-y,1/2+z
loop_
_atom_site_type_symbol
_atom_site_label
_atom_site_fract_x
_atom_site_fract_y
_atom_site_fract_z
Si Si1 0.000000 0.000000 0.190540
Si Si2 0.899997 0.770373 0.862333
Si Si3 0.500000 0.000000 0.636071
Si Si4 0.328034 0.429207 0.995544
Si Si5 0.808446 0.406203 0.997752
O O1 0.058982 0.026789 0.003560
O O2 0.994033 0.262182 0.319372
O O3 0.944064 0.545817 0.935790
O O4 0.838225 0.674412 0.998800
O O5 0.879979 0.877402 0.577145
O O6 0.263651 0.565408 0.009125
O O7 0.326551 0.225243 0.225317
O O8 0.330585 0.272186 0.729196
#
# Coordination Sequence:
#
# PCOD9347694 Si02
#       5
#     2   4   2   4   4
#     4   8  18  40  70 108 144 204 256 320 376 468
#     4  10  22  42  78 104 158 198 274 312 408 464
#     4   8  18  40  70 108 144 204 256 320 376 468
#     4  12  26  45  74 112 153 200 256 320 399 474
#     4  12  26  45  74 112 153 200 256 320 399 474
#
# _framework density 26.252329
#
# number of rings (size 3 to 8) (size 9 to 14) (size 15 to 20)
#    1.500    0.000    2.500    3.000    0.000    0.000 
#    0.000    0.000   11.000    0.000    0.000    0.000 
#    0.000    0.000    0.000    0.000    0.000    0.000 
#
# Total GULP energy -89380.322647 kJ/mol
# GULP energy per Si atom -5586.270165 kJ/mol
# Density = 2.619258 g / cm^3
# Si number density = 26.252329 Si / 1000 Ang^3
#
#
#
# Elastic Constant Matrix: (Units=GPa)
#
#
# Indices 1 2 3 4 5 6 
#
# 1 116.8391 21.4830 31.8269 0.0000 0.0000 0.0000
# 2 21.4830 174.7654 30.4653 0.0000 0.0000 0.0000
# 3 31.8269 30.4653 88.1982 0.0000 0.0000 0.0000
# 4 0.0000 0.0000 0.0000 34.7913 0.0000 0.0000
# 5 0.0000 0.0000 0.0000 0.0000 17.3071 0.0000
# 6 0.0000 0.0000 0.0000 0.0000 0.0000 57.1925
#
#
#
# Elastic Compliance Matrix: (Units=1/GPa)
#
#
# Indices 1 2 3 4 5 6 
#
# 1 0.009553 -0.000610 -0.003236 0.000000 0.000000 0.000000
# 2 -0.000610 0.006128 -0.001896 0.000000 0.000000 0.000000
# 3 -0.003236 -0.001896 0.013161 0.000000 0.000000 0.000000
# 4 0.000000 0.000000 0.000000 0.028743 0.000000 0.000000
# 5 0.000000 0.000000 0.000000 0.000000 0.057780 0.000000
# 6 0.000000 0.000000 0.000000 0.000000 0.000000 0.017485
#
#
# Mechanical properties :
#
#
# Convention : Reuss Voigt Hill
#
# Bulk Modulus (GPa) = 57.61900 60.81700 59.21800
# Shear Modulus (GPa) = 33.30687 41.59335 37.45011
#
# Velocity S-wave (km/s) = 3.56577 3.98473 3.78106
# Velocity P-wave (km/s) = 6.24090 6.66239 6.45508
#
# Compressibility (1/GPa) = 0.01735539
#
# Stress axis : x y z
#
# Youngs Moduli (GPa) = 104.68428 163.19774 75.98195
#
# Poissons Ratio (x) = 0.09956 0.24590
# Poissons Ratio (y) = 0.06387 0.14409
# Poissons Ratio (z) = 0.33880 0.30949
#
# Static dielectric constant tensor:
#      x y z
#    x 2.055080 0.000000 0.000000 
#    y 0.000000 2.135330 0.000000 
#    z 0.000000 0.000000 1.976660 
# 
# From -- ./inp_files/134.got.cif
#   From: 2010.05.17/outbox.cif.g08.bks.cpg/sg34_1_cif.got.tgz:134.got - 2010.06.03 17:23:11.
