data_PCOD9347752
_publ_section_title
;
Structure prediction by ZEFSAII (Michael W. Deem and Ramdas Pophale) SiO2 
 PCOD9347752
Probable space group: P N N 2
;
_chemical_formula_sum "Si O2"
_cell_formula_units_Z 30
_cell_length_a 15.778709
_cell_length_b 14.375022
_cell_length_c 5.174777
_cell_angle_alpha 90.000000
_cell_angle_beta 90.000000
_cell_angle_gamma 90.000000
_cell_volume 1173.739240
_symmetry_space_group_name_H-M "P N N 2"
_symmetry_group_IT_number 34
_symmetry_cell_setting 'orthorhombic'
loop_
_space_group_symop_operation_xyz
x,y,z
-x,-y,z
1/2-x,1/2+y,1/2+z
1/2+x,1/2-y,1/2+z
loop_
_atom_site_type_symbol
_atom_site_label
_atom_site_fract_x
_atom_site_fract_y
_atom_site_fract_z
Si Si1 0.224733 0.157671 0.204470
Si Si2 0.957721 0.344960 0.347126
Si Si3 0.057552 0.869661 0.443806
Si Si4 0.000000 0.500000 0.723118
Si Si5 0.908272 0.660238 0.971356
Si Si6 0.697831 0.931073 0.696430
Si Si7 0.960752 0.858554 0.938646
Si Si8 0.242710 0.865068 0.638011
O O1 0.242484 0.096811 0.456998
O O2 0.251991 0.264546 0.281357
O O3 0.277696 0.123616 0.957362
O O4 0.128793 0.140657 0.093751
O O5 0.933219 0.242075 0.421026
O O6 0.951765 0.425682 0.552038
O O7 0.894595 0.386672 0.130518
O O8 0.056870 0.339062 0.265713
O O9 0.150385 0.895768 0.546040
O O10 0.986951 0.897580 0.658360
O O11 0.028600 0.893620 0.151886
O O12 0.935220 0.561249 0.876575
O O13 0.961448 0.747622 0.872061
O O14 0.809401 0.666459 0.915456
O O15 0.712643 0.041320 0.747264
#
# Coordination Sequence:
#
# PCOD9347752 Si02
#       8
#     4   4   4   2   4   4   4   4
#     4  11  27  49  74 104 148 192 242 314 362 440
#     4  11  24  41  65 107 146 191 235 308 373 455
#     4  11  23  44  72  99 139 184 241 298 362 430
#     4  12  20  38  68  98 146 188 232 302 374 460
#     4  10  23  40  63  98 142 178 235 286 373 442
#     4  12  27  46  74 109 148 190 250 296 376 444
#     4  10  23  47  70  97 134 192 236 293 363 425
#     4  11  26  46  71 110 144 193 243 306 376 443
#
# _framework density 25.559339999999999
#
# number of rings (size 3 to 8) (size 9 to 14) (size 15 to 20)
#    0.000    1.067    2.667    2.800    7.467    2.133 
#    4.800    4.000    0.000    0.000    0.000    0.000 
#    0.000    0.000    0.000    0.000    0.000    0.000 
#
# Total GULP energy -167285.691816 kJ/mol
# GULP energy per Si atom -5576.189727 kJ/mol
# Density = 2.550117 g / cm^3
# Si number density = 25.559340 Si / 1000 Ang^3
#
#
#
# Elastic Constant Matrix: (Units=GPa)
#
#
# Indices 1 2 3 4 5 6 
#
# 1 101.9857 -0.9558 3.5339 0.0000 0.0000 0.0000
# 2 -0.9558 133.9662 19.3393 0.0000 0.0000 0.0000
# 3 3.5339 19.3393 88.3330 0.0000 0.0000 0.0000
# 4 0.0000 0.0000 0.0000 12.8809 0.0000 0.0000
# 5 0.0000 0.0000 0.0000 0.0000 -10.9868 0.0000
# 6 0.0000 0.0000 0.0000 0.0000 0.0000 31.8195
#
#
#
# Elastic Compliance Matrix: (Units=1/GPa)
#
#
# Indices 1 2 3 4 5 6 
#
# 1 0.009821 0.000131 -0.000422 0.000000 0.000000 0.000000
# 2 0.000131 0.007710 -0.001693 0.000000 0.000000 0.000000
# 3 -0.000422 -0.001693 0.011708 0.000000 0.000000 0.000000
# 4 0.000000 0.000000 0.000000 0.077634 0.000000 0.000000
# 5 0.000000 0.000000 0.000000 0.000000 -0.091019 0.000000
# 6 0.000000 0.000000 0.000000 0.000000 0.000000 0.031427
#
#
# Mechanical properties :
#
#
# Convention : Reuss Voigt Hill
#
# Bulk Modulus (GPa) = 39.56997 40.90220 40.23608
# Shear Modulus (GPa) = 83.78877 26.90057 55.34467
#
# Velocity S-wave (km/s) = 5.73177 3.24771 4.65837
# Velocity P-wave (km/s) = 7.70192 5.48644 6.68657
#
# Compressibility (1/GPa) = 0.02527169
#
# Stress axis : x y z
#
# Youngs Moduli (GPa) = 101.82128 129.70271 85.40901
#
# Poissons Ratio (x) = -0.01698 0.03601
# Poissons Ratio (y) = -0.01333 0.14462
# Poissons Ratio (z) = 0.04293 0.21962
#
# Static dielectric constant tensor:
#      x y z
#    x 2.323000 0.000000 0.000000 
#    y 0.000000 2.040560 0.000000 
#    z 0.000000 0.000000 2.042930 
# 
# From -- ./inp_files/1487.got.cif
#   From: 2010.05.17/outbox.cif.g08.bks.cpg/sg34_1_cif.got.tgz:1487.got - 2010.06.03 17:23:11.
