data_PCOD9347456
_publ_section_title
;
Structure prediction by ZEFSAII (Michael W. Deem and Ramdas Pophale) SiO2 
 PCOD9347456
Probable space group: P N N 2
;
_chemical_formula_sum "Si O2"
_cell_formula_units_Z 20
_cell_length_a 8.333236
_cell_length_b 7.614189
_cell_length_c 12.325018
_cell_angle_alpha 90.000000
_cell_angle_beta 90.000000
_cell_angle_gamma 90.000000
_cell_volume 782.032670
_symmetry_space_group_name_H-M "P N N 2"
_symmetry_group_IT_number 34
_symmetry_cell_setting 'orthorhombic'
loop_
_space_group_symop_operation_xyz
x,y,z
-x,-y,z
1/2-x,1/2+y,1/2+z
1/2+x,1/2-y,1/2+z
loop_
_atom_site_type_symbol
_atom_site_label
_atom_site_fract_x
_atom_site_fract_y
_atom_site_fract_z
Si Si1 0.135376 0.268624 0.070940
Si Si2 0.312061 0.456091 0.269275
Si Si3 0.905730 0.684264 0.446406
Si Si4 0.788460 0.166244 0.355235
Si Si5 0.205557 0.883111 0.125767
O O1 0.236275 0.372304 0.161139
O O2 0.953329 0.234125 0.109008
O O3 0.193813 0.066266 0.059568
O O4 0.165475 0.355607 0.953854
O O5 0.500000 0.500000 0.266649
O O6 0.248710 0.332385 0.368090
O O7 0.237873 0.645360 0.297054
O O8 0.851277 0.717139 0.569269
O O9 0.000000 0.500000 0.443833
O O10 0.034406 0.821371 0.403915
O O11 0.774759 0.049767 0.248406
#
# Coordination Sequence:
#
# PCOD9347456 Si02
#       5
#     4   4   4   4   4
#     4  11  24  44  67 103 138 181 238 283 361 421
#     4  11  23  43  71  95 139 183 234 287 355 417
#     4  10  20  41  69  93 136 182 231 281 355 417
#     4  11  24  44  68  98 135 186 233 289 353 423
#     4  11  23  43  72  94 144 185 223 302 347 417
#
# _framework density 25.574380999999999
#
# number of rings (size 3 to 8) (size 9 to 14) (size 15 to 20)
#    0.000    1.200    6.000    1.200    2.800    0.000 
#    7.200    0.000    4.400    0.000    0.000    0.000 
#    0.000    0.000    0.000    0.000    0.000    0.000 
#
# Total GULP energy -111922.009093 kJ/mol
# GULP energy per Si atom -5596.100455 kJ/mol
# Density = 2.551617 g / cm^3
# Si number density = 25.574381 Si / 1000 Ang^3
#
#
#
# Elastic Constant Matrix: (Units=GPa)
#
#
# Indices 1 2 3 4 5 6 
#
# 1 133.5540 54.2636 69.2581 0.0000 0.0000 0.0000
# 2 54.2636 68.0957 18.5177 0.0000 0.0000 0.0000
# 3 69.2581 18.5177 201.0742 0.0000 0.0000 0.0000
# 4 0.0000 0.0000 0.0000 30.3640 0.0000 0.0000
# 5 0.0000 0.0000 0.0000 0.0000 50.2343 0.0000
# 6 0.0000 0.0000 0.0000 0.0000 0.0000 8.3686
#
#
#
# Elastic Compliance Matrix: (Units=1/GPa)
#
#
# Indices 1 2 3 4 5 6 
#
# 1 0.013305 -0.009596 -0.003699 0.000000 0.000000 0.000000
# 2 -0.009596 0.021984 0.001281 0.000000 0.000000 0.000000
# 3 -0.003699 0.001281 0.006129 0.000000 0.000000 0.000000
# 4 0.000000 0.000000 0.000000 0.032934 0.000000 0.000000
# 5 0.000000 0.000000 0.000000 0.000000 0.019907 0.000000
# 6 0.000000 0.000000 0.000000 0.000000 0.000000 0.119494
#
#
# Mechanical properties :
#
#
# Convention : Reuss Voigt Hill
#
# Bulk Modulus (GPa) = 57.50706 76.31141 66.90923
# Shear Modulus (GPa) = 20.52731 35.17237 27.84984
#
# Velocity S-wave (km/s) = 2.83618 3.71252 3.30354
# Velocity P-wave (km/s) = 5.76717 6.94844 6.38518
#
# Compressibility (1/GPa) = 0.01738917
#
# Stress axis : x y z
#
# Youngs Moduli (GPa) = 75.16047 45.48755 163.14790
#
# Poissons Ratio (x) = 0.43652 0.60348
# Poissons Ratio (y) = 0.72127 -0.20896
# Poissons Ratio (z) = 0.27802 -0.05826
#
# Static dielectric constant tensor:
#      x y z
#    x 2.011390 0.000000 0.000000 
#    y 0.000000 2.064140 0.000000 
#    z 0.000000 0.000000 2.113690 
# 
# From -- ./inp_files/4775.got.cif
#   From: 2010.05.17/outbox.cif.g08.bks.cpg/sg34_3_cif.got.tgz:4775.got - 2010.06.03 17:23:11.
