data_PCOD9347434
_publ_section_title
;
Structure prediction by ZEFSAII (Michael W. Deem and Ramdas Pophale) SiO2 
 PCOD9347434
Probable space group: P N N 2
;
_chemical_formula_sum "Si O2"
_cell_formula_units_Z 32
_cell_length_a 8.023367
_cell_length_b 12.345202
_cell_length_c 15.757117
_cell_angle_alpha 90.000000
_cell_angle_beta 90.000000
_cell_angle_gamma 90.000000
_cell_volume 1560.743799
_symmetry_space_group_name_H-M "P N N 2"
_symmetry_group_IT_number 34
_symmetry_cell_setting 'orthorhombic'
loop_
_space_group_symop_operation_xyz
x,y,z
-x,-y,z
1/2-x,1/2+y,1/2+z
1/2+x,1/2-y,1/2+z
loop_
_atom_site_type_symbol
_atom_site_label
_atom_site_fract_x
_atom_site_fract_y
_atom_site_fract_z
Si Si1 0.357582 0.253553 0.607600
Si Si2 0.176923 0.357483 0.463588
Si Si3 0.375230 0.227102 0.316379
Si Si4 0.466471 0.628358 0.761881
Si Si5 0.441565 0.879752 0.467975
Si Si6 0.319469 0.552654 0.387671
Si Si7 0.906138 0.894662 0.705050
Si Si8 0.645454 0.730718 0.925888
O O1 0.265075 0.345493 0.553445
O O2 0.465794 0.309021 0.680050
O O3 0.470707 0.192525 0.539093
O O4 0.221826 0.170254 0.646299
O O5 0.282204 0.299703 0.387894
O O6 0.181931 0.480137 0.432887
O O7 0.006135 0.291904 0.469927
O O8 0.498381 0.152843 0.372580
O O9 0.469477 0.306461 0.250083
O O10 0.228620 0.156071 0.274798
O O11 0.500000 0.500000 0.758206
O O12 0.569617 0.680934 0.840162
O O13 0.243452 0.863322 0.473697
O O14 0.500000 0.000000 0.483288
O O15 0.500000 0.500000 0.409319
O O16 0.308348 0.553745 0.285887
O O17 0.285726 0.676070 0.413103
O O18 0.000000 0.000000 0.666700
#
# Coordination Sequence:
#
# PCOD9347434 Si02
#       8
#     4   4   4   4   4   4   4   4
#     4  11  25  42  59  96 141 161 217 280 339 385
#     4  10  22  38  63  96 125 173 214 269 325 395
#     4  10  20  40  65  89 119 167 231 254 319 405
#     4  11  24  42  64  94 125 174 213 280 330 396
#     4  11  23  41  63  92 128 176 214 279 337 393
#     4  11  18  38  68  97 122 169 221 266 324 392
#     4  11  21  40  69  97 130 174 215 273 328 393
#     4  11  22  41  67  92 127 168 236 263 317 410
#
# _framework density 20.503046000000001
#
# number of rings (size 3 to 8) (size 9 to 14) (size 15 to 20)
#    0.000    1.250    5.000    1.875    0.000    4.500 
#    0.000    2.500    0.000    0.000    0.000    0.000 
#    0.000    0.000    0.000    0.000    0.000    0.000 
#
# Total GULP energy -178601.817265 kJ/mol
# GULP energy per Si atom -5581.306790 kJ/mol
# Density = 2.045638 g / cm^3
# Si number density = 20.503046 Si / 1000 Ang^3
#
#
#
# Elastic Constant Matrix: (Units=GPa)
#
#
# Indices 1 2 3 4 5 6 
#
# 1 102.9780 28.7344 43.0638 0.0000 0.0000 0.0000
# 2 28.7344 101.5231 29.8005 0.0000 0.0000 0.0000
# 3 43.0638 29.8005 72.7857 0.0000 0.0000 0.0000
# 4 0.0000 0.0000 0.0000 12.7108 0.0000 0.0000
# 5 0.0000 0.0000 0.0000 0.0000 383.2857 0.0000
# 6 0.0000 0.0000 0.0000 0.0000 0.0000 34.2414
#
#
#
# Elastic Compliance Matrix: (Units=1/GPa)
#
#
# Indices 1 2 3 4 5 6 
#
# 1 0.013137 -0.001633 -0.007104 0.000000 0.000000 0.000000
# 2 -0.001633 0.011398 -0.003701 0.000000 0.000000 0.000000
# 3 -0.007104 -0.003701 0.019457 0.000000 0.000000 0.000000
# 4 0.000000 0.000000 0.000000 0.078673 0.000000 0.000000
# 5 0.000000 0.000000 0.000000 0.000000 0.002609 0.000000
# 6 0.000000 0.000000 0.000000 0.000000 0.000000 0.029204
#
#
# Mechanical properties :
#
#
# Convention : Reuss Voigt Hill
#
# Bulk Modulus (GPa) = 52.30822 53.38715 52.84769
# Shear Modulus (GPa) = 26.92111 97.76012 62.34061
#
# Velocity S-wave (km/s) = 3.62751 6.91262 5.52010
# Velocity P-wave (km/s) = 6.56604 9.47668 8.15231
#
# Compressibility (1/GPa) = 0.01911745
#
# Stress axis : x y z
#
# Youngs Moduli (GPa) = 76.11915 87.73123 51.39460
#
# Poissons Ratio (x) = 0.14326 0.36511
# Poissons Ratio (y) = 0.12430 0.19020
# Poissons Ratio (z) = 0.54076 0.32467
#
# Static dielectric constant tensor:
#      x y z
#    x 1.715970 0.000000 0.000000 
#    y 0.000000 1.755650 0.000000 
#    z 0.000000 0.000000 1.686600 
# 
# From -- ./inp_files/6567.got.cif
#   From: 2010.05.17/outbox.cif.g08.bks.cpg/sg34_4_cif.got.tgz:6567.got - 2010.06.03 17:23:11.
