data_PCOD9347034
_publ_section_title
;
Structure prediction by ZEFSAII (Michael W. Deem and Ramdas Pophale) SiO2 
 PCOD9347034
Probable space group: P N A 21
;
_chemical_formula_sum "Si O2"
_cell_formula_units_Z 16
_cell_length_a 9.576058
_cell_length_b 5.001928
_cell_length_c 12.120155
_cell_angle_alpha 90.000000
_cell_angle_beta 90.000000
_cell_angle_gamma 90.000000
_cell_volume 580.540306
_symmetry_space_group_name_H-M "P N A 21"
_symmetry_group_IT_number 33
_symmetry_cell_setting 'orthorhombic'
loop_
_space_group_symop_operation_xyz
x,y,z
-x,-y,1/2+z
1/2-x,1/2+y,1/2+z
1/2+x,1/2-y,z
loop_
_atom_site_type_symbol
_atom_site_label
_atom_site_fract_x
_atom_site_fract_y
_atom_site_fract_z
Si Si1 0.344805 0.074413 0.442390
Si Si2 0.532614 0.288746 0.248567
Si Si3 0.769552 0.285473 0.787622
Si Si4 0.078791 0.168141 0.583218
O O1 0.145022 0.447802 0.260166
O O2 0.196374 0.162261 0.490122
O O3 0.454370 0.152952 0.536809
O O4 0.314189 0.770360 0.401638
O O5 0.409113 0.220276 0.334434
O O6 0.613852 0.555980 0.284087
O O7 0.474967 0.379716 0.128266
O O8 0.659442 0.228055 0.690794
#
# Coordination Sequence:
#
# PCOD9347034 Si02
#       4
#     4   4   4   4
#     4  12  28  57  93 137 185 259 317 401 482 576
#     4  12  28  57  85 138 192 243 323 401 475 582
#     4  12  28  57  86 135 193 242 320 405 476 579
#     4  12  28  57  94 138 190 256 324 399 487 573
#
# _framework density 27.560533
#
# number of rings (size 3 to 8) (size 9 to 14) (size 15 to 20)
#    0.000    0.000    5.000    3.000    0.000    2.000 
#   13.500    0.000    0.000    0.000    0.000    0.000 
#    0.000    0.000    0.000    0.000    0.000    0.000 
#
# Total GULP energy -89667.299448 kJ/mol
# GULP energy per Si atom -5604.206215 kJ/mol
# Density = 2.749780 g / cm^3
# Si number density = 27.560533 Si / 1000 Ang^3
#
#
#
# Elastic Constant Matrix: (Units=GPa)
#
#
# Indices 1 2 3 4 5 6 
#
# 1 219.7964 98.0048 88.5974 0.0000 0.0000 0.0000
# 2 98.0048 163.4139 63.1307 0.0000 0.0000 0.0000
# 3 88.5974 63.1307 148.4089 0.0000 0.0000 0.0000
# 4 0.0000 0.0000 0.0000 64.1647 0.0000 0.0000
# 5 0.0000 0.0000 0.0000 0.0000 82.3285 0.0000
# 6 0.0000 0.0000 0.0000 0.0000 0.0000 60.4058
#
#
#
# Elastic Compliance Matrix: (Units=1/GPa)
#
#
# Indices 1 2 3 4 5 6 
#
# 1 0.007129 -0.003149 -0.002917 0.000000 0.000000 0.000000
# 2 -0.003149 0.008714 -0.001827 0.000000 0.000000 0.000000
# 3 -0.002917 -0.001827 0.009256 0.000000 0.000000 0.000000
# 4 0.000000 0.000000 0.000000 0.015585 0.000000 0.000000
# 5 0.000000 0.000000 0.000000 0.000000 0.012146 0.000000
# 6 0.000000 0.000000 0.000000 0.000000 0.000000 0.016555
#
#
# Mechanical properties :
#
#
# Convention : Reuss Voigt Hill
#
# Bulk Modulus (GPa) = 107.35648 114.56500 110.96074
# Shear Modulus (GPa) = 56.64103 60.17222 58.40662
#
# Velocity S-wave (km/s) = 4.53829 4.67762 4.60848
# Velocity P-wave (km/s) = 8.15469 8.41619 8.28647
#
# Compressibility (1/GPa) = 0.00931476
#
# Stress axis : x y z
#
# Youngs Moduli (GPa) = 140.26397 114.76161 108.03362
#
# Poissons Ratio (x) = 0.36138 0.31509
# Poissons Ratio (y) = 0.44169 0.19735
# Poissons Ratio (z) = 0.40909 0.20964
#
# Static dielectric constant tensor:
#      x y z
#    x 2.130360 0.000000 0.000000 
#    y 0.000000 2.243480 0.000000 
#    z 0.000000 0.000000 2.226290 
# 
# From -- ./inp_files/5677.got.cif
#   From: 2010.05.17/outbox.cif.g08.bks.cpg/sg33_3_cif.got.tgz:5677.got - 2010.06.03 17:15:25.
