data_PCOD9347517
_publ_section_title
;
Structure prediction by ZEFSAII (Michael W. Deem and Ramdas Pophale) SiO2 
 PCOD9347517
Probable space group: P N N 2
;
_chemical_formula_sum "Si O2"
_cell_formula_units_Z 32
_cell_length_a 11.483979
_cell_length_b 14.406800
_cell_length_c 7.906978
_cell_angle_alpha 90.000000
_cell_angle_beta 90.000000
_cell_angle_gamma 90.000000
_cell_volume 1308.188862
_symmetry_space_group_name_H-M "P N N 2"
_symmetry_group_IT_number 34
_symmetry_cell_setting 'orthorhombic'
loop_
_space_group_symop_operation_xyz
x,y,z
-x,-y,z
1/2-x,1/2+y,1/2+z
1/2+x,1/2-y,1/2+z
loop_
_atom_site_type_symbol
_atom_site_label
_atom_site_fract_x
_atom_site_fract_y
_atom_site_fract_z
Si Si1 0.639101 0.007320 0.033100
Si Si2 0.870899 0.472511 0.155976
Si Si3 0.977573 0.832362 0.831887
Si Si4 0.409232 0.188286 0.144516
Si Si5 0.961039 0.281778 0.282632
Si Si6 0.674600 0.364628 0.006595
Si Si7 0.692151 0.666644 0.568289
Si Si8 0.832881 0.798043 0.142006
O O1 0.713402 0.089166 0.111292
O O2 0.500000 0.000000 0.054468
O O3 0.661689 0.908142 0.123199
O O4 0.657414 0.024295 0.831873
O O5 0.887238 0.370676 0.236675
O O6 0.764232 0.450884 0.032206
O O7 0.000000 0.500000 0.088880
O O8 0.924967 0.869410 0.653543
O O9 0.012899 0.723580 0.796884
O O10 0.873756 0.842529 0.966125
O O11 0.096307 0.865885 0.926331
O O12 0.292976 0.249558 0.138463
O O13 0.484018 0.206224 0.978875
O O14 0.886299 0.193413 0.229635
O O15 0.074674 0.284150 0.170379
O O16 0.743135 0.264286 0.022606
O O17 0.637987 0.358572 0.810307
#
# Coordination Sequence:
#
# PCOD9347517 Si02
#       8
#     4   4   4   4   4   4   4   4
#     4  10  21  37  66  99 137 184 224 299 370 427
#     4   9  20  36  63  95 135 177 230 293 367 417
#     4  11  22  38  67 101 130 190 244 290 356 436
#     4  11  21  39  64  98 135 173 235 292 356 418
#     4   9  20  39  64  96 131 177 228 293 343 426
#     4  11  21  41  67  97 137 181 239 301 349 437
#     4  10  21  39  66 101 135 185 244 284 367 441
#     4  11  22  37  67  97 130 177 238 287 343 426
#
# _framework density 24.461302
#
# number of rings (size 3 to 8) (size 9 to 14) (size 15 to 20)
#    0.000    1.750    2.500    3.000    3.500    0.000 
#    0.000    6.250   11.000    3.750    0.000    0.000 
#    0.000    0.000    0.000    0.000    0.000    0.000 
#
# Total GULP energy -178147.517472 kJ/mol
# GULP energy per Si atom -5567.109921 kJ/mol
# Density = 2.440563 g / cm^3
# Si number density = 24.461302 Si / 1000 Ang^3
#
#
#
# Elastic Constant Matrix: (Units=GPa)
#
#
# Indices 1 2 3 4 5 6 
#
# 1 105.2894 26.1885 30.0629 0.0000 0.0000 0.0000
# 2 26.1885 44.2527 10.6186 0.0000 0.0000 0.0000
# 3 30.0629 10.6186 89.9389 0.0000 0.0000 0.0000
# 4 0.0000 0.0000 0.0000 13.0294 0.0000 0.0000
# 5 0.0000 0.0000 0.0000 0.0000 41.9430 0.0000
# 6 0.0000 0.0000 0.0000 0.0000 0.0000 35.1851
#
#
#
# Elastic Compliance Matrix: (Units=1/GPa)
#
#
# Indices 1 2 3 4 5 6 
#
# 1 0.012002 -0.006319 -0.003266 0.000000 0.000000 0.000000
# 2 -0.006319 0.026583 -0.001026 0.000000 0.000000 0.000000
# 3 -0.003266 -0.001026 0.012331 0.000000 0.000000 0.000000
# 4 0.000000 0.000000 0.000000 0.076749 0.000000 0.000000
# 5 0.000000 0.000000 0.000000 0.000000 0.023842 0.000000
# 6 0.000000 0.000000 0.000000 0.000000 0.000000 0.028421
#
#
# Mechanical properties :
#
#
# Convention : Reuss Voigt Hill
#
# Bulk Modulus (GPa) = 33.67628 41.46900 37.57264
# Shear Modulus (GPa) = 23.69116 29.53889 26.61502
#
# Velocity S-wave (km/s) = 3.11548 3.47879 3.30213
# Velocity P-wave (km/s) = 5.17094 5.75549 5.47103
#
# Compressibility (1/GPa) = 0.02969449
#
# Stress axis : x y z
#
# Youngs Moduli (GPa) = 83.32097 37.61760 81.09365
#
# Poissons Ratio (x) = 0.23770 0.26482
# Poissons Ratio (y) = 0.52650 0.08323
# Poissons Ratio (z) = 0.27210 0.03861
#
# Static dielectric constant tensor:
#      x y z
#    x 2.276280 0.000000 0.000000 
#    y 0.000000 2.233450 0.000000 
#    z 0.000000 0.000000 2.031680 
# 
# From -- ./inp_files/3358.got.cif
#   From: 2010.05.17/outbox.cif.g08.bks.cpg/sg34_2_cif.got.tgz:3358.got - 2010.06.03 17:23:11.
