data_PCOD9347906
_publ_section_title
;
Structure prediction by ZEFSAII (Michael W. Deem and Ramdas Pophale) SiO2 
 PCOD9347906
Probable space group: P N N 2
;
_chemical_formula_sum "Si O2"
_cell_formula_units_Z 28
_cell_length_a 20.148665
_cell_length_b 11.850207
_cell_length_c 5.318191
_cell_angle_alpha 90.000000
_cell_angle_beta 90.000000
_cell_angle_gamma 90.000000
_cell_volume 1269.802400
_symmetry_space_group_name_H-M "P N N 2"
_symmetry_group_IT_number 34
_symmetry_cell_setting 'orthorhombic'
loop_
_space_group_symop_operation_xyz
x,y,z
-x,-y,z
1/2-x,1/2+y,1/2+z
1/2+x,1/2-y,1/2+z
loop_
_atom_site_type_symbol
_atom_site_label
_atom_site_fract_x
_atom_site_fract_y
_atom_site_fract_z
Si Si1 0.407883 0.406825 0.708100
Si Si2 0.737385 0.379729 0.066636
Si Si3 0.664823 0.773148 0.981403
Si Si4 0.285761 0.403724 0.334291
Si Si5 0.946560 0.837532 0.158080
Si Si6 0.667972 0.001630 0.160241
Si Si7 0.610352 0.236317 0.142513
O O1 0.388702 0.324229 0.935657
O O2 0.343361 0.391890 0.536488
O O3 0.476033 0.357943 0.598479
O O4 0.419027 0.539629 0.745762
O O5 0.789675 0.318113 0.252532
O O6 0.696739 0.485837 0.176056
O O7 0.679642 0.288190 0.037728
O O8 0.780972 0.445811 0.859176
O O9 0.715130 0.710533 0.173363
O O10 0.631047 0.888568 0.072514
O O11 0.216385 0.443740 0.451472
O O12 0.936771 0.756063 0.399884
O O13 0.911529 0.798703 0.900013
O O14 0.621845 0.106369 0.225893
#
# Coordination Sequence:
#
# PCOD9347906 Si02
#       7
#     4   4   4   4   4   4   4
#     4  11  24  45  69 100 135 182 243 295 353 420
#     4  11  23  41  69 104 135 182 226 298 369 421
#     4  11  24  40  70 100 138 179 234 289 358 434
#     4  11  21  39  69  99 133 173 231 296 354 425
#     4  11  28  44  74 100 138 192 237 302 350 412
#     4  11  25  40  69 102 140 187 225 291 370 432
#     4  12  25  46  68 103 146 177 238 291 357 427
#
# _framework density 22.050674000000001
#
# number of rings (size 3 to 8) (size 9 to 14) (size 15 to 20)
#    0.000    0.857    1.429    6.000   10.000    1.143 
#    0.000    0.714    0.000    0.000    0.000    0.000 
#    0.000    0.000    0.000    0.000    0.000    0.000 
#
# Total GULP energy -156137.452954 kJ/mol
# GULP energy per Si atom -5576.337606 kJ/mol
# Density = 2.200049 g / cm^3
# Si number density = 22.050674 Si / 1000 Ang^3
#
#
#
# Elastic Constant Matrix: (Units=GPa)
#
#
# Indices 1 2 3 4 5 6 
#
# 1 25.4941 28.8071 -1.8912 0.0000 0.0000 0.0000
# 2 28.8071 165.4842 31.6759 0.0000 0.0000 0.0000
# 3 -1.8912 31.6759 51.7993 0.0000 0.0000 0.0000
# 4 0.0000 0.0000 0.0000 -20.6508 0.0000 0.0000
# 5 0.0000 0.0000 0.0000 0.0000 17.9737 0.0000
# 6 0.0000 0.0000 0.0000 0.0000 0.0000 11.7823
#
#
#
# Elastic Compliance Matrix: (Units=1/GPa)
#
#
# Indices 1 2 3 4 5 6 
#
# 1 0.051866 -0.010636 0.008398 0.000000 0.000000 0.000000
# 2 -0.010636 0.009025 -0.005907 0.000000 0.000000 0.000000
# 3 0.008398 -0.005907 0.023224 0.000000 0.000000 0.000000
# 4 0.000000 0.000000 0.000000 -0.048424 0.000000 0.000000
# 5 0.000000 0.000000 0.000000 0.000000 0.055637 0.000000
# 6 0.000000 0.000000 0.000000 0.000000 0.000000 0.084873
#
#
# Mechanical properties :
#
#
# Convention : Reuss Voigt Hill
#
# Bulk Modulus (GPa) = 14.74402 39.99568 27.36985
# Shear Modulus (GPa) = 23.24490 14.10008 18.67249
#
# Velocity S-wave (km/s) = 3.25030 2.53146 2.91314
# Velocity P-wave (km/s) = 4.55926 5.16932 4.87384
#
# Compressibility (1/GPa) = 0.06782413
#
# Stress axis : x y z
#
# Youngs Moduli (GPa) = 19.28042 110.80168 43.05841
#
# Poissons Ratio (x) = 1.17851 -0.36160
# Poissons Ratio (y) = 0.20507 0.25436
# Poissons Ratio (z) = -0.16191 0.65454
#
# Static dielectric constant tensor:
#      x y z
#    x 1.828610 0.000000 0.000000 
#    y 0.000000 1.859750 0.000000 
#    z 0.000000 0.000000 1.950850 
# 
# From -- ./inp_files/1005.got.cif
#   From: 2010.05.17/outbox.cif.g08.bks.cpg/sg34_1_cif.got.tgz:1005.got - 2010.06.03 17:23:11.
