data_PCOD9347310
_publ_section_title
;
Structure prediction by ZEFSAII (Michael W. Deem and Ramdas Pophale) SiO2 
 PCOD9347310
Probable space group: P N N 2
;
_chemical_formula_sum "Si O2"
_cell_formula_units_Z 26
_cell_length_a 9.393928
_cell_length_b 11.459593
_cell_length_c 10.679895
_cell_angle_alpha 90.000000
_cell_angle_beta 90.000000
_cell_angle_gamma 90.000000
_cell_volume 1149.697014
_symmetry_space_group_name_H-M "P N N 2"
_symmetry_group_IT_number 34
_symmetry_cell_setting 'orthorhombic'
loop_
_space_group_symop_operation_xyz
x,y,z
-x,-y,z
1/2-x,1/2+y,1/2+z
1/2+x,1/2-y,1/2+z
loop_
_atom_site_type_symbol
_atom_site_label
_atom_site_fract_x
_atom_site_fract_y
_atom_site_fract_z
Si Si1 0.482394 0.753872 0.977020
Si Si2 0.243888 0.893477 0.560350
Si Si3 0.818724 0.799425 0.723661
Si Si4 0.000000 0.000000 0.185337
Si Si5 0.509922 0.245935 0.692371
Si Si6 0.500000 0.000000 0.097936
Si Si7 0.500000 0.500000 0.237758
Si Si8 0.297483 0.964418 0.305567
O O1 0.438591 0.731702 0.835047
O O2 0.642665 0.704236 0.994098
O O3 0.384628 0.696410 0.083580
O O4 0.471643 0.890274 0.010283
O O5 0.377016 0.836503 0.627830
O O6 0.306078 0.979182 0.453471
O O7 0.131724 0.949631 0.656108
O O8 0.648011 0.809338 0.709606
O O9 0.843111 0.669103 0.776045
O O10 0.914187 0.892511 0.800804
O O11 0.993434 0.872173 0.122211
O O12 0.135160 0.981773 0.272144
O O13 0.378662 0.035910 0.198403
#
# Coordination Sequence:
#
# PCOD9347310 Si02
#       8
#     4   4   4   2   4   2   2   4
#     4  10  21  42  62  90 135 169 222 277 326 396
#     4  11  22  40  65  96 128 174 222 279 331 393
#     4   9  21  40  60  89 127 169 218 268 322 394
#     4  10  19  40  69  84 122 175 212 265 338 378
#     4  11  23  40  67  99 132 175 229 273 331 402
#     4  10  22  38  64  88 124 176 212 268 336 380
#     4  10  23  40  63  86 134 179 210 273 344 368
#     4  10  20  39  62  91 122 163 222 268 315 403
#
# _framework density 22.614653000000001
#
# number of rings (size 3 to 8) (size 9 to 14) (size 15 to 20)
#    0.000    1.846    3.077    1.385    2.154    3.077 
#    8.308    0.769    0.000    0.000    0.000    0.000 
#    0.000    0.000    0.000    0.000    0.000    0.000 
#
# Total GULP energy -144941.154905 kJ/mol
# GULP energy per Si atom -5574.659804 kJ/mol
# Density = 2.256318 g / cm^3
# Si number density = 22.614653 Si / 1000 Ang^3
#
#
#
# Elastic Constant Matrix: (Units=GPa)
#
#
# Indices 1 2 3 4 5 6 
#
# 1 83.4923 32.0118 4.2992 0.0000 0.0000 0.0000
# 2 32.0118 86.1344 -11.3439 0.0000 0.0000 0.0000
# 3 4.2992 -11.3439 43.3163 0.0000 0.0000 0.0000
# 4 0.0000 0.0000 0.0000 16.3463 0.0000 0.0000
# 5 0.0000 0.0000 0.0000 0.0000 51.2769 0.0000
# 6 0.0000 0.0000 0.0000 0.0000 0.0000 30.8605
#
#
#
# Elastic Compliance Matrix: (Units=1/GPa)
#
#
# Indices 1 2 3 4 5 6 
#
# 1 0.014314 -0.005704 -0.002914 0.000000 0.000000 0.000000
# 2 -0.005704 0.014297 0.004310 0.000000 0.000000 0.000000
# 3 -0.002914 0.004310 0.024504 0.000000 0.000000 0.000000
# 4 0.000000 0.000000 0.000000 0.061176 0.000000 0.000000
# 5 0.000000 0.000000 0.000000 0.000000 0.019502 0.000000
# 6 0.000000 0.000000 0.000000 0.000000 0.000000 0.032404
#
#
# Mechanical properties :
#
#
# Convention : Reuss Voigt Hill
#
# Bulk Modulus (GPa) = 22.47196 29.20858 25.84027
# Shear Modulus (GPa) = 26.36492 32.22845 29.29668
#
# Velocity S-wave (km/s) = 3.41813 3.77916 3.60317
# Velocity P-wave (km/s) = 5.05338 5.65567 5.36299
#
# Compressibility (1/GPa) = 0.04449991
#
# Stress axis : x y z
#
# Youngs Moduli (GPa) = 69.86147 69.94385 40.80953
#
# Poissons Ratio (x) = 0.39893 0.11893
# Poissons Ratio (y) = 0.39846 -0.17590
# Poissons Ratio (z) = 0.20360 -0.30148
#
# Static dielectric constant tensor:
#      x y z
#    x 1.751580 0.000000 0.000000 
#    y 0.000000 2.036330 0.000000 
#    z 0.000000 0.000000 1.833160 
# 
# From -- ./inp_files/4990.got.cif
#   From: 2010.05.17/outbox.cif.g08.bks.cpg/sg34_3_cif.got.tgz:4990.got - 2010.06.03 17:23:11.
