data_PCOD9347881
_publ_section_title
;
Structure prediction by ZEFSAII (Michael W. Deem and Ramdas Pophale) SiO2 
 PCOD9347881
Probable space group: P N N 2
;
_chemical_formula_sum "Si O2"
_cell_formula_units_Z 18
_cell_length_a 18.856995
_cell_length_b 4.938988
_cell_length_c 8.253570
_cell_angle_alpha 90.000000
_cell_angle_beta 90.000000
_cell_angle_gamma 90.000000
_cell_volume 768.691884
_symmetry_space_group_name_H-M "P N N 2"
_symmetry_group_IT_number 34
_symmetry_cell_setting 'orthorhombic'
loop_
_space_group_symop_operation_xyz
x,y,z
-x,-y,z
1/2-x,1/2+y,1/2+z
1/2+x,1/2-y,1/2+z
loop_
_atom_site_type_symbol
_atom_site_label
_atom_site_fract_x
_atom_site_fract_y
_atom_site_fract_z
Si Si1 0.393589 0.829848 0.462210
Si Si2 0.378062 0.230230 0.891304
Si Si3 0.299419 0.729834 0.756519
Si Si4 0.000000 0.000000 0.183720
Si Si5 0.632906 0.665482 0.263595
O O1 0.181966 0.929950 0.316675
O O2 0.323432 0.783651 0.571721
O O3 0.454526 0.704782 0.574028
O O4 0.387076 0.639013 0.306677
O O5 0.447593 0.320910 0.793874
O O6 0.350094 0.930247 0.857465
O O7 0.388618 0.268083 0.081469
O O8 0.217393 0.793585 0.776800
O O9 0.900158 0.366044 0.898536
#
# Coordination Sequence:
#
# PCOD9347881 Si02
#       5
#     4   4   4   2   4
#     4  11  25  42  69  94 135 176 216 274 323 401
#     4  11  25  42  69  94 135 176 216 276 326 400
#     4  11  22  42  67 100 135 171 210 270 347 398
#     4  10  26  50  62  92 134 190 228 256 340 396
#     4  12  23  41  68 105 128 166 224 280 330 381
#
# _framework density 23.416402999999999
#
# number of rings (size 3 to 8) (size 9 to 14) (size 15 to 20)
#    0.000    0.889    0.000    8.000    0.000    8.889 
#    0.000    4.444    0.000    0.000    0.000    0.000 
#    0.000    0.000    0.000    0.000    0.000    0.000 
#
# Total GULP energy -100931.418491 kJ/mol
# GULP energy per Si atom -5607.301027 kJ/mol
# Density = 2.336311 g / cm^3
# Si number density = 23.416403 Si / 1000 Ang^3
#
#
#
# Elastic Constant Matrix: (Units=GPa)
#
#
# Indices 1 2 3 4 5 6 
#
# 1 121.0065 -4.5806 21.4455 0.0000 0.0000 0.0000
# 2 -4.5806 51.4058 -8.3311 0.0000 0.0000 0.0000
# 3 21.4455 -8.3311 119.5073 0.0000 0.0000 0.0000
# 4 0.0000 0.0000 0.0000 40.5777 0.0000 0.0000
# 5 0.0000 0.0000 0.0000 0.0000 -16.3033 0.0000
# 6 0.0000 0.0000 0.0000 0.0000 0.0000 3.7425
#
#
#
# Elastic Compliance Matrix: (Units=1/GPa)
#
#
# Indices 1 2 3 4 5 6 
#
# 1 0.008549 0.000519 -0.001498 0.000000 0.000000 0.000000
# 2 0.000519 0.019707 0.001281 0.000000 0.000000 0.000000
# 3 -0.001498 0.001281 0.008726 0.000000 0.000000 0.000000
# 4 0.000000 0.000000 0.000000 0.024644 0.000000 0.000000
# 5 0.000000 0.000000 0.000000 0.000000 -0.061337 0.000000
# 6 0.000000 0.000000 0.000000 0.000000 0.000000 0.267198
#
#
# Mechanical properties :
#
#
# Convention : Reuss Voigt Hill
#
# Bulk Modulus (GPa) = 26.60620 34.33191 30.46905
# Shear Modulus (GPa) = 17.89479 24.49580 21.19530
#
# Velocity S-wave (km/s) = 2.76741 3.23785 3.01183
# Velocity P-wave (km/s) = 4.64740 5.35458 5.01347
#
# Compressibility (1/GPa) = 0.03758523
#
# Stress axis : x y z
#
# Youngs Moduli (GPa) = 116.97081 50.74379 114.60305
#
# Poissons Ratio (x) = -0.02634 0.17167
# Poissons Ratio (y) = -0.06071 -0.14677
# Poissons Ratio (z) = 0.17522 -0.06499
#
# Static dielectric constant tensor:
#      x y z
#    x 1.879200 0.000000 0.000000 
#    y 0.000000 1.820700 0.000000 
#    z 0.000000 0.000000 1.847940 
# 
# From -- ./inp_files/1561.got.cif
#   From: 2010.05.17/outbox.cif.g08.bks.cpg/sg34_1_cif.got.tgz:1561.got - 2010.06.03 17:23:11.
