data_PCOD9347000
_publ_section_title
;
Structure prediction by ZEFSAII (Michael W. Deem and Ramdas Pophale) SiO2 
 PCOD9347000
Probable space group: P N A 21
;
_chemical_formula_sum "Si O2"
_cell_formula_units_Z 24
_cell_length_a 9.795701
_cell_length_b 7.501960
_cell_length_c 12.330586
_cell_angle_alpha 90.000000
_cell_angle_beta 90.000000
_cell_angle_gamma 90.000000
_cell_volume 906.137244
_symmetry_space_group_name_H-M "P N A 21"
_symmetry_group_IT_number 33
_symmetry_cell_setting 'orthorhombic'
loop_
_space_group_symop_operation_xyz
x,y,z
-x,-y,1/2+z
1/2-x,1/2+y,1/2+z
1/2+x,1/2-y,z
loop_
_atom_site_type_symbol
_atom_site_label
_atom_site_fract_x
_atom_site_fract_y
_atom_site_fract_z
Si Si1 0.707705 0.704814 0.756210
Si Si2 0.870588 0.606998 0.196542
Si Si3 0.946249 0.877758 0.893914
Si Si4 0.578695 0.136143 0.940540
Si Si5 0.621743 0.794846 0.069803
Si Si6 0.673719 0.699830 0.518228
O O1 0.842392 0.735650 0.833361
O O2 0.581429 0.622597 0.820770
O O3 0.692297 0.612245 0.637106
O O4 0.677654 0.906187 0.717539
O O5 0.892334 0.680572 0.317531
O O6 0.754105 0.702745 0.122880
O O7 0.027262 0.610410 0.157873
O O8 0.010753 0.830430 0.010846
O O9 0.877252 0.067272 0.921033
O O10 0.432105 0.143683 0.994431
O O11 0.674820 0.275105 0.002071
O O12 0.640630 0.943783 0.975687
#
# Coordination Sequence:
#
# PCOD9347000 Si02
#       6
#     4   4   4   4   4   4
#     4  12  27  50  78 114 165 208 277 339 413 493
#     4  12  26  50  77 114 159 213 266 338 411 489
#     4  12  27  52  76 115 155 216 271 344 408 491
#     4  12  26  49  72 118 154 207 264 333 405 490
#     4  12  27  50  79 113 161 209 275 338 413 489
#     4  12  27  45  78 112 156 209 267 330 414 484
#
# _framework density 26.486055
#
# number of rings (size 3 to 8) (size 9 to 14) (size 15 to 20)
#    0.000    0.000    5.000    4.000    4.667    2.667 
#    0.000    0.000    0.000    0.000    0.000    0.000 
#    0.000    0.000    0.000    0.000    0.000    0.000 
#
# Total GULP energy -133799.368995 kJ/mol
# GULP energy per Si atom -5574.973708 kJ/mol
# Density = 2.642577 g / cm^3
# Si number density = 26.486055 Si / 1000 Ang^3
#
#
#
# Elastic Constant Matrix: (Units=GPa)
#
#
# Indices 1 2 3 4 5 6 
#
# 1 72.4128 27.8955 20.9791 0.0000 0.0000 0.0000
# 2 27.8955 81.1030 10.4956 0.0000 0.0000 0.0000
# 3 20.9791 10.4956 119.8779 0.0000 0.0000 0.0000
# 4 0.0000 0.0000 0.0000 26.1756 0.0000 0.0000
# 5 0.0000 0.0000 0.0000 0.0000 57.4214 0.0000
# 6 0.0000 0.0000 0.0000 0.0000 0.0000 31.2500
#
#
#
# Elastic Compliance Matrix: (Units=1/GPa)
#
#
# Indices 1 2 3 4 5 6 
#
# 1 0.016591 -0.005392 -0.002431 0.000000 0.000000 0.000000
# 2 -0.005392 0.014224 -0.000302 0.000000 0.000000 0.000000
# 3 -0.002431 -0.000302 0.008794 0.000000 0.000000 0.000000
# 4 0.000000 0.000000 0.000000 0.038204 0.000000 0.000000
# 5 0.000000 0.000000 0.000000 0.000000 0.017415 0.000000
# 6 0.000000 0.000000 0.000000 0.000000 0.000000 0.032000
#
#
# Mechanical properties :
#
#
# Convention : Reuss Voigt Hill
#
# Bulk Modulus (GPa) = 42.81109 43.57046 43.19078
# Shear Modulus (GPa) = 33.05487 37.23762 35.14624
#
# Velocity S-wave (km/s) = 3.53655 3.75364 3.64671
# Velocity P-wave (km/s) = 5.73367 5.93907 5.83727
#
# Compressibility (1/GPa) = 0.02335843
#
# Stress axis : x y z
#
# Youngs Moduli (GPa) = 60.27269 70.30562 113.71705
#
# Poissons Ratio (x) = 0.37908 0.27650
# Poissons Ratio (y) = 0.32499 0.03431
# Poissons Ratio (z) = 0.14655 0.02121
#
# Static dielectric constant tensor:
#      x y z
#    x 2.210380 0.000000 0.000000 
#    y 0.000000 2.333900 0.000000 
#    z 0.000000 0.000000 2.280710 
# 
# From -- ./inp_files/5749.got.cif
#   From: 2010.05.17/outbox.cif.g08.bks.cpg/sg33_3_cif.got.tgz:5749.got - 2010.06.03 17:15:25.
