data_PCOD9347805
_publ_section_title
;
Structure prediction by ZEFSAII (Michael W. Deem and Ramdas Pophale) SiO2 
 PCOD9347805
Probable space group: P N N 2
;
_chemical_formula_sum "Si O2"
_cell_formula_units_Z 22
_cell_length_a 11.613157
_cell_length_b 5.005565
_cell_length_c 16.141292
_cell_angle_alpha 90.000000
_cell_angle_beta 90.000000
_cell_angle_gamma 90.000000
_cell_volume 938.299958
_symmetry_space_group_name_H-M "P N N 2"
_symmetry_group_IT_number 34
_symmetry_cell_setting 'orthorhombic'
loop_
_space_group_symop_operation_xyz
x,y,z
-x,-y,z
1/2-x,1/2+y,1/2+z
1/2+x,1/2-y,1/2+z
loop_
_atom_site_type_symbol
_atom_site_label
_atom_site_fract_x
_atom_site_fract_y
_atom_site_fract_z
Si Si1 0.281413 0.294486 0.708530
Si Si2 0.302740 0.835088 0.389363
Si Si3 0.351690 0.273838 0.170819
Si Si4 0.924363 0.234033 0.488602
Si Si5 0.000000 0.000000 0.111173
Si Si6 0.500000 0.500000 0.308191
Si Si7 0.000000 0.500000 0.993486
O O1 0.260351 0.396521 0.802291
O O2 0.189796 0.472639 0.658937
O O3 0.401648 0.378919 0.669916
O O4 0.248367 0.984220 0.697570
O O5 0.199965 0.733666 0.446594
O O6 0.399272 0.622890 0.362161
O O7 0.385006 0.045905 0.437562
O O8 0.397844 0.355894 0.082078
O O9 0.444137 0.290229 0.244246
O O10 0.000000 0.500000 0.486963
O O11 0.000000 0.000000 0.447193
O O12 0.031175 0.246994 0.050865
#
# Coordination Sequence:
#
# PCOD9347805 Si02
#       7
#     4   4   4   4   2   2   2
#     4  11  25  43  72 103 145 185 238 296 352 428
#     4  11  26  46  73 109 146 188 241 304 362 417
#     4  11  23  45  71 104 136 187 245 291 347 418
#     4  12  27  45  72 105 151 190 233 294 366 436
#     4  12  25  46  71 106 142 192 234 286 363 430
#     4  10  23  46  75 108 132 190 242 302 335 420
#     4  12  26  48  76 102 142 190 242 298 348 424
#
# _framework density 23.446659
#
# number of rings (size 3 to 8) (size 9 to 14) (size 15 to 20)
#    0.000    0.727    0.909    6.000    3.818    7.273 
#    1.636    0.000    0.000    0.000    0.000    0.000 
#    0.000    0.000    0.000    0.000    0.000    0.000 
#
# Total GULP energy -123040.795266 kJ/mol
# GULP energy per Si atom -5592.763421 kJ/mol
# Density = 2.339329 g / cm^3
# Si number density = 23.446659 Si / 1000 Ang^3
#
#
#
# Elastic Constant Matrix: (Units=GPa)
#
#
# Indices 1 2 3 4 5 6 
#
# 1 150.7580 31.6391 80.2306 0.0000 0.0000 0.0000
# 2 31.6391 96.2434 22.1507 0.0000 0.0000 0.0000
# 3 80.2306 22.1507 125.3280 0.0000 0.0000 0.0000
# 4 0.0000 0.0000 0.0000 12.2845 0.0000 0.0000
# 5 0.0000 0.0000 0.0000 0.0000 -176.4694 0.0000
# 6 0.0000 0.0000 0.0000 0.0000 0.0000 41.9496
#
#
#
# Elastic Compliance Matrix: (Units=1/GPa)
#
#
# Indices 1 2 3 4 5 6 
#
# 1 0.010406 -0.001968 -0.006314 0.000000 0.000000 0.000000
# 2 -0.001968 0.011203 -0.000720 0.000000 0.000000 0.000000
# 3 -0.006314 -0.000720 0.012148 0.000000 0.000000 0.000000
# 4 0.000000 0.000000 0.000000 0.081404 0.000000 0.000000
# 5 0.000000 0.000000 0.000000 0.000000 -0.005667 0.000000
# 6 0.000000 0.000000 0.000000 0.000000 0.000000 0.023838
#
#
# Mechanical properties :
#
#
# Convention : Reuss Voigt Hill
#
# Bulk Modulus (GPa) = 63.47800 71.15226 67.31513
# Shear Modulus (GPa) = 31.93092 -8.55979 11.68557
#
# Velocity S-wave (km/s) = 3.69433 -1.91277 2.23489
# Velocity P-wave (km/s) = 6.73273 5.05313 5.95247
#
# Compressibility (1/GPa) = 0.01575349
#
# Stress axis : x y z
#
# Youngs Moduli (GPa) = 96.09574 89.26182 82.31571
#
# Poissons Ratio (x) = 0.17565 0.51974
# Poissons Ratio (y) = 0.18910 0.05929
# Poissons Ratio (z) = 0.60674 0.06430
#
# Static dielectric constant tensor:
#      x y z
#    x 2.140480 0.000000 0.000000 
#    y 0.000000 1.928380 0.000000 
#    z 0.000000 0.000000 1.916570 
# 
# From -- ./inp_files/6698.got.cif
#   From: 2010.05.17/outbox.cif.g08.bks.cpg/sg34_4_cif.got.tgz:6698.got - 2010.06.03 17:23:11.
