data_PCOD9347307
_publ_section_title
;
Structure prediction by ZEFSAII (Michael W. Deem and Ramdas Pophale) SiO2 
 PCOD9347307
Probable space group: P N N 2
;
_chemical_formula_sum "Si O2"
_cell_formula_units_Z 24
_cell_length_a 10.832470
_cell_length_b 13.936193
_cell_length_c 8.396159
_cell_angle_alpha 90.000000
_cell_angle_beta 90.000000
_cell_angle_gamma 90.000000
_cell_volume 1267.512647
_symmetry_space_group_name_H-M "P N N 2"
_symmetry_group_IT_number 34
_symmetry_cell_setting 'orthorhombic'
loop_
_space_group_symop_operation_xyz
x,y,z
-x,-y,z
1/2-x,1/2+y,1/2+z
1/2+x,1/2-y,1/2+z
loop_
_atom_site_type_symbol
_atom_site_label
_atom_site_fract_x
_atom_site_fract_y
_atom_site_fract_z
Si Si1 0.541635 0.403996 0.972060
Si Si2 0.928484 0.407598 0.416409
Si Si3 0.574125 0.250178 0.722763
Si Si4 0.847073 0.238207 0.635205
Si Si5 0.332860 0.539898 0.302600
Si Si6 0.952251 0.155369 0.937159
O O1 0.500000 0.500000 0.880828
O O2 0.608373 0.329511 0.856590
O O3 0.425498 0.343562 0.041819
O O4 0.619330 0.445489 0.121733
O O5 0.878930 0.338587 0.554401
O O6 0.811087 0.444028 0.317369
O O7 0.000000 0.500000 0.478674
O O8 0.016467 0.341916 0.308048
O O9 0.700596 0.221983 0.635104
O O10 0.469876 0.300090 0.611259
O O11 0.898562 0.232442 0.814547
O O12 0.409294 0.622564 0.392689
O O13 0.373268 0.440480 0.390293
#
# Coordination Sequence:
#
# PCOD9347307 Si02
#       6
#     4   4   4   4   4   4
#     4  10  21  38  63  89 120 160 209 259 311 374
#     4  11  24  40  61  92 130 166 210 263 321 374
#     4  11  24  38  65  95 124 163 215 257 319 381
#     4  10  21  42  59  90 126 161 210 260 306 384
#     4  10  19  40  62  84 124 166 202 258 313 376
#     4  10  20  39  66  87 120 167 205 255 317 370
#
# _framework density 18.934723000000002
#
# number of rings (size 3 to 8) (size 9 to 14) (size 15 to 20)
#    0.000    1.667    5.000    1.000    4.667    0.000 
#    3.000    2.500    0.000    0.000    0.000    0.000 
#    0.000    0.000    0.000    0.000    0.000    0.000 
#
# Total GULP energy -133742.975475 kJ/mol
# GULP energy per Si atom -5572.623978 kJ/mol
# Density = 1.889163 g / cm^3
# Si number density = 18.934723 Si / 1000 Ang^3
#
#
#
# Elastic Constant Matrix: (Units=GPa)
#
#
# Indices 1 2 3 4 5 6 
#
# 1 95.6035 44.4990 12.8986 0.0000 0.0000 0.0000
# 2 44.4990 89.1201 32.7929 0.0000 0.0000 0.0000
# 3 12.8986 32.7929 56.1102 0.0000 0.0000 0.0000
# 4 0.0000 0.0000 0.0000 22.4337 0.0000 0.0000
# 5 0.0000 0.0000 0.0000 0.0000 14.5954 0.0000
# 6 0.0000 0.0000 0.0000 0.0000 0.0000 15.3030
#
#
#
# Elastic Compliance Matrix: (Units=1/GPa)
#
#
# Indices 1 2 3 4 5 6 
#
# 1 0.013678 -0.007227 0.001079 0.000000 0.000000 0.000000
# 2 -0.007227 0.018113 -0.008925 0.000000 0.000000 0.000000
# 3 0.001079 -0.008925 0.022790 0.000000 0.000000 0.000000
# 4 0.000000 0.000000 0.000000 0.044576 0.000000 0.000000
# 5 0.000000 0.000000 0.000000 0.000000 0.068515 0.000000
# 6 0.000000 0.000000 0.000000 0.000000 0.000000 0.065347
#
#
# Mechanical properties :
#
#
# Convention : Reuss Voigt Hill
#
# Bulk Modulus (GPa) = 40.92209 46.80165 43.86187
# Shear Modulus (GPa) = 18.42922 20.50931 19.46926
#
# Velocity S-wave (km/s) = 3.12316 3.29471 3.21008
# Velocity P-wave (km/s) = 5.88767 6.26454 6.07903
#
# Compressibility (1/GPa) = 0.02443668
#
# Stress axis : x y z
#
# Youngs Moduli (GPa) = 73.11034 55.20826 43.87896
#
# Poissons Ratio (x) = 0.39898 -0.04736
# Poissons Ratio (y) = 0.52835 0.39161
# Poissons Ratio (z) = -0.07891 0.49272
#
# Static dielectric constant tensor:
#      x y z
#    x 1.670800 0.000000 0.000000 
#    y 0.000000 1.666510 0.000000 
#    z 0.000000 0.000000 1.671420 
# 
# From -- ./inp_files/3158.got.cif
#   From: 2010.05.17/outbox.cif.g08.bks.cpg/sg34_2_cif.got.tgz:3158.got - 2010.06.03 17:23:11.
