data_PCOD9347885
_publ_section_title
;
Structure prediction by ZEFSAII (Michael W. Deem and Ramdas Pophale) SiO2 
 PCOD9347885
Probable space group: P N N 2
;
_chemical_formula_sum "Si O2"
_cell_formula_units_Z 14
_cell_length_a 8.213652
_cell_length_b 5.009891
_cell_length_c 12.690361
_cell_angle_alpha 90.000000
_cell_angle_beta 90.000000
_cell_angle_gamma 90.000000
_cell_volume 522.202026
_symmetry_space_group_name_H-M "P N N 2"
_symmetry_group_IT_number 34
_symmetry_cell_setting 'orthorhombic'
loop_
_space_group_symop_operation_xyz
x,y,z
-x,-y,z
1/2-x,1/2+y,1/2+z
1/2+x,1/2-y,1/2+z
loop_
_atom_site_type_symbol
_atom_site_label
_atom_site_fract_x
_atom_site_fract_y
_atom_site_fract_z
Si Si1 0.682252 0.772767 0.457880
Si Si2 0.140066 0.699105 0.495960
Si Si3 0.000000 0.500000 0.149775
Si Si4 0.843112 0.193908 0.729640
O O1 0.709025 0.456233 0.444845
O O2 0.572008 0.797753 0.561711
O O3 0.644869 0.851766 0.338303
O O4 0.830085 0.984677 0.483688
O O5 0.149363 0.644808 0.620699
O O6 0.000000 0.500000 0.455369
O O7 0.842013 0.575012 0.218810
O O8 0.000000 0.000000 0.724312
#
# Coordination Sequence:
#
# PCOD9347885 Si02
#       4
#     4   4   2   4
#     4  11  27  47  80 115 163 211 271 348 407 486
#     4  11  25  50  75 118 160 206 276 334 406 500
#     4  10  26  54  76 118 164 204 278 340 404 502
#     4  11  27  49  84 118 160 224 272 338 426 490
#
# _framework density 26.809546999999998
#
# number of rings (size 3 to 8) (size 9 to 14) (size 15 to 20)
#    0.000    1.143    0.000    4.286   12.000    4.571 
#    5.143    0.000    0.000    0.000    0.000    0.000 
#    0.000    0.000    0.000    0.000    0.000    0.000 
#
# Total GULP energy -77947.136921 kJ/mol
# GULP energy per Si atom -5567.652637 kJ/mol
# Density = 2.674853 g / cm^3
# Si number density = 26.809547 Si / 1000 Ang^3
#
#
#
# Elastic Constant Matrix: (Units=GPa)
#
#
# Indices 1 2 3 4 5 6 
#
# 1 194.3571 43.7828 42.7454 0.0000 0.0000 0.0000
# 2 43.7828 113.2614 4.2174 0.0000 0.0000 0.0000
# 3 42.7454 4.2174 189.5209 0.0000 0.0000 0.0000
# 4 0.0000 0.0000 0.0000 -31.9127 0.0000 0.0000
# 5 0.0000 0.0000 0.0000 0.0000 256.4652 0.0000
# 6 0.0000 0.0000 0.0000 0.0000 0.0000 54.1638
#
#
#
# Elastic Compliance Matrix: (Units=1/GPa)
#
#
# Indices 1 2 3 4 5 6 
#
# 1 0.005935 -0.002246 -0.001289 0.000000 0.000000 0.000000
# 2 -0.002246 0.009687 0.000291 0.000000 0.000000 0.000000
# 3 -0.001289 0.000291 0.005561 0.000000 0.000000 0.000000
# 4 0.000000 0.000000 0.000000 -0.031335 0.000000 0.000000
# 5 0.000000 0.000000 0.000000 0.000000 0.003899 0.000000
# 6 0.000000 0.000000 0.000000 0.000000 0.000000 0.018463
#
#
# Mechanical properties :
#
#
# Convention : Reuss Voigt Hill
#
# Bulk Modulus (GPa) = 68.05248 75.40340 71.72794
# Shear Modulus (GPa) = 211.92507 82.83617 147.38062
#
# Velocity S-wave (km/s) = 8.90056 5.56463 7.42243
# Velocity P-wave (km/s) = 11.44838 8.33507 10.01346
#
# Compressibility (1/GPa) = 0.01469454
#
# Stress axis : x y z
#
# Youngs Moduli (GPa) = 168.50525 103.23580 179.83653
#
# Poissons Ratio (x) = 0.23188 0.23172
# Poissons Ratio (y) = 0.37848 -0.05234
# Poissons Ratio (z) = 0.21712 -0.03005
#
# Static dielectric constant tensor:
#      x y z
#    x 2.268360 0.000000 0.000000 
#    y 0.000000 2.231470 0.000000 
#    z 0.000000 0.000000 1.994550 
# 
# From -- ./inp_files/5924.got.cif
#   From: 2010.05.17/outbox.cif.g08.bks.cpg/sg34_3_cif.got.tgz:5924.got - 2010.06.03 17:23:11.
