data_PCOD9347175
_publ_section_title
;
Structure prediction by ZEFSAII (Michael W. Deem and Ramdas Pophale) SiO2 
 PCOD9347175
Probable space group: P N N 2
;
_chemical_formula_sum "Si O2"
_cell_formula_units_Z 30
_cell_length_a 8.711093
_cell_length_b 12.117250
_cell_length_c 13.806761
_cell_angle_alpha 90.000000
_cell_angle_beta 90.000000
_cell_angle_gamma 90.000000
_cell_volume 1457.365639
_symmetry_space_group_name_H-M "P N N 2"
_symmetry_group_IT_number 34
_symmetry_cell_setting 'orthorhombic'
loop_
_space_group_symop_operation_xyz
x,y,z
-x,-y,z
1/2-x,1/2+y,1/2+z
1/2+x,1/2-y,1/2+z
loop_
_atom_site_type_symbol
_atom_site_label
_atom_site_fract_x
_atom_site_fract_y
_atom_site_fract_z
Si Si1 0.852696 0.700009 0.111320
Si Si2 0.758326 0.695733 0.769111
Si Si3 0.549764 0.800104 0.169809
Si Si4 0.073502 0.889613 0.087530
Si Si5 0.380304 0.908964 0.989199
Si Si6 0.500000 0.000000 0.496602
Si Si7 0.778540 0.443273 0.830683
Si Si8 0.450298 0.743646 0.828530
O O1 0.670368 0.720727 0.116970
O O2 0.900991 0.707122 0.224650
O O3 0.939821 0.803497 0.059231
O O4 0.907181 0.588054 0.061121
O O5 0.666092 0.676218 0.669394
O O6 0.781190 0.573245 0.810609
O O7 0.634012 0.753123 0.837018
O O8 0.918744 0.750451 0.739974
O O9 0.642534 0.883394 0.239078
O O10 0.461272 0.868294 0.087964
O O11 0.202755 0.934073 0.013650
O O12 0.000000 0.000000 0.130926
O O13 0.373174 0.810829 0.913326
O O14 0.500000 0.000000 0.950730
O O15 0.617775 0.933092 0.426961
O O16 0.615350 0.381074 0.837124
#
# Coordination Sequence:
#
# PCOD9347175 Si02
#       8
#     4   4   4   4   4   2   4   4
#     4  10  23  40  59  89 127 173 206 262 326 396
#     4  10  18  35  61  90 120 156 207 276 315 367
#     4  10  20  37  62  91 122 151 215 273 323 361
#     4  10  19  37  62  88 121 159 215 268 320 366
#     4  11  22  35  59  88 120 162 209 268 316 386
#     4  12  24  36  66  90 134 170 214 262 336 400
#     4  11  20  37  60  94 120 162 214 275 317 380
#     4  10  23  38  59  84 127 169 214 250 330 391
#
# _framework density 20.585089
#
# number of rings (size 3 to 8) (size 9 to 14) (size 15 to 20)
#    0.000    1.600    1.333    6.000    2.800    0.000 
#    0.000    0.000    0.000    0.000    0.000    0.000 
#    0.000    0.000    0.000    0.000    0.000    0.000 
#
# Total GULP energy -167261.390275 kJ/mol
# GULP energy per Si atom -5575.379676 kJ/mol
# Density = 2.053824 g / cm^3
# Si number density = 20.585089 Si / 1000 Ang^3
#
#
#
# Elastic Constant Matrix: (Units=GPa)
#
#
# Indices 1 2 3 4 5 6 
#
# 1 113.2578 22.4428 16.5252 0.0000 0.0000 0.0000
# 2 22.4428 54.3449 23.1727 0.0000 0.0000 0.0000
# 3 16.5252 23.1727 47.7735 0.0000 0.0000 0.0000
# 4 0.0000 0.0000 0.0000 15.3830 0.0000 0.0000
# 5 0.0000 0.0000 0.0000 0.0000 -17.9644 0.0000
# 6 0.0000 0.0000 0.0000 0.0000 0.0000 19.7847
#
#
#
# Elastic Compliance Matrix: (Units=1/GPa)
#
#
# Indices 1 2 3 4 5 6 
#
# 1 0.009736 -0.003259 -0.001787 0.000000 0.000000 0.000000
# 2 -0.003259 0.024290 -0.010655 0.000000 0.000000 0.000000
# 3 -0.001787 -0.010655 0.026718 0.000000 0.000000 0.000000
# 4 0.000000 0.000000 0.000000 0.065007 0.000000 0.000000
# 5 0.000000 0.000000 0.000000 0.000000 -0.055666 0.000000
# 6 0.000000 0.000000 0.000000 0.000000 0.000000 0.050544
#
#
# Mechanical properties :
#
#
# Convention : Reuss Voigt Hill
#
# Bulk Modulus (GPa) = 34.07933 37.73973 35.90953
# Shear Modulus (GPa) = 30.90023 13.65637 22.27830
#
# Velocity S-wave (km/s) = 3.87860 2.57847 3.29333
# Velocity P-wave (km/s) = 6.05387 5.21900 5.65188
#
# Compressibility (1/GPa) = 0.02934330
#
# Stress axis : x y z
#
# Youngs Moduli (GPa) = 102.71285 41.16947 37.42737
#
# Poissons Ratio (x) = 0.13415 0.06689
# Poissons Ratio (y) = 0.33470 0.39878
# Poissons Ratio (z) = 0.18356 0.43865
#
# Static dielectric constant tensor:
#      x y z
#    x 1.847180 0.000000 0.000000 
#    y 0.000000 1.723310 0.000000 
#    z 0.000000 0.000000 1.750700 
# 
# From -- ./inp_files/6544.got.cif
#   From: 2010.05.17/outbox.cif.g08.bks.cpg/sg34_4_cif.got.tgz:6544.got - 2010.06.03 17:23:11.
