data_PCOD9347160
_publ_section_title
;
Structure prediction by ZEFSAII (Michael W. Deem and Ramdas Pophale) SiO2 
 PCOD9347160
Probable space group: P N N 2
;
_chemical_formula_sum "Si O2"
_cell_formula_units_Z 32
_cell_length_a 16.602119
_cell_length_b 11.504078
_cell_length_c 6.401857
_cell_angle_alpha 90.000000
_cell_angle_beta 90.000000
_cell_angle_gamma 90.000000
_cell_volume 1222.703933
_symmetry_space_group_name_H-M "P N N 2"
_symmetry_group_IT_number 34
_symmetry_cell_setting 'orthorhombic'
loop_
_space_group_symop_operation_xyz
x,y,z
-x,-y,z
1/2-x,1/2+y,1/2+z
1/2+x,1/2-y,1/2+z
loop_
_atom_site_type_symbol
_atom_site_label
_atom_site_fract_x
_atom_site_fract_y
_atom_site_fract_z
Si Si1 0.304830 0.236397 0.893830
Si Si2 0.927784 0.921937 0.456520
Si Si3 0.120900 0.893938 0.762669
Si Si4 0.290751 0.858849 0.896940
Si Si5 0.492046 0.782415 0.218561
Si Si6 0.165571 0.391471 0.908624
Si Si7 0.735176 0.393932 0.778720
Si Si8 0.918842 0.451362 0.414787
O O1 0.234840 0.313909 0.791973
O O2 0.368698 0.148081 0.790595
O O3 0.351479 0.324805 0.049805
O O4 0.259303 0.148483 0.050912
O O5 0.955153 0.792924 0.523166
O O6 0.854542 0.940734 0.300361
O O7 0.905255 0.981590 0.678529
O O8 0.000000 0.000000 0.373592
O O9 0.199629 0.906734 0.902218
O O10 0.049017 0.810581 0.839285
O O11 0.319570 0.869761 0.653120
O O12 0.276471 0.721601 0.916932
O O13 0.360444 0.942712 0.986780
O O14 0.421200 0.840292 0.351685
O O15 0.546656 0.882866 0.116335
O O16 0.197383 0.521561 0.870118
O O17 0.000000 0.500000 0.307147
#
# Coordination Sequence:
#
# PCOD9347160 Si02
#       8
#     4   4   4   4   4   4   4   4
#     4   9  20  35  61  89 128 164 215 266 318 398
#     4  10  18  33  61  88 122 166 217 268 324 396
#     4   8  17  37  55  92 120 166 205 262 315 393
#     4  10  22  39  63  86 133 171 214 266 333 396
#     4  10  21  34  65  96 123 164 224 271 327 390
#     4  10  20  38  63  95 128 172 218 276 329 391
#     4  10  18  36  59  86 124 171 217 257 330 382
#     4  11  22  40  58  90 128 165 213 274 324 390
#
# _framework density 26.171500999999999
#
# number of rings (size 3 to 8) (size 9 to 14) (size 15 to 20)
#    0.000    2.500    2.500    1.500    1.750    0.000 
#    0.000    4.375    5.500    0.000    0.000    0.000 
#    0.000    0.000    0.000    0.000    0.000    0.000 
#
# Total GULP energy -178763.175749 kJ/mol
# GULP energy per Si atom -5586.349242 kJ/mol
# Density = 2.611193 g / cm^3
# Si number density = 26.171501 Si / 1000 Ang^3
#
#
#
# Elastic Constant Matrix: (Units=GPa)
#
#
# Indices 1 2 3 4 5 6 
#
# 1 185.6633 78.6210 14.2880 0.0000 0.0000 0.0000
# 2 78.6210 170.7232 16.5380 0.0000 0.0000 0.0000
# 3 14.2880 16.5380 30.1726 0.0000 0.0000 0.0000
# 4 0.0000 0.0000 0.0000 8.3794 0.0000 0.0000
# 5 0.0000 0.0000 0.0000 0.0000 33.3144 0.0000
# 6 0.0000 0.0000 0.0000 0.0000 0.0000 73.0878
#
#
#
# Elastic Compliance Matrix: (Units=1/GPa)
#
#
# Indices 1 2 3 4 5 6 
#
# 1 0.006761 -0.002961 -0.001579 0.000000 0.000000 0.000000
# 2 -0.002961 0.007482 -0.002699 0.000000 0.000000 0.000000
# 3 -0.001579 -0.002699 0.035370 0.000000 0.000000 0.000000
# 4 0.000000 0.000000 0.000000 0.119340 0.000000 0.000000
# 5 0.000000 0.000000 0.000000 0.000000 0.030017 0.000000
# 6 0.000000 0.000000 0.000000 0.000000 0.000000 0.013682
#
#
# Mechanical properties :
#
#
# Convention : Reuss Voigt Hill
#
# Bulk Modulus (GPa) = 28.46101 67.27256 47.86678
# Shear Modulus (GPa) = 20.93431 41.43047 31.18239
#
# Velocity S-wave (km/s) = 2.83130 3.98306 3.45550
# Velocity P-wave (km/s) = 4.64616 6.84933 5.85235
#
# Compressibility (1/GPa) = 0.03513579
#
# Stress axis : x y z
#
# Youngs Moduli (GPa) = 147.89893 133.64708 28.27272
#
# Poissons Ratio (x) = 0.39570 0.04464
# Poissons Ratio (y) = 0.43790 0.07631
# Poissons Ratio (z) = 0.23352 0.36073
#
# Static dielectric constant tensor:
#      x y z
#    x 2.174470 0.000000 0.000000 
#    y 0.000000 2.125700 0.000000 
#    z 0.000000 0.000000 2.189020 
# 
# From -- ./inp_files/3939.got.cif
#   From: 2010.05.17/outbox.cif.g08.bks.cpg/sg34_2_cif.got.tgz:3939.got - 2010.06.03 17:23:11.
