data_PCOD9347901
_publ_section_title
;
Structure prediction by ZEFSAII (Michael W. Deem and Ramdas Pophale) SiO2 
 PCOD9347901
Probable space group: P N N 2
;
_chemical_formula_sum "Si O2"
_cell_formula_units_Z 30
_cell_length_a 5.349087
_cell_length_b 14.376701
_cell_length_c 16.410242
_cell_angle_alpha 90.000000
_cell_angle_beta 90.000000
_cell_angle_gamma 90.000000
_cell_volume 1261.984113
_symmetry_space_group_name_H-M "P N N 2"
_symmetry_group_IT_number 34
_symmetry_cell_setting 'orthorhombic'
loop_
_space_group_symop_operation_xyz
x,y,z
-x,-y,z
1/2-x,1/2+y,1/2+z
1/2+x,1/2-y,1/2+z
loop_
_atom_site_type_symbol
_atom_site_label
_atom_site_fract_x
_atom_site_fract_y
_atom_site_fract_z
Si Si1 0.175764 0.627566 0.063440
Si Si2 0.381014 0.600423 0.229693
Si Si3 0.765154 0.774040 0.219958
Si Si4 0.678238 0.086996 0.335863
Si Si5 0.500000 0.500000 0.961034
Si Si6 0.747177 0.479034 0.676031
Si Si7 0.311477 0.219273 0.854333
Si Si8 0.691492 0.736649 0.037045
O O1 0.168999 0.611086 0.160265
O O2 0.282919 0.537653 0.018425
O O3 0.411721 0.697961 0.052908
O O4 0.914312 0.660677 0.027575
O O5 0.500000 0.500000 0.219855
O O6 0.577875 0.685518 0.219230
O O7 0.273524 0.621312 0.318116
O O8 0.710618 0.884621 0.227807
O O9 0.801497 0.783222 0.119798
O O10 0.969260 0.750387 0.290197
O O11 0.610455 0.195648 0.341162
O O12 0.500000 0.000000 0.359231
O O13 0.907266 0.079490 0.399807
O O14 0.773163 0.058463 0.246431
O O15 0.500000 0.500000 0.626130
O O16 0.000000 0.500000 0.628663
O O17 0.339566 0.211831 0.951010
#
# Coordination Sequence:
#
# PCOD9347901 Si02
#       8
#     4   4   4   4   2   4   4   4
#     4  11  24  43  65 104 140 186 235 308 369 449
#     4  11  25  46  70  99 141 201 256 302 367 437
#     4  11  25  45  71 104 143 192 240 307 367 448
#     4  11  21  35  62 105 137 172 221 285 373 442
#     4  12  20  34  60  96 142 168 226 296 378 440
#     4  11  22  39  68 105 140 178 222 282 367 445
#     4  12  23  44  72 100 143 192 238 303 362 446
#     4  11  26  44  70 102 144 186 246 298 374 430
#
# _framework density 23.772089999999999
#
# number of rings (size 3 to 8) (size 9 to 14) (size 15 to 20)
#    0.000    0.800    5.333    2.400    1.867    0.533 
#    0.000    0.667    2.933    0.000    0.000    0.000 
#    0.000    0.000    0.000    0.000    0.000    0.000 
#
# Total GULP energy -167101.663282 kJ/mol
# GULP energy per Si atom -5570.055443 kJ/mol
# Density = 2.371798 g / cm^3
# Si number density = 23.772090 Si / 1000 Ang^3
#
#
#
# Elastic Constant Matrix: (Units=GPa)
#
#
# Indices 1 2 3 4 5 6 
#
# 1 85.6815 10.9727 6.6911 0.0000 0.0000 0.0000
# 2 10.9727 61.0508 13.5500 0.0000 0.0000 0.0000
# 3 6.6911 13.5500 156.9796 0.0000 0.0000 0.0000
# 4 0.0000 0.0000 0.0000 18.7483 0.0000 0.0000
# 5 0.0000 0.0000 0.0000 0.0000 8.4106 0.0000
# 6 0.0000 0.0000 0.0000 0.0000 0.0000 22.6807
#
#
#
# Elastic Compliance Matrix: (Units=1/GPa)
#
#
# Indices 1 2 3 4 5 6 
#
# 1 0.011963 -0.002077 -0.000331 0.000000 0.000000 0.000000
# 2 -0.002077 0.017060 -0.001384 0.000000 0.000000 0.000000
# 3 -0.000331 -0.001384 0.006504 0.000000 0.000000 0.000000
# 4 0.000000 0.000000 0.000000 0.053338 0.000000 0.000000
# 5 0.000000 0.000000 0.000000 0.000000 0.118897 0.000000
# 6 0.000000 0.000000 0.000000 0.000000 0.000000 0.044090
#
#
# Mechanical properties :
#
#
# Convention : Reuss Voigt Hill
#
# Bulk Modulus (GPa) = 35.78574 40.68216 38.23395
# Shear Modulus (GPa) = 18.60462 28.13447 23.36955
#
# Velocity S-wave (km/s) = 2.80058 3.44395 3.13879
# Velocity P-wave (km/s) = 5.05411 5.74151 5.40874
#
# Compressibility (1/GPa) = 0.02794409
#
# Stress axis : x y z
#
# Youngs Moduli (GPa) = 83.59178 58.61582 153.75584
#
# Poissons Ratio (x) = 0.12173 0.05084
# Poissons Ratio (y) = 0.17360 0.21281
# Poissons Ratio (z) = 0.02764 0.08113
#
# Static dielectric constant tensor:
#      x y z
#    x 2.238110 0.000000 0.000000 
#    y 0.000000 1.987670 0.000000 
#    z 0.000000 0.000000 1.964260 
# 
# From -- ./inp_files/7244.got.cif
#   From: 2010.05.17/outbox.cif.g08.bks.cpg/sg34_4_cif.got.tgz:7244.got - 2010.06.03 17:23:11.
