data_PCOD9347227
_publ_section_title
;
Structure prediction by ZEFSAII (Michael W. Deem and Ramdas Pophale) SiO2 
 PCOD9347227
Probable space group: P N N 2
;
_chemical_formula_sum "Si O2"
_cell_formula_units_Z 24
_cell_length_a 5.040910
_cell_length_b 9.697529
_cell_length_c 24.540250
_cell_angle_alpha 90.000000
_cell_angle_beta 90.000000
_cell_angle_gamma 90.000000
_cell_volume 1199.634683
_symmetry_space_group_name_H-M "P N N 2"
_symmetry_group_IT_number 34
_symmetry_cell_setting 'orthorhombic'
loop_
_space_group_symop_operation_xyz
x,y,z
-x,-y,z
1/2-x,1/2+y,1/2+z
1/2+x,1/2-y,1/2+z
loop_
_atom_site_type_symbol
_atom_site_label
_atom_site_fract_x
_atom_site_fract_y
_atom_site_fract_z
Si Si1 0.246979 0.399481 0.353520
Si Si2 0.750213 0.598813 0.473600
Si Si3 0.263155 0.407093 0.698423
Si Si4 0.068052 0.836846 0.743258
Si Si5 0.218822 0.874835 0.625782
Si Si6 0.720664 0.737908 0.586982
O O1 0.500000 0.500000 0.358011
O O2 0.208795 0.334476 0.413562
O O3 0.298293 0.303911 0.301156
O O4 0.000000 0.500000 0.342295
O O5 0.500000 0.500000 0.469772
O O6 0.693894 0.694877 0.524829
O O7 0.000000 0.500000 0.484564
O O8 0.500000 0.500000 0.721999
O O9 0.336694 0.368121 0.636048
O O10 0.000000 0.500000 0.698209
O O11 0.174723 0.265909 0.729361
O O12 0.248264 0.832524 0.689146
O O13 0.000000 0.000000 0.746837
O O14 0.511015 0.860497 0.600283
O O15 0.033245 0.765690 0.595048
O O16 0.000000 0.000000 0.625739
#
# Coordination Sequence:
#
# PCOD9347227 Si02
#       6
#     4   4   4   4   4   4
#     4   9  19  33  54  81 106 137 184 238 284 325
#     4  10  19  33  53  80 109 139 180 230 281 335
#     4  11  22  35  53  83 117 150 185 231 290 349
#     4   9  20  37  58  81 111 148 192 235 283 341
#     4  10  21  34  53  80 106 140 187 236 279 333
#     4  11  20  34  54  77 109 148 180 224 289 347
#
# _framework density 20.006091000000001
#
# number of rings (size 3 to 8) (size 9 to 14) (size 15 to 20)
#    0.000    2.000    0.000    4.500    0.000    9.333 
#    0.000    0.000    0.000    3.000    0.000    0.000 
#    0.000    0.000    0.000    0.000    0.000    0.000 
#
# Total GULP energy -133605.712801 kJ/mol
# GULP energy per Si atom -5566.904700 kJ/mol
# Density = 1.996056 g / cm^3
# Si number density = 20.006091 Si / 1000 Ang^3
#
#
#
# Elastic Constant Matrix: (Units=GPa)
#
#
# Indices 1 2 3 4 5 6 
#
# 1 136.2065 33.9597 29.9295 0.0000 0.0000 0.0000
# 2 33.9597 75.4080 37.5052 0.0000 0.0000 0.0000
# 3 29.9295 37.5052 185.3035 0.0000 0.0000 0.0000
# 4 0.0000 0.0000 0.0000 22.7135 0.0000 0.0000
# 5 0.0000 0.0000 0.0000 0.0000 43.7441 0.0000
# 6 0.0000 0.0000 0.0000 0.0000 0.0000 18.3808
#
#
#
# Elastic Compliance Matrix: (Units=1/GPa)
#
#
# Indices 1 2 3 4 5 6 
#
# 1 0.008341 -0.003432 -0.000653 0.000000 0.000000 0.000000
# 2 -0.003432 0.016157 -0.002716 0.000000 0.000000 0.000000
# 3 -0.000653 -0.002716 0.006052 0.000000 0.000000 0.000000
# 4 0.000000 0.000000 0.000000 0.044027 0.000000 0.000000
# 5 0.000000 0.000000 0.000000 0.000000 0.022860 0.000000
# 6 0.000000 0.000000 0.000000 0.000000 0.000000 0.054404
#
#
# Mechanical properties :
#
#
# Convention : Reuss Voigt Hill
#
# Bulk Modulus (GPa) = 58.99907 66.63409 62.81658
# Shear Modulus (GPa) = 29.22410 36.66926 32.94668
#
# Velocity S-wave (km/s) = 3.82614 4.28589 4.06252
# Velocity P-wave (km/s) = 7.00526 7.60730 7.31248
#
# Compressibility (1/GPa) = 0.01694942
#
# Stress axis : x y z
#
# Youngs Moduli (GPa) = 119.89268 61.89092 165.24365
#
# Poissons Ratio (x) = 0.21239 0.10784
# Poissons Ratio (y) = 0.41143 0.44880
# Poissons Ratio (z) = 0.07824 0.16809
#
# Static dielectric constant tensor:
#      x y z
#    x 1.709820 0.000000 0.000000 
#    y 0.000000 1.834580 0.000000 
#    z 0.000000 0.000000 1.765060 
# 
# From -- ./inp_files/8269.got.cif
#   From: 2010.05.17/outbox.cif.g08.bks.cpg/sg34_5_cif.got.tgz:8269.got - 2010.06.03 17:23:11.
