data_PCOD9347870
_publ_section_title
;
Structure prediction by ZEFSAII (Michael W. Deem and Ramdas Pophale) SiO2 
 PCOD9347870
Probable space group: P N N 2
;
_chemical_formula_sum "Si O2"
_cell_formula_units_Z 14
_cell_length_a 5.152306
_cell_length_b 8.568788
_cell_length_c 12.284705
_cell_angle_alpha 90.000000
_cell_angle_beta 90.000000
_cell_angle_gamma 90.000000
_cell_volume 542.357660
_symmetry_space_group_name_H-M "P N N 2"
_symmetry_group_IT_number 34
_symmetry_cell_setting 'orthorhombic'
loop_
_space_group_symop_operation_xyz
x,y,z
-x,-y,z
1/2-x,1/2+y,1/2+z
1/2+x,1/2-y,1/2+z
loop_
_atom_site_type_symbol
_atom_site_label
_atom_site_fract_x
_atom_site_fract_y
_atom_site_fract_z
Si Si1 0.500000 0.500000 0.235711
Si Si2 0.500000 0.000000 0.427632
Si Si3 0.869403 0.219188 0.553532
Si Si4 0.252220 0.093588 0.231556
Si Si5 0.000000 0.500000 0.391315
O O1 0.460906 0.646229 0.152530
O O2 0.750599 0.513408 0.312390
O O3 0.274234 0.921474 0.494395
O O4 0.615500 0.866620 0.347215
O O5 0.658565 0.301979 0.632308
O O6 0.971075 0.345259 0.467143
O O7 0.500000 0.000000 0.182212
O O8 0.000000 0.000000 0.265085
#
# Coordination Sequence:
#
# PCOD9347870 Si02
#       5
#     2   2   4   4   2
#     4  12  32  48  82 128 162 210 300 336 410 522
#     4  10  26  48  84 118 164 218 270 346 424 486
#     4  12  27  53  82 119 167 218 272 347 419 487
#     4  10  25  48  74 113 153 206 270 325 401 502
#     4  12  30  54  84 118 172 224 276 346 426 498
#
# _framework density 25.813224000000002
#
# number of rings (size 3 to 8) (size 9 to 14) (size 15 to 20)
#    0.857    0.000    1.429    2.571    8.000    6.857 
#    0.000    0.000    0.000    0.000    0.000    0.000 
#    0.000    0.000    0.000    0.000    0.000    0.000 
#
# Total GULP energy -78090.614301 kJ/mol
# GULP energy per Si atom -5577.901022 kJ/mol
# Density = 2.575447 g / cm^3
# Si number density = 25.813224 Si / 1000 Ang^3
#
#
#
# Elastic Constant Matrix: (Units=GPa)
#
#
# Indices 1 2 3 4 5 6 
#
# 1 153.0144 39.9204 89.0369 0.0000 0.0000 0.0000
# 2 39.9204 111.3992 97.1495 0.0000 0.0000 0.0000
# 3 89.0369 97.1495 228.7442 0.0000 0.0000 0.0000
# 4 0.0000 0.0000 0.0000 62.5640 0.0000 0.0000
# 5 0.0000 0.0000 0.0000 0.0000 -19.5706 0.0000
# 6 0.0000 0.0000 0.0000 0.0000 0.0000 22.5249
#
#
#
# Elastic Compliance Matrix: (Units=1/GPa)
#
#
# Indices 1 2 3 4 5 6 
#
# 1 0.008453 -0.000254 -0.003183 0.000000 0.000000 0.000000
# 2 -0.000254 0.014265 -0.005960 0.000000 0.000000 0.000000
# 3 -0.003183 -0.005960 0.008142 0.000000 0.000000 0.000000
# 4 0.000000 0.000000 0.000000 0.015984 0.000000 0.000000
# 5 0.000000 0.000000 0.000000 0.000000 -0.051097 0.000000
# 6 0.000000 0.000000 0.000000 0.000000 0.000000 0.044395
#
#
# Mechanical properties :
#
#
# Convention : Reuss Voigt Hill
#
# Bulk Modulus (GPa) = 82.86459 105.04125 93.95292
# Shear Modulus (GPa) = 79.41923 30.90705 55.16314
#
# Velocity S-wave (km/s) = 5.55281 3.46401 4.62780
# Velocity P-wave (km/s) = 8.56054 7.53527 8.06421
#
# Compressibility (1/GPa) = 0.01206788
#
# Stress axis : x y z
#
# Youngs Moduli (GPa) = 118.29426 70.10154 122.82520
#
# Poissons Ratio (x) = 0.01779 0.39091
# Poissons Ratio (y) = 0.03002 0.73200
# Poissons Ratio (z) = 0.37649 0.41778
#
# Static dielectric constant tensor:
#      x y z
#    x 2.046500 0.000000 0.000000 
#    y 0.000000 2.662190 0.000000 
#    z 0.000000 0.000000 1.984760 
# 
# From -- ./inp_files/4237.got.cif
#   From: 2010.05.17/outbox.cif.g08.bks.cpg/sg34_3_cif.got.tgz:4237.got - 2010.06.03 17:23:11.
