data_PCOD9347197
_publ_section_title
;
Structure prediction by ZEFSAII (Michael W. Deem and Ramdas Pophale) SiO2 
 PCOD9347197
Probable space group: P N N 2
;
_chemical_formula_sum "Si O2"
_cell_formula_units_Z 26
_cell_length_a 14.863333
_cell_length_b 7.664425
_cell_length_c 10.387345
_cell_angle_alpha 90.000000
_cell_angle_beta 90.000000
_cell_angle_gamma 90.000000
_cell_volume 1183.314927
_symmetry_space_group_name_H-M "P N N 2"
_symmetry_group_IT_number 34
_symmetry_cell_setting 'orthorhombic'
loop_
_space_group_symop_operation_xyz
x,y,z
-x,-y,z
1/2-x,1/2+y,1/2+z
1/2+x,1/2-y,1/2+z
loop_
_atom_site_type_symbol
_atom_site_label
_atom_site_fract_x
_atom_site_fract_y
_atom_site_fract_z
Si Si1 0.137266 0.197949 0.573810
Si Si2 0.915923 0.206921 0.190308
Si Si3 0.500000 0.000000 0.808209
Si Si4 0.793079 0.530469 0.101861
Si Si5 0.500000 0.500000 0.911533
Si Si6 0.696363 0.045692 0.873641
Si Si7 0.000000 0.000000 0.972899
Si Si8 0.146121 0.242246 0.865920
O O1 0.188960 0.014086 0.583462
O O2 0.200766 0.314166 0.484314
O O3 0.137234 0.285694 0.714543
O O4 0.044800 0.149771 0.500617
O O5 0.841115 0.351406 0.154214
O O6 0.002563 0.331328 0.216379
O O7 0.923267 0.082207 0.315990
O O8 0.928545 0.088797 0.067260
O O9 0.407461 0.020787 0.884355
O O10 0.796919 0.639453 0.234239
O O11 0.836336 0.610481 0.974063
O O12 0.770790 0.894929 0.881527
O O13 0.946708 0.856960 0.894152
#
# Coordination Sequence:
#
# PCOD9347197 Si02
#       8
#     4   4   2   4   2   4   2   4
#     4  11  24  41  63  98 135 174 219 285 342 399
#     4  10  21  38  69  97 121 178 230 266 321 416
#     4  10  18  38  62  94 124 158 224 272 306 382
#     4  10  24  41  66  94 133 169 226 276 330 408
#     4  11  23  38  72 102 134 182 230 280 338 410
#     4  10  22  41  62  93 126 175 224 267 328 408
#     4  11  21  40  64  90 130 172 210 266 340 396
#     4  11  25  41  63  96 135 173 217 288 341 394
#
# _framework density 21.972170999999999
#
# number of rings (size 3 to 8) (size 9 to 14) (size 15 to 20)
#    0.000    1.538    1.538    3.231    8.615    1.231 
#    0.000    1.538    0.000    0.000    0.000    0.000 
#    0.000    0.000    0.000    0.000    0.000    0.000 
#
# Total GULP energy -144797.767190 kJ/mol
# GULP energy per Si atom -5569.144892 kJ/mol
# Density = 2.192216 g / cm^3
# Si number density = 21.972171 Si / 1000 Ang^3
#
#
#
# Elastic Constant Matrix: (Units=GPa)
#
#
# Indices 1 2 3 4 5 6 
#
# 1 70.7297 -9.2426 21.4819 0.0000 0.0000 0.0000
# 2 -9.2426 35.4596 34.5909 0.0000 0.0000 0.0000
# 3 21.4819 34.5909 174.7217 0.0000 0.0000 0.0000
# 4 0.0000 0.0000 0.0000 30.9968 0.0000 0.0000
# 5 0.0000 0.0000 0.0000 0.0000 18.9060 0.0000
# 6 0.0000 0.0000 0.0000 0.0000 0.0000 32.6359
#
#
#
# Elastic Compliance Matrix: (Units=1/GPa)
#
#
# Indices 1 2 3 4 5 6 
#
# 1 0.016201 0.007642 -0.003505 0.000000 0.000000 0.000000
# 2 0.007642 0.038556 -0.008573 0.000000 0.000000 0.000000
# 3 -0.003505 -0.008573 0.007852 0.000000 0.000000 0.000000
# 4 0.000000 0.000000 0.000000 0.032261 0.000000 0.000000
# 5 0.000000 0.000000 0.000000 0.000000 0.052893 0.000000
# 6 0.000000 0.000000 0.000000 0.000000 0.000000 0.030641
#
#
# Mechanical properties :
#
#
# Convention : Reuss Voigt Hill
#
# Bulk Modulus (GPa) = 18.60900 41.61902 30.11401
# Shear Modulus (GPa) = 24.36785 32.11311 28.24048
#
# Velocity S-wave (km/s) = 3.33383 3.82715 3.58898
# Velocity P-wave (km/s) = 4.82773 6.20582 5.55964
#
# Compressibility (1/GPa) = 0.05373744
#
# Stress axis : x y z
#
# Youngs Moduli (GPa) = 61.72283 25.93647 127.36389
#
# Poissons Ratio (x) = -0.19821 0.44640
# Poissons Ratio (y) = -0.47169 1.09186
# Poissons Ratio (z) = 0.21633 0.22235
#
# Static dielectric constant tensor:
#      x y z
#    x 1.860390 0.000000 0.000000 
#    y 0.000000 1.927040 0.000000 
#    z 0.000000 0.000000 1.891290 
# 
# From -- ./inp_files/2753.got.cif
#   From: 2010.05.17/outbox.cif.g08.bks.cpg/sg34_2_cif.got.tgz:2753.got - 2010.06.03 17:23:11.
