data_PCOD9347938
_publ_section_title
;
Structure prediction by ZEFSAII (Michael W. Deem and Ramdas Pophale) SiO2 
 PCOD9347938
Probable space group: P N N 2
;
_chemical_formula_sum "Si O2"
_cell_formula_units_Z 32
_cell_length_a 11.730521
_cell_length_b 7.757574
_cell_length_c 15.609126
_cell_angle_alpha 90.000000
_cell_angle_beta 90.000000
_cell_angle_gamma 90.000000
_cell_volume 1420.436471
_symmetry_space_group_name_H-M "P N N 2"
_symmetry_group_IT_number 34
_symmetry_cell_setting 'orthorhombic'
loop_
_space_group_symop_operation_xyz
x,y,z
-x,-y,z
1/2-x,1/2+y,1/2+z
1/2+x,1/2-y,1/2+z
loop_
_atom_site_type_symbol
_atom_site_label
_atom_site_fract_x
_atom_site_fract_y
_atom_site_fract_z
Si Si1 0.679412 0.698651 0.461170
Si Si2 0.285720 0.415015 0.954415
Si Si3 0.820589 0.198651 0.264169
Si Si4 0.445833 0.818463 0.512279
Si Si5 0.714282 0.584985 0.270924
Si Si6 0.566698 0.712124 0.112670
Si Si7 0.054166 0.318462 0.213057
Si Si8 0.837672 0.595915 0.612671
O O1 0.551301 0.694463 0.497438
O O2 0.673333 0.624200 0.366094
O O3 0.761237 0.605692 0.528030
O O4 0.733887 0.892314 0.460261
O O5 0.326671 0.375797 0.859246
O O6 0.175025 0.292121 0.968598
O O7 0.379236 0.376750 0.027954
O O8 0.766114 0.392314 0.265076
O O9 0.738760 0.105688 0.197313
O O10 0.948698 0.194463 0.227898
O O11 0.420947 0.836515 0.612668
O O12 0.500000 0.000000 0.481226
O O13 0.620764 0.623253 0.197386
O O14 0.824976 0.707879 0.256739
O O15 0.430443 0.747420 0.112670
O O16 0.608262 0.908567 0.112669
O O17 0.000000 0.500000 0.244111
#
# Coordination Sequence:
#
# PCOD9347938 Si02
#       8
#     4   4   4   4   4   4   4   4
#     4  11  23  41  65  93 125 163 206 254 312 373
#     4  11  23  41  65  93 125 163 206 254 312 373
#     4  11  23  41  65  93 125 163 206 254 312 373
#     4   9  18  38  64  87 118 159 198 248 311 365
#     4  11  23  41  65  93 125 163 206 254 312 373
#     4  11  25  44  63  88 126 169 210 259 316 366
#     4   9  18  38  64  87 118 159 198 248 311 365
#     4  11  25  44  63  88 126 169 210 259 316 366
#
# _framework density 22.528288
#
# number of rings (size 3 to 8) (size 9 to 14) (size 15 to 20)
#    0.000    1.500    2.500    2.250    3.500    2.000 
#    0.000    5.000    0.000    0.000    0.000    0.000 
#    0.000    0.000    0.000    0.000    0.000    0.000 
#
# Total GULP energy -178835.961876 kJ/mol
# GULP energy per Si atom -5588.623809 kJ/mol
# Density = 2.247701 g / cm^3
# Si number density = 22.528288 Si / 1000 Ang^3
#
#
#
# Elastic Constant Matrix: (Units=GPa)
#
#
# Indices 1 2 3 4 5 6 
#
# 1 42.5781 4.7185 7.5533 0.0000 0.0000 0.0000
# 2 4.7185 81.1125 11.4868 0.0000 0.0000 0.0000
# 3 7.5533 11.4868 93.2141 0.0000 0.0000 0.0000
# 4 0.0000 0.0000 0.0000 3.4600 0.0000 0.0000
# 5 0.0000 0.0000 0.0000 0.0000 31.9530 0.0000
# 6 0.0000 0.0000 0.0000 0.0000 0.0000 20.6733
#
#
#
# Elastic Compliance Matrix: (Units=1/GPa)
#
#
# Indices 1 2 3 4 5 6 
#
# 1 0.023931 -0.001137 -0.001799 0.000000 0.000000 0.000000
# 2 -0.001137 0.012602 -0.001461 0.000000 0.000000 0.000000
# 3 -0.001799 -0.001461 0.011054 0.000000 0.000000 0.000000
# 4 0.000000 0.000000 0.000000 0.289020 0.000000 0.000000
# 5 0.000000 0.000000 0.000000 0.000000 0.031296 0.000000
# 6 0.000000 0.000000 0.000000 0.000000 0.000000 0.048372
#
#
# Mechanical properties :
#
#
# Convention : Reuss Voigt Hill
#
# Bulk Modulus (GPa) = 25.77818 29.38021 27.57919
# Shear Modulus (GPa) = 11.41554 24.09366 17.75460
#
# Velocity S-wave (km/s) = 2.25349 3.27385 2.81036
# Velocity P-wave (km/s) = 4.27064 5.23073 4.77488
#
# Compressibility (1/GPa) = 0.03879249
#
# Stress axis : x y z
#
# Youngs Moduli (GPa) = 41.78604 79.35512 90.46678
#
# Poissons Ratio (x) = 0.09026 0.16275
# Poissons Ratio (y) = 0.04753 0.13215
# Poissons Ratio (z) = 0.07518 0.11592
#
# Static dielectric constant tensor:
#      x y z
#    x 1.842380 0.000000 0.000000 
#    y 0.000000 1.915590 0.000000 
#    z 0.000000 0.000000 1.757560 
# 
# From -- ./inp_files/6823.got.cif
#   From: 2010.05.17/outbox.cif.g08.bks.cpg/sg34_4_cif.got.tgz:6823.got - 2010.06.03 17:23:11.
