data_PCOD9347364
_publ_section_title
;
Structure prediction by ZEFSAII (Michael W. Deem and Ramdas Pophale) SiO2 
 PCOD9347364
Probable space group: P N N 2
;
_chemical_formula_sum "Si O2"
_cell_formula_units_Z 30
_cell_length_a 10.500745
_cell_length_b 13.603541
_cell_length_c 10.119370
_cell_angle_alpha 90.000000
_cell_angle_beta 90.000000
_cell_angle_gamma 90.000000
_cell_volume 1445.524835
_symmetry_space_group_name_H-M "P N N 2"
_symmetry_group_IT_number 34
_symmetry_cell_setting 'orthorhombic'
loop_
_space_group_symop_operation_xyz
x,y,z
-x,-y,z
1/2-x,1/2+y,1/2+z
1/2+x,1/2-y,1/2+z
loop_
_atom_site_type_symbol
_atom_site_label
_atom_site_fract_x
_atom_site_fract_y
_atom_site_fract_z
Si Si1 0.120824 0.562602 0.187640
Si Si2 0.598138 0.859745 0.972334
Si Si3 0.722207 0.549502 0.762363
Si Si4 0.370491 0.284239 0.575613
Si Si5 0.854917 0.766551 0.398553
Si Si6 0.147739 0.150131 0.111028
Si Si7 0.500000 0.000000 0.200674
Si Si8 0.636751 0.479938 0.034402
O O1 0.119815 0.570539 0.346166
O O2 0.114108 0.672329 0.126294
O O3 0.248240 0.511905 0.135231
O O4 0.000000 0.500000 0.144140
O O5 0.487110 0.786500 0.929459
O O6 0.737020 0.822045 0.014410
O O7 0.544153 0.914129 0.101815
O O8 0.693286 0.651031 0.690820
O O9 0.668995 0.461386 0.667238
O O10 0.873366 0.530181 0.779123
O O11 0.655655 0.546142 0.904096
O O12 0.270326 0.286701 0.455483
O O13 0.509038 0.330901 0.549910
O O14 0.844464 0.784833 0.243363
O O15 0.858490 0.870593 0.473548
O O16 0.500000 0.500000 0.095516
#
# Coordination Sequence:
#
# PCOD9347364 Si02
#       8
#     4   4   4   4   4   4   2   4
#     4  11  25  43  63  92 136 178 217 271 348 404
#     4  11  21  42  63  90 133 175 219 264 341 396
#     4  10  20  38  68  96 132 173 222 274 327 395
#     4  11  21  41  66  97 131 173 218 276 332 402
#     4  10  21  42  63  96 133 168 219 276 327 403
#     4  10  22  39  65  99 128 172 220 276 328 392
#     4  10  20  36  64  98 124 172 222 266 320 404
#     4  10  23  42  64  96 132 166 219 279 334 392
#
# _framework density 20.753706000000001
#
# number of rings (size 3 to 8) (size 9 to 14) (size 15 to 20)
#    0.000    1.600    3.333    2.000    0.933    1.067 
#    4.800    2.667    0.000    0.000    0.000    0.000 
#    0.000    0.000    0.000    0.000    0.000    0.000 
#
# Total GULP energy -167667.589688 kJ/mol
# GULP energy per Si atom -5588.919656 kJ/mol
# Density = 2.070647 g / cm^3
# Si number density = 20.753706 Si / 1000 Ang^3
#
#
#
# Elastic Constant Matrix: (Units=GPa)
#
#
# Indices 1 2 3 4 5 6 
#
# 1 196.6572 37.8004 40.4549 0.0000 0.0000 0.0000
# 2 37.8004 55.3636 15.7017 0.0000 0.0000 0.0000
# 3 40.4549 15.7017 47.2546 0.0000 0.0000 0.0000
# 4 0.0000 0.0000 0.0000 -2.6395 0.0000 0.0000
# 5 0.0000 0.0000 0.0000 0.0000 13.8958 0.0000
# 6 0.0000 0.0000 0.0000 0.0000 0.0000 23.1204
#
#
#
# Elastic Compliance Matrix: (Units=1/GPa)
#
#
# Indices 1 2 3 4 5 6 
#
# 1 0.006658 -0.003234 -0.004625 0.000000 0.000000 0.000000
# 2 -0.003234 0.021513 -0.004379 0.000000 0.000000 0.000000
# 3 -0.004625 -0.004379 0.026577 0.000000 0.000000 0.000000
# 4 0.000000 0.000000 0.000000 -0.378857 0.000000 0.000000
# 5 0.000000 0.000000 0.000000 0.000000 0.071964 0.000000
# 6 0.000000 0.000000 0.000000 0.000000 0.000000 0.043252
#
#
# Mechanical properties :
#
#
# Convention : Reuss Voigt Hill
#
# Bulk Modulus (GPa) = 33.03624 54.13215 43.58419
# Shear Modulus (GPa) = -28.68206 20.56322 -4.05942
#
# Velocity S-wave (km/s) = -3.72159 3.15115 -1.40009
# Velocity P-wave (km/s) = 1.58561 6.27530 4.29332
#
# Compressibility (1/GPa) = 0.03026979
#
# Stress axis : x y z
#
# Youngs Moduli (GPa) = 150.19190 46.48432 37.62648
#
# Poissons Ratio (x) = 0.15034 0.17404
# Poissons Ratio (y) = 0.48574 0.16478
# Poissons Ratio (z) = 0.69470 0.20357
#
# Static dielectric constant tensor:
#      x y z
#    x 1.746730 0.000000 0.000000 
#    y 0.000000 1.777150 0.000000 
#    z 0.000000 0.000000 1.704840 
# 
# From -- ./inp_files/5068.got.cif
#   From: 2010.05.17/outbox.cif.g08.bks.cpg/sg34_3_cif.got.tgz:5068.got - 2010.06.03 17:23:11.
