data_PCOD9347582
_publ_section_title
;
Structure prediction by ZEFSAII (Michael W. Deem and Ramdas Pophale) SiO2 
 PCOD9347582
Probable space group: P N N 2
;
_chemical_formula_sum "Si O2"
_cell_formula_units_Z 24
_cell_length_a 10.326275
_cell_length_b 7.085865
_cell_length_c 12.047255
_cell_angle_alpha 90.000000
_cell_angle_beta 90.000000
_cell_angle_gamma 90.000000
_cell_volume 881.504763
_symmetry_space_group_name_H-M "P N N 2"
_symmetry_group_IT_number 34
_symmetry_cell_setting 'orthorhombic'
loop_
_space_group_symop_operation_xyz
x,y,z
-x,-y,z
1/2-x,1/2+y,1/2+z
1/2+x,1/2-y,1/2+z
loop_
_atom_site_type_symbol
_atom_site_label
_atom_site_fract_x
_atom_site_fract_y
_atom_site_fract_z
Si Si1 0.826623 0.842970 0.181320
Si Si2 0.282809 0.268907 0.410290
Si Si3 0.185744 0.667131 0.372734
Si Si4 0.541700 0.220000 0.294030
Si Si5 0.449947 0.213245 0.072067
Si Si6 0.604426 0.779656 0.634892
O O1 0.802917 0.824368 0.313724
O O2 0.691424 0.779433 0.128506
O O3 0.948541 0.731181 0.129765
O O4 0.852791 0.062284 0.156559
O O5 0.217033 0.469590 0.432223
O O6 0.423426 0.315644 0.357676
O O7 0.320025 0.162569 0.523632
O O8 0.323142 0.766337 0.355509
O O9 0.080022 0.776414 0.446661
O O10 0.139312 0.619258 0.249251
O O11 0.545792 0.294337 0.166599
O O12 0.500000 0.000000 0.289970
O O13 0.500000 0.000000 0.062128
#
# Coordination Sequence:
#
# PCOD9347582 Si02
#       6
#     4   4   4   4   4   4
#     4  10  23  45  68  99 139 188 235 295 368 431
#     4  11  24  44  70 100 143 181 245 301 355 435
#     4  12  24  40  76 103 138 188 242 296 369 428
#     4  10  23  45  71 101 141 190 241 293 372 436
#     4  10  21  41  72  93 137 184 234 288 358 424
#     4  11  24  43  69  98 143 189 235 298 375 424
#
# _framework density 27.22617
#
# number of rings (size 3 to 8) (size 9 to 14) (size 15 to 20)
#    0.000    1.333    1.667    4.500    4.667    0.000 
#   15.000    0.000    0.000    0.000    0.000    0.000 
#    0.000    0.000    0.000    0.000    0.000    0.000 
#
# Total GULP energy -134406.313742 kJ/mol
# GULP energy per Si atom -5600.263073 kJ/mol
# Density = 2.716420 g / cm^3
# Si number density = 27.226170 Si / 1000 Ang^3
#
#
#
# Elastic Constant Matrix: (Units=GPa)
#
#
# Indices 1 2 3 4 5 6 
#
# 1 89.8892 3.3067 41.6248 0.0000 0.0000 0.0000
# 2 3.3067 52.9504 6.9126 0.0000 0.0000 0.0000
# 3 41.6248 6.9126 207.7873 0.0000 0.0000 0.0000
# 4 0.0000 0.0000 0.0000 24.1997 0.0000 0.0000
# 5 0.0000 0.0000 0.0000 0.0000 40.8583 0.0000
# 6 0.0000 0.0000 0.0000 0.0000 0.0000 40.8729
#
#
#
# Elastic Compliance Matrix: (Units=1/GPa)
#
#
# Indices 1 2 3 4 5 6 
#
# 1 0.012273 -0.000447 -0.002444 0.000000 0.000000 0.000000
# 2 -0.000447 0.018984 -0.000542 0.000000 0.000000 0.000000
# 3 -0.002444 -0.000542 0.005320 0.000000 0.000000 0.000000
# 4 0.000000 0.000000 0.000000 0.041323 0.000000 0.000000
# 5 0.000000 0.000000 0.000000 0.000000 0.024475 0.000000
# 6 0.000000 0.000000 0.000000 0.000000 0.000000 0.024466
#
#
# Mechanical properties :
#
#
# Convention : Reuss Voigt Hill
#
# Bulk Modulus (GPa) = 33.65725 50.47947 42.06836
# Shear Modulus (GPa) = 34.81631 41.10503 37.96067
#
# Velocity S-wave (km/s) = 3.57988 3.88978 3.73805
# Velocity P-wave (km/s) = 5.42921 6.22534 5.84086
#
# Compressibility (1/GPa) = 0.02971128
#
# Stress axis : x y z
#
# Youngs Moduli (GPa) = 81.48068 52.67510 187.96404
#
# Poissons Ratio (x) = 0.02357 0.45932
# Poissons Ratio (y) = 0.03646 0.10186
# Poissons Ratio (z) = 0.19911 0.02855
#
# Static dielectric constant tensor:
#      x y z
#    x 2.090500 0.000000 0.000000 
#    y 0.000000 2.225750 0.000000 
#    z 0.000000 0.000000 2.180500 
# 
# From -- ./inp_files/5321.got.cif
#   From: 2010.05.17/outbox.cif.g08.bks.cpg/sg34_3_cif.got.tgz:5321.got - 2010.06.03 17:23:11.
