data_PCOD9347171
_publ_section_title
;
Structure prediction by ZEFSAII (Michael W. Deem and Ramdas Pophale) SiO2 
 PCOD9347171
Probable space group: P N N 2
;
_chemical_formula_sum "Si O2"
_cell_formula_units_Z 20
_cell_length_a 5.830123
_cell_length_b 10.588551
_cell_length_c 15.092207
_cell_angle_alpha 90.000000
_cell_angle_beta 90.000000
_cell_angle_gamma 90.000000
_cell_volume 931.680494
_symmetry_space_group_name_H-M "P N N 2"
_symmetry_group_IT_number 34
_symmetry_cell_setting 'orthorhombic'
loop_
_space_group_symop_operation_xyz
x,y,z
-x,-y,z
1/2-x,1/2+y,1/2+z
1/2+x,1/2-y,1/2+z
loop_
_atom_site_type_symbol
_atom_site_label
_atom_site_fract_x
_atom_site_fract_y
_atom_site_fract_z
Si Si1 0.000000 0.500000 0.812230
Si Si2 0.175954 0.654984 0.657042
Si Si3 0.665968 0.615159 0.939511
Si Si4 0.098346 0.362405 0.487809
Si Si5 0.752691 0.563226 0.145738
Si Si6 0.000000 0.000000 0.025870
O O1 0.837940 0.426825 0.744444
O O2 0.875260 0.602913 0.872752
O O3 0.248028 0.794989 0.682055
O O4 0.340043 0.583246 0.588911
O O5 0.945846 0.660597 0.594316
O O6 0.500000 0.500000 0.914804
O O7 0.526637 0.746101 0.941772
O O8 0.749398 0.584115 0.039076
O O9 0.364336 0.391855 0.472598
O O10 0.000000 0.500000 0.463256
O O11 0.500000 0.500000 0.166359
O O12 0.000000 0.500000 0.168821
#
# Coordination Sequence:
#
# PCOD9347171 Si02
#       6
#     2   4   4   4   4   2
#     4  12  22  40  58  96 136 172 218 286 360 408
#     4  10  22  35  63  95 127 169 219 276 338 403
#     4  10  23  36  60  94 133 172 218 277 350 404
#     4   9  19  38  61  94 121 169 229 273 325 401
#     4  10  22  41  65  97 128 175 230 280 327 409
#     4  10  18  34  66  92 126 162 226 290 324 398
#
# _framework density 21.466586
#
# number of rings (size 3 to 8) (size 9 to 14) (size 15 to 20)
#    0.000    2.000    4.000    0.000    9.800    1.600 
#    0.000    0.000    4.400    0.000    0.000    0.000 
#    0.000    0.000    0.000    0.000    0.000    0.000 
#
# Total GULP energy -111417.749743 kJ/mol
# GULP energy per Si atom -5570.887487 kJ/mol
# Density = 2.141773 g / cm^3
# Si number density = 21.466586 Si / 1000 Ang^3
#
#
#
# Elastic Constant Matrix: (Units=GPa)
#
#
# Indices 1 2 3 4 5 6 
#
# 1 102.1984 65.6362 13.4740 0.0000 0.0000 0.0000
# 2 65.6362 178.7526 17.5731 0.0000 0.0000 0.0000
# 3 13.4740 17.5731 29.9353 0.0000 0.0000 0.0000
# 4 0.0000 0.0000 0.0000 3.2178 0.0000 0.0000
# 5 0.0000 0.0000 0.0000 0.0000 -11.3607 0.0000
# 6 0.0000 0.0000 0.0000 0.0000 0.0000 40.7967
#
#
#
# Elastic Compliance Matrix: (Units=1/GPa)
#
#
# Indices 1 2 3 4 5 6 
#
# 1 0.013098 -0.004489 -0.003260 0.000000 0.000000 0.000000
# 2 -0.004489 0.007475 -0.002368 0.000000 0.000000 0.000000
# 3 -0.003260 -0.002368 0.036263 0.000000 0.000000 0.000000
# 4 0.000000 0.000000 0.000000 0.310776 0.000000 0.000000
# 5 0.000000 0.000000 0.000000 0.000000 -0.088022 0.000000
# 6 0.000000 0.000000 0.000000 0.000000 0.000000 0.024512
#
#
# Mechanical properties :
#
#
# Convention : Reuss Voigt Hill
#
# Bulk Modulus (GPa) = 27.32089 56.02810 41.67450
# Shear Modulus (GPa) = 14.85727 20.81095 17.83411
#
# Velocity S-wave (km/s) = 2.63366 3.11699 2.88546
# Velocity P-wave (km/s) = 4.69073 6.25388 5.52784
#
# Compressibility (1/GPa) = 0.03660203
#
# Stress axis : x y z
#
# Youngs Moduli (GPa) = 76.34969 133.77295 27.57644
#
# Poissons Ratio (x) = 0.60048 0.08991
# Poissons Ratio (y) = 0.34272 0.06530
# Poissons Ratio (z) = 0.24892 0.31676
#
# Static dielectric constant tensor:
#      x y z
#    x 2.140590 0.000000 0.000000 
#    y 0.000000 1.781020 0.000000 
#    z 0.000000 0.000000 1.751950 
# 
# From -- ./inp_files/6052.got.cif
#   From: 2010.05.17/outbox.cif.g08.bks.cpg/sg34_4_cif.got.tgz:6052.got - 2010.06.03 17:23:11.
