data_PCOD9347067
_publ_section_title
;
Structure prediction by ZEFSAII (Michael W. Deem and Ramdas Pophale) SiO2 
 PCOD9347067
Probable space group: P N A 21
;
_chemical_formula_sum "Si O2"
_cell_formula_units_Z 28
_cell_length_a 12.000000
_cell_length_b 15.000000
_cell_length_c 9.000000
_cell_angle_alpha 90.000000
_cell_angle_beta 90.000000
_cell_angle_gamma 90.000000
_cell_volume 1620.000000
_symmetry_space_group_name_H-M "P N A 21"
_symmetry_group_IT_number 33
_symmetry_cell_setting 'orthorhombic'
loop_
_space_group_symop_operation_xyz
x,y,z
-x,-y,1/2+z
1/2-x,1/2+y,1/2+z
1/2+x,1/2-y,z
loop_
_atom_site_type_symbol
_atom_site_label
_atom_site_fract_x
_atom_site_fract_y
_atom_site_fract_z
Si Si1 0.176492 0.625276 0.246620
Si Si2 0.123762 0.126196 0.984669
Si Si3 0.743155 0.226411 0.182253
Si Si4 0.645267 0.880040 0.887347
Si Si5 0.761505 0.027946 0.671433
Si Si6 0.118167 0.429313 0.374839
Si Si7 0.122513 0.819611 0.379494
O O1 0.292539 0.626935 0.341629
O O2 0.123152 0.529655 0.300771
O O3 0.119857 0.719329 0.303976
O O4 0.180603 0.624378 0.064272
O O5 0.999805 0.142507 0.922133
O O6 0.156102 0.206631 0.098801
O O7 0.150549 0.035308 0.078977
O O8 0.814770 0.290488 0.295986
O O9 0.685831 0.144558 0.274432
O O10 0.814115 0.190410 0.039689
O O11 0.510900 0.896572 0.884984
O O12 0.701184 0.961935 0.792191
O O13 0.676225 0.061125 0.539627
O O14 0.816285 0.110387 0.765229
#
# Coordination Sequence:
#
# PCOD9347067 Si02
#       7
#     4   4   4   4   4   4   4
#     4  10  23  38  60  89 116 154 204 239 290 358
#     4   9  22  41  58  85 121 154 195 247 292 345
#     4  10  22  38  60  89 116 151 199 238 292 361
#     4  11  22  39  61  87 119 155 194 244 295 347
#     4  10  23  38  58  90 119 153 203 239 288 359
#     4  11  22  40  61  87 121 153 192 248 296 346
#     4  11  22  40  62  85 120 160 195 245 295 344
#
# _framework density 17.283950999999998
#
# number of rings (size 3 to 8) (size 9 to 14) (size 15 to 20)
#    0.000    1.714    0.000    4.286    0.000   10.286 
#    0.000    2.857    0.000    0.000    0.000    0.000 
#    0.000    0.000    0.000    0.000    0.000    0.000 
#
# Total GULP energy -156074.098980 kJ/mol
# GULP energy per Si atom -5574.074964 kJ/mol
# Density = 1.724461 g / cm^3
# Si number density = 17.283951 Si / 1000 Ang^3
#
#
#
# Elastic Constant Matrix: (Units=GPa)
#
#
# Indices 1 2 3 4 5 6 
#
# 1 116.5916 64.2970 63.7411 0.0000 0.0000 0.0000
# 2 64.2970 154.2859 71.2563 0.0000 0.0000 0.0000
# 3 63.7411 71.2563 186.5395 0.0000 0.0000 0.0000
# 4 0.0000 0.0000 0.0000 52.0781 0.0000 0.0000
# 5 0.0000 0.0000 0.0000 0.0000 34.3530 0.0000
# 6 0.0000 0.0000 0.0000 0.0000 0.0000 28.2590
#
#
#
# Elastic Compliance Matrix: (Units=1/GPa)
#
#
# Indices 1 2 3 4 5 6 
#
# 1 0.012158 -0.003822 -0.002694 0.000000 0.000000 0.000000
# 2 -0.003822 0.009072 -0.002159 0.000000 0.000000 0.000000
# 3 -0.002694 -0.002159 0.007106 0.000000 0.000000 0.000000
# 4 0.000000 0.000000 0.000000 0.019202 0.000000 0.000000
# 5 0.000000 0.000000 0.000000 0.000000 0.029110 0.000000
# 6 0.000000 0.000000 0.000000 0.000000 0.000000 0.035387
#
#
# Mechanical properties :
#
#
# Convention : Reuss Voigt Hill
#
# Bulk Modulus (GPa) = 91.04049 95.11176 93.07613
# Shear Modulus (GPa) = 37.58076 40.14620 38.86348
#
# Velocity S-wave (km/s) = 4.66801 4.82471 4.74701
# Velocity P-wave (km/s) = 9.04663 9.28362 9.16589
#
# Compressibility (1/GPa) = 0.01098412
#
# Stress axis : x y z
#
# Youngs Moduli (GPa) = 82.25167 110.23445 140.72183
#
# Poissons Ratio (x) = 0.42135 0.37914
# Poissons Ratio (y) = 0.31439 0.30384
# Poissons Ratio (z) = 0.22161 0.23801
#
# Static dielectric constant tensor:
#      x y z
#    x 1.595570 0.000000 0.000000 
#    y 0.000000 1.606160 0.000000 
#    z 0.000000 0.000000 1.580280 
# 
# From -- ./inp_files/3890.got.cif
#   From: 2010.05.17/outbox.ucp.g08.bks.cvg/sg33_2_cif.got.tgz:3890.got - 2010.06.11 10:35:07.
