data_PCOD9347907
_publ_section_title
;
Structure prediction by ZEFSAII (Michael W. Deem and Ramdas Pophale) SiO2 
 PCOD9347907
Probable space group: P N N 2
;
_chemical_formula_sum "Si O2"
_cell_formula_units_Z 32
_cell_length_a 10.565060
_cell_length_b 9.326523
_cell_length_c 15.253278
_cell_angle_alpha 90.000000
_cell_angle_beta 90.000000
_cell_angle_gamma 90.000000
_cell_volume 1502.985944
_symmetry_space_group_name_H-M "P N N 2"
_symmetry_group_IT_number 34
_symmetry_cell_setting 'orthorhombic'
loop_
_space_group_symop_operation_xyz
x,y,z
-x,-y,z
1/2-x,1/2+y,1/2+z
1/2+x,1/2-y,1/2+z
loop_
_atom_site_type_symbol
_atom_site_label
_atom_site_fract_x
_atom_site_fract_y
_atom_site_fract_z
Si Si1 0.039593 0.661242 0.808560
Si Si2 0.266416 0.250000 0.447679
Si Si3 0.866648 0.021880 0.488117
Si Si4 0.620233 0.590706 0.184292
Si Si5 0.163947 0.250000 0.947679
Si Si6 0.120233 0.590706 0.211066
Si Si7 0.366648 0.021880 0.907241
Si Si8 0.960407 0.161242 0.086798
O O1 0.145826 0.658410 0.883788
O O2 0.101148 0.757778 0.732257
O O3 0.000000 0.500000 0.783271
O O4 0.923795 0.740185 0.860624
O O5 0.185356 0.362115 0.392402
O O6 0.354174 0.341591 0.511570
O O7 0.185356 0.137885 0.502956
O O8 0.893764 0.101232 0.579703
O O9 0.757235 0.114986 0.445411
O O10 0.000000 0.000000 0.439359
O O11 0.500000 0.500000 0.217693
O O12 0.750000 0.500000 0.197679
O O13 0.257235 0.114986 0.949947
O O14 0.076205 0.240185 0.034734
O O15 0.106235 0.601232 0.315655
O O16 0.101148 0.742222 0.163101
O O17 0.000000 0.500000 0.177665
O O18 0.500000 0.000000 0.955999
O O19 0.000000 0.000000 0.112088
#
# Coordination Sequence:
#
# PCOD9347907 Si02
#       8
#     4   4   4   4   4   4   4   4
#     4  11  23  40  68 100 136 178 239 300 342 424
#     4  11  21  40  66  96 129 175 238 288 348 409
#     4  11  23  41  66  97 137 177 227 294 359 420
#     4  11  23  42  68 100 141 187 229 287 368 433
#     4  11  23  42  68 104 129 185 246 290 342 429
#     4  11  23  42  68 100 141 187 229 287 368 433
#     4  11  23  41  66  97 137 177 227 294 359 420
#     4  11  23  40  68 100 136 178 239 300 342 424
#
# _framework density 21.290952999999998
#
# number of rings (size 3 to 8) (size 9 to 14) (size 15 to 20)
#    0.000    1.000    5.000    2.250    0.000    0.000 
#    0.000   11.250    0.000    0.000    0.000    0.000 
#    0.000    0.000    0.000    0.000    0.000    0.000 
#
# Total GULP energy -178456.689298 kJ/mol
# GULP energy per Si atom -5576.771541 kJ/mol
# Density = 2.124249 g / cm^3
# Si number density = 21.290953 Si / 1000 Ang^3
#
#
#
# Elastic Constant Matrix: (Units=GPa)
#
#
# Indices 1 2 3 4 5 6 
#
# 1 146.3723 61.5481 17.3543 0.0000 0.0000 0.0000
# 2 61.5481 146.4221 39.5278 0.0000 0.0000 0.0000
# 3 17.3543 39.5278 69.1745 0.0000 0.0000 0.0000
# 4 0.0000 0.0000 0.0000 25.1781 0.0000 0.0000
# 5 0.0000 0.0000 0.0000 0.0000 15.5042 0.0000
# 6 0.0000 0.0000 0.0000 0.0000 0.0000 33.7988
#
#
#
# Elastic Compliance Matrix: (Units=1/GPa)
#
#
# Indices 1 2 3 4 5 6 
#
# 1 0.008299 -0.003460 -0.000105 0.000000 0.000000 0.000000
# 2 -0.003460 0.009518 -0.004571 0.000000 0.000000 0.000000
# 3 -0.000105 -0.004571 0.017094 0.000000 0.000000 0.000000
# 4 0.000000 0.000000 0.000000 0.039717 0.000000 0.000000
# 5 0.000000 0.000000 0.000000 0.000000 0.064498 0.000000
# 6 0.000000 0.000000 0.000000 0.000000 0.000000 0.029587
#
#
# Mechanical properties :
#
#
# Convention : Reuss Voigt Hill
#
# Bulk Modulus (GPa) = 53.64804 66.53657 60.09231
# Shear Modulus (GPa) = 26.15076 31.13213 28.64145
#
# Velocity S-wave (km/s) = 3.50845 3.82805 3.67173
# Velocity P-wave (km/s) = 6.45481 7.13145 6.80155
#
# Compressibility (1/GPa) = 0.01864001
#
# Stress axis : x y z
#
# Youngs Moduli (GPa) = 120.49141 105.06416 58.49913
#
# Poissons Ratio (x) = 0.36355 0.00613
# Poissons Ratio (y) = 0.41694 0.26738
# Poissons Ratio (z) = 0.01263 0.48021
#
# Static dielectric constant tensor:
#      x y z
#    x 1.853050 0.000000 0.000000 
#    y 0.000000 1.788090 0.000000 
#    z 0.000000 0.000000 1.765910 
# 
# From -- ./inp_files/6819.got.cif
#   From: 2010.05.17/outbox.cif.g08.bks.cpg/sg34_4_cif.got.tgz:6819.got - 2010.06.03 17:23:11.
