data_PCOD9347298
_publ_section_title
;
Structure prediction by ZEFSAII (Michael W. Deem and Ramdas Pophale) SiO2 
 PCOD9347298
Probable space group: P N N 2
;
_chemical_formula_sum "Si O2"
_cell_formula_units_Z 24
_cell_length_a 8.783686
_cell_length_b 12.548832
_cell_length_c 8.528212
_cell_angle_alpha 90.000000
_cell_angle_beta 90.000000
_cell_angle_gamma 90.000000
_cell_volume 940.022167
_symmetry_space_group_name_H-M "P N N 2"
_symmetry_group_IT_number 34
_symmetry_cell_setting 'orthorhombic'
loop_
_space_group_symop_operation_xyz
x,y,z
-x,-y,z
1/2-x,1/2+y,1/2+z
1/2+x,1/2-y,1/2+z
loop_
_atom_site_type_symbol
_atom_site_label
_atom_site_fract_x
_atom_site_fract_y
_atom_site_fract_z
Si Si1 0.576828 0.186721 0.710780
Si Si2 0.249927 0.624178 0.273295
Si Si3 0.267956 0.863183 0.416975
Si Si4 0.450680 0.102688 0.191552
Si Si5 0.878797 0.912201 0.096391
Si Si6 0.455697 0.688800 0.005097
O O1 0.427309 0.117328 0.735951
O O2 0.694090 0.126839 0.601170
O O3 0.546061 0.294911 0.608452
O O4 0.627305 0.236374 0.876210
O O5 0.262201 0.745061 0.340754
O O6 0.315400 0.561613 0.421735
O O7 0.347205 0.621211 0.115654
O O8 0.419286 0.905112 0.326805
O O9 0.085545 0.881441 0.420865
O O10 0.269038 0.088688 0.209897
O O11 0.466507 0.218418 0.112308
O O12 0.500000 0.000000 0.087644
O O13 0.000000 0.000000 0.134306
#
# Coordination Sequence:
#
# PCOD9347298 Si02
#       6
#     4   4   4   4   4   4
#     4  10  19  38  64  90 118 167 223 261 318 395
#     4   9  20  38  60  90 122 163 220 264 311 396
#     4   9  20  38  59  89 123 162 219 260 308 396
#     4  11  23  42  60  93 138 168 209 280 334 388
#     4  11  24  41  60  98 132 170 215 273 342 388
#     4  10  20  39  65  91 118 167 225 261 322 388
#
# _framework density 25.531313000000001
#
# number of rings (size 3 to 8) (size 9 to 14) (size 15 to 20)
#    0.000    2.000    5.000    0.000    9.333    1.333 
#    0.000    3.333    0.000    0.000    0.000    0.000 
#    0.000    0.000    0.000    0.000    0.000    0.000 
#
# Total GULP energy -133763.048241 kJ/mol
# GULP energy per Si atom -5573.460343 kJ/mol
# Density = 2.547320 g / cm^3
# Si number density = 25.531313 Si / 1000 Ang^3
#
#
#
# Elastic Constant Matrix: (Units=GPa)
#
#
# Indices 1 2 3 4 5 6 
#
# 1 104.8772 47.5882 59.7889 0.0000 0.0000 0.0000
# 2 47.5882 68.9621 -5.2666 0.0000 0.0000 0.0000
# 3 59.7889 -5.2666 130.9946 0.0000 0.0000 0.0000
# 4 0.0000 0.0000 0.0000 13.6392 0.0000 0.0000
# 5 0.0000 0.0000 0.0000 0.0000 49.4373 0.0000
# 6 0.0000 0.0000 0.0000 0.0000 0.0000 39.8770
#
#
#
# Elastic Compliance Matrix: (Units=1/GPa)
#
#
# Indices 1 2 3 4 5 6 
#
# 1 0.024250 -0.017634 -0.011777 0.000000 0.000000 0.000000
# 2 -0.017634 0.027368 0.009149 0.000000 0.000000 0.000000
# 3 -0.011777 0.009149 0.013377 0.000000 0.000000 0.000000
# 4 0.000000 0.000000 0.000000 0.073318 0.000000 0.000000
# 5 0.000000 0.000000 0.000000 0.000000 0.020228 0.000000
# 6 0.000000 0.000000 0.000000 0.000000 0.000000 0.025077
#
#
# Mechanical properties :
#
#
# Convention : Reuss Voigt Hill
#
# Bulk Modulus (GPa) = 40.86530 56.56167 48.71348
# Shear Modulus (GPa) = 21.52387 34.10559 27.81473
#
# Velocity S-wave (km/s) = 2.90666 3.65887 3.30424
# Velocity P-wave (km/s) = 5.22548 6.32864 5.80333
#
# Compressibility (1/GPa) = 0.02447064
#
# Stress axis : x y z
#
# Youngs Moduli (GPa) = 41.23636 36.53925 74.75400
#
# Poissons Ratio (x) = 0.64433 0.88041
# Poissons Ratio (y) = 0.72715 -0.68391
# Poissons Ratio (z) = 0.48566 -0.33429
#
# Static dielectric constant tensor:
#      x y z
#    x 2.070980 0.000000 0.000000 
#    y 0.000000 2.138560 0.000000 
#    z 0.000000 0.000000 2.101180 
# 
# From -- ./inp_files/2709.got.cif
#   From: 2010.05.17/outbox.cif.g08.bks.cpg/sg34_2_cif.got.tgz:2709.got - 2010.06.03 17:23:11.
