data_PCOD9347865
_publ_section_title
;
Structure prediction by ZEFSAII (Michael W. Deem and Ramdas Pophale) SiO2 
 PCOD9347865
Probable space group: P N N 2
;
_chemical_formula_sum "Si O2"
_cell_formula_units_Z 14
_cell_length_a 5.285616
_cell_length_b 5.157529
_cell_length_c 19.815110
_cell_angle_alpha 90.000000
_cell_angle_beta 90.000000
_cell_angle_gamma 90.000000
_cell_volume 540.174122
_symmetry_space_group_name_H-M "P N N 2"
_symmetry_group_IT_number 34
_symmetry_cell_setting 'orthorhombic'
loop_
_space_group_symop_operation_xyz
x,y,z
-x,-y,z
1/2-x,1/2+y,1/2+z
1/2+x,1/2-y,1/2+z
loop_
_atom_site_type_symbol
_atom_site_label
_atom_site_fract_x
_atom_site_fract_y
_atom_site_fract_z
Si Si1 0.247224 0.321313 0.205190
Si Si2 0.248819 0.323272 0.353292
Si Si3 0.500000 0.000000 0.098753
Si Si4 0.337394 0.233320 0.499914
O O1 0.500000 0.500000 0.201780
O O2 0.240716 0.192175 0.279916
O O3 0.000000 0.500000 0.198355
O O4 0.284242 0.110231 0.147497
O O5 0.500000 0.500000 0.352046
O O6 0.260762 0.167050 0.422865
O O7 0.000000 0.500000 0.358086
O O8 0.395008 0.784914 0.048471
O O9 0.500000 0.500000 0.498164
O O10 0.500000 0.000000 0.527406
#
# Coordination Sequence:
#
# PCOD9347865 Si02
#       4
#     4   4   2   4
#     4  10  25  45  76 108 156 204 267 328 405 474
#     4   9  19  46  73 109 147 204 262 332 391 481
#     4  12  28  44  76 118 156 216 264 340 402 492
#     4  11  27  47  77 111 159 206 268 329 407 478
#
# _framework density 25.917570000000001
#
# number of rings (size 3 to 8) (size 9 to 14) (size 15 to 20)
#    0.000    1.714    1.429    0.000   10.000    0.000 
#    0.000    0.000    0.000    0.000    0.000    0.000 
#    0.000    0.000    0.000    0.000    0.000    0.000 
#
# Total GULP energy -78534.900343 kJ/mol
# GULP energy per Si atom -5609.635739 kJ/mol
# Density = 2.585858 g / cm^3
# Si number density = 25.917570 Si / 1000 Ang^3
#
#
#
# Elastic Constant Matrix: (Units=GPa)
#
#
# Indices 1 2 3 4 5 6 
#
# 1 179.3801 44.9881 42.4321 0.0000 0.0000 0.0000
# 2 44.9881 88.0839 36.9160 0.0000 0.0000 0.0000
# 3 42.4321 36.9160 230.3498 0.0000 0.0000 0.0000
# 4 0.0000 0.0000 0.0000 -72.8454 0.0000 0.0000
# 5 0.0000 0.0000 0.0000 0.0000 36.1398 0.0000
# 6 0.0000 0.0000 0.0000 0.0000 0.0000 58.9797
#
#
#
# Elastic Compliance Matrix: (Units=1/GPa)
#
#
# Indices 1 2 3 4 5 6 
#
# 1 0.006501 -0.003022 -0.000713 0.000000 0.000000 0.000000
# 2 -0.003022 0.013574 -0.001619 0.000000 0.000000 0.000000
# 3 -0.000713 -0.001619 0.004732 0.000000 0.000000 0.000000
# 4 0.000000 0.000000 0.000000 -0.013728 0.000000 0.000000
# 5 0.000000 0.000000 0.000000 0.000000 0.027670 0.000000
# 6 0.000000 0.000000 0.000000 0.000000 0.000000 0.016955
#
#
# Mechanical properties :
#
#
# Convention : Reuss Voigt Hill
#
# Bulk Modulus (GPa) = 70.92011 82.94293 76.93152
# Shear Modulus (GPa) = 70.31059 29.35333 49.83196
#
# Velocity S-wave (km/s) = 5.21416 3.36901 4.38963
# Velocity P-wave (km/s) = 7.97954 6.87064 7.44576
#
# Compressibility (1/GPa) = 0.01410037
#
# Stress axis : x y z
#
# Youngs Moduli (GPa) = 153.81570 73.66755 211.32399
#
# Poissons Ratio (x) = 0.22259 0.15075
# Poissons Ratio (y) = 0.46476 0.34211
# Poissons Ratio (z) = 0.10973 0.11926
#
# Static dielectric constant tensor:
#      x y z
#    x 1.950180 0.000000 0.000000 
#    y 0.000000 2.070670 0.000000 
#    z 0.000000 0.000000 2.036560 
# 
# From -- ./inp_files/7021.got.cif
#   From: 2010.05.17/outbox.cif.g08.bks.cpg/sg34_4_cif.got.tgz:7021.got - 2010.06.03 17:23:11.
