data_PCOD9347871
_publ_section_title
;
Structure prediction by ZEFSAII (Michael W. Deem and Ramdas Pophale) SiO2 
 PCOD9347871
Probable space group: P N N 2
;
_chemical_formula_sum "Si O2"
_cell_formula_units_Z 18
_cell_length_a 5.333470
_cell_length_b 5.359003
_cell_length_c 24.992237
_cell_angle_alpha 90.000000
_cell_angle_beta 90.000000
_cell_angle_gamma 90.000000
_cell_volume 714.330161
_symmetry_space_group_name_H-M "P N N 2"
_symmetry_group_IT_number 34
_symmetry_cell_setting 'orthorhombic'
loop_
_space_group_symop_operation_xyz
x,y,z
-x,-y,z
1/2-x,1/2+y,1/2+z
1/2+x,1/2-y,1/2+z
loop_
_atom_site_type_symbol
_atom_site_label
_atom_site_fract_x
_atom_site_fract_y
_atom_site_fract_z
Si Si1 0.657936 0.758642 0.450940
Si Si2 0.751352 0.172447 0.185374
Si Si3 0.137707 0.248048 0.338244
Si Si4 0.000000 0.000000 0.768972
Si Si5 0.748632 0.166601 0.067847
O O1 0.500000 0.500000 0.450499
O O2 0.850715 0.744211 0.402575
O O3 0.753638 0.806139 0.511194
O O4 0.500000 0.000000 0.436081
O O5 0.706183 0.383040 0.229290
O O6 0.756863 0.294943 0.125756
O O7 0.500000 0.000000 0.187605
O O8 0.000000 0.000000 0.191724
O O9 0.401313 0.284515 0.308603
O O10 0.000000 0.500000 0.322892
O O11 0.000000 0.000000 0.320926
O O12 0.500000 0.000000 0.067292
O O13 0.000000 0.000000 0.066887
#
# Coordination Sequence:
#
# PCOD9347871 Si02
#       5
#     4   4   4   2   4
#     4  11  23  47  76 113 154 200 256 327 401 478
#     4  10  25  49  77 113 157 208 266 329 400 477
#     4  12  29  49  79 114 154 211 267 330 405 476
#     4  12  30  48  76 112 166 208 286 324 408 484
#     4   9  20  45  76 110 154 200 255 324 398 475
#
# _framework density 25.198429000000001
#
# number of rings (size 3 to 8) (size 9 to 14) (size 15 to 20)
#    0.000    1.333    1.111    2.000    6.222    1.778 
#   22.000    0.000    0.000    0.000    0.000    0.000 
#    0.000    0.000    0.000    0.000    0.000    0.000 
#
# Total GULP energy -100763.563344 kJ/mol
# GULP energy per Si atom -5597.975741 kJ/mol
# Density = 2.514108 g / cm^3
# Si number density = 25.198429 Si / 1000 Ang^3
#
#
#
# Elastic Constant Matrix: (Units=GPa)
#
#
# Indices 1 2 3 4 5 6 
#
# 1 128.9813 46.1461 26.2526 0.0000 0.0000 0.0000
# 2 46.1461 137.7342 32.5490 0.0000 0.0000 0.0000
# 3 26.2526 32.5490 198.5930 0.0000 0.0000 0.0000
# 4 0.0000 0.0000 0.0000 24.9737 0.0000 0.0000
# 5 0.0000 0.0000 0.0000 0.0000 34.2265 0.0000
# 6 0.0000 0.0000 0.0000 0.0000 0.0000 51.5936
#
#
#
# Elastic Compliance Matrix: (Units=1/GPa)
#
#
# Indices 1 2 3 4 5 6 
#
# 1 0.008906 -0.002815 -0.000716 0.000000 0.000000 0.000000
# 2 -0.002815 0.008442 -0.001012 0.000000 0.000000 0.000000
# 3 -0.000716 -0.001012 0.005296 0.000000 0.000000 0.000000
# 4 0.000000 0.000000 0.000000 0.040042 0.000000 0.000000
# 5 0.000000 0.000000 0.000000 0.000000 0.029217 0.000000
# 6 0.000000 0.000000 0.000000 0.000000 0.000000 0.019382
#
#
# Mechanical properties :
#
#
# Convention : Reuss Voigt Hill
#
# Bulk Modulus (GPa) = 73.74790 75.02266 74.38528
# Shear Modulus (GPa) = 40.03527 46.18279 43.10903
#
# Velocity S-wave (km/s) = 3.99030 4.28572 4.14065
# Velocity P-wave (km/s) = 7.11058 7.37071 7.24181
#
# Compressibility (1/GPa) = 0.01355971
#
# Stress axis : x y z
#
# Youngs Moduli (GPa) = 112.28674 118.44953 188.82618
#
# Poissons Ratio (x) = 0.33338 0.13520
# Poissons Ratio (y) = 0.31604 0.19102
# Poissons Ratio (z) = 0.08040 0.11983
#
# Static dielectric constant tensor:
#      x y z
#    x 2.067920 0.000000 0.000000 
#    y 0.000000 1.647850 0.000000 
#    z 0.000000 0.000000 1.993380 
# 
# From -- ./inp_files/8211.got.cif
#   From: 2010.05.17/outbox.cif.g08.bks.cpg/sg34_5_cif.got.tgz:8211.got - 2010.06.03 17:23:11.
