data_PCOD9347510
_publ_section_title
;
Structure prediction by ZEFSAII (Michael W. Deem and Ramdas Pophale) SiO2 
 PCOD9347510
Probable space group: P N N 2
;
_chemical_formula_sum "Si O2"
_cell_formula_units_Z 32
_cell_length_a 16.088335
_cell_length_b 8.646689
_cell_length_c 11.495305
_cell_angle_alpha 90.000000
_cell_angle_beta 90.000000
_cell_angle_gamma 90.000000
_cell_volume 1599.121411
_symmetry_space_group_name_H-M "P N N 2"
_symmetry_group_IT_number 34
_symmetry_cell_setting 'orthorhombic'
loop_
_space_group_symop_operation_xyz
x,y,z
-x,-y,z
1/2-x,1/2+y,1/2+z
1/2+x,1/2-y,1/2+z
loop_
_atom_site_type_symbol
_atom_site_label
_atom_site_fract_x
_atom_site_fract_y
_atom_site_fract_z
Si Si1 0.512315 0.317558 0.091380
Si Si2 0.857962 0.783455 0.290553
Si Si3 0.820386 0.658773 0.538988
Si Si4 0.531968 0.820280 0.843516
Si Si5 0.748704 0.103250 0.627044
Si Si6 0.122094 0.639558 0.678239
Si Si7 0.712727 0.789496 0.727772
Si Si8 0.730867 0.021865 0.364951
O O1 0.500000 0.500000 0.108998
O O2 0.609730 0.282335 0.078892
O O3 0.472311 0.198004 0.183681
O O4 0.468760 0.255840 0.971922
O O5 0.823737 0.678921 0.399840
O O6 0.956149 0.772661 0.285589
O O7 0.821841 0.719844 0.171194
O O8 0.817898 0.947881 0.320710
O O9 0.854901 0.494617 0.585130
O O10 0.734938 0.699500 0.606161
O O11 0.618188 0.803233 0.774314
O O12 0.500000 0.000000 0.850453
O O13 0.830584 0.205245 0.637500
O O14 0.730292 0.031004 0.502203
O O15 0.747190 0.960243 0.713407
O O16 0.160920 0.577522 0.798947
O O17 0.767413 0.695403 0.819378
#
# Coordination Sequence:
#
# PCOD9347510 Si02
#       8
#     4   4   4   4   4   4   4   4
#     4  11  22  36  65  94 124 159 213 273 316 378
#     4  10  21  37  59  90 124 160 211 261 305 380
#     4  10  21  39  62  89 128 165 207 265 329 371
#     4  11  22  35  57  93 126 165 208 260 324 369
#     4  11  21  38  62  88 128 165 211 255 318 384
#     4  10  22  38  59  94 125 158 206 268 314 383
#     4  11  22  37  63  86 125 163 205 261 319 380
#     4  10  23  38  60  93 121 165 209 254 322 377
#
# _framework density 20.010987
#
# number of rings (size 3 to 8) (size 9 to 14) (size 15 to 20)
#    0.000    1.500    2.500    3.375    7.000    0.000 
#    0.000    0.000   11.000    0.000    0.000    0.000 
#    0.000    0.000    0.000    0.000    0.000    0.000 
#
# Total GULP energy -178475.236055 kJ/mol
# GULP energy per Si atom -5577.351127 kJ/mol
# Density = 1.996544 g / cm^3
# Si number density = 20.010987 Si / 1000 Ang^3
#
#
#
# Elastic Constant Matrix: (Units=GPa)
#
#
# Indices 1 2 3 4 5 6 
#
# 1 83.3993 14.5380 36.4242 0.0000 0.0000 0.0000
# 2 14.5380 98.3055 32.9707 0.0000 0.0000 0.0000
# 3 36.4242 32.9707 53.2071 0.0000 0.0000 0.0000
# 4 0.0000 0.0000 0.0000 25.3846 0.0000 0.0000
# 5 0.0000 0.0000 0.0000 0.0000 29.6830 0.0000
# 6 0.0000 0.0000 0.0000 0.0000 0.0000 24.5366
#
#
#
# Elastic Compliance Matrix: (Units=1/GPa)
#
#
# Indices 1 2 3 4 5 6 
#
# 1 0.017350 0.001790 -0.012987 0.000000 0.000000 0.000000
# 2 0.001790 0.013026 -0.009297 0.000000 0.000000 0.000000
# 3 -0.012987 -0.009297 0.033446 0.000000 0.000000 0.000000
# 4 0.000000 0.000000 0.000000 0.039394 0.000000 0.000000
# 5 0.000000 0.000000 0.000000 0.000000 0.033689 0.000000
# 6 0.000000 0.000000 0.000000 0.000000 0.000000 0.040755
#
#
# Mechanical properties :
#
#
# Convention : Reuss Voigt Hill
#
# Bulk Modulus (GPa) = 43.79366 44.75309 44.27338
# Shear Modulus (GPa) = 22.09852 25.98612 24.04232
#
# Velocity S-wave (km/s) = 3.32674 3.60751 3.46996
# Velocity P-wave (km/s) = 6.05711 6.30595 6.18278
#
# Compressibility (1/GPa) = 0.02283435
#
# Stress axis : x y z
#
# Youngs Moduli (GPa) = 57.63567 76.77096 29.89919
#
# Poissons Ratio (x) = -0.13740 0.38829
# Poissons Ratio (y) = -0.10315 0.27797
# Poissons Ratio (z) = 0.74849 0.71373
#
# Static dielectric constant tensor:
#      x y z
#    x 1.788080 0.000000 0.000000 
#    y 0.000000 1.740180 0.000000 
#    z 0.000000 0.000000 1.765430 
# 
# From -- ./inp_files/5799.got.cif
#   From: 2010.05.17/outbox.cif.g08.bks.cpg/sg34_3_cif.got.tgz:5799.got - 2010.06.03 17:23:11.
