data_PCOD9347257
_publ_section_title
;
Structure prediction by ZEFSAII (Michael W. Deem and Ramdas Pophale) SiO2 
 PCOD9347257
Probable space group: P N N 2
;
_chemical_formula_sum "Si O2"
_cell_formula_units_Z 26
_cell_length_a 9.269535
_cell_length_b 9.733184
_cell_length_c 14.673323
_cell_angle_alpha 90.000000
_cell_angle_beta 90.000000
_cell_angle_gamma 90.000000
_cell_volume 1323.857865
_symmetry_space_group_name_H-M "P N N 2"
_symmetry_group_IT_number 34
_symmetry_cell_setting 'orthorhombic'
loop_
_space_group_symop_operation_xyz
x,y,z
-x,-y,z
1/2-x,1/2+y,1/2+z
1/2+x,1/2-y,1/2+z
loop_
_atom_site_type_symbol
_atom_site_label
_atom_site_fract_x
_atom_site_fract_y
_atom_site_fract_z
Si Si1 0.169456 0.018008 0.123680
Si Si2 0.858748 0.412705 0.448853
Si Si3 0.468698 0.349969 0.015458
Si Si4 0.000000 0.500000 0.133755
Si Si5 0.792065 0.262731 0.057373
Si Si6 0.758470 0.195965 0.689096
Si Si7 0.359345 0.407252 0.373507
O O1 0.209345 0.144022 0.188994
O O2 0.213622 0.858815 0.133367
O O3 0.246404 0.070772 0.031486
O O4 0.000000 0.000000 0.112856
O O5 0.776272 0.487756 0.368738
O O6 0.000000 0.500000 0.472713
O O7 0.906562 0.256454 0.441815
O O8 0.500000 0.500000 0.978268
O O9 0.626480 0.304260 0.047480
O O10 0.357787 0.342560 0.100927
O O11 0.100905 0.611287 0.079834
O O12 0.116399 0.401223 0.184054
O O13 0.840141 0.191525 0.961401
O O14 0.852672 0.171894 0.778866
O O15 0.500000 0.500000 0.382724
#
# Coordination Sequence:
#
# PCOD9347257 Si02
#       7
#     4   4   4   2   4   4   4
#     4  10  19  38  64  91 123 166 217 254 315 384
#     4  10  19  35  64  92 117 167 214 254 310 391
#     4  11  21  37  64  98 126 163 224 267 315 376
#     4  12  24  38  70  98 130 168 232 258 320 388
#     4  11  22  41  67  94 126 174 218 268 309 401
#     4  11  25  39  66  96 129 169 215 276 324 382
#     4  11  25  42  65  94 135 169 216 267 338 379
#
# _framework density 19.639571
#
# number of rings (size 3 to 8) (size 9 to 14) (size 15 to 20)
#    0.000    1.231    6.154    2.308    3.231    0.000 
#    0.000    2.308    3.385    0.000    0.000    0.000 
#    0.000    0.000    0.000    0.000    0.000    0.000 
#
# Total GULP energy -144801.647086 kJ/mol
# GULP energy per Si atom -5569.294119 kJ/mol
# Density = 1.959487 g / cm^3
# Si number density = 19.639571 Si / 1000 Ang^3
#
#
#
# Elastic Constant Matrix: (Units=GPa)
#
#
# Indices 1 2 3 4 5 6 
#
# 1 106.1512 33.0674 9.6675 0.0000 0.0000 0.0000
# 2 33.0674 159.4081 20.6761 0.0000 0.0000 0.0000
# 3 9.6675 20.6761 40.8818 0.0000 0.0000 0.0000
# 4 0.0000 0.0000 0.0000 15.1612 0.0000 0.0000
# 5 0.0000 0.0000 0.0000 0.0000 13.9360 0.0000
# 6 0.0000 0.0000 0.0000 0.0000 0.0000 41.9243
#
#
#
# Elastic Compliance Matrix: (Units=1/GPa)
#
#
# Indices 1 2 3 4 5 6 
#
# 1 0.010149 -0.001920 -0.001429 0.000000 0.000000 0.000000
# 2 -0.001920 0.007077 -0.003125 0.000000 0.000000 0.000000
# 3 -0.001429 -0.003125 0.026379 0.000000 0.000000 0.000000
# 4 0.000000 0.000000 0.000000 0.065958 0.000000 0.000000
# 5 0.000000 0.000000 0.000000 0.000000 0.071757 0.000000
# 6 0.000000 0.000000 0.000000 0.000000 0.000000 0.023852
#
#
# Mechanical properties :
#
#
# Convention : Reuss Voigt Hill
#
# Bulk Modulus (GPa) = 32.61910 48.14035 40.37973
# Shear Modulus (GPa) = 21.89732 30.40631 26.15182
#
# Velocity S-wave (km/s) = 3.34272 3.93901 3.65305
# Velocity P-wave (km/s) = 5.61634 6.72702 6.19662
#
# Compressibility (1/GPa) = 0.03065689
#
# Stress axis : x y z
#
# Youngs Moduli (GPa) = 98.53439 141.30656 37.90862
#
# Poissons Ratio (x) = 0.27129 0.05417
# Poissons Ratio (y) = 0.18918 0.11847
# Poissons Ratio (z) = 0.14080 0.44160
#
# Static dielectric constant tensor:
#      x y z
#    x 1.707820 0.000000 0.000000 
#    y 0.000000 1.772290 0.000000 
#    z 0.000000 0.000000 1.686920 
# 
# From -- ./inp_files/7492.got.cif
#   From: 2010.05.17/outbox.cif.g08.bks.cpg/sg34_4_cif.got.tgz:7492.got - 2010.06.03 17:23:11.
