data_PCOD9347051
_publ_section_title
;
Structure prediction by ZEFSAII (Michael W. Deem and Ramdas Pophale) SiO2 
 PCOD9347051
Probable space group: P N A 21
;
_chemical_formula_sum "Si O2"
_cell_formula_units_Z 20
_cell_length_a 8.458999
_cell_length_b 10.129728
_cell_length_c 8.641460
_cell_angle_alpha 90.000000
_cell_angle_beta 90.000000
_cell_angle_gamma 90.000000
_cell_volume 740.463885
_symmetry_space_group_name_H-M "P N A 21"
_symmetry_group_IT_number 33
_symmetry_cell_setting 'orthorhombic'
loop_
_space_group_symop_operation_xyz
x,y,z
-x,-y,1/2+z
1/2-x,1/2+y,1/2+z
1/2+x,1/2-y,z
loop_
_atom_site_type_symbol
_atom_site_label
_atom_site_fract_x
_atom_site_fract_y
_atom_site_fract_z
Si Si1 0.652382 0.250000 0.887800
Si Si2 0.481474 0.885324 0.652486
Si Si3 0.697205 0.960488 0.914689
Si Si4 0.981474 0.885324 0.123114
Si Si5 0.697205 0.539512 0.860910
O O1 0.745794 0.112873 0.879723
O O2 0.543530 0.262720 0.736236
O O3 0.543530 0.237280 0.039364
O O4 0.745794 0.387127 0.895876
O O5 0.445737 0.009260 0.537125
O O6 0.054263 0.990740 0.738475
O O7 0.665724 0.111715 0.270852
O O8 0.633023 0.895202 0.759741
O O9 0.834276 0.888285 0.004748
O O10 0.133023 0.895202 0.015859
#
# Coordination Sequence:
#
# PCOD9347051 Si02
#       5
#     4   4   4   4   4
#     4   8  18  38  62  96 134 176 202 272 328 390
#     4   9  19  38  65  98 136 167 219 264 333 385
#     4   9  19  37  66  98 132 170 213 272 322 399
#     4   9  19  38  65  98 136 167 219 264 333 385
#     4   9  19  37  66  98 132 170 213 272 322 399
#
# _framework density 27.010096999999998
#
# number of rings (size 3 to 8) (size 9 to 14) (size 15 to 20)
#    2.400    0.800    0.000    0.000    0.000    3.200 
#    0.000    2.000    0.000    7.200    0.000    0.000 
#    0.000    0.000    0.000    0.000    0.000    0.000 
#
# Total GULP energy -111862.228572 kJ/mol
# GULP energy per Si atom -5593.111429 kJ/mol
# Density = 2.694862 g / cm^3
# Si number density = 27.010097 Si / 1000 Ang^3
#
#
#
# Elastic Constant Matrix: (Units=GPa)
#
#
# Indices 1 2 3 4 5 6 
#
# 1 74.6832 43.7386 70.3593 0.0000 0.0000 0.0000
# 2 43.7386 100.6490 61.9067 0.0000 0.0000 0.0000
# 3 70.3593 61.9067 185.2525 0.0000 0.0000 0.0000
# 4 0.0000 0.0000 0.0000 70.8580 0.0000 0.0000
# 5 0.0000 0.0000 0.0000 0.0000 67.4706 0.0000
# 6 0.0000 0.0000 0.0000 0.0000 0.0000 14.5090
#
#
#
# Elastic Compliance Matrix: (Units=1/GPa)
#
#
# Indices 1 2 3 4 5 6 
#
# 1 0.023340 -0.005904 -0.006892 0.000000 0.000000 0.000000
# 2 -0.005904 0.013999 -0.002436 0.000000 0.000000 0.000000
# 3 -0.006892 -0.002436 0.008830 0.000000 0.000000 0.000000
# 4 0.000000 0.000000 0.000000 0.014113 0.000000 0.000000
# 5 0.000000 0.000000 0.000000 0.000000 0.014821 0.000000
# 6 0.000000 0.000000 0.000000 0.000000 0.000000 0.068923
#
#
# Mechanical properties :
#
#
# Convention : Reuss Voigt Hill
#
# Bulk Modulus (GPa) = 63.66964 79.17709 71.42337
# Shear Modulus (GPa) = 27.82033 42.87285 35.34659
#
# Velocity S-wave (km/s) = 3.21284 3.98840 3.62144
# Velocity P-wave (km/s) = 6.11448 7.11248 6.63228
#
# Compressibility (1/GPa) = 0.01570607
#
# Stress axis : x y z
#
# Youngs Moduli (GPa) = 42.84427 71.43137 113.25575
#
# Poissons Ratio (x) = 0.42173 0.78053
# Poissons Ratio (y) = 0.25295 0.27588
# Poissons Ratio (z) = 0.29527 0.17400
#
# Static dielectric constant tensor:
#      x y z
#    x 2.105660 0.000000 0.000000 
#    y 0.000000 2.129420 0.000000 
#    z 0.000000 0.000000 2.106160 
# 
# From -- ./inp_files/3094.got.cif
#   From: 2010.05.17/outbox.cif.g08.bks.cpg/sg33_2_cif.got.tgz:3094.got - 2010.06.03 17:15:25.
