data_PCOD9347408
_publ_section_title
;
Structure prediction by ZEFSAII (Michael W. Deem and Ramdas Pophale) SiO2 
 PCOD9347408
Probable space group: P N N 2
;
_chemical_formula_sum "Si O2"
_cell_formula_units_Z 24
_cell_length_a 5.207158
_cell_length_b 15.565095
_cell_length_c 10.682586
_cell_angle_alpha 90.000000
_cell_angle_beta 90.000000
_cell_angle_gamma 90.000000
_cell_volume 865.822623
_symmetry_space_group_name_H-M "P N N 2"
_symmetry_group_IT_number 34
_symmetry_cell_setting 'orthorhombic'
loop_
_space_group_symop_operation_xyz
x,y,z
-x,-y,z
1/2-x,1/2+y,1/2+z
1/2+x,1/2-y,1/2+z
loop_
_atom_site_type_symbol
_atom_site_label
_atom_site_fract_x
_atom_site_fract_y
_atom_site_fract_z
Si Si1 0.081269 0.343526 0.930530
Si Si2 0.812317 0.774503 0.584360
Si Si3 0.416278 0.649718 0.338204
Si Si4 0.632526 0.606104 0.685309
Si Si5 0.253390 0.940043 0.681022
Si Si6 0.372266 0.102501 0.069163
O O1 0.115692 0.245892 0.886719
O O2 0.162496 0.079237 0.176984
O O3 0.205812 0.381325 0.057096
O O4 0.454441 0.206024 0.078209
O O5 0.604301 0.703447 0.629679
O O6 0.817717 0.839819 0.697955
O O7 0.723014 0.831380 0.466061
O O8 0.287451 0.894153 0.315552
O O9 0.270766 0.591792 0.437596
O O10 0.703376 0.617488 0.305902
O O11 0.840783 0.566562 0.588509
O O12 0.500000 0.000000 0.691541
O O13 0.000000 0.000000 0.671018
#
# Coordination Sequence:
#
# PCOD9347408 Si02
#       6
#     4   4   4   4   4   4
#     4  11  23  45  76 110 150 208 275 327 386 501
#     4   9  21  36  63 110 144 183 251 338 386 428
#     4  11  22  42  75 108 149 204 271 326 380 490
#     4   9  22  36  61 102 151 177 244 332 393 433
#     4  12  30  52  72 116 171 216 256 343 441 484
#     4  10  20  39  57 106 149 177 246 332 397 431
#
# _framework density 27.719301999999999
#
# number of rings (size 3 to 8) (size 9 to 14) (size 15 to 20)
#    1.000    0.667    1.667    2.000    0.000   10.667 
#    3.000    0.000    0.000    4.000    0.000    0.000 
#    0.000    0.000    0.000    0.000    0.000    0.000 
#
# Total GULP energy -133809.441096 kJ/mol
# GULP energy per Si atom -5575.393379 kJ/mol
# Density = 2.765621 g / cm^3
# Si number density = 27.719302 Si / 1000 Ang^3
#
#
#
# Elastic Constant Matrix: (Units=GPa)
#
#
# Indices 1 2 3 4 5 6 
#
# 1 192.3952 44.9335 59.1630 0.0000 0.0000 0.0000
# 2 44.9335 88.2950 3.2582 0.0000 0.0000 0.0000
# 3 59.1630 3.2582 138.0216 0.0000 0.0000 0.0000
# 4 0.0000 0.0000 0.0000 32.5781 0.0000 0.0000
# 5 0.0000 0.0000 0.0000 0.0000 40.8146 0.0000
# 6 0.0000 0.0000 0.0000 0.0000 0.0000 42.0202
#
#
#
# Elastic Compliance Matrix: (Units=1/GPa)
#
#
# Indices 1 2 3 4 5 6 
#
# 1 0.006871 -0.003391 -0.002865 0.000000 0.000000 0.000000
# 2 -0.003391 0.013009 0.001146 0.000000 0.000000 0.000000
# 3 -0.002865 0.001146 0.008446 0.000000 0.000000 0.000000
# 4 0.000000 0.000000 0.000000 0.030695 0.000000 0.000000
# 5 0.000000 0.000000 0.000000 0.000000 0.024501 0.000000
# 6 0.000000 0.000000 0.000000 0.000000 0.000000 0.023798
#
#
# Mechanical properties :
#
#
# Convention : Reuss Voigt Hill
#
# Bulk Modulus (GPa) = 55.22745 70.38012 62.80379
# Shear Modulus (GPa) = 40.46134 43.83971 42.15053
#
# Velocity S-wave (km/s) = 3.82472 3.98120 3.90374
# Velocity P-wave (km/s) = 6.28265 6.82486 6.55936
#
# Compressibility (1/GPa) = 0.01810694
#
# Stress axis : x y z
#
# Youngs Moduli (GPa) = 145.54887 76.87042 118.39542
#
# Poissons Ratio (x) = 0.26065 0.33921
# Poissons Ratio (y) = 0.49351 -0.13572
# Poissons Ratio (z) = 0.41700 -0.08812
#
# Static dielectric constant tensor:
#      x y z
#    x 2.943950 0.000000 0.000000 
#    y 0.000000 2.671320 0.000000 
#    z 0.000000 0.000000 2.165380 
# 
# From -- ./inp_files/4477.got.cif
#   From: 2010.05.17/outbox.cif.g08.bks.cpg/sg34_3_cif.got.tgz:4477.got - 2010.06.03 17:23:11.
