data_PCOD9347330
_publ_section_title
;
Structure prediction by ZEFSAII (Michael W. Deem and Ramdas Pophale) SiO2 
 PCOD9347330
Probable space group: P N N 2
;
_chemical_formula_sum "Si O2"
_cell_formula_units_Z 30
_cell_length_a 9.879896
_cell_length_b 5.267827
_cell_length_c 31.100444
_cell_angle_alpha 90.000000
_cell_angle_beta 90.000000
_cell_angle_gamma 90.000000
_cell_volume 1618.640737
_symmetry_space_group_name_H-M "P N N 2"
_symmetry_group_IT_number 34
_symmetry_cell_setting 'orthorhombic'
loop_
_space_group_symop_operation_xyz
x,y,z
-x,-y,z
1/2-x,1/2+y,1/2+z
1/2+x,1/2-y,1/2+z
loop_
_atom_site_type_symbol
_atom_site_label
_atom_site_fract_x
_atom_site_fract_y
_atom_site_fract_z
Si Si1 0.663131 0.001533 0.853510
Si Si2 0.736270 0.599299 0.063186
Si Si3 0.849362 0.616247 0.450033
Si Si4 0.164104 0.504220 0.714149
Si Si5 0.664664 0.499620 0.800912
Si Si6 0.849135 0.077021 0.026209
Si Si7 0.500000 0.500000 0.000505
Si Si8 0.837989 0.994378 0.660574
O O1 0.703444 0.065594 0.902385
O O2 0.702591 0.232683 0.822782
O O3 0.500000 0.000000 0.855170
O O4 0.700270 0.730667 0.833325
O O5 0.819382 0.365111 0.041486
O O6 0.712768 0.521631 0.112176
O O7 0.807275 0.871686 0.061941
O O8 0.597270 0.637989 0.035605
O O9 0.744466 0.521812 0.485055
O O10 0.000000 0.500000 0.454495
O O11 0.887612 0.895900 0.466925
O O12 0.250628 0.473916 0.757409
O O13 0.198687 0.269804 0.682981
O O14 0.000000 0.500000 0.722064
O O15 0.200408 0.767516 0.690559
O O16 0.500000 0.500000 0.794123
O O17 0.000000 0.000000 0.014587
O O18 0.000000 0.000000 0.657814
#
# Coordination Sequence:
#
# PCOD9347330 Si02
#       8
#     4   4   4   4   4   4   2   4
#     4   9  20  32  58  83 111 140 187 242 277 330
#     4  11  21  38  60  84 116 152 198 236 290 338
#     4  10  20  35  58  86 112 149 200 243 287 329
#     4  10  21  37  59  84 112 144 182 239 291 348
#     4  10  20  38  55  81 110 148 182 228 290 345
#     4  11  24  39  55  81 123 162 187 230 288 356
#     4  10  20  32  60  92 114 146 194 254 282 342
#     4  10  20  36  59  87 112 140 189 245 290 329
#
# _framework density 18.534068000000001
#
# number of rings (size 3 to 8) (size 9 to 14) (size 15 to 20)
#    0.000    1.867    2.000    2.000    4.667    0.000 
#    0.000    5.333    0.000    0.000    0.000    0.000 
#    0.000    0.000    0.000    0.000    0.000    0.000 
#
# Total GULP energy -167044.098423 kJ/mol
# GULP energy per Si atom -5568.136614 kJ/mol
# Density = 1.849188 g / cm^3
# Si number density = 18.534068 Si / 1000 Ang^3
#
#
#
# Elastic Constant Matrix: (Units=GPa)
#
#
# Indices 1 2 3 4 5 6 
#
# 1 43.1569 12.0519 27.7303 0.0000 0.0000 0.0000
# 2 12.0519 84.9537 24.2368 0.0000 0.0000 0.0000
# 3 27.7303 24.2368 130.3054 0.0000 0.0000 0.0000
# 4 0.0000 0.0000 0.0000 26.8665 0.0000 0.0000
# 5 0.0000 0.0000 0.0000 0.0000 18.2999 0.0000
# 6 0.0000 0.0000 0.0000 0.0000 0.0000 9.5572
#
#
#
# Elastic Compliance Matrix: (Units=1/GPa)
#
#
# Indices 1 2 3 4 5 6 
#
# 1 0.027274 -0.002337 -0.005369 0.000000 0.000000 0.000000
# 2 -0.002337 0.012631 -0.001852 0.000000 0.000000 0.000000
# 3 -0.005369 -0.001852 0.009161 0.000000 0.000000 0.000000
# 4 0.000000 0.000000 0.000000 0.037221 0.000000 0.000000
# 5 0.000000 0.000000 0.000000 0.000000 0.054645 0.000000
# 6 0.000000 0.000000 0.000000 0.000000 0.000000 0.104633
#
#
# Mechanical properties :
#
#
# Convention : Reuss Voigt Hill
#
# Bulk Modulus (GPa) = 33.39005 42.93933 38.16469
# Shear Modulus (GPa) = 18.20391 23.90453 21.05422
#
# Velocity S-wave (km/s) = 3.13739 3.59522 3.37408
# Velocity P-wave (km/s) = 5.58380 6.36021 5.98461
#
# Compressibility (1/GPa) = 0.02994904
#
# Stress axis : x y z
#
# Youngs Moduli (GPa) = 36.66484 79.16992 109.15342
#
# Poissons Ratio (x) = 0.18505 0.58609
# Poissons Ratio (y) = 0.08570 0.20215
# Poissons Ratio (z) = 0.19687 0.14662
#
# Static dielectric constant tensor:
#      x y z
#    x 1.671020 0.000000 0.000000 
#    y 0.000000 1.648140 0.000000 
#    z 0.000000 0.000000 1.619910 
# 
# From -- ./inp_files/8690.got.cif
#   From: 2010.05.17/outbox.cif.g08.bks.cpg/sg34_5_cif.got.tgz:8690.got - 2010.06.03 17:23:11.
