data_PCOD9347623
_publ_section_title
;
Structure prediction by ZEFSAII (Michael W. Deem and Ramdas Pophale) SiO2 
 PCOD9347623
Probable space group: P N N 2
;
_chemical_formula_sum "Si O2"
_cell_formula_units_Z 32
_cell_length_a 16.126519
_cell_length_b 5.748456
_cell_length_c 13.678842
_cell_angle_alpha 90.000000
_cell_angle_beta 90.000000
_cell_angle_gamma 90.000000
_cell_volume 1268.064012
_symmetry_space_group_name_H-M "P N N 2"
_symmetry_group_IT_number 34
_symmetry_cell_setting 'orthorhombic'
loop_
_space_group_symop_operation_xyz
x,y,z
-x,-y,z
1/2-x,1/2+y,1/2+z
1/2+x,1/2-y,1/2+z
loop_
_atom_site_type_symbol
_atom_site_label
_atom_site_fract_x
_atom_site_fract_y
_atom_site_fract_z
Si Si1 0.043300 0.746926 0.114290
Si Si2 0.777502 0.860236 0.910887
Si Si3 0.288050 0.357476 0.722753
Si Si4 0.302364 0.768305 0.030959
Si Si5 0.459832 0.253197 0.127999
Si Si6 0.686686 0.757951 0.258928
Si Si7 0.520680 0.253526 0.917840
Si Si8 0.138066 0.538189 0.945494
O O1 0.127682 0.773627 0.176148
O O2 0.000000 0.500000 0.143136
O O3 0.072895 0.688077 0.003359
O O4 0.000000 0.000000 0.120242
O O5 0.720308 0.718648 0.835052
O O6 0.856990 0.736976 0.959533
O O7 0.808235 0.050757 0.834029
O O8 0.726187 0.978114 0.995455
O O9 0.213844 0.269119 0.648485
O O10 0.274817 0.635385 0.729950
O O11 0.389306 0.732985 0.974048
O O12 0.229859 0.607470 0.985798
O O13 0.500000 0.500000 0.161000
O O14 0.367614 0.274655 0.165574
O O15 0.460759 0.253451 0.011554
O O16 0.500000 0.000000 0.155558
O O17 0.637262 0.938827 0.328832
O O18 0.500000 0.500000 0.864293
O O19 0.500000 0.000000 0.870393
#
# Coordination Sequence:
#
# PCOD9347623 Si02
#       8
#     4   4   4   4   4   4   4   4
#     4  11  27  46  73 104 144 188 247 311 381 446
#     4  10  23  41  72 100 135 182 251 296 364 432
#     4  10  23  43  73 101 132 192 244 301 365 438
#     4  10  22  41  68  96 137 181 238 296 346 444
#     4  10  22  36  56  94 138 170 209 265 344 425
#     4  10  22  39  69  98 139 178 236 291 356 445
#     4  10  22  37  60  95 133 172 219 269 347 417
#     4   9  23  43  67  99 133 182 239 292 363 431
#
# _framework density 25.235316999999998
#
# number of rings (size 3 to 8) (size 9 to 14) (size 15 to 20)
#    0.000    2.000    0.000    1.500   15.750    2.000 
#    0.000    0.625    0.000    0.000    0.000    0.000 
#    0.000    0.000    0.000    0.000    0.000    0.000 
#
# Total GULP energy -178391.065919 kJ/mol
# GULP energy per Si atom -5574.720810 kJ/mol
# Density = 2.517788 g / cm^3
# Si number density = 25.235317 Si / 1000 Ang^3
#
#
#
# Elastic Constant Matrix: (Units=GPa)
#
#
# Indices 1 2 3 4 5 6 
#
# 1 66.7014 67.9543 15.5431 0.0000 0.0000 0.0000
# 2 67.9543 177.1550 12.9443 0.0000 0.0000 0.0000
# 3 15.5431 12.9443 97.4178 0.0000 0.0000 0.0000
# 4 0.0000 0.0000 0.0000 13.9299 0.0000 0.0000
# 5 0.0000 0.0000 0.0000 0.0000 16.4316 0.0000
# 6 0.0000 0.0000 0.0000 0.0000 0.0000 40.3569
#
#
#
# Elastic Compliance Matrix: (Units=1/GPa)
#
#
# Indices 1 2 3 4 5 6 
#
# 1 0.025332 -0.009514 -0.002778 0.000000 0.000000 0.000000
# 2 -0.009514 0.009273 0.000286 0.000000 0.000000 0.000000
# 3 -0.002778 0.000286 0.010670 0.000000 0.000000 0.000000
# 4 0.000000 0.000000 0.000000 0.071788 0.000000 0.000000
# 5 0.000000 0.000000 0.000000 0.000000 0.060858 0.000000
# 6 0.000000 0.000000 0.000000 0.000000 0.000000 0.024779
#
#
# Mechanical properties :
#
#
# Convention : Reuss Voigt Hill
#
# Bulk Modulus (GPa) = 47.02783 59.35085 53.18934
# Shear Modulus (GPa) = 21.38568 30.46585 25.92576
#
# Velocity S-wave (km/s) = 2.91426 3.47835 3.20872
# Velocity P-wave (km/s) = 5.47723 6.30094 5.90347
#
# Compressibility (1/GPa) = 0.02126401
#
# Stress axis : x y z
#
# Youngs Moduli (GPa) = 39.47520 107.83524 93.71843
#
# Poissons Ratio (x) = 1.02597 0.26031
# Poissons Ratio (y) = 0.37557 -0.02679
# Poissons Ratio (z) = 0.10965 -0.03082
#
# Static dielectric constant tensor:
#      x y z
#    x 2.101310 0.000000 0.000000 
#    y 0.000000 2.493570 0.000000 
#    z 0.000000 0.000000 1.960410 
# 
# From -- ./inp_files/6973.got.cif
#   From: 2010.05.17/outbox.cif.g08.bks.cpg/sg34_4_cif.got.tgz:6973.got - 2010.06.03 17:23:11.
