data_PCOD9347325
_publ_section_title
;
Structure prediction by ZEFSAII (Michael W. Deem and Ramdas Pophale) SiO2 
 PCOD9347325
Probable space group: P N N 2
;
_chemical_formula_sum "Si O2"
_cell_formula_units_Z 32
_cell_length_a 7.281202
_cell_length_b 8.068198
_cell_length_c 24.665357
_cell_angle_alpha 90.000000
_cell_angle_beta 90.000000
_cell_angle_gamma 90.000000
_cell_volume 1448.995488
_symmetry_space_group_name_H-M "P N N 2"
_symmetry_group_IT_number 34
_symmetry_cell_setting 'orthorhombic'
loop_
_space_group_symop_operation_xyz
x,y,z
-x,-y,z
1/2-x,1/2+y,1/2+z
1/2+x,1/2-y,1/2+z
loop_
_atom_site_type_symbol
_atom_site_label
_atom_site_fract_x
_atom_site_fract_y
_atom_site_fract_z
Si Si1 0.222387 0.307647 0.195120
Si Si2 0.224205 0.180456 0.309845
Si Si3 0.723950 0.190993 0.573077
Si Si4 0.723950 0.809007 0.573077
Si Si5 0.281031 0.500000 0.502620
Si Si6 0.781748 0.500000 0.374853
Si Si7 0.277613 0.192353 0.695120
Si Si8 0.775795 0.180456 0.309845
O O1 0.282191 0.206322 0.247424
O O2 0.280657 0.261420 0.134476
O O3 0.272013 0.500000 0.203776
O O4 1.000000 0.299861 0.194613
O O5 0.288070 0.333809 0.345992
O O6 0.000000 0.182920 0.310046
O O7 0.281415 1.000000 0.329850
O O8 0.500000 0.188312 0.572464
O O9 0.786362 0.331611 0.531426
O O10 0.780924 0.000000 0.562402
O O11 0.786362 0.668389 0.531426
O O12 0.780657 0.761420 0.634476
O O13 0.500000 0.500000 0.510713
O O14 0.247374 0.500000 0.438814
O O15 0.711930 0.333809 0.345992
O O16 0.000000 0.500000 0.365366
O O17 0.217809 0.293678 0.747424
#
# Coordination Sequence:
#
# PCOD9347325 Si02
#       8
#     4   4   4   4   4   4   4   4
#     4   8  12  21  38  62  94 119 136 177 238 280
#     4   9  16  25  41  65  92 120 148 183 230 275
#     4   8  15  26  41  65  95 119 143 184 233 272
#     4   8  15  26  41  65  95 119 143 184 233 272
#     4  10  20  32  48  68  90 124 161 186 216 268
#     4  10  20  34  46  64  96 126 153 188 224 264
#     4   8  12  21  38  62  94 119 136 177 238 280
#     4   9  16  25  41  65  92 120 148 183 230 275
#
# _framework density 22.084264999999998
#
# number of rings (size 3 to 8) (size 9 to 14) (size 15 to 20)
#    0.000    3.250    1.250    1.500    1.750    1.000 
#    0.000    0.000    0.000    0.000    0.000    1.750 
#    0.000    0.000    0.000    0.000    0.000    0.000 
#
# Total GULP energy -178621.622180 kJ/mol
# GULP energy per Si atom -5581.925693 kJ/mol
# Density = 2.203400 g / cm^3
# Si number density = 22.084265 Si / 1000 Ang^3
#
#
#
# Elastic Constant Matrix: (Units=GPa)
#
#
# Indices 1 2 3 4 5 6 
#
# 1 93.9496 8.1898 -2.1159 0.0000 0.0000 0.0000
# 2 8.1898 206.5239 138.8401 0.0000 0.0000 0.0000
# 3 -2.1159 138.8401 167.7074 0.0000 0.0000 0.0000
# 4 0.0000 0.0000 0.0000 18.8457 0.0000 0.0000
# 5 0.0000 0.0000 0.0000 0.0000 8.3651 0.0000
# 6 0.0000 0.0000 0.0000 0.0000 0.0000 -20.6062
#
#
#
# Elastic Compliance Matrix: (Units=1/GPa)
#
#
# Indices 1 2 3 4 5 6 
#
# 1 0.010771 -0.001169 0.001104 0.000000 0.000000 0.000000
# 2 -0.001169 0.011046 -0.009159 0.000000 0.000000 0.000000
# 3 0.001104 -0.009159 0.013560 0.000000 0.000000 0.000000
# 4 0.000000 0.000000 0.000000 0.053063 0.000000 0.000000
# 5 0.000000 0.000000 0.000000 0.000000 0.119545 0.000000
# 6 0.000000 0.000000 0.000000 0.000000 0.000000 -0.048529
#
#
# Mechanical properties :
#
#
# Convention : Reuss Voigt Hill
#
# Bulk Modulus (GPa) = 59.07809 84.22319 71.65064
# Shear Modulus (GPa) = 27.24103 22.87203 25.05653
#
# Velocity S-wave (km/s) = 3.51594 3.22168 3.37202
# Velocity P-wave (km/s) = 6.57964 7.21519 6.90473
#
# Compressibility (1/GPa) = 0.01692675
#
# Stress axis : x y z
#
# Youngs Moduli (GPa) = 92.84371 90.52991 73.74870
#
# Poissons Ratio (x) = 0.10585 -0.08141
# Poissons Ratio (y) = 0.10855 0.67550
# Poissons Ratio (z) = -0.10248 0.82921
#
# Static dielectric constant tensor:
#      x y z
#    x 1.912410 0.000000 0.000000 
#    y 0.000000 1.791070 0.000000 
#    z 0.000000 0.000000 1.758450 
# 
# From -- ./inp_files/8171.got.cif
#   From: 2010.05.17/outbox.cif.g08.bks.cpg/sg34_5_cif.got.tgz:8171.got - 2010.06.03 17:23:11.
