data_PCOD9347799
_publ_section_title
;
Structure prediction by ZEFSAII (Michael W. Deem and Ramdas Pophale) SiO2 
 PCOD9347799
Probable space group: P N N 2
;
_chemical_formula_sum "Si O2"
_cell_formula_units_Z 32
_cell_length_a 8.555750
_cell_length_b 30.631743
_cell_length_c 5.017130
_cell_angle_alpha 90.000000
_cell_angle_beta 90.000000
_cell_angle_gamma 90.000000
_cell_volume 1314.877064
_symmetry_space_group_name_H-M "P N N 2"
_symmetry_group_IT_number 34
_symmetry_cell_setting 'orthorhombic'
loop_
_space_group_symop_operation_xyz
x,y,z
-x,-y,z
1/2-x,1/2+y,1/2+z
1/2+x,1/2-y,1/2+z
loop_
_atom_site_type_symbol
_atom_site_label
_atom_site_fract_x
_atom_site_fract_y
_atom_site_fract_z
Si Si1 0.177501 0.985554 0.538740
Si Si2 0.632265 0.813934 0.045126
Si Si3 0.966470 0.167196 0.529021
Si Si4 0.143878 0.905092 0.885335
Si Si5 0.667224 0.394243 0.670330
Si Si6 0.829809 0.479927 0.547269
Si Si7 0.752018 0.768415 0.549814
Si Si8 0.729637 0.167230 0.037651
O O1 0.190052 0.937266 0.657159
O O2 0.220803 0.989484 0.231387
O O3 0.000000 0.000000 0.569031
O O4 0.279056 0.015702 0.738844
O O5 0.683097 0.776563 0.841267
O O6 0.758328 0.853267 0.017533
O O7 0.651867 0.797347 0.345444
O O8 0.459044 0.829724 0.001162
O O9 0.873958 0.147604 0.789388
O O10 0.835075 0.173093 0.309639
O O11 0.082654 0.127425 0.429379
O O12 0.075817 0.208973 0.559524
O O13 0.276629 0.889357 0.075565
O O14 0.979388 0.915388 0.014489
O O15 0.795036 0.432338 0.672608
O O16 0.000000 0.500000 0.575847
O O17 0.747175 0.719621 0.445833
#
# Coordination Sequence:
#
# PCOD9347799 Si02
#       8
#     4   4   4   4   4   4   4   4
#     4  12  26  47  76 105 140 187 241 288 352 434
#     4  11  26  44  70 104 137 187 230 292 351 418
#     4  10  23  45  70  97 140 188 229 286 348 415
#     4  11  24  44  70 103 139 184 237 288 351 417
#     4  10  23  46  71  99 144 185 227 283 363 423
#     4  12  28  47  74 109 144 185 229 300 359 426
#     4  11  25  46  68  99 144 186 233 280 361 412
#     4  11  27  40  71 104 138 182 238 299 331 420
#
# _framework density 24.336874000000002
#
# number of rings (size 3 to 8) (size 9 to 14) (size 15 to 20)
#    0.000    1.000    2.500    2.250   10.500    0.000 
#    2.250    0.000    0.000    0.000    0.000    0.000 
#    0.000    0.000    0.000    0.000    0.000    0.000 
#
# Total GULP energy -178509.270207 kJ/mol
# GULP energy per Si atom -5578.414694 kJ/mol
# Density = 2.428148 g / cm^3
# Si number density = 24.336874 Si / 1000 Ang^3
#
#
#
# Elastic Constant Matrix: (Units=GPa)
#
#
# Indices 1 2 3 4 5 6 
#
# 1 75.1850 1.1517 10.6793 0.0000 0.0000 0.0000
# 2 1.1517 81.4200 -1.5619 0.0000 0.0000 0.0000
# 3 10.6793 -1.5619 80.5851 0.0000 0.0000 0.0000
# 4 0.0000 0.0000 0.0000 31.3163 0.0000 0.0000
# 5 0.0000 0.0000 0.0000 0.0000 2.7133 0.0000
# 6 0.0000 0.0000 0.0000 0.0000 0.0000 33.1033
#
#
#
# Elastic Compliance Matrix: (Units=1/GPa)
#
#
# Indices 1 2 3 4 5 6 
#
# 1 0.013560 -0.000226 -0.001801 0.000000 0.000000 0.000000
# 2 -0.000226 0.012290 0.000268 0.000000 0.000000 0.000000
# 3 -0.001801 0.000268 0.012653 0.000000 0.000000 0.000000
# 4 0.000000 0.000000 0.000000 0.031932 0.000000 0.000000
# 5 0.000000 0.000000 0.000000 0.000000 0.368549 0.000000
# 6 0.000000 0.000000 0.000000 0.000000 0.000000 0.030208
#
#
# Mechanical properties :
#
#
# Convention : Reuss Voigt Hill
#
# Bulk Modulus (GPa) = 28.58423 28.63648 28.61035
# Shear Modulus (GPa) = 10.32262 28.55466 19.43864
#
# Velocity S-wave (km/s) = 2.06174 3.42907 2.82925
# Velocity P-wave (km/s) = 4.17593 5.24121 4.73860
#
# Compressibility (1/GPa) = 0.03498432
#
# Stress axis : x y z
#
# Youngs Moduli (GPa) = 73.74703 81.36467 79.03166
#
# Poissons Ratio (x) = 0.01842 0.14236
# Poissons Ratio (y) = 0.01669 -0.02120
# Poissons Ratio (z) = 0.13285 -0.02182
#
# Static dielectric constant tensor:
#      x y z
#    x 1.907290 0.000000 0.000000 
#    y 0.000000 2.109190 0.000000 
#    z 0.000000 0.000000 1.964170 
# 
# From -- ./inp_files/668.got.cif
#   From: 2010.05.17/outbox.cif.g08.bks.cpg/sg34_1_cif.got.tgz:668.got - 2010.06.03 17:23:11.
