data_PCOD9347386
_publ_section_title
;
Structure prediction by ZEFSAII (Michael W. Deem and Ramdas Pophale) SiO2 
 PCOD9347386
Probable space group: P N N 2
;
_chemical_formula_sum "Si O2"
_cell_formula_units_Z 30
_cell_length_a 17.359876
_cell_length_b 5.487197
_cell_length_c 14.161836
_cell_angle_alpha 90.000000
_cell_angle_beta 90.000000
_cell_angle_gamma 90.000000
_cell_volume 1349.014855
_symmetry_space_group_name_H-M "P N N 2"
_symmetry_group_IT_number 34
_symmetry_cell_setting 'orthorhombic'
loop_
_space_group_symop_operation_xyz
x,y,z
-x,-y,z
1/2-x,1/2+y,1/2+z
1/2+x,1/2-y,1/2+z
loop_
_atom_site_type_symbol
_atom_site_label
_atom_site_fract_x
_atom_site_fract_y
_atom_site_fract_z
Si Si1 0.785961 0.155665 0.935800
Si Si2 0.428118 0.129345 0.537503
Si Si3 0.690104 0.781474 0.833513
Si Si4 0.636431 0.166348 0.702876
Si Si5 0.419182 0.404560 0.983810
Si Si6 0.218122 0.570347 0.739131
Si Si7 0.000000 0.000000 0.184387
Si Si8 0.633896 0.108943 0.067585
O O1 0.790442 0.346952 0.847768
O O2 0.763449 0.904220 0.884382
O O3 0.867678 0.200282 0.984174
O O4 0.715547 0.154789 0.011978
O O5 0.466340 0.290320 0.618564
O O6 0.500000 0.000000 0.484034
O O7 0.383418 0.928462 0.598769
O O8 0.723828 0.655226 0.742095
O O9 0.632389 0.982516 0.791867
O O10 0.646759 0.602715 0.904345
O O11 0.726992 0.226447 0.695001
O O12 0.574873 0.375386 0.729722
O O13 0.500000 0.500000 0.942495
O O14 0.403676 0.622938 0.059194
O O15 0.411752 0.123056 0.020759
O O16 0.149319 0.488542 0.673158
#
# Coordination Sequence:
#
# PCOD9347386 Si02
#       8
#     4   4   4   4   4   4   2   4
#     4  10  22  40  66  97 132 172 232 289 341 423
#     4  10  22  40  63  93 137 181 218 275 356 423
#     4  10  22  41  65  99 131 172 231 297 355 407
#     4  10  21  38  61  95 133 172 221 278 351 424
#     4  11  25  48  68  99 140 190 231 284 366 434
#     4  11  23  40  67  99 127 171 238 291 349 408
#     4  10  20  38  56  94 132 182 212 258 362 430
#     4  11  24  43  74  99 136 187 231 295 353 418
#
# _framework density 22.23845
#
# number of rings (size 3 to 8) (size 9 to 14) (size 15 to 20)
#    0.000    1.600    1.333    2.800    5.600    2.133 
#    9.600    2.667    1.467    0.000    0.000    0.000 
#    0.000    0.000    0.000    0.000    0.000    0.000 
#
# Total GULP energy -167009.626995 kJ/mol
# GULP energy per Si atom -5566.987566 kJ/mol
# Density = 2.218783 g / cm^3
# Si number density = 22.238450 Si / 1000 Ang^3
#
#
#
# Elastic Constant Matrix: (Units=GPa)
#
#
# Indices 1 2 3 4 5 6 
#
# 1 75.5461 24.6254 17.6297 0.0000 0.0000 0.0000
# 2 24.6254 79.1429 17.7329 0.0000 0.0000 0.0000
# 3 17.6297 17.7329 54.7392 0.0000 0.0000 0.0000
# 4 0.0000 0.0000 0.0000 25.2931 0.0000 0.0000
# 5 0.0000 0.0000 0.0000 0.0000 76.6465 0.0000
# 6 0.0000 0.0000 0.0000 0.0000 0.0000 27.8935
#
#
#
# Elastic Compliance Matrix: (Units=1/GPa)
#
#
# Indices 1 2 3 4 5 6 
#
# 1 0.015386 -0.003965 -0.003671 0.000000 0.000000 0.000000
# 2 -0.003965 0.014646 -0.003468 0.000000 0.000000 0.000000
# 3 -0.003671 -0.003468 0.020574 0.000000 0.000000 0.000000
# 4 0.000000 0.000000 0.000000 0.039536 0.000000 0.000000
# 5 0.000000 0.000000 0.000000 0.000000 0.013047 0.000000
# 6 0.000000 0.000000 0.000000 0.000000 0.000000 0.035851
#
#
# Mechanical properties :
#
#
# Convention : Reuss Voigt Hill
#
# Bulk Modulus (GPa) = 35.21220 36.60047 35.90634
# Shear Modulus (GPa) = 29.28886 35.92930 32.60908
#
# Velocity S-wave (km/s) = 3.63304 4.02386 3.83343
# Velocity P-wave (km/s) = 5.78506 6.17111 5.98120
#
# Compressibility (1/GPa) = 0.02839925
#
# Stress axis : x y z
#
# Youngs Moduli (GPa) = 64.99406 68.27797 48.60490
#
# Poissons Ratio (x) = 0.27071 0.17842
# Poissons Ratio (y) = 0.25769 0.16854
# Poissons Ratio (z) = 0.23859 0.23676
#
# Static dielectric constant tensor:
#      x y z
#    x 1.645820 0.000000 0.000000 
#    y 0.000000 1.911700 0.000000 
#    z 0.000000 0.000000 1.831440 
# 
# From -- ./inp_files/6960.got.cif
#   From: 2010.05.17/outbox.cif.g08.bks.cpg/sg34_4_cif.got.tgz:6960.got - 2010.06.03 17:23:11.
