data_PCOD9347451
_publ_section_title
;
Structure prediction by ZEFSAII (Michael W. Deem and Ramdas Pophale) SiO2 
 PCOD9347451
Probable space group: P N N 2
;
_chemical_formula_sum "Si O2"
_cell_formula_units_Z 32
_cell_length_a 8.264574
_cell_length_b 14.250681
_cell_length_c 12.345349
_cell_angle_alpha 90.000000
_cell_angle_beta 90.000000
_cell_angle_gamma 90.000000
_cell_volume 1453.983450
_symmetry_space_group_name_H-M "P N N 2"
_symmetry_group_IT_number 34
_symmetry_cell_setting 'orthorhombic'
loop_
_space_group_symop_operation_xyz
x,y,z
-x,-y,z
1/2-x,1/2+y,1/2+z
1/2+x,1/2-y,1/2+z
loop_
_atom_site_type_symbol
_atom_site_label
_atom_site_fract_x
_atom_site_fract_y
_atom_site_fract_z
Si Si1 0.182504 0.482386 0.134100
Si Si2 0.156767 0.066995 0.825405
Si Si3 0.395287 0.746135 0.168172
Si Si4 0.279977 0.148761 0.485645
Si Si5 0.369334 0.864477 0.371216
Si Si6 0.256389 0.273731 0.066010
Si Si7 0.356443 0.578025 0.572224
Si Si8 0.180935 0.040648 0.306383
O O1 0.209339 0.514589 0.255712
O O2 0.220868 0.374335 0.119590
O O3 0.000000 0.500000 0.102552
O O4 0.274023 0.557376 0.057749
O O5 0.113400 0.160537 0.756568
O O6 0.209619 0.077769 0.949722
O O7 0.000000 0.000000 0.823035
O O8 0.374403 0.833647 0.247104
O O9 0.568385 0.753343 0.110260
O O10 0.266000 0.729794 0.071095
O O11 0.462897 0.149696 0.437847
O O12 0.180922 0.137086 0.374322
O O13 0.245923 0.799838 0.439011
O O14 0.303111 0.969866 0.366404
O O15 0.126577 0.191173 0.088842
O O16 0.500000 0.500000 0.569344
O O17 0.264341 0.551235 0.682357
O O18 0.000000 0.000000 0.307680
#
# Coordination Sequence:
#
# PCOD9347451 Si02
#       8
#     4   4   4   4   4   4   4   4
#     4  11  21  38  65 104 133 175 238 309 354 427
#     4  10  20  41  65  92 139 186 231 290 367 427
#     4  11  25  42  70 107 139 185 248 305 360 442
#     4  11  23  40  68 102 139 184 237 305 368 419
#     4  12  24  45  69 104 147 184 239 309 358 438
#     4  12  22  42  71 100 138 191 250 296 364 448
#     4  10  24  44  66  99 144 196 233 296 374 442
#     4  11  23  43  69  97 139 185 236 293 364 432
#
# _framework density 22.008503000000001
#
# number of rings (size 3 to 8) (size 9 to 14) (size 15 to 20)
#    0.000    1.000    5.000    1.875    0.000    2.000 
#    0.000    5.000    0.000    0.000    0.000    0.000 
#    0.000    0.000    0.000    0.000    0.000    0.000 
#
# Total GULP energy -178255.730608 kJ/mol
# GULP energy per Si atom -5570.491582 kJ/mol
# Density = 2.195841 g / cm^3
# Si number density = 22.008503 Si / 1000 Ang^3
#
#
#
# Elastic Constant Matrix: (Units=GPa)
#
#
# Indices 1 2 3 4 5 6 
#
# 1 54.7658 13.0157 34.8369 0.0000 0.0000 0.0000
# 2 13.0157 73.0220 20.2708 0.0000 0.0000 0.0000
# 3 34.8369 20.2708 175.9619 0.0000 0.0000 0.0000
# 4 0.0000 0.0000 0.0000 32.6277 0.0000 0.0000
# 5 0.0000 0.0000 0.0000 0.0000 -13.6140 0.0000
# 6 0.0000 0.0000 0.0000 0.0000 0.0000 20.5679
#
#
#
# Elastic Compliance Matrix: (Units=1/GPa)
#
#
# Indices 1 2 3 4 5 6 
#
# 1 0.021403 -0.002726 -0.003923 0.000000 0.000000 0.000000
# 2 -0.002726 0.014494 -0.001130 0.000000 0.000000 0.000000
# 3 -0.003923 -0.001130 0.006590 0.000000 0.000000 0.000000
# 4 0.000000 0.000000 0.000000 0.030649 0.000000 0.000000
# 5 0.000000 0.000000 0.000000 0.000000 -0.073454 0.000000
# 6 0.000000 0.000000 0.000000 0.000000 0.000000 0.048619
#
#
# Mechanical properties :
#
#
# Convention : Reuss Voigt Hill
#
# Bulk Modulus (GPa) = 37.13522 48.88849 43.01186
# Shear Modulus (GPa) = 68.64727 23.62475 46.13601
#
# Velocity S-wave (km/s) = 5.59097 3.27989 4.58348
# Velocity P-wave (km/s) = 7.65430 6.05023 6.89904
#
# Compressibility (1/GPa) = 0.02692861
#
# Stress axis : x y z
#
# Youngs Moduli (GPa) = 46.72227 68.99379 151.74556
#
# Poissons Ratio (x) = 0.18807 0.59535
# Poissons Ratio (y) = 0.12736 0.17148
# Poissons Ratio (z) = 0.18331 0.07797
#
# Static dielectric constant tensor:
#      x y z
#    x 1.964520 0.000000 0.000000 
#    y 0.000000 1.972600 0.000000 
#    z 0.000000 0.000000 1.819980 
# 
# From -- ./inp_files/5076.got.cif
#   From: 2010.05.17/outbox.cif.g08.bks.cpg/sg34_3_cif.got.tgz:5076.got - 2010.06.03 17:23:11.
