data_PCOD9347186
_publ_section_title
;
Structure prediction by ZEFSAII (Michael W. Deem and Ramdas Pophale) SiO2 
 PCOD9347186
Probable space group: P N N 2
;
_chemical_formula_sum "Si O2"
_cell_formula_units_Z 32
_cell_length_a 9.160768
_cell_length_b 9.863402
_cell_length_c 15.917887
_cell_angle_alpha 90.000000
_cell_angle_beta 90.000000
_cell_angle_gamma 90.000000
_cell_volume 1438.281969
_symmetry_space_group_name_H-M "P N N 2"
_symmetry_group_IT_number 34
_symmetry_cell_setting 'orthorhombic'
loop_
_space_group_symop_operation_xyz
x,y,z
-x,-y,z
1/2-x,1/2+y,1/2+z
1/2+x,1/2-y,1/2+z
loop_
_atom_site_type_symbol
_atom_site_label
_atom_site_fract_x
_atom_site_fract_y
_atom_site_fract_z
Si Si1 0.509036 0.145726 0.576400
Si Si2 0.327024 0.523871 0.663626
Si Si3 0.177376 0.257069 0.925833
Si Si4 0.752915 0.676413 0.529102
Si Si5 0.457161 0.347608 0.004218
Si Si6 0.843585 0.485142 0.815649
Si Si7 0.726767 0.665492 0.174640
Si Si8 0.892449 0.173264 0.854095
O O1 0.601871 0.246110 0.517032
O O2 0.355150 0.218849 0.578259
O O3 0.609217 0.114082 0.656704
O O4 0.500000 0.000000 0.534256
O O5 0.500000 0.500000 0.648849
O O6 0.239633 0.450947 0.590070
O O7 0.285355 0.466862 0.754959
O O8 0.260533 0.673714 0.674834
O O9 0.154891 0.407267 0.889393
O O10 0.068579 0.167313 0.868199
O O11 0.348994 0.259666 0.944301
O O12 0.685057 0.627531 0.440090
O O13 0.899985 0.758110 0.515754
O O14 0.500000 0.500000 0.973450
O O15 0.374290 0.367880 0.094195
O O16 0.842738 0.332702 0.850068
O O17 0.000000 0.500000 0.769108
O O18 0.658487 0.620857 0.263246
#
# Coordination Sequence:
#
# PCOD9347186 Si02
#       8
#     4   4   4   4   4   4   4   4
#     4  10  18  36  63  85 120 165 211 256 313 375
#     4  11  23  38  57  91 124 166 207 253 319 383
#     4   9  18  34  59  89 116 151 198 261 318 363
#     4  11  22  36  61  91 124 164 207 261 318 383
#     4  11  23  38  62  93 122 155 210 267 318 380
#     4   9  18  33  60  88 118 152 204 268 313 361
#     4  10  22  40  63  87 126 167 214 260 307 386
#     4   9  19  37  59  86 119 166 206 248 315 380
#
# _framework density 22.248767000000001
#
# number of rings (size 3 to 8) (size 9 to 14) (size 15 to 20)
#    0.000    2.000    1.250    4.125    5.250    2.500 
#    0.000    0.625    2.750    0.000    0.000    0.000 
#    0.000    0.000    0.000    0.000    0.000    0.000 
#
# Total GULP energy -178299.263570 kJ/mol
# GULP energy per Si atom -5571.851987 kJ/mol
# Density = 2.219813 g / cm^3
# Si number density = 22.248767 Si / 1000 Ang^3
#
#
#
# Elastic Constant Matrix: (Units=GPa)
#
#
# Indices 1 2 3 4 5 6 
#
# 1 150.9849 23.9976 35.4026 0.0000 0.0000 0.0000
# 2 23.9976 32.3847 11.7441 0.0000 0.0000 0.0000
# 3 35.4026 11.7441 101.6791 0.0000 0.0000 0.0000
# 4 0.0000 0.0000 0.0000 15.7672 0.0000 0.0000
# 5 0.0000 0.0000 0.0000 0.0000 31.4743 0.0000
# 6 0.0000 0.0000 0.0000 0.0000 0.0000 25.5031
#
#
#
# Elastic Compliance Matrix: (Units=1/GPa)
#
#
# Indices 1 2 3 4 5 6 
#
# 1 0.007944 -0.005097 -0.002177 0.000000 0.000000 0.000000
# 2 -0.005097 0.035499 -0.002326 0.000000 0.000000 0.000000
# 3 -0.002177 -0.002326 0.010862 0.000000 0.000000 0.000000
# 4 0.000000 0.000000 0.000000 0.063423 0.000000 0.000000
# 5 0.000000 0.000000 0.000000 0.000000 0.031772 0.000000
# 6 0.000000 0.000000 0.000000 0.000000 0.000000 0.039211
#
#
# Mechanical properties :
#
#
# Convention : Reuss Voigt Hill
#
# Bulk Modulus (GPa) = 28.48593 47.48191 37.98392
# Shear Modulus (GPa) = 22.76756 28.80924 25.78840
#
# Velocity S-wave (km/s) = 3.20240 3.60233 3.40824
# Velocity P-wave (km/s) = 5.14830 6.22014 5.70943
#
# Compressibility (1/GPa) = 0.03510505
#
# Stress axis : x y z
#
# Youngs Moduli (GPa) = 125.88465 28.16976 92.06828
#
# Poissons Ratio (x) = 0.14358 0.20045
# Poissons Ratio (y) = 0.64163 0.21411
# Poissons Ratio (z) = 0.27407 0.06551
#
# Static dielectric constant tensor:
#      x y z
#    x 1.937810 0.000000 0.000000 
#    y 0.000000 1.911420 0.000000 
#    z 0.000000 0.000000 1.899970 
# 
# From -- ./inp_files/7647.got.cif
#   From: 2010.05.17/outbox.cif.g08.bks.cpg/sg34_4_cif.got.tgz:7647.got - 2010.06.03 17:23:11.
