data_PCOD9347572
_publ_section_title
;
Structure prediction by ZEFSAII (Michael W. Deem and Ramdas Pophale) SiO2 
 PCOD9347572
Probable space group: P N N 2
;
_chemical_formula_sum "Si O2"
_cell_formula_units_Z 30
_cell_length_a 20.712384
_cell_length_b 7.562642
_cell_length_c 8.736405
_cell_angle_alpha 90.000000
_cell_angle_beta 90.000000
_cell_angle_gamma 90.000000
_cell_volume 1368.473495
_symmetry_space_group_name_H-M "P N N 2"
_symmetry_group_IT_number 34
_symmetry_cell_setting 'orthorhombic'
loop_
_space_group_symop_operation_xyz
x,y,z
-x,-y,z
1/2-x,1/2+y,1/2+z
1/2+x,1/2-y,1/2+z
loop_
_atom_site_type_symbol
_atom_site_label
_atom_site_fract_x
_atom_site_fract_y
_atom_site_fract_z
Si Si1 0.535462 0.175980 0.137590
Si Si2 0.722923 0.608277 0.371853
Si Si3 0.613259 0.633280 0.590137
Si Si4 0.541296 0.656767 0.873703
Si Si5 0.284292 0.539597 0.793433
Si Si6 0.348393 0.409748 0.090219
Si Si7 0.671690 0.003687 0.099860
Si Si8 0.000000 0.000000 0.864453
O O1 0.610066 0.129881 0.102255
O O2 0.523177 0.337047 0.255978
O O3 0.500000 0.000000 0.201380
O O4 0.501582 0.214599 0.974397
O O5 0.672692 0.705132 0.488106
O O6 0.763858 0.758031 0.288199
O O7 0.676448 0.513337 0.249939
O O8 0.778275 0.499992 0.457609
O O9 0.582242 0.739456 0.733939
O O10 0.653239 0.485934 0.686467
O O11 0.558295 0.568144 0.473623
O O12 0.500000 0.500000 0.799499
O O13 0.584626 0.557494 0.003137
O O14 0.221346 0.439799 0.731689
O O15 0.298830 0.472600 0.961977
O O16 0.352080 0.197866 0.116264
#
# Coordination Sequence:
#
# PCOD9347572 Si02
#       8
#     4   4   4   4   4   4   4   2
#     4  12  26  44  69 102 135 184 238 285 348 425
#     4  10  22  38  65  96 125 169 225 281 346 414
#     4  10  23  42  67  99 140 175 236 291 351 430
#     4  11  22  42  67  93 131 180 226 280 349 417
#     4   9  22  41  66  94 133 174 223 286 349 421
#     4  10  21  41  64  89 129 170 217 284 339 412
#     4  10  23  40  60  94 134 163 221 284 338 411
#     4  12  26  44  78 100 142 196 230 296 360 424
#
# _framework density 21.922234
#
# number of rings (size 3 to 8) (size 9 to 14) (size 15 to 20)
#    0.000    1.600    2.667    0.800    5.600    6.400 
#    0.000    0.667    5.867    0.000    0.000    0.000 
#    0.000    0.000    0.000    0.000    0.000    0.000 
#
# Total GULP energy -167136.970547 kJ/mol
# GULP energy per Si atom -5571.232352 kJ/mol
# Density = 2.187234 g / cm^3
# Si number density = 21.922234 Si / 1000 Ang^3
#
#
#
# Elastic Constant Matrix: (Units=GPa)
#
#
# Indices 1 2 3 4 5 6 
#
# 1 115.0322 5.3340 36.1955 0.0000 0.0000 0.0000
# 2 5.3340 42.1633 2.1031 0.0000 0.0000 0.0000
# 3 36.1955 2.1031 96.4388 0.0000 0.0000 0.0000
# 4 0.0000 0.0000 0.0000 18.6226 0.0000 0.0000
# 5 0.0000 0.0000 0.0000 0.0000 17.5584 0.0000
# 6 0.0000 0.0000 0.0000 0.0000 0.0000 27.6322
#
#
#
# Elastic Compliance Matrix: (Units=1/GPa)
#
#
# Indices 1 2 3 4 5 6 
#
# 1 0.009905 -0.001069 -0.003694 0.000000 0.000000 0.000000
# 2 -0.001069 0.023858 -0.000119 0.000000 0.000000 0.000000
# 3 -0.003694 -0.000119 0.011758 0.000000 0.000000 0.000000
# 4 0.000000 0.000000 0.000000 0.053698 0.000000 0.000000
# 5 0.000000 0.000000 0.000000 0.000000 0.056953 0.000000
# 6 0.000000 0.000000 0.000000 0.000000 0.000000 0.036190
#
#
# Mechanical properties :
#
#
# Convention : Reuss Voigt Hill
#
# Bulk Modulus (GPa) = 27.96615 37.87773 32.92194
# Shear Modulus (GPa) = 23.35943 26.76277 25.06110
#
# Velocity S-wave (km/s) = 3.26783 3.49779 3.38477
# Velocity P-wave (km/s) = 5.19836 5.79901 5.50688
#
# Compressibility (1/GPa) = 0.03575752
#
# Stress axis : x y z
#
# Youngs Moduli (GPa) = 100.95695 41.91383 85.04544
#
# Poissons Ratio (x) = 0.04480 0.31419
# Poissons Ratio (y) = 0.10790 0.01013
# Poissons Ratio (z) = 0.37297 0.00499
#
# Static dielectric constant tensor:
#      x y z
#    x 1.889000 0.000000 0.000000 
#    y 0.000000 1.819930 0.000000 
#    z 0.000000 0.000000 1.871300 
# 
# From -- ./inp_files/3999.got.cif
#   From: 2010.05.17/outbox.cif.g08.bks.cpg/sg34_2_cif.got.tgz:3999.got - 2010.06.03 17:23:11.
