data_PCOD9347625
_publ_section_title
;
Structure prediction by ZEFSAII (Michael W. Deem and Ramdas Pophale) SiO2 
 PCOD9347625
Probable space group: P N N 2
;
_chemical_formula_sum "Si O2"
_cell_formula_units_Z 32
_cell_length_a 20.387818
_cell_length_b 12.457608
_cell_length_c 5.107028
_cell_angle_alpha 90.000000
_cell_angle_beta 90.000000
_cell_angle_gamma 90.000000
_cell_volume 1297.100563
_symmetry_space_group_name_H-M "P N N 2"
_symmetry_group_IT_number 34
_symmetry_cell_setting 'orthorhombic'
loop_
_space_group_symop_operation_xyz
x,y,z
-x,-y,z
1/2-x,1/2+y,1/2+z
1/2+x,1/2-y,1/2+z
loop_
_atom_site_type_symbol
_atom_site_label
_atom_site_fract_x
_atom_site_fract_y
_atom_site_fract_z
Si Si1 0.578563 0.725270 0.027810
Si Si2 0.215812 0.992865 0.283410
Si Si3 0.861077 0.778514 0.769801
Si Si4 0.537288 0.839094 0.529877
Si Si5 0.798252 0.644710 0.434524
Si Si6 0.098601 0.436367 0.081709
Si Si7 0.226546 0.703712 0.581233
Si Si8 0.874030 0.008411 0.780079
O O1 0.535155 0.791552 0.237324
O O2 0.651838 0.777362 0.004199
O O3 0.584986 0.606847 0.157929
O O4 0.554361 0.743755 0.732253
O O5 0.184625 0.998850 0.566706
O O6 0.261149 0.096322 0.243539
O O7 0.264190 0.898394 0.194903
O O8 0.156986 0.979387 0.069837
O O9 0.848010 0.744628 0.471966
O O10 0.883581 0.665215 0.893182
O O11 0.902876 0.886582 0.788994
O O12 0.787908 0.804145 0.880670
O O13 0.473058 0.893015 0.657952
O O14 0.586607 0.941027 0.496936
O O15 0.741943 0.693736 0.259671
O O16 0.843145 0.558407 0.292560
#
# Coordination Sequence:
#
# PCOD9347625 Si02
#       8
#     4   4   4   4   4   4   4   4
#     4  12  25  44  68  99 140 181 223 286 353 419
#     4  11  22  36  63  98 142 174 213 275 339 417
#     4  10  23  41  70  96 139 182 224 284 340 418
#     4  11  28  47  72 100 136 179 236 300 347 400
#     4  11  21  39  66  97 132 180 222 277 339 416
#     4  10  26  47  70 101 131 182 242 296 342 406
#     4  10  22  37  59 103 135 174 223 270 348 418
#     4  11  23  42  63  98 144 176 217 272 344 417
#
# _framework density 24.670406
#
# number of rings (size 3 to 8) (size 9 to 14) (size 15 to 20)
#    0.000    1.250    2.500    2.250    8.750    1.000 
#    0.000    0.625    0.000    0.000    0.000    0.000 
#    0.000    0.000    0.000    0.000    0.000    0.000 
#
# Total GULP energy -178422.240723 kJ/mol
# GULP energy per Si atom -5575.695023 kJ/mol
# Density = 2.461425 g / cm^3
# Si number density = 24.670406 Si / 1000 Ang^3
#
#
#
# Elastic Constant Matrix: (Units=GPa)
#
#
# Indices 1 2 3 4 5 6 
#
# 1 26.9804 -20.6927 4.3146 0.0000 0.0000 0.0000
# 2 -20.6927 104.2687 24.0396 0.0000 0.0000 0.0000
# 3 4.3146 24.0396 80.2955 0.0000 0.0000 0.0000
# 4 0.0000 0.0000 0.0000 28.1301 0.0000 0.0000
# 5 0.0000 0.0000 0.0000 0.0000 12.8285 0.0000
# 6 0.0000 0.0000 0.0000 0.0000 0.0000 26.4223
#
#
#
# Elastic Compliance Matrix: (Units=1/GPa)
#
#
# Indices 1 2 3 4 5 6 
#
# 1 0.045936 0.010403 -0.005583 0.000000 0.000000 0.000000
# 2 0.010403 0.012658 -0.004349 0.000000 0.000000 0.000000
# 3 -0.005583 -0.004349 0.014056 0.000000 0.000000 0.000000
# 4 0.000000 0.000000 0.000000 0.035549 0.000000 0.000000
# 5 0.000000 0.000000 0.000000 0.000000 0.077951 0.000000
# 6 0.000000 0.000000 0.000000 0.000000 0.000000 0.037847
#
#
# Mechanical properties :
#
#
# Convention : Reuss Voigt Hill
#
# Bulk Modulus (GPa) = 13.58830 25.20755 19.39792
# Shear Modulus (GPa) = 20.19519 27.06840 23.63179
#
# Velocity S-wave (km/s) = 2.86422 3.31600 3.09835
# Velocity P-wave (km/s) = 4.05688 4.99009 4.54749
#
# Compressibility (1/GPa) = 0.07359273
#
# Stress axis : x y z
#
# Youngs Moduli (GPa) = 21.76962 79.00274 71.14438
#
# Poissons Ratio (x) = -0.82189 0.39720
# Poissons Ratio (y) = -0.22648 0.30938
# Poissons Ratio (z) = 0.12154 0.34355
#
# Static dielectric constant tensor:
#      x y z
#    x 2.004370 0.000000 0.000000 
#    y 0.000000 2.071330 0.000000 
#    z 0.000000 0.000000 1.988510 
# 
# From -- ./inp_files/1612.got.cif
#   From: 2010.05.17/outbox.cif.g08.bks.cpg/sg34_1_cif.got.tgz:1612.got - 2010.06.03 17:23:11.
