data_PCOD9347687
_publ_section_title
;
Structure prediction by ZEFSAII (Michael W. Deem and Ramdas Pophale) SiO2 
 PCOD9347687
Probable space group: P N N 2
;
_chemical_formula_sum "Si O2"
_cell_formula_units_Z 26
_cell_length_a 17.921683
_cell_length_b 11.957136
_cell_length_c 5.031782
_cell_angle_alpha 90.000000
_cell_angle_beta 90.000000
_cell_angle_gamma 90.000000
_cell_volume 1078.270633
_symmetry_space_group_name_H-M "P N N 2"
_symmetry_group_IT_number 34
_symmetry_cell_setting 'orthorhombic'
loop_
_space_group_symop_operation_xyz
x,y,z
-x,-y,z
1/2-x,1/2+y,1/2+z
1/2+x,1/2-y,1/2+z
loop_
_atom_site_type_symbol
_atom_site_label
_atom_site_fract_x
_atom_site_fract_y
_atom_site_fract_z
Si Si1 0.609732 0.760306 0.903920
Si Si2 0.153170 0.347623 0.881466
Si Si3 0.161299 0.919048 0.722697
Si Si4 0.493385 0.248608 0.423168
Si Si5 0.500000 0.500000 0.399680
Si Si6 0.773173 0.750276 0.395028
Si Si7 0.725656 0.946544 0.072505
O O1 0.562997 0.790290 0.646808
O O2 0.653095 0.639685 0.932240
O O3 0.549110 0.750707 0.142098
O O4 0.667805 0.859132 0.949693
O O5 0.065536 0.327543 0.892912
O O6 0.189220 0.258000 0.679097
O O7 0.181069 0.461367 0.744316
O O8 0.182955 0.324328 0.176538
O O9 0.190766 0.806347 0.882621
O O10 0.080337 0.974628 0.764818
O O11 0.221586 0.003406 0.844404
O O12 0.513579 0.375980 0.519868
O O13 0.773098 0.874205 0.281284
#
# Coordination Sequence:
#
# PCOD9347687 Si02
#       7
#     4   4   4   4   2   4   4
#     4  10  24  44  67 101 141 179 229 291 349 415
#     4  11  24  43  70 102 136 187 241 283 350 434
#     4   9  21  41  68  99 131 175 229 280 349 421
#     4  11  24  44  67 100 139 180 235 288 347 426
#     4  10  22  42  68  96 132 176 222 292 356 404
#     4  10  23  42  67 104 142 179 237 298 350 421
#     4  10  23  44  71 101 145 191 230 295 361 422
#
# _framework density 24.112682
#
# number of rings (size 3 to 8) (size 9 to 14) (size 15 to 20)
#    0.000    1.846    0.000    1.846    0.000   21.538 
#    0.000    4.615    0.000    1.846    0.000    0.000 
#    0.000    0.000    0.000    0.000    0.000    0.000 
#
# Total GULP energy -145172.359617 kJ/mol
# GULP energy per Si atom -5583.552293 kJ/mol
# Density = 2.405780 g / cm^3
# Si number density = 24.112682 Si / 1000 Ang^3
#
#
#
# Elastic Constant Matrix: (Units=GPa)
#
#
# Indices 1 2 3 4 5 6 
#
# 1 146.3860 49.1983 41.2244 0.0000 0.0000 0.0000
# 2 49.1983 127.9327 3.1215 0.0000 0.0000 0.0000
# 3 41.2244 3.1215 95.2515 0.0000 0.0000 0.0000
# 4 0.0000 0.0000 0.0000 29.2282 0.0000 0.0000
# 5 0.0000 0.0000 0.0000 0.0000 35.5013 0.0000
# 6 0.0000 0.0000 0.0000 0.0000 0.0000 37.4011
#
#
#
# Elastic Compliance Matrix: (Units=1/GPa)
#
#
# Indices 1 2 3 4 5 6 
#
# 1 0.009039 -0.003383 -0.003801 0.000000 0.000000 0.000000
# 2 -0.003383 0.009089 0.001166 0.000000 0.000000 0.000000
# 3 -0.003801 0.001166 0.012105 0.000000 0.000000 0.000000
# 4 0.000000 0.000000 0.000000 0.034214 0.000000 0.000000
# 5 0.000000 0.000000 0.000000 0.000000 0.028168 0.000000
# 6 0.000000 0.000000 0.000000 0.000000 0.000000 0.026737
#
#
# Mechanical properties :
#
#
# Convention : Reuss Voigt Hill
#
# Bulk Modulus (GPa) = 54.95249 61.85096 58.40173
# Shear Modulus (GPa) = 36.37590 38.82787 37.60189
#
# Velocity S-wave (km/s) = 3.88826 4.01717 3.95324
# Velocity P-wave (km/s) = 6.55724 6.87192 6.71643
#
# Compressibility (1/GPa) = 0.01819754
#
# Stress axis : x y z
#
# Youngs Moduli (GPa) = 110.63481 110.02038 82.60795
#
# Poissons Ratio (x) = 0.37222 0.31400
# Poissons Ratio (y) = 0.37430 -0.09635
# Poissons Ratio (z) = 0.42053 -0.12833
#
# Static dielectric constant tensor:
#      x y z
#    x 1.950290 0.000000 0.000000 
#    y 0.000000 1.992970 0.000000 
#    z 0.000000 0.000000 1.981670 
# 
# From -- ./inp_files/1437.got.cif
#   From: 2010.05.17/outbox.cif.g08.bks.cpg/sg34_1_cif.got.tgz:1437.got - 2010.06.03 17:23:11.
