data_PCOD9347118
_publ_section_title
;
Structure prediction by ZEFSAII (Michael W. Deem and Ramdas Pophale) SiO2 
 PCOD9347118
Probable space group: P N N 2
;
_chemical_formula_sum "Si O2"
_cell_formula_units_Z 28
_cell_length_a 8.963615
_cell_length_b 17.158700
_cell_length_c 9.478005
_cell_angle_alpha 90.000000
_cell_angle_beta 90.000000
_cell_angle_gamma 90.000000
_cell_volume 1457.754898
_symmetry_space_group_name_H-M "P N N 2"
_symmetry_group_IT_number 34
_symmetry_cell_setting 'orthorhombic'
loop_
_space_group_symop_operation_xyz
x,y,z
-x,-y,z
1/2-x,1/2+y,1/2+z
1/2+x,1/2-y,1/2+z
loop_
_atom_site_type_symbol
_atom_site_label
_atom_site_fract_x
_atom_site_fract_y
_atom_site_fract_z
Si Si1 0.246851 0.103370 0.247390
Si Si2 0.500000 0.000000 0.330458
Si Si3 0.000000 0.000000 0.407202
Si Si4 0.267871 0.249358 0.447641
Si Si5 0.757978 0.524577 0.073319
Si Si6 0.600200 0.301351 0.497652
Si Si7 0.400686 0.836261 0.708294
Si Si8 0.256315 0.649296 0.201641
O O1 0.399509 0.055123 0.232353
O O2 0.297066 0.172295 0.353194
O O3 0.169338 0.138560 0.110117
O O4 0.117587 0.050650 0.319221
O O5 0.623599 0.029059 0.444063
O O6 0.102313 0.947130 0.508103
O O7 0.420528 0.295098 0.482355
O O8 0.159267 0.298729 0.350757
O O9 0.195746 0.214466 0.588242
O O10 0.824968 0.580511 0.189566
O O11 0.728632 0.437976 0.136202
O O12 0.639561 0.217807 0.571657
O O13 0.665509 0.327970 0.347625
O O14 0.577985 0.841739 0.714639
#
# Coordination Sequence:
#
# PCOD9347118 Si02
#       8
#     4   2   2   4   4   4   4   4
#     4  10  21  42  62  96 125 170 218 265 324 391
#     4  10  16  38  68  86 124 168 216 258 322 382
#     4  10  22  36  68  90 128 168 216 268 322 394
#     4  10  21  40  64  88 128 168 212 259 321 387
#     4  11  20  38  67  96 120 167 221 269 317 386
#     4  10  24  40  61  92 133 161 211 272 321 382
#     4  10  22  39  64  91 122 168 213 263 321 384
#     4  11  21  42  63  92 127 163 217 267 312 388
#
# _framework density 19.207619000000001
#
# number of rings (size 3 to 8) (size 9 to 14) (size 15 to 20)
#    0.000    1.714    4.286    0.857    2.000    5.714 
#    5.143    1.429    0.000    0.000    0.000    0.000 
#    0.000    0.000    0.000    0.000    0.000    0.000 
#
# Total GULP energy -155948.422941 kJ/mol
# GULP energy per Si atom -5569.586534 kJ/mol
# Density = 1.916390 g / cm^3
# Si number density = 19.207619 Si / 1000 Ang^3
#
#
#
# Elastic Constant Matrix: (Units=GPa)
#
#
# Indices 1 2 3 4 5 6 
#
# 1 77.1517 27.9137 19.4526 0.0000 0.0000 0.0000
# 2 27.9137 64.2041 31.3122 0.0000 0.0000 0.0000
# 3 19.4526 31.3122 100.6275 0.0000 0.0000 0.0000
# 4 0.0000 0.0000 0.0000 15.3060 0.0000 0.0000
# 5 0.0000 0.0000 0.0000 0.0000 27.5114 0.0000
# 6 0.0000 0.0000 0.0000 0.0000 0.0000 25.0106
#
#
#
# Elastic Compliance Matrix: (Units=1/GPa)
#
#
# Indices 1 2 3 4 5 6 
#
# 1 0.015476 -0.006212 -0.001059 0.000000 0.000000 0.000000
# 2 -0.006212 0.020855 -0.005289 0.000000 0.000000 0.000000
# 3 -0.001059 -0.005289 0.011788 0.000000 0.000000 0.000000
# 4 0.000000 0.000000 0.000000 0.065334 0.000000 0.000000
# 5 0.000000 0.000000 0.000000 0.000000 0.036349 0.000000
# 6 0.000000 0.000000 0.000000 0.000000 0.000000 0.039983
#
#
# Mechanical properties :
#
#
# Convention : Reuss Voigt Hill
#
# Bulk Modulus (GPa) = 43.47749 44.37116 43.92433
# Shear Modulus (GPa) = 22.46477 24.45258 23.45868
#
# Velocity S-wave (km/s) = 3.42362 3.57188 3.49853
# Velocity P-wave (km/s) = 6.18974 6.33735 6.26398
#
# Compressibility (1/GPa) = 0.02300041
#
# Stress axis : x y z
#
# Youngs Moduli (GPa) = 64.61631 47.94916 84.83216
#
# Poissons Ratio (x) = 0.29786 0.08981
# Poissons Ratio (y) = 0.40140 0.44865
# Poissons Ratio (z) = 0.06841 0.25359
#
# Static dielectric constant tensor:
#      x y z
#    x 1.669760 0.000000 0.000000 
#    y 0.000000 1.706840 0.000000 
#    z 0.000000 0.000000 1.679350 
# 
# From -- ./inp_files/2791.got.cif
#   From: 2010.05.17/outbox.cif.g08.bks.cpg/sg34_2_cif.got.tgz:2791.got - 2010.06.03 17:23:11.
