data_PCOD9347939
_publ_section_title
;
Structure prediction by ZEFSAII (Michael W. Deem and Ramdas Pophale) SiO2 
 PCOD9347939
Probable space group: P N N 2
;
_chemical_formula_sum "Si O2"
_cell_formula_units_Z 26
_cell_length_a 17.099578
_cell_length_b 10.848362
_cell_length_c 5.240966
_cell_angle_alpha 90.000000
_cell_angle_beta 90.000000
_cell_angle_gamma 90.000000
_cell_volume 972.211835
_symmetry_space_group_name_H-M "P N N 2"
_symmetry_group_IT_number 34
_symmetry_cell_setting 'orthorhombic'
loop_
_space_group_symop_operation_xyz
x,y,z
-x,-y,z
1/2-x,1/2+y,1/2+z
1/2+x,1/2-y,1/2+z
loop_
_atom_site_type_symbol
_atom_site_label
_atom_site_fract_x
_atom_site_fract_y
_atom_site_fract_z
Si Si1 0.000000 0.500000 0.380520
Si Si2 0.483407 0.768840 0.525465
Si Si3 0.114187 0.617028 0.707824
Si Si4 0.322395 0.503405 0.183911
Si Si5 0.096147 0.915941 0.166233
Si Si6 0.823158 0.599041 0.008810
Si Si7 0.282510 0.229213 0.754480
O O1 0.922644 0.496843 0.547439
O O2 0.993997 0.378691 0.215676
O O3 0.536692 0.799899 0.273623
O O4 0.508390 0.636668 0.638223
O O5 0.391388 0.800077 0.516398
O O6 0.145336 0.537500 0.947257
O O7 0.179652 0.678848 0.525197
O O8 0.374562 0.499047 0.434962
O O9 0.280409 0.634073 0.146484
O O10 0.375762 0.463427 0.942217
O O11 0.244757 0.417256 0.219618
O O12 0.142523 0.784721 0.112440
O O13 0.767459 0.646833 0.787598
#
# Coordination Sequence:
#
# PCOD9347939 Si02
#       7
#     2   4   4   4   4   4   4
#     4  12  20  36  68 100 132 174 214 298 342 398
#     4  12  22  40  66 103 135 171 227 288 348 397
#     4  12  22  42  66 101 143 171 224 295 350 401
#     4  11  25  46  65  98 136 180 223 273 339 412
#     4  11  25  43  70  95 133 181 218 278 345 398
#     4  11  23  41  69 100 131 180 227 282 345 408
#     4  11  23  42  69  94 135 180 225 277 337 416
#
# _framework density 26.743143
#
# number of rings (size 3 to 8) (size 9 to 14) (size 15 to 20)
#    0.000    0.615    4.615    5.538    0.000    2.462 
#    0.000    0.769    0.000    7.385    0.000    0.000 
#    0.000    0.000    0.000    0.000    0.000    0.000 
#
# Total GULP energy -145119.764118 kJ/mol
# GULP energy per Si atom -5581.529389 kJ/mol
# Density = 2.668227 g / cm^3
# Si number density = 26.743143 Si / 1000 Ang^3
#
#
#
# Elastic Constant Matrix: (Units=GPa)
#
#
# Indices 1 2 3 4 5 6 
#
# 1 130.0223 -3.6226 43.6399 0.0000 0.0000 0.0000
# 2 -3.6226 50.2640 -3.3975 0.0000 0.0000 0.0000
# 3 43.6399 -3.3975 101.7786 0.0000 0.0000 0.0000
# 4 0.0000 0.0000 0.0000 8.2575 0.0000 0.0000
# 5 0.0000 0.0000 0.0000 0.0000 41.5896 0.0000
# 6 0.0000 0.0000 0.0000 0.0000 0.0000 42.6792
#
#
#
# Elastic Compliance Matrix: (Units=1/GPa)
#
#
# Indices 1 2 3 4 5 6 
#
# 1 0.008991 0.000388 -0.003842 0.000000 0.000000 0.000000
# 2 0.000388 0.019957 0.000500 0.000000 0.000000 0.000000
# 3 -0.003842 0.000500 0.011489 0.000000 0.000000 0.000000
# 4 0.000000 0.000000 0.000000 0.121102 0.000000 0.000000
# 5 0.000000 0.000000 0.000000 0.000000 0.024044 0.000000
# 6 0.000000 0.000000 0.000000 0.000000 0.000000 0.023431
#
#
# Mechanical properties :
#
#
# Convention : Reuss Voigt Hill
#
# Bulk Modulus (GPa) = 28.96129 39.47832 34.21980
# Shear Modulus (GPa) = 22.08157 34.86826 28.47492
#
# Velocity S-wave (km/s) = 2.87660 3.61476 3.26660
# Velocity P-wave (km/s) = 4.67825 5.67592 5.20106
#
# Compressibility (1/GPa) = 0.03452885
#
# Stress axis : x y z
#
# Youngs Moduli (GPa) = 111.21715 50.10849 87.03670
#
# Poissons Ratio (x) = -0.01946 0.33442
# Poissons Ratio (y) = -0.04319 -0.04349
# Poissons Ratio (z) = 0.42733 -0.02504
#
# Static dielectric constant tensor:
#      x y z
#    x 2.210490 0.000000 0.000000 
#    y 0.000000 2.128000 0.000000 
#    z 0.000000 0.000000 2.200420 
# 
# From -- ./inp_files/948.got.cif
#   From: 2010.05.17/outbox.cif.g08.bks.cpg/sg34_1_cif.got.tgz:948.got - 2010.06.03 17:23:11.
