data_PCOD9347492
_publ_section_title
;
Structure prediction by ZEFSAII (Michael W. Deem and Ramdas Pophale) SiO2 
 PCOD9347492
Probable space group: P N N 2
;
_chemical_formula_sum "Si O2"
_cell_formula_units_Z 16
_cell_length_a 9.763770
_cell_length_b 12.656061
_cell_length_c 4.874760
_cell_angle_alpha 90.000000
_cell_angle_beta 90.000000
_cell_angle_gamma 90.000000
_cell_volume 602.378328
_symmetry_space_group_name_H-M "P N N 2"
_symmetry_group_IT_number 34
_symmetry_cell_setting 'orthorhombic'
loop_
_space_group_symop_operation_xyz
x,y,z
-x,-y,z
1/2-x,1/2+y,1/2+z
1/2+x,1/2-y,1/2+z
loop_
_atom_site_type_symbol
_atom_site_label
_atom_site_fract_x
_atom_site_fract_y
_atom_site_fract_z
Si Si1 0.969607 0.210788 0.861290
Si Si2 0.799708 0.017806 0.699645
Si Si3 0.558407 0.170693 0.892673
Si Si4 0.787765 0.392524 0.663532
O O1 0.924502 0.099528 0.732760
O O2 0.084518 0.267860 0.675081
O O3 0.829206 0.282267 0.806258
O O4 0.010172 0.240795 0.171758
O O5 0.673252 0.093203 0.787196
O O6 0.757484 0.970811 0.406313
O O7 0.816386 0.923725 0.922891
O O8 0.427731 0.100874 0.985194
#
# Coordination Sequence:
#
# PCOD9347492 Si02
#       4
#     4   4   4   4
#     4  10  22  36  51  89 116 140 187 238 271 352
#     4  12  21  35  64  77 118 154 170 242 302 300
#     4  10  21  36  55  87 115 135 197 234 276 335
#     4  10  21  34  55  88 111 137 196 230 279 336
#
# _framework density 26.561378999999999
#
# number of rings (size 3 to 8) (size 9 to 14) (size 15 to 20)
#    1.500    0.000    2.500    3.750    3.500    0.000 
#    0.000    0.000    0.000    9.000    0.000    0.000 
#    0.000    0.000    0.000    0.000    0.000    0.000 
#
# Total GULP energy -89198.883289 kJ/mol
# GULP energy per Si atom -5574.930206 kJ/mol
# Density = 2.650092 g / cm^3
# Si number density = 26.561379 Si / 1000 Ang^3
#
#
#
# Elastic Constant Matrix: (Units=GPa)
#
#
# Indices 1 2 3 4 5 6 
#
# 1 73.5337 4.0216 26.9692 0.0000 0.0000 0.0000
# 2 4.0216 99.1801 28.1707 0.0000 0.0000 0.0000
# 3 26.9692 28.1707 173.3619 0.0000 0.0000 0.0000
# 4 0.0000 0.0000 0.0000 49.8467 0.0000 0.0000
# 5 0.0000 0.0000 0.0000 0.0000 34.4333 0.0000
# 6 0.0000 0.0000 0.0000 0.0000 0.0000 43.3404
#
#
#
# Elastic Compliance Matrix: (Units=1/GPa)
#
#
# Indices 1 2 3 4 5 6 
#
# 1 0.014422 0.000055 -0.002253 0.000000 0.000000 0.000000
# 2 0.000055 0.010571 -0.001726 0.000000 0.000000 0.000000
# 3 -0.002253 -0.001726 0.006399 0.000000 0.000000 0.000000
# 4 0.000000 0.000000 0.000000 0.020062 0.000000 0.000000
# 5 0.000000 0.000000 0.000000 0.000000 0.029042 0.000000
# 6 0.000000 0.000000 0.000000 0.000000 0.000000 0.023073
#
#
# Mechanical properties :
#
#
# Convention : Reuss Voigt Hill
#
# Bulk Modulus (GPa) = 42.47245 51.59985 47.03615
# Shear Modulus (GPa) = 41.92363 44.65171 43.28767
#
# Velocity S-wave (km/s) = 3.97718 4.10454 4.04136
# Velocity P-wave (km/s) = 6.09226 6.47548 6.28679
#
# Compressibility (1/GPa) = 0.02354467
#
# Stress axis : x y z
#
# Youngs Moduli (GPa) = 69.33682 94.60064 156.26924
#
# Poissons Ratio (x) = -0.00520 0.35201
# Poissons Ratio (y) = -0.00381 0.26976
# Poissons Ratio (z) = 0.15619 0.16331
#
# Static dielectric constant tensor:
#      x y z
#    x 2.207390 0.000000 0.000000 
#    y 0.000000 2.196710 0.000000 
#    z 0.000000 0.000000 1.973070 
# 
# From -- ./inp_files/39.got.cif
#   From: 2010.05.17/outbox.cif.g08.bks.cpg/sg34_1_cif.got.tgz:39.got - 2010.06.03 17:23:11.
