data_PCOD9347347
_publ_section_title
;
Structure prediction by ZEFSAII (Michael W. Deem and Ramdas Pophale) SiO2 
 PCOD9347347
Probable space group: P N N 2
;
_chemical_formula_sum "Si O2"
_cell_formula_units_Z 32
_cell_length_a 16.274130
_cell_length_b 8.694421
_cell_length_c 11.617091
_cell_angle_alpha 90.000000
_cell_angle_beta 90.000000
_cell_angle_gamma 90.000000
_cell_volume 1643.750273
_symmetry_space_group_name_H-M "P N N 2"
_symmetry_group_IT_number 34
_symmetry_cell_setting 'orthorhombic'
loop_
_space_group_symop_operation_xyz
x,y,z
-x,-y,z
1/2-x,1/2+y,1/2+z
1/2+x,1/2-y,1/2+z
loop_
_atom_site_type_symbol
_atom_site_label
_atom_site_fract_x
_atom_site_fract_y
_atom_site_fract_z
Si Si1 0.262739 0.470067 0.299870
Si Si2 0.033694 0.674019 0.345971
Si Si3 0.012479 0.321282 0.083857
Si Si4 0.671633 0.380366 0.628641
Si Si5 0.374295 0.323983 0.477823
Si Si6 0.788077 0.264675 0.450945
Si Si7 0.749126 0.942553 0.536686
Si Si8 0.360734 0.714790 0.874739
O O1 0.337334 0.373678 0.354962
O O2 0.262259 0.634983 0.359883
O O3 0.258379 0.497584 0.165454
O O4 0.180860 0.378689 0.341391
O O5 0.035358 0.694998 0.206945
O O6 0.117353 0.715418 0.411906
O O7 0.000000 0.500000 0.365875
O O8 0.957885 0.780473 0.381942
O O9 0.969446 0.214750 0.989323
O O10 0.000000 0.500000 0.053965
O O11 0.104571 0.255579 0.101295
O O12 0.645776 0.537539 0.566109
O O13 0.740267 0.835769 0.074294
O O14 0.667923 0.389294 0.766408
O O15 0.328478 0.167202 0.516773
O O16 0.756260 0.091723 0.456629
O O17 0.823865 0.836863 0.494803
#
# Coordination Sequence:
#
# PCOD9347347 Si02
#       8
#     4   4   4   4   4   4   4   4
#     4  10  21  40  60  90 123 163 207 256 322 378
#     4  10  20  35  61  91 125 158 208 266 325 377
#     4  10  20  36  65  96 126 161 214 275 318 379
#     4  10  21  37  62  92 128 165 210 263 327 376
#     4  10  22  37  60  92 126 162 208 268 315 386
#     4  11  21  37  66  87 124 167 199 264 327 379
#     4  11  23  37  61  91 128 165 213 258 318 387
#     4  10  21  38  59  93 123 161 213 261 307 387
#
# _framework density 19.467677999999999
#
# number of rings (size 3 to 8) (size 9 to 14) (size 15 to 20)
#    0.000    1.750    2.500    1.875    5.250    0.500 
#    0.000    0.000   11.000    0.750    0.000    0.000 
#    0.000    0.000    0.000    0.000    0.000    0.000 
#
# Total GULP energy -178418.452926 kJ/mol
# GULP energy per Si atom -5575.576654 kJ/mol
# Density = 1.942337 g / cm^3
# Si number density = 19.467678 Si / 1000 Ang^3
#
#
#
# Elastic Constant Matrix: (Units=GPa)
#
#
# Indices 1 2 3 4 5 6 
#
# 1 96.1505 16.0317 42.0852 0.0000 0.0000 0.0000
# 2 16.0317 98.5361 42.2179 0.0000 0.0000 0.0000
# 3 42.0852 42.2179 72.8333 0.0000 0.0000 0.0000
# 4 0.0000 0.0000 0.0000 28.8810 0.0000 0.0000
# 5 0.0000 0.0000 0.0000 0.0000 27.4042 0.0000
# 6 0.0000 0.0000 0.0000 0.0000 0.0000 20.0655
#
#
#
# Elastic Compliance Matrix: (Units=1/GPa)
#
#
# Indices 1 2 3 4 5 6 
#
# 1 0.014107 0.001593 -0.009075 0.000000 0.000000 0.000000
# 2 0.001593 0.013682 -0.008851 0.000000 0.000000 0.000000
# 3 -0.009075 -0.008851 0.024104 0.000000 0.000000 0.000000
# 4 0.000000 0.000000 0.000000 0.034625 0.000000 0.000000
# 5 0.000000 0.000000 0.000000 0.000000 0.036491 0.000000
# 6 0.000000 0.000000 0.000000 0.000000 0.000000 0.049837
#
#
# Mechanical properties :
#
#
# Convention : Reuss Voigt Hill
#
# Bulk Modulus (GPa) = 52.01024 52.02107 52.01565
# Shear Modulus (GPa) = 23.59391 26.41581 25.00486
#
# Velocity S-wave (km/s) = 3.48509 3.68762 3.58778
# Velocity P-wave (km/s) = 6.55505 6.70158 6.62872
#
# Compressibility (1/GPa) = 0.01922698
#
# Stress axis : x y z
#
# Youngs Moduli (GPa) = 70.88805 73.09071 41.48681
#
# Poissons Ratio (x) = -0.11642 0.37648
# Poissons Ratio (y) = -0.11292 0.36720
# Poissons Ratio (z) = 0.64328 0.64692
#
# Static dielectric constant tensor:
#      x y z
#    x 1.716170 0.000000 0.000000 
#    y 0.000000 1.761860 0.000000 
#    z 0.000000 0.000000 1.698080 
# 
# From -- ./inp_files/5816.got.cif
#   From: 2010.05.17/outbox.cif.g08.bks.cpg/sg34_3_cif.got.tgz:5816.got - 2010.06.03 17:23:11.
