data_PCOD9347822
_publ_section_title
;
Structure prediction by ZEFSAII (Michael W. Deem and Ramdas Pophale) SiO2 
 PCOD9347822
Probable space group: P N N 2
;
_chemical_formula_sum "Si O2"
_cell_formula_units_Z 24
_cell_length_a 8.798821
_cell_length_b 21.029390
_cell_length_c 5.220376
_cell_angle_alpha 90.000000
_cell_angle_beta 90.000000
_cell_angle_gamma 90.000000
_cell_volume 965.946209
_symmetry_space_group_name_H-M "P N N 2"
_symmetry_group_IT_number 34
_symmetry_cell_setting 'orthorhombic'
loop_
_space_group_symop_operation_xyz
x,y,z
-x,-y,z
1/2-x,1/2+y,1/2+z
1/2+x,1/2-y,1/2+z
loop_
_atom_site_type_symbol
_atom_site_label
_atom_site_fract_x
_atom_site_fract_y
_atom_site_fract_z
Si Si1 0.873649 0.800817 0.685530
Si Si2 0.073434 0.704075 0.478370
Si Si3 0.473633 0.930884 0.525832
Si Si4 0.511868 0.428842 0.453683
Si Si5 0.740272 0.383636 0.811289
Si Si6 0.669766 0.112393 0.014624
O O1 0.848469 0.819880 0.389232
O O2 0.018786 0.754941 0.689553
O O3 0.714097 0.774151 0.799791
O O4 0.915268 0.870419 0.796339
O O5 0.143569 0.640104 0.597454
O O6 0.906947 0.676897 0.394701
O O7 0.643601 0.902695 0.534420
O O8 0.396754 0.936338 0.801890
O O9 0.500000 0.000000 0.409317
O O10 0.375539 0.893944 0.313469
O O11 0.500000 0.500000 0.339885
O O12 0.622619 0.433989 0.701850
O O13 0.347441 0.400797 0.513852
#
# Coordination Sequence:
#
# PCOD9347822 Si02
#       6
#     4   4   4   4   4   4
#     4  11  25  44  72  97 141 190 239 314 371 451
#     4  10  25  44  67 101 140 185 255 299 378 449
#     4  11  23  43  74 100 146 192 245 297 371 446
#     4  11  27  45  69 107 149 191 255 308 385 447
#     4  10  24  44  66 101 138 193 241 307 372 445
#     4  11  25  44  69 108 142 195 243 311 368 447
#
# _framework density 24.846105999999999
#
# number of rings (size 3 to 8) (size 9 to 14) (size 15 to 20)
#    0.000    1.333    1.667    1.500    9.333    3.333 
#    0.000    0.000    0.000    0.000    0.000    0.000 
#    0.000    0.000    0.000    0.000    0.000    0.000 
#
# Total GULP energy -133643.689759 kJ/mol
# GULP energy per Si atom -5568.487073 kJ/mol
# Density = 2.478956 g / cm^3
# Si number density = 24.846106 Si / 1000 Ang^3
#
#
#
# Elastic Constant Matrix: (Units=GPa)
#
#
# Indices 1 2 3 4 5 6 
#
# 1 163.3813 48.7063 41.0620 0.0000 0.0000 0.0000
# 2 48.7063 87.0588 3.9052 0.0000 0.0000 0.0000
# 3 41.0620 3.9052 73.7961 0.0000 0.0000 0.0000
# 4 0.0000 0.0000 0.0000 27.5910 0.0000 0.0000
# 5 0.0000 0.0000 0.0000 0.0000 8.4740 0.0000
# 6 0.0000 0.0000 0.0000 0.0000 0.0000 28.6429
#
#
#
# Elastic Compliance Matrix: (Units=1/GPa)
#
#
# Indices 1 2 3 4 5 6 
#
# 1 0.008650 -0.004635 -0.004568 0.000000 0.000000 0.000000
# 2 -0.004635 0.013997 0.001838 0.000000 0.000000 0.000000
# 3 -0.004568 0.001838 0.015995 0.000000 0.000000 0.000000
# 4 0.000000 0.000000 0.000000 0.036244 0.000000 0.000000
# 5 0.000000 0.000000 0.000000 0.000000 0.118009 0.000000
# 6 0.000000 0.000000 0.000000 0.000000 0.000000 0.034913
#
#
# Mechanical properties :
#
#
# Convention : Reuss Voigt Hill
#
# Bulk Modulus (GPa) = 41.81722 56.84256 49.32989
# Shear Modulus (GPa) = 19.95944 28.31241 24.13592
#
# Velocity S-wave (km/s) = 2.83737 3.37933 3.12014
# Velocity P-wave (km/s) = 5.25369 6.17689 5.73390
#
# Compressibility (1/GPa) = 0.02391359
#
# Stress axis : x y z
#
# Youngs Moduli (GPa) = 115.60187 71.44402 62.51822
#
# Poissons Ratio (x) = 0.33112 0.28558
# Poissons Ratio (y) = 0.53578 -0.11492
# Poissons Ratio (z) = 0.52807 -0.13132
#
# Static dielectric constant tensor:
#      x y z
#    x 2.200480 0.000000 0.000000 
#    y 0.000000 2.168800 0.000000 
#    z 0.000000 0.000000 2.144880 
# 
# From -- ./inp_files/493.got.cif
#   From: 2010.05.17/outbox.cif.g08.bks.cpg/sg34_1_cif.got.tgz:493.got - 2010.06.03 17:23:11.
