data_PCOD9347998
_publ_section_title
;
Structure prediction by ZEFSAII (Michael W. Deem and Ramdas Pophale) SiO2 
 PCOD9347998
Probable space group: P N N 2
;
_chemical_formula_sum "Si O2"
_cell_formula_units_Z 18
_cell_length_a 5.099377
_cell_length_b 5.484249
_cell_length_c 25.640658
_cell_angle_alpha 90.000000
_cell_angle_beta 90.000000
_cell_angle_gamma 90.000000
_cell_volume 717.073134
_symmetry_space_group_name_H-M "P N N 2"
_symmetry_group_IT_number 34
_symmetry_cell_setting 'orthorhombic'
loop_
_space_group_symop_operation_xyz
x,y,z
-x,-y,z
1/2-x,1/2+y,1/2+z
1/2+x,1/2-y,1/2+z
loop_
_atom_site_type_symbol
_atom_site_label
_atom_site_fract_x
_atom_site_fract_y
_atom_site_fract_z
Si Si1 0.261831 0.658303 0.780450
Si Si2 0.671753 0.748760 0.392954
Si Si3 0.260446 0.837603 0.119886
Si Si4 0.669899 0.750844 0.505094
Si Si5 0.500000 0.500000 0.198106
O O1 0.500000 0.500000 0.760276
O O2 0.330909 0.747583 0.839013
O O3 0.000000 0.500000 0.786737
O O4 0.178848 0.851819 0.738325
O O5 0.500000 0.500000 0.390614
O O6 0.816085 0.749492 0.449192
O O7 0.500000 0.000000 0.394403
O O8 0.316789 0.759296 0.060091
O O9 0.287063 0.616809 0.159090
O O10 0.500000 0.000000 0.138627
O O11 0.000000 0.000000 0.121148
O O12 0.500000 0.500000 0.504402
O O13 0.500000 0.000000 0.507264
#
# Coordination Sequence:
#
# PCOD9347998 Si02
#       5
#     4   4   4   4   2
#     4  11  26  49  73 110 148 199 261 317 387 465
#     4   9  18  42  75 109 149 196 248 320 389 464
#     4  11  28  49  73 113 150 199 258 317 389 466
#     4   9  20  42  74 110 152 194 250 317 391 465
#     4  12  28  50  80 104 160 208 268 324 398 468
#
# _framework density 25.102042000000001
#
# number of rings (size 3 to 8) (size 9 to 14) (size 15 to 20)
#    0.000    1.778    1.111    0.667    6.222    6.222 
#    2.000    6.667    0.000    0.000    0.000    0.000 
#    0.000    0.000    0.000    0.000    0.000    0.000 
#
# Total GULP energy -100646.038312 kJ/mol
# GULP energy per Si atom -5591.446573 kJ/mol
# Density = 2.504491 g / cm^3
# Si number density = 25.102042 Si / 1000 Ang^3
#
#
#
# Elastic Constant Matrix: (Units=GPa)
#
#
# Indices 1 2 3 4 5 6 
#
# 1 94.3102 34.4265 16.3732 0.0000 0.0000 0.0000
# 2 34.4265 135.2024 46.6754 0.0000 0.0000 0.0000
# 3 16.3732 46.6754 240.9925 0.0000 0.0000 0.0000
# 4 0.0000 0.0000 0.0000 63.5626 0.0000 0.0000
# 5 0.0000 0.0000 0.0000 0.0000 83.3399 0.0000
# 6 0.0000 0.0000 0.0000 0.0000 0.0000 45.4334
#
#
#
# Elastic Compliance Matrix: (Units=1/GPa)
#
#
# Indices 1 2 3 4 5 6 
#
# 1 0.011702 -0.002899 -0.000234 0.000000 0.000000 0.000000
# 2 -0.002899 0.008645 -0.001477 0.000000 0.000000 0.000000
# 3 -0.000234 -0.001477 0.004452 0.000000 0.000000 0.000000
# 4 0.000000 0.000000 0.000000 0.015733 0.000000 0.000000
# 5 0.000000 0.000000 0.000000 0.000000 0.011999 0.000000
# 6 0.000000 0.000000 0.000000 0.000000 0.000000 0.022010
#
#
# Mechanical properties :
#
#
# Convention : Reuss Voigt Hill
#
# Bulk Modulus (GPa) = 64.19202 73.93948 69.06575
# Shear Modulus (GPa) = 56.20974 63.33585 59.77279
#
# Velocity S-wave (km/s) = 4.73720 5.02853 4.88504
# Velocity P-wave (km/s) = 7.45315 7.95200 7.70661
#
# Compressibility (1/GPa) = 0.01557826
#
# Stress axis : x y z
#
# Youngs Moduli (GPa) = 85.45463 115.68029 224.64337
#
# Poissons Ratio (x) = 0.33537 0.05247
# Poissons Ratio (y) = 0.24774 0.33187
# Poissons Ratio (z) = 0.01996 0.17090
#
# Static dielectric constant tensor:
#      x y z
#    x 1.916350 0.000000 0.000000 
#    y 0.000000 2.028760 0.000000 
#    z 0.000000 0.000000 1.996840 
# 
# From -- ./inp_files/8491.got.cif
#   From: 2010.05.17/outbox.cif.g08.bks.cpg/sg34_5_cif.got.tgz:8491.got - 2010.06.03 17:23:11.
