data_PCOD9347839
_publ_section_title
;
Structure prediction by ZEFSAII (Michael W. Deem and Ramdas Pophale) SiO2 
 PCOD9347839
Probable space group: P N N 2
;
_chemical_formula_sum "Si O2"
_cell_formula_units_Z 20
_cell_length_a 7.463620
_cell_length_b 20.081948
_cell_length_c 5.269425
_cell_angle_alpha 90.000000
_cell_angle_beta 90.000000
_cell_angle_gamma 90.000000
_cell_volume 789.802648
_symmetry_space_group_name_H-M "P N N 2"
_symmetry_group_IT_number 34
_symmetry_cell_setting 'orthorhombic'
loop_
_space_group_symop_operation_xyz
x,y,z
-x,-y,z
1/2-x,1/2+y,1/2+z
1/2+x,1/2-y,1/2+z
loop_
_atom_site_type_symbol
_atom_site_label
_atom_site_fract_x
_atom_site_fract_y
_atom_site_fract_z
Si Si1 0.403932 0.612566 0.657550
Si Si2 0.556658 0.814609 0.119567
Si Si3 0.791005 0.193748 0.376103
Si Si4 0.625553 0.093864 0.748355
Si Si5 0.737736 0.449668 0.141025
O O1 0.250843 0.667315 0.722928
O O2 0.597275 0.644757 0.694193
O O3 0.359147 0.588026 0.374322
O O4 0.367376 0.558230 0.877688
O O5 0.406504 0.784072 0.295755
O O6 0.593696 0.759673 0.908065
O O7 0.460168 0.880546 0.010275
O O8 0.748639 0.150686 0.626937
O O9 0.438620 0.080074 0.596999
O O10 0.730228 0.024671 0.738110
#
# Coordination Sequence:
#
# PCOD9347839 Si02
#       5
#     4   4   4   4   4
#     4  11  26  47  77 111 149 193 255 305 379 438
#     4  11  27  47  74 106 152 198 248 309 371 446
#     4  12  27  46  77 107 149 197 253 308 370 446
#     4  10  24  45  76 107 149 199 247 307 382 437
#     4  10  24  48  77 109 152 197 244 315 374 451
#
# _framework density 25.322780999999999
#
# number of rings (size 3 to 8) (size 9 to 14) (size 15 to 20)
#    0.000    1.200    2.000    1.200   11.200    5.600 
#    0.000    0.000    0.000    0.000    0.000    0.000 
#    0.000    0.000    0.000    0.000    0.000    0.000 
#
# Total GULP energy -111901.886904 kJ/mol
# GULP energy per Si atom -5595.094345 kJ/mol
# Density = 2.526515 g / cm^3
# Si number density = 25.322781 Si / 1000 Ang^3
#
#
#
# Elastic Constant Matrix: (Units=GPa)
#
#
# Indices 1 2 3 4 5 6 
#
# 1 139.0223 23.7414 25.1139 0.0000 0.0000 0.0000
# 2 23.7414 68.1027 4.4807 0.0000 0.0000 0.0000
# 3 25.1139 4.4807 74.7005 0.0000 0.0000 0.0000
# 4 0.0000 0.0000 0.0000 20.4579 0.0000 0.0000
# 5 0.0000 0.0000 0.0000 0.0000 23.6578 0.0000
# 6 0.0000 0.0000 0.0000 0.0000 0.0000 30.4204
#
#
#
# Elastic Compliance Matrix: (Units=1/GPa)
#
#
# Indices 1 2 3 4 5 6 
#
# 1 0.008111 -0.002659 -0.002567 0.000000 0.000000 0.000000
# 2 -0.002659 0.015613 -0.000043 0.000000 0.000000 0.000000
# 3 -0.002567 -0.000043 0.014252 0.000000 0.000000 0.000000
# 4 0.000000 0.000000 0.000000 0.048881 0.000000 0.000000
# 5 0.000000 0.000000 0.000000 0.000000 0.042269 0.000000
# 6 0.000000 0.000000 0.000000 0.000000 0.000000 0.032873
#
#
# Mechanical properties :
#
#
# Convention : Reuss Voigt Hill
#
# Bulk Modulus (GPa) = 36.44406 43.16640 39.80523
# Shear Modulus (GPa) = 27.52040 30.13986 28.83013
#
# Velocity S-wave (km/s) = 3.30022 3.45371 3.37784
# Velocity P-wave (km/s) = 5.38005 5.74349 5.56474
#
# Compressibility (1/GPa) = 0.02743932
#
# Stress axis : x y z
#
# Youngs Moduli (GPa) = 123.29082 64.04778 70.16316
#
# Poissons Ratio (x) = 0.17028 0.18014
# Poissons Ratio (y) = 0.32779 0.00300
# Poissons Ratio (z) = 0.31653 0.00273
#
# Static dielectric constant tensor:
#      x y z
#    x 1.993340 0.000000 0.000000 
#    y 0.000000 2.009200 0.000000 
#    z 0.000000 0.000000 2.036290 
# 
# From -- ./inp_files/424.got.cif
#   From: 2010.05.17/outbox.cif.g08.bks.cpg/sg34_1_cif.got.tgz:424.got - 2010.06.03 17:23:11.
