data_PCOD9347375
_publ_section_title
;
Structure prediction by ZEFSAII (Michael W. Deem and Ramdas Pophale) SiO2 
 PCOD9347375
Probable space group: P N N 2
;
_chemical_formula_sum "Si O2"
_cell_formula_units_Z 30
_cell_length_a 7.570952
_cell_length_b 12.969657
_cell_length_c 13.636712
_cell_angle_alpha 90.000000
_cell_angle_beta 90.000000
_cell_angle_gamma 90.000000
_cell_volume 1339.024897
_symmetry_space_group_name_H-M "P N N 2"
_symmetry_group_IT_number 34
_symmetry_cell_setting 'orthorhombic'
loop_
_space_group_symop_operation_xyz
x,y,z
-x,-y,z
1/2-x,1/2+y,1/2+z
1/2+x,1/2-y,1/2+z
loop_
_atom_site_type_symbol
_atom_site_label
_atom_site_fract_x
_atom_site_fract_y
_atom_site_fract_z
Si Si1 0.507122 0.882725 0.471580
Si Si2 0.000000 0.000000 0.060299
Si Si3 0.985324 0.619598 0.193366
Si Si4 0.377637 0.664070 0.401617
Si Si5 0.071326 0.110591 0.484421
Si Si6 0.359509 0.909550 0.101670
Si Si7 0.028667 0.319526 0.396050
Si Si8 0.608931 0.310258 0.189538
O O1 0.421029 0.879206 0.581095
O O2 0.421096 0.784952 0.419111
O O3 0.718335 0.870903 0.479312
O O4 0.500000 0.000000 0.431680
O O5 0.950052 0.904924 0.989280
O O6 0.167497 0.958404 0.120237
O O7 0.890669 0.668030 0.287830
O O8 0.179484 0.670374 0.188495
O O9 0.000000 0.500000 0.218639
O O10 0.169747 0.636037 0.397777
O O11 0.453912 0.646244 0.293173
O O12 0.023721 0.131961 0.597661
O O13 0.996688 0.199890 0.417224
O O14 0.000000 0.000000 0.455444
O O15 0.409100 0.811689 0.168745
O O16 0.500000 0.000000 0.111909
O O17 0.367891 0.867848 0.988301
#
# Coordination Sequence:
#
# PCOD9347375 Si02
#       8
#     4   2   4   4   4   4   4   4
#     4  10  21  40  61  86 123 167 212 261 319 379
#     4  12  24  38  72  98 132 170 226 264 336 384
#     4   9  18  35  62  90 120 162 206 263 322 378
#     4  11  22  39  63  97 129 166 210 274 321 384
#     4  10  20  38  60  87 121 169 210 260 317 382
#     4  11  22  44  67  94 134 177 214 271 326 396
#     4  10  20  37  62  92 126 161 208 263 321 379
#     4   9  22  38  62  94 131 163 217 267 322 393
#
# _framework density 22.404364000000001
#
# number of rings (size 3 to 8) (size 9 to 14) (size 15 to 20)
#    0.000    1.867    1.333    3.600    2.800    0.533 
#    0.000    6.667   27.867    0.000    0.000    0.000 
#    0.000    0.000    0.000    0.000    0.000    0.000 
#
# Total GULP energy -167447.222731 kJ/mol
# GULP energy per Si atom -5581.574091 kJ/mol
# Density = 2.235337 g / cm^3
# Si number density = 22.404364 Si / 1000 Ang^3
#
#
#
# Elastic Constant Matrix: (Units=GPa)
#
#
# Indices 1 2 3 4 5 6 
#
# 1 71.7361 -12.6506 -22.7444 0.0000 0.0000 0.0000
# 2 -12.6506 78.6160 -12.5999 0.0000 0.0000 0.0000
# 3 -22.7444 -12.5999 29.6937 0.0000 0.0000 0.0000
# 4 0.0000 0.0000 0.0000 -54.0983 0.0000 0.0000
# 5 0.0000 0.0000 0.0000 0.0000 -0.3932 0.0000
# 6 0.0000 0.0000 0.0000 0.0000 0.0000 33.9908
#
#
#
# Elastic Compliance Matrix: (Units=1/GPa)
#
#
# Indices 1 2 3 4 5 6 
#
# 1 0.021041 0.006404 0.018834 0.000000 0.000000 0.000000
# 2 0.006404 0.015598 0.011524 0.000000 0.000000 0.000000
# 3 0.018834 0.011524 0.052994 0.000000 0.000000 0.000000
# 4 0.000000 0.000000 0.000000 -0.018485 0.000000 0.000000
# 5 0.000000 0.000000 0.000000 0.000000 -2.543229 0.000000
# 6 0.000000 0.000000 0.000000 0.000000 0.000000 0.029420
#
#
# Mechanical properties :
#
#
# Convention : Reuss Voigt Hill
#
# Bulk Modulus (GPa) = 6.12903 9.33954 7.73429
# Shear Modulus (GPa) = -2.03103 11.10257 4.53577
#
# Velocity S-wave (km/s) = -0.95315 2.22852 1.42439
# Velocity P-wave (km/s) = 1.23703 3.28624 2.48291
#
# Compressibility (1/GPa) = 0.16315789
#
# Stress axis : x y z
#
# Youngs Moduli (GPa) = 47.52639 64.11227 18.87020
#
# Poissons Ratio (x) = -0.41060 -0.35541
# Poissons Ratio (y) = -0.30438 -0.21746
# Poissons Ratio (z) = -0.89513 -0.73884
#
# Static dielectric constant tensor:
#      x y z
#    x 1.859640 0.000000 0.000000 
#    y 0.000000 0.982650 0.000000 
#    z 0.000000 0.000000 1.877390 
# 
# From -- ./inp_files/6534.got.cif
#   From: 2010.05.17/outbox.cif.g08.bks.cpg/sg34_4_cif.got.tgz:6534.got - 2010.06.03 17:23:11.
