data_PCOD9347682
_publ_section_title
;
Structure prediction by ZEFSAII (Michael W. Deem and Ramdas Pophale) SiO2 
 PCOD9347682
Probable space group: P N N 2
;
_chemical_formula_sum "Si O2"
_cell_formula_units_Z 26
_cell_length_a 7.941404
_cell_length_b 15.130872
_cell_length_c 11.383817
_cell_angle_alpha 90.000000
_cell_angle_beta 90.000000
_cell_angle_gamma 90.000000
_cell_volume 1367.883633
_symmetry_space_group_name_H-M "P N N 2"
_symmetry_group_IT_number 34
_symmetry_cell_setting 'orthorhombic'
loop_
_space_group_symop_operation_xyz
x,y,z
-x,-y,z
1/2-x,1/2+y,1/2+z
1/2+x,1/2-y,1/2+z
loop_
_atom_site_type_symbol
_atom_site_label
_atom_site_fract_x
_atom_site_fract_y
_atom_site_fract_z
Si Si1 0.500001 0.852514 0.524800
Si Si2 0.852395 0.216180 0.617163
Si Si3 0.000000 0.500000 0.216439
Si Si4 0.773849 0.105064 0.841990
Si Si5 0.226151 0.105063 0.207608
Si Si6 0.500000 0.000000 0.333162
Si Si7 0.352398 0.716179 0.932435
Si Si8 0.500000 0.500000 0.524799
O O1 0.332542 0.800174 0.560578
O O2 0.540800 0.917027 0.633312
O O3 0.459200 0.917027 0.416288
O O4 0.667461 0.800176 0.489021
O O5 0.865992 0.152290 0.731050
O O6 0.847287 0.317539 0.658849
O O7 0.999998 0.199341 0.524798
O O8 0.840695 0.526831 0.292408
O O9 0.652713 0.182461 0.890750
O O10 0.891730 0.064061 0.940796
O O11 0.134006 0.152290 0.318547
O O12 0.340695 0.026831 0.257192
O O13 0.108273 0.064059 0.108801
#
# Coordination Sequence:
#
# PCOD9347682 Si02
#       8
#     4   4   2   4   4   2   4   2
#     4   9  19  40  63  93 120 154 212 257 297 360
#     4  10  22  42  67  90 122 165 208 251 305 372
#     4   9  20  39  62  86 126 157 199 262 306 350
#     4  10  24  41  58  95 124 162 209 247 311 369
#     4  10  24  41  58  95 124 162 209 247 311 369
#     4   9  20  39  62  86 126 157 199 262 306 350
#     4  10  22  42  67  90 122 165 208 251 305 372
#     4  12  26  38  60  92 132 160 204 262 296 376
#
# _framework density 19.007465
#
# number of rings (size 3 to 8) (size 9 to 14) (size 15 to 20)
#    0.000    2.154    0.000    0.923    8.615    0.000 
#    0.000    6.154    0.000    0.000    0.000    0.000 
#    0.000    0.000    0.000    0.000    0.000    0.000 
#
# Total GULP energy -145126.712036 kJ/mol
# GULP energy per Si atom -5581.796617 kJ/mol
# Density = 1.896420 g / cm^3
# Si number density = 19.007465 Si / 1000 Ang^3
#
#
#
# Elastic Constant Matrix: (Units=GPa)
#
#
# Indices 1 2 3 4 5 6 
#
# 1 85.3959 45.3917 76.7127 0.0000 0.0000 0.0000
# 2 45.3917 61.7911 40.5466 0.0000 0.0000 0.0000
# 3 76.7127 40.5466 137.4963 0.0000 0.0000 0.0000
# 4 0.0000 0.0000 0.0000 10.6893 0.0000 0.0000
# 5 0.0000 0.0000 0.0000 0.0000 50.3134 0.0000
# 6 0.0000 0.0000 0.0000 0.0000 0.0000 13.0335
#
#
#
# Elastic Compliance Matrix: (Units=1/GPa)
#
#
# Indices 1 2 3 4 5 6 
#
# 1 0.031063 -0.014193 -0.013146 0.000000 0.000000 0.000000
# 2 -0.014193 0.026552 0.000089 0.000000 0.000000 0.000000
# 3 -0.013146 0.000089 0.014581 0.000000 0.000000 0.000000
# 4 0.000000 0.000000 0.000000 0.093552 0.000000 0.000000
# 5 0.000000 0.000000 0.000000 0.000000 0.019875 0.000000
# 6 0.000000 0.000000 0.000000 0.000000 0.000000 0.076726
#
#
# Mechanical properties :
#
#
# Convention : Reuss Voigt Hill
#
# Bulk Modulus (GPa) = 56.50949 67.77615 62.14282
# Shear Modulus (GPa) = 15.49201 22.94271 19.21736
#
# Velocity S-wave (km/s) = 2.85800 3.47801 3.18314
# Velocity P-wave (km/s) = 6.37853 7.20165 6.80255
#
# Compressibility (1/GPa) = 0.01769614
#
# Stress axis : x y z
#
# Youngs Moduli (GPa) = 32.19226 37.66263 68.58251
#
# Poissons Ratio (x) = 0.53455 0.90156
# Poissons Ratio (y) = 0.45691 -0.00609
# Poissons Ratio (z) = 0.42319 -0.00335
#
# Static dielectric constant tensor:
#      x y z
#    x 1.633570 0.000000 0.000000 
#    y 0.000000 1.643010 0.000000 
#    z 0.000000 0.000000 1.690540 
# 
# From -- ./inp_files/4986.got.cif
#   From: 2010.05.17/outbox.cif.g08.bks.cpg/sg34_3_cif.got.tgz:4986.got - 2010.06.03 17:23:11.
