data_PCOD9347921
_publ_section_title
;
Structure prediction by ZEFSAII (Michael W. Deem and Ramdas Pophale) SiO2 
 PCOD9347921
Probable space group: P N N 2
;
_chemical_formula_sum "Si O2"
_cell_formula_units_Z 24
_cell_length_a 9.490958
_cell_length_b 24.793192
_cell_length_c 5.032824
_cell_angle_alpha 90.000000
_cell_angle_beta 90.000000
_cell_angle_gamma 90.000000
_cell_volume 1184.279573
_symmetry_space_group_name_H-M "P N N 2"
_symmetry_group_IT_number 34
_symmetry_cell_setting 'orthorhombic'
loop_
_space_group_symop_operation_xyz
x,y,z
-x,-y,z
1/2-x,1/2+y,1/2+z
1/2+x,1/2-y,1/2+z
loop_
_atom_site_type_symbol
_atom_site_label
_atom_site_fract_x
_atom_site_fract_y
_atom_site_fract_z
Si Si1 0.140519 0.530001 0.077890
Si Si2 0.964396 0.107761 0.943722
Si Si3 0.113844 0.952651 0.431462
Si Si4 0.176753 0.722414 0.596143
Si Si5 0.288936 0.095939 0.071721
Si Si6 0.013996 0.767440 0.092760
O O1 0.132089 0.557562 0.364540
O O2 0.000000 0.500000 0.998925
O O3 0.256305 0.483483 0.059216
O O4 0.180812 0.576266 0.868094
O O5 0.865048 0.074797 0.145994
O O6 0.958091 0.170800 0.006670
O O7 0.123138 0.089396 0.011904
O O8 0.936087 0.092526 0.640093
O O9 0.000000 0.000000 0.402302
O O10 0.175874 0.658612 0.534668
O O11 0.090185 0.753988 0.369840
O O12 0.343133 0.739409 0.608194
O O13 0.093334 0.732148 0.870088
#
# Coordination Sequence:
#
# PCOD9347921 Si02
#       6
#     4   4   4   4   4   4
#     4  12  25  41  59  94 130 163 205 256 313 380
#     4  11  22  40  67  94 117 166 214 260 304 370
#     4  12  21  39  67  90 122 159 214 256 299 368
#     4  11  24  45  70  95 130 172 215 272 323 387
#     4  11  22  43  66  86 127 172 205 243 326 384
#     4  11  24  45  67  98 132 166 219 270 325 386
#
# _framework density 20.265484000000001
#
# number of rings (size 3 to 8) (size 9 to 14) (size 15 to 20)
#    0.000    0.667    3.333    5.000    0.000    5.333 
#   18.000    0.000    0.000    0.000    0.000    0.000 
#    0.000    0.000    0.000    0.000    0.000    0.000 
#
# Total GULP energy -134185.199181 kJ/mol
# GULP energy per Si atom -5591.049966 kJ/mol
# Density = 2.021936 g / cm^3
# Si number density = 20.265484 Si / 1000 Ang^3
#
#
#
# Elastic Constant Matrix: (Units=GPa)
#
#
# Indices 1 2 3 4 5 6 
#
# 1 82.0049 22.5534 -10.9494 0.0000 0.0000 0.0000
# 2 22.5534 49.5889 -10.7762 0.0000 0.0000 0.0000
# 3 -10.9494 -10.7762 63.5716 0.0000 0.0000 0.0000
# 4 0.0000 0.0000 0.0000 63.4946 0.0000 0.0000
# 5 0.0000 0.0000 0.0000 0.0000 21.8729 0.0000
# 6 0.0000 0.0000 0.0000 0.0000 0.0000 22.6924
#
#
#
# Elastic Compliance Matrix: (Units=1/GPa)
#
#
# Indices 1 2 3 4 5 6 
#
# 1 0.014055 -0.006091 0.001388 0.000000 0.000000 0.000000
# 2 -0.006091 0.023576 0.002947 0.000000 0.000000 0.000000
# 3 0.001388 0.002947 0.016469 0.000000 0.000000 0.000000
# 4 0.000000 0.000000 0.000000 0.015749 0.000000 0.000000
# 5 0.000000 0.000000 0.000000 0.000000 0.045719 0.000000
# 6 0.000000 0.000000 0.000000 0.000000 0.000000 0.044068
#
#
# Mechanical properties :
#
#
# Convention : Reuss Voigt Hill
#
# Bulk Modulus (GPa) = 19.76643 21.86898 20.81771
# Shear Modulus (GPa) = 27.77639 34.56782 31.17210
#
# Velocity S-wave (km/s) = 3.70621 4.13455 3.92623
# Velocity P-wave (km/s) = 5.29996 5.79719 5.55414
#
# Compressibility (1/GPa) = 0.05059081
#
# Stress axis : x y z
#
# Youngs Moduli (GPa) = 71.15001 42.41542 60.71990
#
# Poissons Ratio (x) = 0.25833 -0.08430
# Poissons Ratio (y) = 0.43334 -0.17897
# Poissons Ratio (z) = -0.09878 -0.12502
#
# Static dielectric constant tensor:
#      x y z
#    x 1.685620 0.000000 0.000000 
#    y 0.000000 1.705020 0.000000 
#    z 0.000000 0.000000 1.718770 
# 
# From -- ./inp_files/486.got.cif
#   From: 2010.05.17/outbox.cif.g08.bks.cpg/sg34_1_cif.got.tgz:486.got - 2010.06.03 17:23:11.
