data_PCOD9347355
_publ_section_title
;
Structure prediction by ZEFSAII (Michael W. Deem and Ramdas Pophale) SiO2 
 PCOD9347355
Probable space group: P N N 2
;
_chemical_formula_sum "Si O2"
_cell_formula_units_Z 26
_cell_length_a 8.211161
_cell_length_b 17.683371
_cell_length_c 9.252325
_cell_angle_alpha 90.000000
_cell_angle_beta 90.000000
_cell_angle_gamma 90.000000
_cell_volume 1343.446901
_symmetry_space_group_name_H-M "P N N 2"
_symmetry_group_IT_number 34
_symmetry_cell_setting 'orthorhombic'
loop_
_space_group_symop_operation_xyz
x,y,z
-x,-y,z
1/2-x,1/2+y,1/2+z
1/2+x,1/2-y,1/2+z
loop_
_atom_site_type_symbol
_atom_site_label
_atom_site_fract_x
_atom_site_fract_y
_atom_site_fract_z
Si Si1 0.261814 0.031377 0.617360
Si Si2 0.500000 0.000000 0.362813
Si Si3 0.955774 0.355800 0.658358
Si Si4 0.193065 0.267811 0.130645
Si Si5 0.449641 0.143951 0.825219
Si Si6 0.562009 0.611612 0.161314
Si Si7 0.110758 0.228201 0.835719
O O1 0.388858 0.076429 0.719138
O O2 0.105152 0.084746 0.586188
O O3 0.347507 0.001765 0.472986
O O4 0.177496 0.959299 0.692748
O O5 0.520997 0.926849 0.262456
O O6 0.781565 0.311096 0.669665
O O7 0.980426 0.378318 0.491320
O O8 0.078132 0.291285 0.715867
O O9 0.333901 0.325730 0.077787
O O10 0.099949 0.310415 0.258004
O O11 0.074285 0.258001 0.995288
O O12 0.295119 0.200052 0.831287
O O13 0.501229 0.656105 0.302030
#
# Coordination Sequence:
#
# PCOD9347355 Si02
#       7
#     4   2   4   4   4   4   4
#     4  10  20  36  59  85 114 154 191 229 291 350
#     4  12  24  38  58  82 114 154 194 238 286 344
#     4  10  23  38  55  85 119 147 190 242 284 333
#     4  10  20  37  60  85 113 151 193 235 286 341
#     4  10  21  37  61  87 114 151 191 234 285 344
#     4   9  19  34  57  84 115 147 189 239 281 338
#     4   9  19  36  57  84 114 148 189 235 284 340
#
# _framework density 19.353202
#
# number of rings (size 3 to 8) (size 9 to 14) (size 15 to 20)
#    0.000    2.154    0.000    2.769    0.000    9.231 
#    0.000    0.000    0.000    7.385    0.000    0.000 
#    0.000    0.000    0.000    0.000    0.000    0.000 
#
# Total GULP energy -144924.791039 kJ/mol
# GULP energy per Si atom -5574.030425 kJ/mol
# Density = 1.930915 g / cm^3
# Si number density = 19.353202 Si / 1000 Ang^3
#
#
#
# Elastic Constant Matrix: (Units=GPa)
#
#
# Indices 1 2 3 4 5 6 
#
# 1 69.2910 45.8091 54.8302 0.0000 0.0000 0.0000
# 2 45.8091 113.2160 58.4949 0.0000 0.0000 0.0000
# 3 54.8302 58.4949 120.2055 0.0000 0.0000 0.0000
# 4 0.0000 0.0000 0.0000 27.8816 0.0000 0.0000
# 5 0.0000 0.0000 0.0000 0.0000 20.6250 0.0000
# 6 0.0000 0.0000 0.0000 0.0000 0.0000 18.7670
#
#
#
# Elastic Compliance Matrix: (Units=1/GPa)
#
#
# Indices 1 2 3 4 5 6 
#
# 1 0.025022 -0.005647 -0.008666 0.000000 0.000000 0.000000
# 2 -0.005647 0.013074 -0.003786 0.000000 0.000000 0.000000
# 3 -0.008666 -0.003786 0.014114 0.000000 0.000000 0.000000
# 4 0.000000 0.000000 0.000000 0.035866 0.000000 0.000000
# 5 0.000000 0.000000 0.000000 0.000000 0.048485 0.000000
# 6 0.000000 0.000000 0.000000 0.000000 0.000000 0.053285
#
#
# Mechanical properties :
#
#
# Convention : Reuss Voigt Hill
#
# Bulk Modulus (GPa) = 62.45105 68.99787 65.72446
# Shear Modulus (GPa) = 21.60932 23.02661 22.31796
#
# Velocity S-wave (km/s) = 3.34515 3.45310 3.39955
# Velocity P-wave (km/s) = 6.87453 7.18525 7.03161
#
# Compressibility (1/GPa) = 0.01601254
#
# Stress axis : x y z
#
# Youngs Moduli (GPa) = 39.96411 76.48877 70.85086
#
# Poissons Ratio (x) = 0.43196 0.61396
# Poissons Ratio (y) = 0.22569 0.26825
# Poissons Ratio (z) = 0.34631 0.28959
#
# Static dielectric constant tensor:
#      x y z
#    x 1.719860 0.000000 0.000000 
#    y 0.000000 1.707780 0.000000 
#    z 0.000000 0.000000 1.679140 
# 
# From -- ./inp_files/2759.got.cif
#   From: 2010.05.17/outbox.cif.g08.bks.cpg/sg34_2_cif.got.tgz:2759.got - 2010.06.03 17:23:11.
