data_PCOD9347598
_publ_section_title
;
Structure prediction by ZEFSAII (Michael W. Deem and Ramdas Pophale) SiO2 
 PCOD9347598
Probable space group: P N N 2
;
_chemical_formula_sum "Si O2"
_cell_formula_units_Z 24
_cell_length_a 13.328524
_cell_length_b 12.687063
_cell_length_c 6.317245
_cell_angle_alpha 90.000000
_cell_angle_beta 90.000000
_cell_angle_gamma 90.000000
_cell_volume 1068.245016
_symmetry_space_group_name_H-M "P N N 2"
_symmetry_group_IT_number 34
_symmetry_cell_setting 'orthorhombic'
loop_
_space_group_symop_operation_xyz
x,y,z
-x,-y,z
1/2-x,1/2+y,1/2+z
1/2+x,1/2-y,1/2+z
loop_
_atom_site_type_symbol
_atom_site_label
_atom_site_fract_x
_atom_site_fract_y
_atom_site_fract_z
Si Si1 0.350533 0.343385 0.742060
Si Si2 0.582400 0.331948 0.229743
Si Si3 0.100114 0.700153 0.587876
Si Si4 0.217349 0.248123 0.377650
Si Si5 0.500000 0.000000 0.273785
Si Si6 0.837622 0.632980 0.996949
Si Si7 0.500000 0.500000 0.523677
O O1 0.284263 0.313894 0.540804
O O2 0.439776 0.418055 0.669339
O O3 0.385595 0.233325 0.845914
O O4 0.275579 0.391129 0.919458
O O5 0.469040 0.294381 0.180814
O O6 0.629715 0.238548 0.370360
O O7 0.575466 0.436411 0.369198
O O8 0.646188 0.328982 0.012723
O O9 0.205447 0.694904 0.712877
O O10 0.040556 0.594283 0.630704
O O11 0.156345 0.333023 0.239727
O O12 0.411313 0.957316 0.421492
#
# Coordination Sequence:
#
# PCOD9347598 Si02
#       7
#     4   4   4   4   2   4   2
#     4  10  23  42  67 102 147 178 235 292 347 424
#     4  10  23  41  67  99 139 180 236 290 344 421
#     4  10  22  44  66  98 140 184 232 294 348 420
#     4  10  21  43  66  97 150 183 225 296 357 405
#     4  10  22  44  76 104 134 186 248 278 360 422
#     4   9  22  44  67 102 141 184 229 293 345 426
#     4  12  24  42  72 108 136 192 242 284 362 418
#
# _framework density 22.466754999999999
#
# number of rings (size 3 to 8) (size 9 to 14) (size 15 to 20)
#    0.000    2.000    1.667    0.000    2.333    6.000 
#    0.000   11.667    0.000    0.000    0.000    0.000 
#    0.000    0.000    0.000    0.000    0.000    0.000 
#
# Total GULP energy -134179.195678 kJ/mol
# GULP energy per Si atom -5590.799820 kJ/mol
# Density = 2.241562 g / cm^3
# Si number density = 22.466755 Si / 1000 Ang^3
#
#
#
# Elastic Constant Matrix: (Units=GPa)
#
#
# Indices 1 2 3 4 5 6 
#
# 1 101.2272 33.3635 46.4565 0.0000 0.0000 0.0000
# 2 33.3635 81.0060 47.5003 0.0000 0.0000 0.0000
# 3 46.4565 47.5003 123.9808 0.0000 0.0000 0.0000
# 4 0.0000 0.0000 0.0000 25.5526 0.0000 0.0000
# 5 0.0000 0.0000 0.0000 0.0000 -5.0174 0.0000
# 6 0.0000 0.0000 0.0000 0.0000 0.0000 21.3788
#
#
#
# Elastic Compliance Matrix: (Units=1/GPa)
#
#
# Indices 1 2 3 4 5 6 
#
# 1 0.012506 -0.003099 -0.003499 0.000000 0.000000 0.000000
# 2 -0.003099 0.016690 -0.005233 0.000000 0.000000 0.000000
# 3 -0.003499 -0.005233 0.011382 0.000000 0.000000 0.000000
# 4 0.000000 0.000000 0.000000 0.039135 0.000000 0.000000
# 5 0.000000 0.000000 0.000000 0.000000 -0.199306 0.000000
# 6 0.000000 0.000000 0.000000 0.000000 0.000000 0.046775
#
#
# Mechanical properties :
#
#
# Convention : Reuss Voigt Hill
#
# Bulk Modulus (GPa) = 59.11711 62.31718 60.71714
# Shear Modulus (GPa) = -114.89515 20.30904 -47.29306
#
# Velocity S-wave (km/s) = -7.15899 3.00985 -4.59303
# Velocity P-wave (km/s) = 6.47800 6.31480 1.02172
#
# Compressibility (1/GPa) = 0.01691558
#
# Stress axis : x y z
#
# Youngs Moduli (GPa) = 79.96236 59.91714 87.86087
#
# Poissons Ratio (x) = 0.18569 0.30740
# Poissons Ratio (y) = 0.24782 0.45977
# Poissons Ratio (z) = 0.27976 0.31355
#
# Static dielectric constant tensor:
#      x y z
#    x 1.879490 0.000000 0.000000 
#    y 0.000000 1.789690 0.000000 
#    z 0.000000 0.000000 1.864020 
# 
# From -- ./inp_files/900.got.cif
#   From: 2010.05.17/outbox.cif.g08.bks.cpg/sg34_1_cif.got.tgz:900.got - 2010.06.03 17:23:11.
