data_PCOD9347233
_publ_section_title
;
Structure prediction by ZEFSAII (Michael W. Deem and Ramdas Pophale) SiO2 
 PCOD9347233
Probable space group: P N N 2
;
_chemical_formula_sum "Si O2"
_cell_formula_units_Z 28
_cell_length_a 29.879693
_cell_length_b 7.047832
_cell_length_c 5.547410
_cell_angle_alpha 90.000000
_cell_angle_beta 90.000000
_cell_angle_gamma 90.000000
_cell_volume 1168.212743
_symmetry_space_group_name_H-M "P N N 2"
_symmetry_group_IT_number 34
_symmetry_cell_setting 'orthorhombic'
loop_
_space_group_symop_operation_xyz
x,y,z
-x,-y,z
1/2-x,1/2+y,1/2+z
1/2+x,1/2-y,1/2+z
loop_
_atom_site_type_symbol
_atom_site_label
_atom_site_fract_x
_atom_site_fract_y
_atom_site_fract_z
Si Si1 0.187344 0.448910 0.019870
Si Si2 0.000000 0.500000 0.136918
Si Si3 0.000000 0.000000 0.895662
Si Si4 0.227334 0.116528 0.727420
Si Si5 0.909962 0.961975 0.147667
Si Si6 0.044289 0.254454 0.518745
Si Si7 0.908633 0.550712 0.884342
Si Si8 0.686833 0.455962 0.722473
O O1 0.221375 0.594919 0.143595
O O2 0.139885 0.531945 0.936010
O O3 0.180592 0.275204 0.208645
O O4 0.209422 0.327839 0.796489
O O5 0.987293 0.674216 0.308587
O O6 0.953514 0.467629 0.999533
O O7 0.013612 0.176672 0.729507
O O8 0.045396 0.951840 0.035853
O O9 0.202585 0.018148 0.498043
O O10 0.217814 0.013524 0.984835
O O11 0.924320 0.909638 0.418426
O O12 0.904628 0.765451 0.994386
O O13 0.861050 0.048800 0.163529
O O14 0.077241 0.419825 0.607720
#
# Coordination Sequence:
#
# PCOD9347233 Si02
#       8
#     4   2   2   4   4   4   4   4
#     4   9  21  37  62  88 117 163 203 261 309 380
#     4  10  20  34  58  88 120 152 200 250 294 382
#     4  10  20  32  56  86 116 150 198 256 298 372
#     4  10  21  36  62  86 120 153 208 255 313 368
#     4   9  18  34  54  83 108 154 202 238 298 365
#     4  10  19  34  58  81 114 157 194 251 301 367
#     4   9  18  36  58  82 114 153 205 238 304 365
#     4   9  21  36  61  84 117 158 202 251 303 380
#
# _framework density 23.968236999999998
#
# number of rings (size 3 to 8) (size 9 to 14) (size 15 to 20)
#    0.857    1.714    0.000    1.714    4.000    0.000 
#    0.000    1.429    9.429    0.000    0.000    0.000 
#    0.000    0.000    0.000    0.000    0.000    0.000 
#
# Total GULP energy -155972.944884 kJ/mol
# GULP energy per Si atom -5570.462317 kJ/mol
# Density = 2.391368 g / cm^3
# Si number density = 23.968237 Si / 1000 Ang^3
#
#
#
# Elastic Constant Matrix: (Units=GPa)
#
#
# Indices 1 2 3 4 5 6 
#
# 1 202.3484 26.2785 63.3785 0.0000 0.0000 0.0000
# 2 26.2785 47.8169 11.5019 0.0000 0.0000 0.0000
# 3 63.3785 11.5019 120.1544 0.0000 0.0000 0.0000
# 4 0.0000 0.0000 0.0000 38.1432 0.0000 0.0000
# 5 0.0000 0.0000 0.0000 0.0000 20.2263 0.0000
# 6 0.0000 0.0000 0.0000 0.0000 0.0000 26.4405
#
#
#
# Elastic Compliance Matrix: (Units=1/GPa)
#
#
# Indices 1 2 3 4 5 6 
#
# 1 0.006243 -0.002701 -0.003035 0.000000 0.000000 0.000000
# 2 -0.002701 0.022575 -0.000736 0.000000 0.000000 0.000000
# 3 -0.003035 -0.000736 0.009994 0.000000 0.000000 0.000000
# 4 0.000000 0.000000 0.000000 0.026217 0.000000 0.000000
# 5 0.000000 0.000000 0.000000 0.000000 0.049441 0.000000
# 6 0.000000 0.000000 0.000000 0.000000 0.000000 0.037821
#
#
# Mechanical properties :
#
#
# Convention : Reuss Voigt Hill
#
# Bulk Modulus (GPa) = 38.65810 63.62640 51.14225
# Shear Modulus (GPa) = 28.75937 34.90605 31.83271
#
# Velocity S-wave (km/s) = 3.46771 3.82035 3.64829
# Velocity P-wave (km/s) = 5.67426 6.78704 6.25544
#
# Compressibility (1/GPa) = 0.02586780
#
# Stress axis : x y z
#
# Youngs Moduli (GPa) = 160.17329 44.29754 100.06229
#
# Poissons Ratio (x) = 0.11965 0.30365
# Poissons Ratio (y) = 0.43265 0.07367
# Poissons Ratio (z) = 0.48606 0.03261
#
# Static dielectric constant tensor:
#      x y z
#    x 1.945300 0.000000 0.000000 
#    y 0.000000 2.021300 0.000000 
#    z 0.000000 0.000000 1.968680 
# 
# From -- ./inp_files/1817.got.cif
#   From: 2010.05.17/outbox.cif.g08.bks.cpg/sg34_1_cif.got.tgz:1817.got - 2010.06.03 17:23:11.
