data_PCOD9347327
_publ_section_title
;
Structure prediction by ZEFSAII (Michael W. Deem and Ramdas Pophale) SiO2 
 PCOD9347327
Probable space group: P N N 2
;
_chemical_formula_sum "Si O2"
_cell_formula_units_Z 24
_cell_length_a 4.995938
_cell_length_b 19.871664
_cell_length_c 13.063637
_cell_angle_alpha 90.000000
_cell_angle_beta 90.000000
_cell_angle_gamma 90.000000
_cell_volume 1296.926546
_symmetry_space_group_name_H-M "P N N 2"
_symmetry_group_IT_number 34
_symmetry_cell_setting 'orthorhombic'
loop_
_space_group_symop_operation_xyz
x,y,z
-x,-y,z
1/2-x,1/2+y,1/2+z
1/2+x,1/2-y,1/2+z
loop_
_atom_site_type_symbol
_atom_site_label
_atom_site_fract_x
_atom_site_fract_y
_atom_site_fract_z
Si Si1 0.858236 0.791556 0.170240
Si Si2 0.057162 0.237597 0.406964
Si Si3 0.500000 0.000000 0.109542
Si Si4 0.146106 0.353754 0.559859
Si Si5 0.945390 0.682616 0.008969
Si Si6 0.234162 0.956575 0.445657
Si Si7 0.500000 0.500000 0.752052
O O1 0.885345 0.778819 0.289906
O O2 0.572673 0.819671 0.134769
O O3 0.074416 0.841189 0.117622
O O4 0.911486 0.720046 0.115673
O O5 0.132157 0.310731 0.454639
O O6 0.249580 0.187809 0.472160
O O7 0.746639 0.224437 0.431793
O O8 0.582912 0.067340 0.049265
O O9 0.249824 0.018485 0.182426
O O10 0.828950 0.608465 0.004368
O O11 0.102417 0.943408 0.333148
O O12 0.500000 0.000000 0.426709
O O13 0.000000 0.000000 0.498492
#
# Coordination Sequence:
#
# PCOD9347327 Si02
#       7
#     4   4   2   4   4   4   2
#     4  10  21  36  57  79 106 142 189 221 272 320
#     4  10  21  36  57  76 109 144 179 230 260 323
#     4  12  22  34  52  78 120 136 180 224 270 350
#     4  10  23  36  53  87 107 143 184 221 278 323
#     4  10  21  34  53  81 105 140 178 227 267 315
#     4  10  20  32  48  76 110 135 175 211 276 333
#     4  10  22  30  48  82 102 150 162 212 282 332
#
# _framework density 18.505286000000002
#
# number of rings (size 3 to 8) (size 9 to 14) (size 15 to 20)
#    0.500    1.333    0.833    3.000    7.000    0.000 
#    0.000    0.000    1.833    0.000    2.167    0.000 
#    0.000    0.000    0.000    0.000    0.000    0.000 
#
# Total GULP energy -133847.856875 kJ/mol
# GULP energy per Si atom -5576.994036 kJ/mol
# Density = 1.846317 g / cm^3
# Si number density = 18.505286 Si / 1000 Ang^3
#
#
#
# Elastic Constant Matrix: (Units=GPa)
#
#
# Indices 1 2 3 4 5 6 
#
# 1 87.5208 6.8503 -8.6265 0.0000 0.0000 0.0000
# 2 6.8503 115.2377 17.4463 0.0000 0.0000 0.0000
# 3 -8.6265 17.4463 39.2756 0.0000 0.0000 0.0000
# 4 0.0000 0.0000 0.0000 6.3780 0.0000 0.0000
# 5 0.0000 0.0000 0.0000 0.0000 11.1262 0.0000
# 6 0.0000 0.0000 0.0000 0.0000 0.0000 26.2120
#
#
#
# Elastic Compliance Matrix: (Units=1/GPa)
#
#
# Indices 1 2 3 4 5 6 
#
# 1 0.011825 -0.001175 0.003119 0.000000 0.000000 0.000000
# 2 -0.001175 0.009420 -0.004443 0.000000 0.000000 0.000000
# 3 0.003119 -0.004443 0.028120 0.000000 0.000000 0.000000
# 4 0.000000 0.000000 0.000000 0.156789 0.000000 0.000000
# 5 0.000000 0.000000 0.000000 0.000000 0.089878 0.000000
# 6 0.000000 0.000000 0.000000 0.000000 0.000000 0.038150
#
#
# Mechanical properties :
#
#
# Convention : Reuss Voigt Hill
#
# Bulk Modulus (GPa) = 22.53867 30.37493 26.45680
# Shear Modulus (GPa) = 14.12554 23.83417 18.97986
#
# Velocity S-wave (km/s) = 2.76583 3.59272 3.20604
# Velocity P-wave (km/s) = 4.73347 5.80172 5.29461
#
# Compressibility (1/GPa) = 0.04436820
#
# Stress axis : x y z
#
# Youngs Moduli (GPa) = 84.56446 106.15534 35.56233
#
# Poissons Ratio (x) = 0.12475 -0.11093
# Poissons Ratio (y) = 0.09938 0.15799
# Poissons Ratio (z) = -0.26378 0.47160
#
# Static dielectric constant tensor:
#      x y z
#    x 1.647760 0.000000 0.000000 
#    y 0.000000 1.687310 0.000000 
#    z 0.000000 0.000000 1.610120 
# 
# From -- ./inp_files/4455.got.cif
#   From: 2010.05.17/outbox.cif.g08.bks.cpg/sg34_3_cif.got.tgz:4455.got - 2010.06.03 17:23:11.
