data_PCOD9347603
_publ_section_title
;
Structure prediction by ZEFSAII (Michael W. Deem and Ramdas Pophale) SiO2 
 PCOD9347603
Probable space group: P N N 2
;
_chemical_formula_sum "Si O2"
_cell_formula_units_Z 26
_cell_length_a 11.134525
_cell_length_b 10.307959
_cell_length_c 9.842055
_cell_angle_alpha 90.000000
_cell_angle_beta 90.000000
_cell_angle_gamma 90.000000
_cell_volume 1129.614257
_symmetry_space_group_name_H-M "P N N 2"
_symmetry_group_IT_number 34
_symmetry_cell_setting 'orthorhombic'
loop_
_space_group_symop_operation_xyz
x,y,z
-x,-y,z
1/2-x,1/2+y,1/2+z
1/2+x,1/2-y,1/2+z
loop_
_atom_site_type_symbol
_atom_site_label
_atom_site_fract_x
_atom_site_fract_y
_atom_site_fract_z
Si Si1 0.065674 0.268936 0.517310
Si Si2 0.236900 0.033343 0.463510
Si Si3 0.088629 0.701296 0.257705
Si Si4 0.000000 0.500000 0.066061
Si Si5 0.403681 0.383366 0.189579
Si Si6 0.267069 0.981262 0.909492
Si Si7 0.360116 0.473456 0.673042
O O1 0.171260 0.163126 0.515008
O O2 0.124560 0.407039 0.485262
O O3 0.981487 0.242947 0.386773
O O4 0.982425 0.242184 0.648618
O O5 0.378287 0.022699 0.485521
O O6 0.174344 0.923607 0.557450
O O7 0.207466 0.021868 0.305604
O O8 0.993728 0.625096 0.164307
O O9 0.181676 0.594007 0.313490
O O10 0.150395 0.817310 0.176950
O O11 0.500000 0.500000 0.212694
O O12 0.313582 0.385191 0.316808
O O13 0.186517 0.032274 0.032893
O O14 0.500000 0.500000 0.687213
#
# Coordination Sequence:
#
# PCOD9347603 Si02
#       7
#     4   4   4   2   4   4   4
#     4  11  22  45  74 102 141 192 244 305 371 441
#     4  11  22  46  72  99 141 191 246 300 366 447
#     4  12  23  45  73 103 151 196 241 315 373 440
#     4  12  24  44  74 102 138 194 254 292 378 444
#     4  10  21  43  73 100 142 200 240 294 376 449
#     4  12  26  43  72 115 148 188 251 310 371 452
#     4  12  26  48  72 109 149 194 245 306 377 449
#
# _framework density 23.016707
#
# number of rings (size 3 to 8) (size 9 to 14) (size 15 to 20)
#    0.000    0.615    6.154    1.846    2.154    2.462 
#    8.308    0.000    0.000    0.000    0.000    0.000 
#    0.000    0.000    0.000    0.000    0.000    0.000 
#
# Total GULP energy -145447.203739 kJ/mol
# GULP energy per Si atom -5594.123221 kJ/mol
# Density = 2.296432 g / cm^3
# Si number density = 23.016707 Si / 1000 Ang^3
#
#
#
# Elastic Constant Matrix: (Units=GPa)
#
#
# Indices 1 2 3 4 5 6 
#
# 1 139.8151 29.5639 59.5664 0.0000 0.0000 0.0000
# 2 29.5639 61.9819 6.8802 0.0000 0.0000 0.0000
# 3 59.5664 6.8802 113.0312 0.0000 0.0000 0.0000
# 4 0.0000 0.0000 0.0000 25.3571 0.0000 0.0000
# 5 0.0000 0.0000 0.0000 0.0000 53.6176 0.0000
# 6 0.0000 0.0000 0.0000 0.0000 0.0000 25.3858
#
#
#
# Elastic Compliance Matrix: (Units=1/GPa)
#
#
# Indices 1 2 3 4 5 6 
#
# 1 0.010257 -0.004321 -0.005142 0.000000 0.000000 0.000000
# 2 -0.004321 0.018064 0.001178 0.000000 0.000000 0.000000
# 3 -0.005142 0.001178 0.011485 0.000000 0.000000 0.000000
# 4 0.000000 0.000000 0.000000 0.039437 0.000000 0.000000
# 5 0.000000 0.000000 0.000000 0.000000 0.018651 0.000000
# 6 0.000000 0.000000 0.000000 0.000000 0.000000 0.039392
#
#
# Mechanical properties :
#
#
# Convention : Reuss Voigt Hill
#
# Bulk Modulus (GPa) = 43.03916 56.31656 49.67786
# Shear Modulus (GPa) = 30.94013 35.45995 33.20004
#
# Velocity S-wave (km/s) = 3.67037 3.92933 3.80206
# Velocity P-wave (km/s) = 6.05821 6.71617 6.39566
#
# Compressibility (1/GPa) = 0.02323465
#
# Stress axis : x y z
#
# Youngs Moduli (GPa) = 97.49582 55.35801 87.06764
#
# Poissons Ratio (x) = 0.23923 0.44772
# Poissons Ratio (y) = 0.42132 -0.10255
# Poissons Ratio (z) = 0.50134 -0.06520
#
# Static dielectric constant tensor:
#      x y z
#    x 1.660770 0.000000 0.000000 
#    y 0.000000 1.902430 0.000000 
#    z 0.000000 0.000000 1.844060 
# 
# From -- ./inp_files/3188.got.cif
#   From: 2010.05.17/outbox.cif.g08.bks.cpg/sg34_2_cif.got.tgz:3188.got - 2010.06.03 17:23:11.
