data_PCOD9347914
_publ_section_title
;
Structure prediction by ZEFSAII (Michael W. Deem and Ramdas Pophale) SiO2 
 PCOD9347914
Probable space group: P N N 2
;
_chemical_formula_sum "Si O2"
_cell_formula_units_Z 32
_cell_length_a 8.281248
_cell_length_b 29.497393
_cell_length_c 6.657080
_cell_angle_alpha 90.000000
_cell_angle_beta 90.000000
_cell_angle_gamma 90.000000
_cell_volume 1626.159727
_symmetry_space_group_name_H-M "P N N 2"
_symmetry_group_IT_number 34
_symmetry_cell_setting 'orthorhombic'
loop_
_space_group_symop_operation_xyz
x,y,z
-x,-y,z
1/2-x,1/2+y,1/2+z
1/2+x,1/2-y,1/2+z
loop_
_atom_site_type_symbol
_atom_site_label
_atom_site_fract_x
_atom_site_fract_y
_atom_site_fract_z
Si Si1 0.909504 0.632891 0.369880
Si Si2 0.335879 0.709466 0.402605
Si Si3 0.603344 0.457973 0.520435
Si Si4 0.349514 0.578575 0.928436
Si Si5 0.608456 0.956698 0.759001
Si Si6 0.464904 0.375148 0.269272
Si Si7 0.448975 0.214577 0.609176
Si Si8 0.126016 0.653919 0.723511
O O1 0.721854 0.625584 0.326791
O O2 0.008225 0.589649 0.285433
O O3 0.961034 0.678305 0.251449
O O4 0.965662 0.638651 0.601917
O O5 0.457036 0.674344 0.295338
O O6 0.435726 0.745427 0.533041
O O7 0.210744 0.729046 0.235912
O O8 0.231451 0.679477 0.556253
O O9 0.500000 0.500000 0.440196
O O10 0.579099 0.452670 0.756404
O O11 0.789255 0.465296 0.461450
O O12 0.549181 0.410950 0.419234
O O13 0.228103 0.612688 0.814317
O O14 0.242046 0.551442 0.088180
O O15 0.485611 0.606195 0.050187
O O16 0.500000 0.000000 0.714658
O O17 0.403762 0.187477 0.407786
#
# Coordination Sequence:
#
# PCOD9347914 Si02
#       8
#     4   4   4   4   4   4   4   4
#     4  11  24  42  65  97 128 171 212 264 330 387
#     4  11  25  41  65  95 127 167 216 264 327 379
#     4  11  23  42  66  94 127 173 215 264 326 388
#     4  11  21  44  68  88 130 175 214 264 328 389
#     4  11  23  42  66  95 133 164 213 274 322 384
#     4  11  24  42  65  95 131 166 214 270 321 385
#     4  11  25  42  65  95 128 169 215 268 319 392
#     4  11  21  45  66  87 131 172 209 264 325 386
#
# _framework density 19.678263999999999
#
# number of rings (size 3 to 8) (size 9 to 14) (size 15 to 20)
#    0.000    1.000    5.000    2.250    3.500    6.500 
#    2.250    0.000    0.000    0.000    0.000    0.000 
#    0.000    0.000    0.000    0.000    0.000    0.000 
#
# Total GULP energy -178733.999843 kJ/mol
# GULP energy per Si atom -5585.437495 kJ/mol
# Density = 1.963348 g / cm^3
# Si number density = 19.678264 Si / 1000 Ang^3
#
#
#
# Elastic Constant Matrix: (Units=GPa)
#
#
# Indices 1 2 3 4 5 6 
#
# 1 112.1721 36.4311 30.7288 0.0000 0.0000 0.0000
# 2 36.4311 96.5965 17.4606 0.0000 0.0000 0.0000
# 3 30.7288 17.4606 98.8058 0.0000 0.0000 0.0000
# 4 0.0000 0.0000 0.0000 -0.9600 0.0000 0.0000
# 5 0.0000 0.0000 0.0000 0.0000 28.3623 0.0000
# 6 0.0000 0.0000 0.0000 0.0000 0.0000 28.4233
#
#
#
# Elastic Compliance Matrix: (Units=1/GPa)
#
#
# Indices 1 2 3 4 5 6 
#
# 1 0.010830 -0.003590 -0.002734 0.000000 0.000000 0.000000
# 2 -0.003590 0.011884 -0.000984 0.000000 0.000000 0.000000
# 3 -0.002734 -0.000984 0.011145 0.000000 0.000000 0.000000
# 4 0.000000 0.000000 0.000000 -1.041630 0.000000 0.000000
# 5 0.000000 0.000000 0.000000 0.000000 0.035258 0.000000
# 6 0.000000 0.000000 0.000000 0.000000 0.000000 0.035182
#
#
# Mechanical properties :
#
#
# Convention : Reuss Voigt Hill
#
# Bulk Modulus (GPa) = 51.96455 52.97949 52.47202
# Shear Modulus (GPa) = -5.45672 26.02871 10.28600
#
# Velocity S-wave (km/s) = -1.66703 3.64086 2.28876
# Velocity P-wave (km/s) = 4.77065 6.68250 5.80581
#
# Compressibility (1/GPa) = 0.01924389
#
# Stress axis : x y z
#
# Youngs Moduli (GPa) = 92.33801 84.14536 89.72770
#
# Poissons Ratio (x) = 0.30211 0.24528
# Poissons Ratio (y) = 0.33152 0.08825
# Poissons Ratio (z) = 0.25242 0.08276
#
# Static dielectric constant tensor:
#      x y z
#    x 1.693810 0.000000 0.000000 
#    y 0.000000 1.685190 0.000000 
#    z 0.000000 0.000000 1.702890 
# 
# From -- ./inp_files/658.got.cif
#   From: 2010.05.17/outbox.cif.g08.bks.cpg/sg34_1_cif.got.tgz:658.got - 2010.06.03 17:23:11.
