data_PCOD9347922
_publ_section_title
;
Structure prediction by ZEFSAII (Michael W. Deem and Ramdas Pophale) SiO2 
 PCOD9347922
Probable space group: P N N 2
;
_chemical_formula_sum "Si O2"
_cell_formula_units_Z 20
_cell_length_a 8.361753
_cell_length_b 17.180244
_cell_length_c 5.418284
_cell_angle_alpha 90.000000
_cell_angle_beta 90.000000
_cell_angle_gamma 90.000000
_cell_volume 778.374191
_symmetry_space_group_name_H-M "P N N 2"
_symmetry_group_IT_number 34
_symmetry_cell_setting 'orthorhombic'
loop_
_space_group_symop_operation_xyz
x,y,z
-x,-y,z
1/2-x,1/2+y,1/2+z
1/2+x,1/2-y,1/2+z
loop_
_atom_site_type_symbol
_atom_site_label
_atom_site_fract_x
_atom_site_fract_y
_atom_site_fract_z
Si Si1 0.627425 0.780276 0.677750
Si Si2 0.162091 0.333828 0.389176
Si Si3 0.057902 0.584496 0.794473
Si Si4 0.174361 0.094901 0.943071
Si Si5 0.365455 0.452435 0.178698
O O1 0.703283 0.707466 0.548825
O O2 0.566296 0.845179 0.485382
O O3 0.760939 0.823285 0.843617
O O4 0.464079 0.765509 0.824080
O O5 0.247352 0.379263 0.159757
O O6 0.056412 0.390847 0.562917
O O7 0.241174 0.580468 0.700150
O O8 0.000000 0.500000 0.876993
O O9 0.988148 0.080315 0.891652
O O10 0.241386 0.023361 0.776657
O O11 0.500000 0.500000 0.016888
#
# Coordination Sequence:
#
# PCOD9347922 Si02
#       5
#     4   4   4   4   4
#     4  11  27  39  68  92 136 172 223 270 341 394
#     4  11  25  44  60  98 134 174 215 282 330 400
#     4  11  22  40  68  95 125 176 225 270 329 400
#     4   8  20  42  62  92 127 164 215 270 321 385
#     4   8  18  38  68  84 131 167 203 274 322 378
#
# _framework density 25.694583999999999
#
# number of rings (size 3 to 8) (size 9 to 14) (size 15 to 20)
#    1.200    0.800    2.000    0.000    8.400    1.600 
#    0.000    4.000    0.000    0.000    0.000    0.000 
#    0.000    0.000    0.000    0.000    0.000    0.000 
#
# Total GULP energy -111381.477461 kJ/mol
# GULP energy per Si atom -5569.073873 kJ/mol
# Density = 2.563610 g / cm^3
# Si number density = 25.694584 Si / 1000 Ang^3
#
#
#
# Elastic Constant Matrix: (Units=GPa)
#
#
# Indices 1 2 3 4 5 6 
#
# 1 112.4650 50.7494 23.2307 0.0000 0.0000 0.0000
# 2 50.7494 72.8345 -1.8833 0.0000 0.0000 0.0000
# 3 23.2307 -1.8833 32.5410 0.0000 0.0000 0.0000
# 4 0.0000 0.0000 0.0000 29.3110 0.0000 0.0000
# 5 0.0000 0.0000 0.0000 0.0000 33.9641 0.0000
# 6 0.0000 0.0000 0.0000 0.0000 0.0000 44.6874
#
#
#
# Elastic Compliance Matrix: (Units=1/GPa)
#
#
# Indices 1 2 3 4 5 6 
#
# 1 0.017075 -0.012231 -0.012897 0.000000 0.000000 0.000000
# 2 -0.012231 0.022511 0.010034 0.000000 0.000000 0.000000
# 3 -0.012897 0.010034 0.040519 0.000000 0.000000 0.000000
# 4 0.000000 0.000000 0.000000 0.034117 0.000000 0.000000
# 5 0.000000 0.000000 0.000000 0.000000 0.029443 0.000000
# 6 0.000000 0.000000 0.000000 0.000000 0.000000 0.022378
#
#
# Mechanical properties :
#
#
# Convention : Reuss Voigt Hill
#
# Bulk Modulus (GPa) = 20.03330 40.22600 30.12965
# Shear Modulus (GPa) = 23.48859 31.30873 27.39866
#
# Velocity S-wave (km/s) = 3.02676 3.49448 3.26900
# Velocity P-wave (km/s) = 4.47534 5.65432 5.09902
#
# Compressibility (1/GPa) = 0.04991689
#
# Stress axis : x y z
#
# Youngs Moduli (GPa) = 58.56552 44.42188 24.68006
#
# Poissons Ratio (x) = 0.54332 0.31831
# Poissons Ratio (y) = 0.71631 -0.24765
# Poissons Ratio (z) = 0.75535 -0.44575
#
# Static dielectric constant tensor:
#      x y z
#    x 2.061600 0.000000 0.000000 
#    y 0.000000 1.997350 0.000000 
#    z 0.000000 0.000000 2.144890 
# 
# From -- ./inp_files/411.got.cif
#   From: 2010.05.17/outbox.cif.g08.bks.cpg/sg34_1_cif.got.tgz:411.got - 2010.06.03 17:23:11.
