data_PCOD9347188
_publ_section_title
;
Structure prediction by ZEFSAII (Michael W. Deem and Ramdas Pophale) SiO2 
 PCOD9347188
Probable space group: P N N 2
;
_chemical_formula_sum "Si O2"
_cell_formula_units_Z 26
_cell_length_a 8.340539
_cell_length_b 10.394425
_cell_length_c 14.319502
_cell_angle_alpha 90.000000
_cell_angle_beta 90.000000
_cell_angle_gamma 90.000000
_cell_volume 1241.430759
_symmetry_space_group_name_H-M "P N N 2"
_symmetry_group_IT_number 34
_symmetry_cell_setting 'orthorhombic'
loop_
_space_group_symop_operation_xyz
x,y,z
-x,-y,z
1/2-x,1/2+y,1/2+z
1/2+x,1/2-y,1/2+z
loop_
_atom_site_type_symbol
_atom_site_label
_atom_site_fract_x
_atom_site_fract_y
_atom_site_fract_z
Si Si1 0.709181 0.201726 0.716030
Si Si2 0.223997 0.730766 0.060412
Si Si3 0.068090 0.859582 0.887748
Si Si4 0.525528 0.853662 0.123642
Si Si5 0.572144 0.631831 0.741652
Si Si6 0.392746 0.882479 0.334485
Si Si7 0.500000 0.000000 0.600152
O O1 0.837319 0.147811 0.789505
O O2 0.577588 0.282923 0.773462
O O3 0.797033 0.297453 0.641918
O O4 0.614185 0.091043 0.662464
O O5 0.415107 0.746649 0.073610
O O6 0.152537 0.792818 0.155620
O O7 0.130091 0.595447 0.051387
O O8 0.179672 0.817738 0.972546
O O9 0.930264 0.750626 0.885084
O O10 0.000000 0.000000 0.901412
O O11 0.459022 0.866375 0.229199
O O12 0.500000 0.000000 0.084569
O O13 0.500000 0.500000 0.704471
O O14 0.703987 0.598876 0.819965
O O15 0.500000 0.000000 0.372256
#
# Coordination Sequence:
#
# PCOD9347188 Si02
#       7
#     4   4   4   4   4   4   2
#     4  10  22  37  63  95 122 171 214 264 321 393
#     4  10  22  39  59  89 124 168 208 271 323 382
#     4  11  24  38  61  92 129 167 212 276 331 374
#     4   9  18  37  64  90 116 159 215 259 311 393
#     4  10  18  36  64  89 120 159 216 257 311 395
#     4   9  19  36  63  87 118 164 210 254 313 386
#     4  10  24  40  64  86 132 172 220 256 322 412
#
# _framework density 20.943576
#
# number of rings (size 3 to 8) (size 9 to 14) (size 15 to 20)
#    0.000    2.154    0.000    4.154    9.692    1.231 
#    1.385    3.077    3.385    0.000    0.000    0.000 
#    0.000    0.000    0.000    0.000    0.000    0.000 
#
# Total GULP energy -144891.300860 kJ/mol
# GULP energy per Si atom -5572.742341 kJ/mol
# Density = 2.089591 g / cm^3
# Si number density = 20.943576 Si / 1000 Ang^3
#
#
#
# Elastic Constant Matrix: (Units=GPa)
#
#
# Indices 1 2 3 4 5 6 
#
# 1 121.2312 62.1327 16.5082 0.0000 0.0000 0.0000
# 2 62.1327 141.3744 22.5465 0.0000 0.0000 0.0000
# 3 16.5082 22.5465 34.0855 0.0000 0.0000 0.0000
# 4 0.0000 0.0000 0.0000 20.5279 0.0000 0.0000
# 5 0.0000 0.0000 0.0000 0.0000 -0.0044 0.0000
# 6 0.0000 0.0000 0.0000 0.0000 0.0000 27.0747
#
#
#
# Elastic Compliance Matrix: (Units=1/GPa)
#
#
# Indices 1 2 3 4 5 6 
#
# 1 0.010811 -0.004378 -0.002340 0.000000 0.000000 0.000000
# 2 -0.004378 0.009681 -0.004283 0.000000 0.000000 0.000000
# 3 -0.002340 -0.004283 0.033304 0.000000 0.000000 0.000000
# 4 0.000000 0.000000 0.000000 0.048714 0.000000 0.000000
# 5 0.000000 0.000000 0.000000 0.000000********** 0.000000
# 6 0.000000 0.000000 0.000000 0.000000 0.000000 0.036935
#
#
# Mechanical properties :
#
#
# Convention : Reuss Voigt Hill
#
# Bulk Modulus (GPa) = 31.45271 55.45177 43.45224
# Shear Modulus (GPa) = -0.02183 22.55322 11.26570
#
# Velocity S-wave (km/s) = -0.10220 3.28511 2.32180
# Velocity P-wave (km/s) = 3.87769 6.39715 5.28961
#
# Compressibility (1/GPa) = 0.03179376
#
# Stress axis : x y z
#
# Youngs Moduli (GPa) = 92.49607 103.29850 30.02611
#
# Poissons Ratio (x) = 0.45227 0.07026
# Poissons Ratio (y) = 0.40497 0.12860
# Poissons Ratio (z) = 0.21644 0.44243
#
# Static dielectric constant tensor:
#      x y z
#    x 1.827960 0.000000 0.000000 
#    y 0.000000 1.764900 0.000000 
#    z 0.000000 0.000000 1.756870 
# 
# From -- ./inp_files/7527.got.cif
#   From: 2010.05.17/outbox.cif.g08.bks.cpg/sg34_4_cif.got.tgz:7527.got - 2010.06.03 17:23:11.
