data_PCOD9347619
_publ_section_title
;
Structure prediction by ZEFSAII (Michael W. Deem and Ramdas Pophale) SiO2 
 PCOD9347619
Probable space group: P N N 2
;
_chemical_formula_sum "Si O2"
_cell_formula_units_Z 14
_cell_length_a 5.152170
_cell_length_b 6.149462
_cell_length_c 18.912487
_cell_angle_alpha 90.000000
_cell_angle_beta 90.000000
_cell_angle_gamma 90.000000
_cell_volume 599.205718
_symmetry_space_group_name_H-M "P N N 2"
_symmetry_group_IT_number 34
_symmetry_cell_setting 'orthorhombic'
loop_
_space_group_symop_operation_xyz
x,y,z
-x,-y,z
1/2-x,1/2+y,1/2+z
1/2+x,1/2-y,1/2+z
loop_
_atom_site_type_symbol
_atom_site_label
_atom_site_fract_x
_atom_site_fract_y
_atom_site_fract_z
Si Si1 0.500000 0.000000 0.219561
Si Si2 0.248974 0.655388 0.116901
Si Si3 0.747091 0.139679 0.809701
Si Si4 0.751941 0.347386 0.958058
O O1 0.678660 0.154764 0.170942
O O2 0.304166 0.138157 0.268516
O O3 0.500000 0.500000 0.117168
O O4 0.000000 0.500000 0.130082
O O5 0.221101 0.747481 0.036933
O O6 0.730966 0.183530 0.893356
O O7 0.500000 0.000000 0.787766
O O8 0.000000 0.000000 0.794704
O O9 0.500000 0.500000 0.956541
O O10 0.000000 0.500000 0.945467
#
# Coordination Sequence:
#
# PCOD9347619 Si02
#       4
#     2   4   4   4
#     4  12  28  50  72 110 154 206 232 322 374 438
#     4  10  25  48  75 107 146 190 250 302 369 446
#     4  12  28  46  75 109 147 192 251 298 370 445
#     4  10  21  47  76 106 141 188 246 308 359 441
#
# _framework density 23.364263999999999
#
# number of rings (size 3 to 8) (size 9 to 14) (size 15 to 20)
#    0.000    1.143    1.429    2.571    2.000    8.000 
#    0.000    0.000    0.000    0.000    0.000    0.000 
#    0.000    0.000    0.000    0.000    0.000    0.000 
#
# Total GULP energy -78460.748989 kJ/mol
# GULP energy per Si atom -5604.339213 kJ/mol
# Density = 2.331109 g / cm^3
# Si number density = 23.364264 Si / 1000 Ang^3
#
#
#
# Elastic Constant Matrix: (Units=GPa)
#
#
# Indices 1 2 3 4 5 6 
#
# 1 209.9795 64.3750 46.9320 0.0000 0.0000 0.0000
# 2 64.3750 108.3208 83.2390 0.0000 0.0000 0.0000
# 3 46.9320 83.2390 194.2555 0.0000 0.0000 0.0000
# 4 0.0000 0.0000 0.0000********** 0.0000 0.0000
# 5 0.0000 0.0000 0.0000 0.0000 39.4120 0.0000
# 6 0.0000 0.0000 0.0000 0.0000 0.0000 39.4639
#
#
#
# Elastic Compliance Matrix: (Units=1/GPa)
#
#
# Indices 1 2 3 4 5 6 
#
# 1 0.005825 -0.003549 0.000113 0.000000 0.000000 0.000000
# 2 -0.003549 0.015926 -0.005967 0.000000 0.000000 0.000000
# 3 0.000113 -0.005967 0.007677 0.000000 0.000000 0.000000
# 4 0.000000 0.000000 0.000000 0.000000 0.000000 0.000000
# 5 0.000000 0.000000 0.000000 0.000000 0.025373 0.000000
# 6 0.000000 0.000000 0.000000 0.000000 0.000000 0.025340
#
#
# Mechanical properties :
#
#
# Convention : Reuss Voigt Hill
#
# Bulk Modulus (GPa) = 94.13059 100.18308 97.15684
# Shear Modulus (GPa) = 48.78637 ************* -728159.74652
#
# Velocity S-wave (km/s) = 4.57451 -790.37000 -558.86662
# Velocity P-wave (km/s) = 8.26300 912.61712 645.29130
#
# Compressibility (1/GPa) = 0.01062354
#
# Stress axis : x y z
#
# Youngs Moduli (GPa) = 171.67207 62.78896 130.25319
#
# Poissons Ratio (x) = 0.22284 -0.01477
# Poissons Ratio (y) = 0.60926 0.77723
# Poissons Ratio (z) = -0.01947 0.37467
#
# Static dielectric constant tensor:
#      x y z
#    x 0.000000 0.000000 0.000000 
#    y 0.000000 0.000000 0.000000 
#    z 0.000000 0.000000 0.000000 
# 
# From -- ./inp_files/7831.got.cif
#   From: 2010.05.17/outbox.cif.g08.bks.cpg/sg34_4_cif.got.tgz:7831.got - 2010.06.03 17:23:11.
