data_PCOD9347577
_publ_section_title
;
Structure prediction by ZEFSAII (Michael W. Deem and Ramdas Pophale) SiO2 
 PCOD9347577
Probable space group: P N N 2
;
_chemical_formula_sum "Si O2"
_cell_formula_units_Z 32
_cell_length_a 8.874737
_cell_length_b 12.275037
_cell_length_c 12.913979
_cell_angle_alpha 90.000000
_cell_angle_beta 90.000000
_cell_angle_gamma 90.000000
_cell_volume 1406.819493
_symmetry_space_group_name_H-M "P N N 2"
_symmetry_group_IT_number 34
_symmetry_cell_setting 'orthorhombic'
loop_
_space_group_symop_operation_xyz
x,y,z
-x,-y,z
1/2-x,1/2+y,1/2+z
1/2+x,1/2-y,1/2+z
loop_
_atom_site_type_symbol
_atom_site_label
_atom_site_fract_x
_atom_site_fract_y
_atom_site_fract_z
Si Si1 0.899449 0.210969 0.646580
Si Si2 0.862510 0.699797 0.011564
Si Si3 0.940226 0.879775 0.454102
Si Si4 0.184569 0.123124 0.741517
Si Si5 0.332125 0.037429 0.165981
Si Si6 0.700041 0.641446 0.807149
Si Si7 0.362811 0.086813 0.537401
Si Si8 0.332214 0.547334 0.461488
O O1 0.744255 0.160807 0.604626
O O2 0.849130 0.331966 0.679701
O O3 0.005241 0.205692 0.542324
O O4 0.004947 0.145509 0.725929
O O5 0.035616 0.693955 0.039873
O O6 0.807614 0.636468 0.909000
O O7 0.831044 0.824309 0.986359
O O8 0.761677 0.893561 0.449292
O O9 0.030506 0.851782 0.350590
O O10 0.000000 0.000000 0.486285
O O11 0.252183 0.245185 0.754819
O O12 0.264149 0.075810 0.640297
O O13 0.212556 0.047585 0.840947
O O14 0.500000 0.000000 0.187728
O O15 0.224787 0.965385 0.238841
O O16 0.281515 0.005174 0.049052
O O17 0.500000 0.000000 0.527704
O O18 0.500000 0.500000 0.474479
#
# Coordination Sequence:
#
# PCOD9347577 Si02
#       8
#     4   4   4   4   4   4   4   4
#     4   9  19  41  67  96 130 176 218 282 345 400
#     4   9  21  41  63  96 135 169 228 293 334 406
#     4  10  22  41  66  95 134 176 225 285 341 403
#     4  10  22  42  65  96 139 183 228 283 343 429
#     4  11  22  39  71  98 134 179 223 284 340 406
#     4  10  21  41  65  98 139 176 230 281 350 421
#     4  11  23  41  69  95 128 179 233 289 349 406
#     4  10  24  41  60  93 141 178 221 275 344 411
#
# _framework density 22.746344000000001
#
# number of rings (size 3 to 8) (size 9 to 14) (size 15 to 20)
#    0.000    2.000    1.250    2.250    1.750    5.500 
#    2.250    1.250    0.000    0.000    0.000    0.000 
#    0.000    0.000    0.000    0.000    0.000    0.000 
#
# Total GULP energy -178522.354925 kJ/mol
# GULP energy per Si atom -5578.823591 kJ/mol
# Density = 2.269457 g / cm^3
# Si number density = 22.746344 Si / 1000 Ang^3
#
#
#
# Elastic Constant Matrix: (Units=GPa)
#
#
# Indices 1 2 3 4 5 6 
#
# 1 131.3073 16.0891 27.7302 0.0000 0.0000 0.0000
# 2 16.0891 75.3025 25.4782 0.0000 0.0000 0.0000
# 3 27.7302 25.4782 68.9413 0.0000 0.0000 0.0000
# 4 0.0000 0.0000 0.0000 26.9967 0.0000 0.0000
# 5 0.0000 0.0000 0.0000 0.0000 26.9564 0.0000
# 6 0.0000 0.0000 0.0000 0.0000 0.0000 29.3382
#
#
#
# Elastic Compliance Matrix: (Units=1/GPa)
#
#
# Indices 1 2 3 4 5 6 
#
# 1 0.008359 -0.000741 -0.003088 0.000000 0.000000 0.000000
# 2 -0.000741 0.015243 -0.005335 0.000000 0.000000 0.000000
# 3 -0.003088 -0.005335 0.017719 0.000000 0.000000 0.000000
# 4 0.000000 0.000000 0.000000 0.037042 0.000000 0.000000
# 5 0.000000 0.000000 0.000000 0.000000 0.037097 0.000000
# 6 0.000000 0.000000 0.000000 0.000000 0.000000 0.034085
#
#
# Mechanical properties :
#
#
# Convention : Reuss Voigt Hill
#
# Bulk Modulus (GPa) = 43.49371 46.01623 44.75497
# Shear Modulus (GPa) = 28.48388 30.40850 29.44619
#
# Velocity S-wave (km/s) = 3.54254 3.66027 3.60188
# Velocity P-wave (km/s) = 5.99128 6.17555 6.08412
#
# Compressibility (1/GPa) = 0.02299183
#
# Stress axis : x y z
#
# Youngs Moduli (GPa) = 119.63553 65.60277 56.43651
#
# Poissons Ratio (x) = 0.04861 0.17429
# Poissons Ratio (y) = 0.08865 0.30111
# Poissons Ratio (z) = 0.36947 0.35001
#
# Static dielectric constant tensor:
#      x y z
#    x 1.876540 0.000000 0.000000 
#    y 0.000000 1.980360 0.000000 
#    z 0.000000 0.000000 1.930690 
# 
# From -- ./inp_files/5106.got.cif
#   From: 2010.05.17/outbox.cif.g08.bks.cpg/sg34_3_cif.got.tgz:5106.got - 2010.06.03 17:23:11.
