data_PCOD9347449
_publ_section_title
;
Structure prediction by ZEFSAII (Michael W. Deem and Ramdas Pophale) SiO2 
 PCOD9347449
Probable space group: P N N 2
;
_chemical_formula_sum "Si O2"
_cell_formula_units_Z 30
_cell_length_a 8.685195
_cell_length_b 27.412014
_cell_length_c 6.055361
_cell_angle_alpha 90.000000
_cell_angle_beta 90.000000
_cell_angle_gamma 90.000000
_cell_volume 1441.652396
_symmetry_space_group_name_H-M "P N N 2"
_symmetry_group_IT_number 34
_symmetry_cell_setting 'orthorhombic'
loop_
_space_group_symop_operation_xyz
x,y,z
-x,-y,z
1/2-x,1/2+y,1/2+z
1/2+x,1/2-y,1/2+z
loop_
_atom_site_type_symbol
_atom_site_label
_atom_site_fract_x
_atom_site_fract_y
_atom_site_fract_z
Si Si1 0.142268 0.750722 0.375000
Si Si2 0.702055 0.345242 0.502070
Si Si3 0.500000 0.000000 0.471188
Si Si4 0.123107 0.416922 0.646862
Si Si5 0.578578 0.841837 0.396121
Si Si6 0.388491 0.076592 0.770166
Si Si7 0.144765 0.290840 0.216354
Si Si8 0.159071 0.842549 0.048206
O O1 0.224887 0.697829 0.348613
O O2 0.207588 0.766663 0.609549
O O3 0.177066 0.794943 0.206865
O O4 0.960545 0.740743 0.377834
O O5 0.768561 0.334647 0.749714
O O6 0.761745 0.399107 0.430888
O O7 0.519642 0.342306 0.486495
O O8 0.415695 0.960114 0.316910
O O9 0.623236 0.972411 0.627544
O O10 0.295263 0.395704 0.643696
O O11 0.033793 0.368056 0.723184
O O12 0.042385 0.430365 0.416235
O O13 0.598661 0.881697 0.586126
O O14 0.477727 0.800381 0.517124
O O15 0.220083 0.335428 0.347109
#
# Coordination Sequence:
#
# PCOD9347449 Si02
#       8
#     4   4   2   4   4   4   4   4
#     4  12  26  39  61  99 140 192 240 285 332 416
#     4  11  25  40  64  97 144 186 234 286 352 409
#     4  10  22  38  80 104 122 172 240 292 362 440
#     4  10  20  41  68 102 127 168 234 286 355 423
#     4  10  20  41  64  90 126 179 221 281 336 411
#     4  10  20  42  70  98 131 172 223 293 349 429
#     4  12  25  41  65  92 140 185 245 280 338 405
#     4  12  26  42  66 100 143 194 232 299 345 425
#
# _framework density 20.809453999999999
#
# number of rings (size 3 to 8) (size 9 to 14) (size 15 to 20)
#    0.000    1.067    5.333    1.200    3.733    1.067 
#    0.000    0.000    0.000   19.200    0.000    0.000 
#    0.000    0.000    0.000    0.000    0.000    0.000 
#
# Total GULP energy -167089.724312 kJ/mol
# GULP energy per Si atom -5569.657477 kJ/mol
# Density = 2.076209 g / cm^3
# Si number density = 20.809454 Si / 1000 Ang^3
#
#
#
# Elastic Constant Matrix: (Units=GPa)
#
#
# Indices 1 2 3 4 5 6 
#
# 1 110.1678 37.2144 50.4641 0.0000 0.0000 0.0000
# 2 37.2144 111.3118 37.1615 0.0000 0.0000 0.0000
# 3 50.4641 37.1615 79.4694 0.0000 0.0000 0.0000
# 4 0.0000 0.0000 0.0000 42.1124 0.0000 0.0000
# 5 0.0000 0.0000 0.0000 0.0000 27.5502 0.0000
# 6 0.0000 0.0000 0.0000 0.0000 0.0000 25.0388
#
#
#
# Elastic Compliance Matrix: (Units=1/GPa)
#
#
# Indices 1 2 3 4 5 6 
#
# 1 0.013132 -0.001904 -0.007449 0.000000 0.000000 0.000000
# 2 -0.001904 0.010922 -0.003898 0.000000 0.000000 0.000000
# 3 -0.007449 -0.003898 0.019137 0.000000 0.000000 0.000000
# 4 0.000000 0.000000 0.000000 0.023746 0.000000 0.000000
# 5 0.000000 0.000000 0.000000 0.000000 0.036297 0.000000
# 6 0.000000 0.000000 0.000000 0.000000 0.000000 0.039938
#
#
# Mechanical properties :
#
#
# Convention : Reuss Voigt Hill
#
# Bulk Modulus (GPa) = 59.92116 61.18102 60.55109
# Shear Modulus (GPa) = 28.53284 30.68087 29.60686
#
# Velocity S-wave (km/s) = 3.70692 3.84392 3.77604
# Velocity P-wave (km/s) = 6.86872 7.01180 6.94063
#
# Compressibility (1/GPa) = 0.01668860
#
# Stress axis : x y z
#
# Youngs Moduli (GPa) = 76.14863 91.56102 52.25587
#
# Poissons Ratio (x) = 0.17430 0.38925
# Poissons Ratio (y) = 0.14496 0.20371
# Poissons Ratio (z) = 0.56723 0.35694
#
# Static dielectric constant tensor:
#      x y z
#    x 1.757440 0.000000 0.000000 
#    y 0.000000 1.809080 0.000000 
#    z 0.000000 0.000000 1.831660 
# 
# From -- ./inp_files/632.got.cif
#   From: 2010.05.17/outbox.cif.g08.bks.cpg/sg34_1_cif.got.tgz:632.got - 2010.06.03 17:23:11.
