data_PCOD9347893
_publ_section_title
;
Structure prediction by ZEFSAII (Michael W. Deem and Ramdas Pophale) SiO2 
 PCOD9347893
Probable space group: P N N 2
;
_chemical_formula_sum "Si O2"
_cell_formula_units_Z 32
_cell_length_a 18.440435
_cell_length_b 5.630586
_cell_length_c 12.965328
_cell_angle_alpha 90.000000
_cell_angle_beta 90.000000
_cell_angle_gamma 90.000000
_cell_volume 1346.195907
_symmetry_space_group_name_H-M "P N N 2"
_symmetry_group_IT_number 34
_symmetry_cell_setting 'orthorhombic'
loop_
_space_group_symop_operation_xyz
x,y,z
-x,-y,z
1/2-x,1/2+y,1/2+z
1/2+x,1/2-y,1/2+z
loop_
_atom_site_type_symbol
_atom_site_label
_atom_site_fract_x
_atom_site_fract_y
_atom_site_fract_z
Si Si1 0.578922 0.891393 0.935340
Si Si2 0.663702 0.416128 0.661930
Si Si3 0.083095 0.581873 0.190307
Si Si4 0.677867 0.393550 0.244778
Si Si5 0.235490 0.695722 0.852813
Si Si6 0.931432 0.162112 0.624946
Si Si7 0.784054 0.617265 0.547797
Si Si8 0.421276 0.982622 0.305515
O O1 0.500000 0.000000 0.956651
O O2 0.588927 0.889659 0.814441
O O3 0.642901 0.025564 0.995390
O O4 0.573982 0.652738 0.001624
O O5 0.613219 0.657174 0.653289
O O6 0.706411 0.414665 0.773346
O O7 0.719587 0.431202 0.566326
O O8 0.627167 0.155339 0.658491
O O9 0.000000 0.500000 0.166939
O O10 0.732299 0.524796 0.319805
O O11 0.645919 0.579478 0.165075
O O12 0.706171 0.201746 0.164908
O O13 0.608318 0.284492 0.301562
O O14 0.151435 0.613621 0.845838
O O15 0.258257 0.678690 0.970478
O O16 0.935265 0.404207 0.691674
O O17 0.000000 0.000000 0.653908
O O18 0.500000 0.000000 0.358794
#
# Coordination Sequence:
#
# PCOD9347893 Si02
#       8
#     4   4   4   4   4   4   4   4
#     4  11  23  39  66 107 142 186 244 308 385 459
#     4  12  25  50  74 111 151 195 254 315 382 455
#     4  11  27  50  79 104 149 203 255 316 382 449
#     4  11  22  41  65  98 142 190 242 288 378 441
#     4  11  26  43  68 107 142 194 244 312 370 457
#     4  11  20  32  62  98 138 181 229 296 375 453
#     4  12  24  45  71 104 145 193 247 303 379 449
#     4  11  21  41  64  96 142 191 237 299 371 445
#
# _framework density 23.770683999999999
#
# number of rings (size 3 to 8) (size 9 to 14) (size 15 to 20)
#    0.000    0.750    5.000    3.000    1.750    2.000 
#    4.500    0.625    2.750    0.000    0.000    0.000 
#    0.000    0.000    0.000    0.000    0.000    0.000 
#
# Total GULP energy -178281.917000 kJ/mol
# GULP energy per Si atom -5571.309906 kJ/mol
# Density = 2.371658 g / cm^3
# Si number density = 23.770684 Si / 1000 Ang^3
#
#
#
# Elastic Constant Matrix: (Units=GPa)
#
#
# Indices 1 2 3 4 5 6 
#
# 1 134.5631 42.6703 20.9369 0.0000 0.0000 0.0000
# 2 42.6703 89.0851 2.7136 0.0000 0.0000 0.0000
# 3 20.9369 2.7136 26.1710 0.0000 0.0000 0.0000
# 4 0.0000 0.0000 0.0000 21.4960 0.0000 0.0000
# 5 0.0000 0.0000 0.0000 0.0000 25.3313 0.0000
# 6 0.0000 0.0000 0.0000 0.0000 0.0000 50.3076
#
#
#
# Elastic Compliance Matrix: (Units=1/GPa)
#
#
# Indices 1 2 3 4 5 6 
#
# 1 0.010066 -0.004591 -0.007577 0.000000 0.000000 0.000000
# 2 -0.004591 0.013354 0.002288 0.000000 0.000000 0.000000
# 3 -0.007577 0.002288 0.044035 0.000000 0.000000 0.000000
# 4 0.000000 0.000000 0.000000 0.046520 0.000000 0.000000
# 5 0.000000 0.000000 0.000000 0.000000 0.039477 0.000000
# 6 0.000000 0.000000 0.000000 0.000000 0.000000 0.019878
#
#
# Mechanical properties :
#
#
# Convention : Reuss Voigt Hill
#
# Bulk Modulus (GPa) = 20.96628 42.49564 31.73096
# Shear Modulus (GPa) = 23.92484 31.66021 27.79252
#
# Velocity S-wave (km/s) = 3.17596 3.65348 3.42306
# Velocity P-wave (km/s) = 4.72105 5.97607 5.38524
#
# Compressibility (1/GPa) = 0.04769563
#
# Stress axis : x y z
#
# Youngs Moduli (GPa) = 99.34357 74.88172 22.70944
#
# Poissons Ratio (x) = 0.34376 0.17207
# Poissons Ratio (y) = 0.45606 -0.05196
# Poissons Ratio (z) = 0.75272 -0.17132
#
# Static dielectric constant tensor:
#      x y z
#    x 2.042520 0.000000 0.000000 
#    y 0.000000 2.259040 0.000000 
#    z 0.000000 0.000000 1.879840 
# 
# From -- ./inp_files/6968.got.cif
#   From: 2010.05.17/outbox.cif.g08.bks.cpg/sg34_4_cif.got.tgz:6968.got - 2010.06.03 17:23:11.
