data_PCOD9347874
_publ_section_title
;
Structure prediction by ZEFSAII (Michael W. Deem and Ramdas Pophale) SiO2 
 PCOD9347874
Probable space group: P N N 2
;
_chemical_formula_sum "Si O2"
_cell_formula_units_Z 18
_cell_length_a 18.715460
_cell_length_b 5.075222
_cell_length_c 8.426938
_cell_angle_alpha 90.000000
_cell_angle_beta 90.000000
_cell_angle_gamma 90.000000
_cell_volume 800.433669
_symmetry_space_group_name_H-M "P N N 2"
_symmetry_group_IT_number 34
_symmetry_cell_setting 'orthorhombic'
loop_
_space_group_symop_operation_xyz
x,y,z
-x,-y,z
1/2-x,1/2+y,1/2+z
1/2+x,1/2-y,1/2+z
loop_
_atom_site_type_symbol
_atom_site_label
_atom_site_fract_x
_atom_site_fract_y
_atom_site_fract_z
Si Si1 0.287967 0.768156 0.266700
Si Si2 0.000000 0.500000 0.576750
Si Si3 0.453602 0.759548 0.766363
Si Si4 0.330815 0.981844 0.577169
Si Si5 0.622163 0.751065 0.270192
O O1 0.280350 0.828192 0.453424
O O2 0.216562 0.666215 0.187431
O O3 0.319986 0.040097 0.200453
O O4 0.348043 0.541113 0.253426
O O5 0.951392 0.669211 0.453881
O O6 0.951619 0.312487 0.684081
O O7 0.500000 0.500000 0.745231
O O8 0.378096 0.783359 0.680827
O O9 0.500000 0.000000 0.697862
O O10 0.378063 0.158272 0.455018
#
# Coordination Sequence:
#
# PCOD9347874 Si02
#       5
#     4   2   4   4   4
#     4  10  26  40  70  97 135 176 231 284 351 419
#     4  10  26  42  68 100 140 178 230 290 354 414
#     4  10  26  41  69  98 136 180 227 287 345 421
#     4  10  26  44  71  97 139 180 234 288 352 421
#     4  10  26  42  69  97 134 179 227 285 347 422
#
# _framework density 22.487808000000001
#
# number of rings (size 3 to 8) (size 9 to 14) (size 15 to 20)
#    2.000    0.000    0.000    0.000   14.000    0.000 
#    0.000    0.000    0.000    0.000    0.000    0.000 
#    0.000    0.000    0.000    0.000    0.000    0.000 
#
# Total GULP energy -100410.055716 kJ/mol
# GULP energy per Si atom -5578.336429 kJ/mol
# Density = 2.243662 g / cm^3
# Si number density = 22.487808 Si / 1000 Ang^3
#
#
#
# Elastic Constant Matrix: (Units=GPa)
#
#
# Indices 1 2 3 4 5 6 
#
# 1 41.9983 -6.4657 59.7204 0.0000 0.0000 0.0000
# 2 -6.4657 89.0624 15.7479 0.0000 0.0000 0.0000
# 3 59.7204 15.7479 123.4334 0.0000 0.0000 0.0000
# 4 0.0000 0.0000 0.0000 6.9918 0.0000 0.0000
# 5 0.0000 0.0000 0.0000 0.0000 44.5476 0.0000
# 6 0.0000 0.0000 0.0000 0.0000 0.0000 31.2861
#
#
#
# Elastic Compliance Matrix: (Units=1/GPa)
#
#
# Indices 1 2 3 4 5 6 
#
# 1 0.092378 0.014946 -0.046602 0.000000 0.000000 0.000000
# 2 0.014946 0.013905 -0.009006 0.000000 0.000000 0.000000
# 3 -0.046602 -0.009006 0.031798 0.000000 0.000000 0.000000
# 4 0.000000 0.000000 0.000000 0.143026 0.000000 0.000000
# 5 0.000000 0.000000 0.000000 0.000000 0.022448 0.000000
# 6 0.000000 0.000000 0.000000 0.000000 0.000000 0.031963
#
#
# Mechanical properties :
#
#
# Convention : Reuss Voigt Hill
#
# Bulk Modulus (GPa) = 17.61829 43.61105 30.61467
# Shear Modulus (GPa) = 11.47422 28.93120 20.20271
#
# Velocity S-wave (km/s) = 2.26130 3.59071 3.00056
# Velocity P-wave (km/s) = 3.83009 6.05196 5.06438
#
# Compressibility (1/GPa) = 0.05675920
#
# Stress axis : x y z
#
# Youngs Moduli (GPa) = 10.82509 71.91400 31.44879
#
# Poissons Ratio (x) = -1.07486 1.46557
# Poissons Ratio (y) = -0.16180 0.28321
# Poissons Ratio (z) = 0.50447 0.64763
#
# Static dielectric constant tensor:
#      x y z
#    x 2.010120 0.000000 0.000000 
#    y 0.000000 1.860080 0.000000 
#    z 0.000000 0.000000 1.835910 
# 
# From -- ./inp_files/3792.got.cif
#   From: 2010.05.17/outbox.cif.g08.bks.cpg/sg34_2_cif.got.tgz:3792.got - 2010.06.03 17:23:11.
