data_PCOD9347796
_publ_section_title
;
Structure prediction by ZEFSAII (Michael W. Deem and Ramdas Pophale) SiO2 
 PCOD9347796
Probable space group: P N N 2
;
_chemical_formula_sum "Si O2"
_cell_formula_units_Z 20
_cell_length_a 5.159918
_cell_length_b 13.674331
_cell_length_c 13.537432
_cell_angle_alpha 90.000000
_cell_angle_beta 90.000000
_cell_angle_gamma 90.000000
_cell_volume 955.179903
_symmetry_space_group_name_H-M "P N N 2"
_symmetry_group_IT_number 34
_symmetry_cell_setting 'orthorhombic'
loop_
_space_group_symop_operation_xyz
x,y,z
-x,-y,z
1/2-x,1/2+y,1/2+z
1/2+x,1/2-y,1/2+z
loop_
_atom_site_type_symbol
_atom_site_label
_atom_site_fract_x
_atom_site_fract_y
_atom_site_fract_z
Si Si1 0.000000 0.000000 0.860220
Si Si2 0.000000 0.000000 0.249021
Si Si3 0.500000 0.000000 0.724019
Si Si4 0.500000 0.000000 0.112819
Si Si5 0.010590 0.649568 0.050194
Si Si6 0.010590 0.149568 0.422845
Si Si7 0.250000 0.337207 0.486520
O O1 0.749619 0.987961 0.792202
O O2 0.053976 0.906573 0.928775
O O3 0.249619 0.012039 0.180838
O O4 0.975556 0.092723 0.321689
O O5 0.475555 0.907277 0.651351
O O6 0.553976 0.093427 0.044264
O O7 0.101371 0.762368 0.059377
O O8 0.750000 0.646374 0.986520
O O9 0.250000 0.603858 0.986520
O O10 0.101372 0.262368 0.413663
#
# Coordination Sequence:
#
# PCOD9347796 Si02
#       7
#     2   2   2   2   4   4   4
#     4  12  27  43  70 100 136 184 224 289 323 414
#     4  12  25  43  72 106 134 168 244 281 331 384
#     4  12  25  43  72 106 134 168 244 281 331 384
#     4  12  27  43  70 100 136 184 224 289 323 414
#     4  10  23  44  72  97 136 184 219 279 339 411
#     4  10  23  44  72  97 136 184 219 279 339 411
#     4  10  28  46  70  92 146 186 224 260 368 394
#
# _framework density 20.938462999999999
#
# number of rings (size 3 to 8) (size 9 to 14) (size 15 to 20)
#    1.200    0.000    0.000    4.800    8.400    3.200 
#    0.000    0.000    0.000    0.000    0.000    0.000 
#    0.000    0.000    0.000    0.000    0.000    0.000 
#
# Total GULP energy -111810.690216 kJ/mol
# GULP energy per Si atom -5590.534511 kJ/mol
# Density = 2.089081 g / cm^3
# Si number density = 20.938463 Si / 1000 Ang^3
#
#
#
# Elastic Constant Matrix: (Units=GPa)
#
#
# Indices 1 2 3 4 5 6 
#
# 1 172.7758 53.8284 61.0885 0.0000 0.0000 0.0000
# 2 53.8284 176.2072 82.9879 0.0000 0.0000 0.0000
# 3 61.0885 82.9879 107.9003 0.0000 0.0000 0.0000
# 4 0.0000 0.0000 0.0000 -15.3495 0.0000 0.0000
# 5 0.0000 0.0000 0.0000 0.0000 59.9800 0.0000
# 6 0.0000 0.0000 0.0000 0.0000 0.0000 -4.3614
#
#
#
# Elastic Compliance Matrix: (Units=1/GPa)
#
#
# Indices 1 2 3 4 5 6 
#
# 1 0.007258 -0.000442 -0.003769 0.000000 0.000000 0.000000
# 2 -0.000442 0.008925 -0.006614 0.000000 0.000000 0.000000
# 3 -0.003769 -0.006614 0.016489 0.000000 0.000000 0.000000
# 4 0.000000 0.000000 0.000000 -0.065149 0.000000 0.000000
# 5 0.000000 0.000000 0.000000 0.000000 0.016672 0.000000
# 6 0.000000 0.000000 0.000000 0.000000 0.000000 -0.229285
#
#
# Mechanical properties :
#
#
# Convention : Reuss Voigt Hill
#
# Bulk Modulus (GPa) = 90.73425 94.74366 92.73896
# Shear Modulus (GPa) = -22.75167 25.31905 1.28369
#
# Velocity S-wave (km/s) = -3.29993 3.48115 0.78384
# Velocity P-wave (km/s) = 5.37666 7.84249 6.72358
#
# Compressibility (1/GPa) = 0.01102120
#
# Stress axis : x y z
#
# Youngs Moduli (GPa) = 137.77324 112.04085 60.64629
#
# Poissons Ratio (x) = 0.04953 0.22860
# Poissons Ratio (y) = 0.06090 0.40114
# Poissons Ratio (z) = 0.51932 0.74108
#
# Static dielectric constant tensor:
#      x y z
#    x 1.740050 0.000000 0.000000 
#    y 0.000000 1.771420 0.000000 
#    z 0.000000 0.000000 1.712140 
# 
# From -- ./inp_files/4379.got.cif
#   From: 2010.05.17/outbox.cif.g08.bks.cpg/sg34_3_cif.got.tgz:4379.got - 2010.06.03 17:23:11.
