data_PCOD9347093
_publ_section_title
;
Structure prediction by ZEFSAII (Michael W. Deem and Ramdas Pophale) SiO2 
 PCOD9347093
Probable space group: P N N 2
;
_chemical_formula_sum "Si O2"
_cell_formula_units_Z 28
_cell_length_a 5.614419
_cell_length_b 16.149535
_cell_length_c 11.904782
_cell_angle_alpha 90.000000
_cell_angle_beta 90.000000
_cell_angle_gamma 90.000000
_cell_volume 1079.409633
_symmetry_space_group_name_H-M "P N N 2"
_symmetry_group_IT_number 34
_symmetry_cell_setting 'orthorhombic'
loop_
_space_group_symop_operation_xyz
x,y,z
-x,-y,z
1/2-x,1/2+y,1/2+z
1/2+x,1/2-y,1/2+z
loop_
_atom_site_type_symbol
_atom_site_label
_atom_site_fract_x
_atom_site_fract_y
_atom_site_fract_z
Si Si1 0.250000 0.866267 0.436140
Si Si2 0.250000 0.159098 0.714469
Si Si3 0.750000 0.466626 0.381003
Si Si4 0.250000 0.196497 0.088218
Si Si5 0.750000 0.315128 0.848705
Si Si6 0.250000 0.812591 0.054988
Si Si7 0.250000 0.423622 0.155712
O O1 0.250000 0.780686 0.512926
O O2 0.500438 0.862536 0.370901
O O3 0.250000 0.942731 0.523610
O O4 0.999561 0.862536 0.370902
O O5 0.250000 0.130640 0.844773
O O6 0.250000 0.250250 0.662620
O O7 0.498948 0.123002 0.670172
O O8 0.001052 0.123002 0.670172
O O9 0.500000 0.500000 0.428452
O O10 0.750000 0.511277 0.256411
O O11 0.000000 0.500000 0.428452
O O12 0.250000 0.215410 0.221221
O O13 0.492557 0.147145 0.064301
O O14 0.007443 0.147145 0.064302
O O15 0.750000 0.239983 0.939041
#
# Coordination Sequence:
#
# PCOD9347093 Si02
#       7
#     4   4   4   4   4   4   4
#     4  10  17  28  40  53  75 100 125 160 182 221
#     4  10  14  25  36  51  73  96 125 149 175 213
#     4   8  16  20  34  52  68  94 124 146 162 218
#     4  10  18  27  39  54  70  95 131 161 188 217
#     4  10  18  27  39  54  70  95 131 161 188 217
#     4  10  17  28  40  53  75 100 125 160 182 221
#     4  10  14  25  36  51  73  96 125 149 175 213
#
# _framework density 25.940106
#
# number of rings (size 3 to 8) (size 9 to 14) (size 15 to 20)
#    0.000    2.286    5.714    0.857    0.000    0.000 
#    0.000    0.000    0.000    0.000    0.000    0.000 
#    0.000    0.000    0.000    0.000    0.000  137.143 
#
# Total GULP energy -156190.602687 kJ/mol
# GULP energy per Si atom -5578.235810 kJ/mol
# Density = 2.588106 g / cm^3
# Si number density = 25.940106 Si / 1000 Ang^3
#
#
#
# Elastic Constant Matrix: (Units=GPa)
#
#
# Indices 1 2 3 4 5 6 
#
# 1 318.3194 21.0638 45.9949 0.0000 0.0000 0.0000
# 2 21.0638 54.4826 31.8253 0.0000 0.0000 0.0000
# 3 45.9949 31.8253 59.0309 0.0000 0.0000 0.0000
# 4 0.0000 0.0000 0.0000 46.4066 0.0000 0.0000
# 5 0.0000 0.0000 0.0000 0.0000 2.0551 0.0000
# 6 0.0000 0.0000 0.0000 0.0000 0.0000 15.1319
#
#
#
# Elastic Compliance Matrix: (Units=1/GPa)
#
#
# Indices 1 2 3 4 5 6 
#
# 1 0.003545 0.000355 -0.002953 0.000000 0.000000 0.000000
# 2 0.000355 0.026827 -0.014740 0.000000 0.000000 0.000000
# 3 -0.002953 -0.014740 0.027188 0.000000 0.000000 0.000000
# 4 0.000000 0.000000 0.000000 0.021549 0.000000 0.000000
# 5 0.000000 0.000000 0.000000 0.000000 0.486583 0.000000
# 6 0.000000 0.000000 0.000000 0.000000 0.000000 0.066086
#
#
# Mechanical properties :
#
#
# Convention : Reuss Voigt Hill
#
# Bulk Modulus (GPa) = 43.69959 69.95564 56.82761
# Shear Modulus (GPa) = 7.41750 34.91534 21.16642
#
# Velocity S-wave (km/s) = 1.69283 3.67277 2.85962
# Velocity P-wave (km/s) = 4.55015 6.70912 5.73219
#
# Compressibility (1/GPa) = 0.02288351
#
# Stress axis : x y z
#
# Youngs Moduli (GPa) = 282.10837 37.27538 36.78124
#
# Poissons Ratio (x) = -0.01322 0.10862
# Poissons Ratio (y) = -0.10002 0.54214
# Poissons Ratio (z) = 0.83309 0.54943
#
# Static dielectric constant tensor:
#      x y z
#    x 2.075800 0.000000 0.000000 
#    y 0.000000 2.182170 0.000000 
#    z 0.000000 0.000000 2.068180 
# 
# From -- ./inp_files/2183.got.cif
#   From: 2010.05.17/outbox.cif.g08.bks.cpg/sg34_2_cif.got.tgz:2183.got - 2010.06.03 17:23:11.
