data_PCOD9347025
_publ_section_title
;
Structure prediction by ZEFSAII (Michael W. Deem and Ramdas Pophale) SiO2 
 PCOD9347025
Probable space group: P N A 21
;
_chemical_formula_sum "Si O2"
_cell_formula_units_Z 12
_cell_length_a 16.938119
_cell_length_b 5.208071
_cell_length_c 5.046038
_cell_angle_alpha 90.000000
_cell_angle_beta 90.000000
_cell_angle_gamma 90.000000
_cell_volume 445.135871
_symmetry_space_group_name_H-M "P N A 21"
_symmetry_group_IT_number 33
_symmetry_cell_setting 'orthorhombic'
loop_
_space_group_symop_operation_xyz
x,y,z
-x,-y,1/2+z
1/2-x,1/2+y,1/2+z
1/2+x,1/2-y,z
loop_
_atom_site_type_symbol
_atom_site_label
_atom_site_fract_x
_atom_site_fract_y
_atom_site_fract_z
Si Si1 0.146519 0.063166 0.245000
Si Si2 0.174633 0.567770 0.585259
Si Si3 0.549779 0.078268 0.952734
O O1 0.150357 0.305460 0.443244
O O2 0.231054 0.069228 0.098887
O O3 0.144116 0.811345 0.423298
O O4 0.075525 0.137816 0.047817
O O5 0.132295 0.559632 0.871158
O O6 0.497316 0.053025 0.690921
#
# Coordination Sequence:
#
# PCOD9347025 Si02
#       3
#     4   4   4
#     4  12  27  51  86 122 163 221 287 348 417 510
#     4  12  27  51  86 122 163 221 287 348 417 510
#     4  12  28  56  80 128 174 224 280 360 430 500
#
# _framework density 26.958061000000001
#
# number of rings (size 3 to 8) (size 9 to 14) (size 15 to 20)
#    0.000    0.000    6.667    2.000    0.000    0.000 
#   12.000    0.000    0.000    0.000    0.000    0.000 
#    0.000    0.000    0.000    0.000    0.000    0.000 
#
# Total GULP energy -67412.227808 kJ/mol
# GULP energy per Si atom -5617.685651 kJ/mol
# Density = 2.689670 g / cm^3
# Si number density = 26.958061 Si / 1000 Ang^3
#
#
#
# Elastic Constant Matrix: (Units=GPa)
#
#
# Indices 1 2 3 4 5 6 
#
# 1 97.4397 5.4730 22.6208 0.0000 0.0000 0.0000
# 2 5.4730 178.4650 50.9306 0.0000 0.0000 0.0000
# 3 22.6208 50.9306 148.3929 0.0000 0.0000 0.0000
# 4 0.0000 0.0000 0.0000 51.9095 0.0000 0.0000
# 5 0.0000 0.0000 0.0000 0.0000 83.6917 0.0000
# 6 0.0000 0.0000 0.0000 0.0000 0.0000 38.2826
#
#
#
# Elastic Compliance Matrix: (Units=1/GPa)
#
#
# Indices 1 2 3 4 5 6 
#
# 1 0.010643 0.000151 -0.001674 0.000000 0.000000 0.000000
# 2 0.000151 0.006214 -0.002156 0.000000 0.000000 0.000000
# 3 -0.001674 -0.002156 0.007734 0.000000 0.000000 0.000000
# 4 0.000000 0.000000 0.000000 0.019264 0.000000 0.000000
# 5 0.000000 0.000000 0.000000 0.000000 0.011949 0.000000
# 6 0.000000 0.000000 0.000000 0.000000 0.000000 0.026122
#
#
# Mechanical properties :
#
#
# Convention : Reuss Voigt Hill
#
# Bulk Modulus (GPa) = 58.02671 64.70516 61.36593
# Shear Modulus (GPa) = 52.61649 57.79498 55.20573
#
# Velocity S-wave (km/s) = 4.42270 4.63523 4.53021
# Velocity P-wave (km/s) = 6.90304 7.25958 7.08355
#
# Compressibility (1/GPa) = 0.01723344
#
# Stress axis : x y z
#
# Youngs Moduli (GPa) = 93.95877 160.92907 129.29908
#
# Poissons Ratio (x) = -0.02437 0.21650
# Poissons Ratio (y) = -0.01423 0.27874
# Poissons Ratio (z) = 0.15732 0.34693
#
# Static dielectric constant tensor:
#      x y z
#    x 2.138890 0.000000 0.000000 
#    y 0.000000 2.064260 0.000000 
#    z 0.000000 0.000000 2.145280 
# 
# From -- ./inp_files/1575.got.cif
#   From: 2010.05.17/outbox.cif.g08.bks.cpg/sg33_1_cif.got.tgz:1575.got - 2010.06.03 17:15:25.
