data_PCOD9347373
_publ_section_title
;
Structure prediction by ZEFSAII (Michael W. Deem and Ramdas Pophale) SiO2 
 PCOD9347373
Probable space group: P N N 2
;
_chemical_formula_sum "Si O2"
_cell_formula_units_Z 32
_cell_length_a 16.326840
_cell_length_b 9.984222
_cell_length_c 9.329451
_cell_angle_alpha 90.000000
_cell_angle_beta 90.000000
_cell_angle_gamma 90.000000
_cell_volume 1520.801226
_symmetry_space_group_name_H-M "P N N 2"
_symmetry_group_IT_number 34
_symmetry_cell_setting 'orthorhombic'
loop_
_space_group_symop_operation_xyz
x,y,z
-x,-y,z
1/2-x,1/2+y,1/2+z
1/2+x,1/2-y,1/2+z
loop_
_atom_site_type_symbol
_atom_site_label
_atom_site_fract_x
_atom_site_fract_y
_atom_site_fract_z
Si Si1 0.720356 0.221845 0.149070
Si Si2 0.256651 0.085202 0.396636
Si Si3 0.168172 0.812605 0.400515
Si Si4 0.226051 0.829621 0.697293
Si Si5 0.416172 0.928609 0.284879
Si Si6 0.116414 0.267835 0.054226
Si Si7 0.971408 0.146888 0.196176
Si Si8 0.341494 0.462026 0.478244
O O1 0.757721 0.248419 0.306854
O O2 0.628360 0.168935 0.170086
O O3 0.743908 0.347204 0.051389
O O4 0.768049 0.097652 0.074700
O O5 0.241149 0.205955 0.288771
O O6 0.189468 0.969964 0.387115
O O7 0.344883 0.029615 0.343456
O O8 0.167090 0.782583 0.568198
O O9 0.087702 0.786854 0.311319
O O10 0.308893 0.862842 0.607003
O O11 0.181367 0.924435 0.813576
O O12 0.430485 0.836181 0.423044
O O13 0.500000 0.000000 0.240617
O O14 0.049127 0.239091 0.173013
O O15 0.145686 0.118810 0.006920
O O16 0.000000 0.000000 0.245569
O O17 0.920168 0.115714 0.048299
#
# Coordination Sequence:
#
# PCOD9347373 Si02
#       8
#     4   4   4   4   4   4   4   4
#     4   9  19  40  62  89 123 171 206 260 312 383
#     4  10  21  40  63  91 129 167 217 260 309 392
#     4  10  20  37  60  94 119 162 212 256 311 371
#     4  11  21  37  65  93 118 163 217 259 305 377
#     4  11  24  37  59  95 132 167 205 271 330 375
#     4  11  21  38  63  90 124 167 207 262 321 381
#     4   9  19  39  61  86 124 158 199 266 320 361
#     4   9  21  38  66  90 119 163 222 256 310 383
#
# _framework density 21.041540000000001
#
# number of rings (size 3 to 8) (size 9 to 14) (size 15 to 20)
#    0.000    2.000    2.500    3.000    7.000    0.000 
#    0.000    5.625    0.000    3.000    0.000    0.000 
#    0.000    0.000    0.000    0.000    0.000    0.000 
#
# Total GULP energy -178357.651338 kJ/mol
# GULP energy per Si atom -5573.676604 kJ/mol
# Density = 2.099365 g / cm^3
# Si number density = 21.041540 Si / 1000 Ang^3
#
#
#
# Elastic Constant Matrix: (Units=GPa)
#
#
# Indices 1 2 3 4 5 6 
#
# 1 100.9016 13.8237 20.0611 0.0000 0.0000 0.0000
# 2 13.8237 42.8044 14.2291 0.0000 0.0000 0.0000
# 3 20.0611 14.2291 121.5910 0.0000 0.0000 0.0000
# 4 0.0000 0.0000 0.0000 25.8604 0.0000 0.0000
# 5 0.0000 0.0000 0.0000 0.0000 30.6037 0.0000
# 6 0.0000 0.0000 0.0000 0.0000 0.0000 24.1960
#
#
#
# Elastic Compliance Matrix: (Units=1/GPa)
#
#
# Indices 1 2 3 4 5 6 
#
# 1 0.010594 -0.002955 -0.001402 0.000000 0.000000 0.000000
# 2 -0.002955 0.025132 -0.002453 0.000000 0.000000 0.000000
# 3 -0.001402 -0.002453 0.008743 0.000000 0.000000 0.000000
# 4 0.000000 0.000000 0.000000 0.038669 0.000000 0.000000
# 5 0.000000 0.000000 0.000000 0.000000 0.032676 0.000000
# 6 0.000000 0.000000 0.000000 0.000000 0.000000 0.041329
#
#
# Mechanical properties :
#
#
# Convention : Reuss Voigt Hill
#
# Bulk Modulus (GPa) = 32.41771 40.16942 36.29357
# Shear Modulus (GPa) = 27.61707 30.61090 29.11398
#
# Velocity S-wave (km/s) = 3.62678 3.81830 3.72377
# Velocity P-wave (km/s) = 5.74265 6.21057 5.98119
#
# Compressibility (1/GPa) = 0.03084733
#
# Stress axis : x y z
#
# Youngs Moduli (GPa) = 94.39044 39.78975 114.38063
#
# Poissons Ratio (x) = 0.11759 0.16037
# Poissons Ratio (y) = 0.27896 0.28063
# Poissons Ratio (z) = 0.13234 0.09762
#
# Static dielectric constant tensor:
#      x y z
#    x 1.775280 0.000000 0.000000 
#    y 0.000000 1.814030 0.000000 
#    z 0.000000 0.000000 1.847610 
# 
# From -- ./inp_files/3944.got.cif
#   From: 2010.05.17/outbox.cif.g08.bks.cpg/sg34_2_cif.got.tgz:3944.got - 2010.06.03 17:23:11.
