data_PCOD9347294
_publ_section_title
;
Structure prediction by ZEFSAII (Michael W. Deem and Ramdas Pophale) SiO2 
 PCOD9347294
Probable space group: P N N 2
;
_chemical_formula_sum "Si O2"
_cell_formula_units_Z 32
_cell_length_a 15.811604
_cell_length_b 8.431614
_cell_length_c 11.018013
_cell_angle_alpha 90.000000
_cell_angle_beta 90.000000
_cell_angle_gamma 90.000000
_cell_volume 1468.892203
_symmetry_space_group_name_H-M "P N N 2"
_symmetry_group_IT_number 34
_symmetry_cell_setting 'orthorhombic'
loop_
_space_group_symop_operation_xyz
x,y,z
-x,-y,z
1/2-x,1/2+y,1/2+z
1/2+x,1/2-y,1/2+z
loop_
_atom_site_type_symbol
_atom_site_label
_atom_site_fract_x
_atom_site_fract_y
_atom_site_fract_z
Si Si1 0.089723 0.413865 0.735950
Si Si2 0.154209 0.364281 0.487482
Si Si3 0.345759 0.738700 0.735950
Si Si4 0.588444 0.591522 0.735950
Si Si5 0.347928 0.244690 0.498870
Si Si6 0.154209 0.364281 0.984418
Si Si7 0.652072 0.755310 0.973030
Si Si8 0.346680 0.257225 0.235950
O O1 0.105049 0.322789 0.611045
O O2 0.153000 0.564857 0.735950
O O3 0.000000 0.500000 0.735950
O O4 0.105049 0.322789 0.860855
O O5 0.115949 0.292537 0.363845
O O6 0.250334 0.302992 0.503490
O O7 0.152204 0.554103 0.472733
O O8 0.343170 0.549888 0.735950
O O9 0.384051 0.792538 0.608055
O O10 0.251040 0.809844 0.735950
O O11 0.500000 0.500000 0.735950
O O12 0.602867 0.691256 0.614597
O O13 0.602867 0.691256 0.857303
O O14 0.383250 0.301674 0.367241
O O15 0.347796 0.054103 0.499167
O O16 0.250334 0.302991 0.968410
O O17 0.616750 0.698325 0.104659
#
# Coordination Sequence:
#
# PCOD9347294 Si02
#       8
#     4   4   4   4   4   4   4   4
#     4  10  20  33  52  82 116 146 177 222 284 350
#     4  10  20  37  64  88 111 145 191 246 296 350
#     4  10  21  38  57  84 113 148 199 246 285 339
#     4  12  25  38  54  82 124 164 197 238 288 347
#     4  10  19  38  61  86 111 145 192 244 297 344
#     4  10  20  37  64  88 111 145 191 246 296 350
#     4  10  19  38  61  86 111 145 192 244 297 344
#     4   8  18  35  57  80 107 138 185 246 288 334
#
# _framework density 21.785124
#
# number of rings (size 3 to 8) (size 9 to 14) (size 15 to 20)
#    0.000    2.000    0.000    6.000    0.000    4.000 
#    0.000    6.250    0.000    0.000    0.000    0.000 
#    0.000    0.000    0.000    0.000    0.000    0.000 
#
# Total GULP energy -178568.944272 kJ/mol
# GULP energy per Si atom -5580.279508 kJ/mol
# Density = 2.173554 g / cm^3
# Si number density = 21.785124 Si / 1000 Ang^3
#
#
#
# Elastic Constant Matrix: (Units=GPa)
#
#
# Indices 1 2 3 4 5 6 
#
# 1 51.5004 -2.5297 21.2224 0.0000 0.0000 0.0000
# 2 -2.5297 62.4193 38.0696 0.0000 0.0000 0.0000
# 3 21.2224 38.0696 233.7295 0.0000 0.0000 0.0000
# 4 0.0000 0.0000 0.0000 24.0232 0.0000 0.0000
# 5 0.0000 0.0000 0.0000 0.0000 -17.9838 0.0000
# 6 0.0000 0.0000 0.0000 0.0000 0.0000 11.5238
#
#
#
# Elastic Compliance Matrix: (Units=1/GPa)
#
#
# Indices 1 2 3 4 5 6 
#
# 1 0.020435 0.002176 -0.002210 0.000000 0.000000 0.000000
# 2 0.002176 0.018019 -0.003133 0.000000 0.000000 0.000000
# 3 -0.002210 -0.003133 0.004989 0.000000 0.000000 0.000000
# 4 0.000000 0.000000 0.000000 0.041626 0.000000 0.000000
# 5 0.000000 0.000000 0.000000 0.000000 -0.055606 0.000000
# 6 0.000000 0.000000 0.000000 0.000000 0.000000 0.086777
#
#
# Mechanical properties :
#
#
# Convention : Reuss Voigt Hill
#
# Bulk Modulus (GPa) = 26.94641 51.24154 39.09398
# Shear Modulus (GPa) = 37.05221 22.90510 29.97865
#
# Velocity S-wave (km/s) = 4.12855 3.24606 3.71362
# Velocity P-wave (km/s) = 5.92644 6.13365 6.03093
#
# Compressibility (1/GPa) = 0.03711069
#
# Stress axis : x y z
#
# Youngs Moduli (GPa) = 48.93595 55.49571 200.42765
#
# Poissons Ratio (x) = -0.12076 0.44292
# Poissons Ratio (y) = -0.10648 0.62785
# Poissons Ratio (z) = 0.10814 0.17384
#
# Static dielectric constant tensor:
#      x y z
#    x 1.842760 0.000000 0.000000 
#    y 0.000000 1.757320 0.000000 
#    z 0.000000 0.000000 1.876240 
# 
# From -- ./inp_files/5802.got.cif
#   From: 2010.05.17/outbox.cif.g08.bks.cpg/sg34_3_cif.got.tgz:5802.got - 2010.06.03 17:23:11.
