data_PCOD9347187
_publ_section_title
;
Structure prediction by ZEFSAII (Michael W. Deem and Ramdas Pophale) SiO2 
 PCOD9347187
Probable space group: P N N 2
;
_chemical_formula_sum "Si O2"
_cell_formula_units_Z 28
_cell_length_a 9.231165
_cell_length_b 16.605206
_cell_length_c 9.431873
_cell_angle_alpha 90.000000
_cell_angle_beta 90.000000
_cell_angle_gamma 90.000000
_cell_volume 1445.768392
_symmetry_space_group_name_H-M "P N N 2"
_symmetry_group_IT_number 34
_symmetry_cell_setting 'orthorhombic'
loop_
_space_group_symop_operation_xyz
x,y,z
-x,-y,z
1/2-x,1/2+y,1/2+z
1/2+x,1/2-y,1/2+z
loop_
_atom_site_type_symbol
_atom_site_label
_atom_site_fract_x
_atom_site_fract_y
_atom_site_fract_z
Si Si1 0.916795 0.297084 0.122980
Si Si2 0.000000 0.500000 0.487120
Si Si3 0.093547 0.228882 0.687949
Si Si4 0.796144 0.476992 0.741131
Si Si5 0.397887 0.351692 0.410897
Si Si6 0.500000 0.500000 0.602760
Si Si7 0.047571 0.380669 0.874774
Si Si8 0.941807 0.672790 0.403466
O O1 0.746997 0.311521 0.151037
O O2 0.994242 0.281081 0.270404
O O3 0.926670 0.221150 0.019633
O O4 0.999805 0.366024 0.035350
O O5 0.865060 0.508343 0.593667
O O6 0.016871 0.584762 0.409565
O O7 0.039043 0.274540 0.545949
O O8 0.986481 0.167444 0.767383
O O9 0.114460 0.302249 0.799872
O O10 0.628911 0.467636 0.704782
O O11 0.896877 0.402516 0.790846
O O12 0.840640 0.546588 0.851928
O O13 0.444137 0.430397 0.497356
O O14 0.227156 0.346547 0.382663
#
# Coordination Sequence:
#
# PCOD9347187 Si02
#       8
#     4   2   4   4   4   2   4   4
#     4  10  23  37  62  88 121 157 207 248 303 371
#     4  10  18  36  64  86 110 168 200 236 300 370
#     4  10  20  37  59  85 121 153 198 250 301 357
#     4  10  19  36  66  84 121 163 197 251 301 370
#     4  10  24  39  57  91 124 155 201 264 297 367
#     4  12  22  38  62  98 118 160 218 256 310 368
#     4   9  19  40  58  88 118 159 202 245 303 369
#     4  11  21  40  60  91 121 161 203 243 312 367
#
# _framework density 19.366865000000001
#
# number of rings (size 3 to 8) (size 9 to 14) (size 15 to 20)
#    0.000    2.000    4.286    0.857    2.000    6.857 
#    0.000    1.429    0.000    0.857    0.000    0.000 
#    0.000    0.000    0.000    0.000    0.000    0.000 
#
# Total GULP energy -156056.492820 kJ/mol
# GULP energy per Si atom -5573.446172 kJ/mol
# Density = 1.932279 g / cm^3
# Si number density = 19.366865 Si / 1000 Ang^3
#
#
#
# Elastic Constant Matrix: (Units=GPa)
#
#
# Indices 1 2 3 4 5 6 
#
# 1 63.8893 16.3944 41.4960 0.0000 0.0000 0.0000
# 2 16.3944 33.5796 8.9466 0.0000 0.0000 0.0000
# 3 41.4960 8.9466 94.7482 0.0000 0.0000 0.0000
# 4 0.0000 0.0000 0.0000 6.8002 0.0000 0.0000
# 5 0.0000 0.0000 0.0000 0.0000 17.5622 0.0000
# 6 0.0000 0.0000 0.0000 0.0000 0.0000 16.4826
#
#
#
# Elastic Compliance Matrix: (Units=1/GPa)
#
#
# Indices 1 2 3 4 5 6 
#
# 1 0.024414 -0.009305 -0.009814 0.000000 0.000000 0.000000
# 2 -0.009305 0.034095 0.000856 0.000000 0.000000 0.000000
# 3 -0.009814 0.000856 0.014771 0.000000 0.000000 0.000000
# 4 0.000000 0.000000 0.000000 0.147053 0.000000 0.000000
# 5 0.000000 0.000000 0.000000 0.000000 0.056941 0.000000
# 6 0.000000 0.000000 0.000000 0.000000 0.000000 0.060670
#
#
# Mechanical properties :
#
#
# Convention : Reuss Voigt Hill
#
# Bulk Modulus (GPa) = 27.20745 36.21013 31.70879
# Shear Modulus (GPa) = 12.92921 16.52766 14.72844
#
# Velocity S-wave (km/s) = 2.58659 2.92447 2.76070
# Velocity P-wave (km/s) = 4.79578 5.49007 5.15463
#
# Compressibility (1/GPa) = 0.03675464
#
# Stress axis : x y z
#
# Youngs Moduli (GPa) = 40.96068 29.32995 67.69806
#
# Poissons Ratio (x) = 0.27291 0.66436
# Poissons Ratio (y) = 0.38113 -0.05793
# Poissons Ratio (z) = 0.40197 -0.02510
#
# Static dielectric constant tensor:
#      x y z
#    x 1.704920 0.000000 0.000000 
#    y 0.000000 1.710440 0.000000 
#    z 0.000000 0.000000 1.669480 
# 
# From -- ./inp_files/2805.got.cif
#   From: 2010.05.17/outbox.cif.g08.bks.cpg/sg34_2_cif.got.tgz:2805.got - 2010.06.03 17:23:11.
