data_PCOD9347700
_publ_section_title
;
Structure prediction by ZEFSAII (Michael W. Deem and Ramdas Pophale) SiO2 
 PCOD9347700
Probable space group: P N N 2
;
_chemical_formula_sum "Si O2"
_cell_formula_units_Z 32
_cell_length_a 10.724717
_cell_length_b 9.488978
_cell_length_c 15.492820
_cell_angle_alpha 90.000000
_cell_angle_beta 90.000000
_cell_angle_gamma 90.000000
_cell_volume 1576.651673
_symmetry_space_group_name_H-M "P N N 2"
_symmetry_group_IT_number 34
_symmetry_cell_setting 'orthorhombic'
loop_
_space_group_symop_operation_xyz
x,y,z
-x,-y,z
1/2-x,1/2+y,1/2+z
1/2+x,1/2-y,1/2+z
loop_
_atom_site_type_symbol
_atom_site_label
_atom_site_fract_x
_atom_site_fract_y
_atom_site_fract_z
Si Si1 0.343269 0.342860 0.944260
Si Si2 0.130330 0.937018 0.639465
Si Si3 0.400108 0.288572 0.473192
Si Si4 0.323251 0.598306 0.502560
Si Si5 0.384393 0.111475 0.649293
Si Si6 0.006256 0.835391 0.275374
Si Si7 0.642905 0.958236 0.352189
Si Si8 0.246470 0.163467 0.198105
O O1 0.452852 0.336770 0.874506
O O2 0.234302 0.440220 0.904596
O O3 0.377216 0.407375 0.036707
O O4 0.286378 0.188216 0.959803
O O5 0.156167 0.786776 0.682079
O O6 0.252326 0.032187 0.657243
O O7 0.000000 0.000000 0.669707
O O8 0.324855 0.433326 0.483260
O O9 0.545416 0.335038 0.471569
O O10 0.387830 0.188076 0.556535
O O11 0.353972 0.198121 0.392450
O O12 0.309314 0.620191 0.605636
O O13 0.404417 0.234247 0.720099
O O14 0.500000 0.000000 0.653481
O O15 0.867993 0.781910 0.255865
O O16 0.000000 0.000000 0.246644
O O17 0.688927 0.957654 0.253690
O O18 0.500000 0.000000 0.360595
#
# Coordination Sequence:
#
# PCOD9347700 Si02
#       8
#     4   4   4   4   4   4   4   4
#     4  11  23  41  70  99 137 178 234 284 355 415
#     4  11  25  46  69  99 143 188 229 291 354 421
#     4  11  21  38  68  96 132 179 236 276 344 415
#     4  10  22  43  65  98 136 180 229 289 341 412
#     4  12  22  41  73 102 133 184 238 285 349 425
#     4  12  23  40  72 104 132 178 239 294 346 414
#     4  12  24  40  66 101 138 180 232 288 352 419
#     4  11  24  44  68 100 138 176 236 293 343 418
#
# _framework density 20.296177
#
# number of rings (size 3 to 8) (size 9 to 14) (size 15 to 20)
#    0.000    0.750    6.250    2.250    0.000    2.000 
#    2.250    0.000    0.000    0.000    0.000    0.000 
#    0.000    0.000    0.000    0.000    0.000    0.000 
#
# Total GULP energy -178868.018459 kJ/mol
# GULP energy per Si atom -5589.625577 kJ/mol
# Density = 2.024998 g / cm^3
# Si number density = 20.296177 Si / 1000 Ang^3
#
#
#
# Elastic Constant Matrix: (Units=GPa)
#
#
# Indices 1 2 3 4 5 6 
#
# 1 89.4202 32.3323 25.2969 0.0000 0.0000 0.0000
# 2 32.3323 106.3943 28.7528 0.0000 0.0000 0.0000
# 3 25.2969 28.7528 81.5581 0.0000 0.0000 0.0000
# 4 0.0000 0.0000 0.0000 23.8934 0.0000 0.0000
# 5 0.0000 0.0000 0.0000 0.0000 29.1799 0.0000
# 6 0.0000 0.0000 0.0000 0.0000 0.0000 21.7977
#
#
#
# Elastic Compliance Matrix: (Units=1/GPa)
#
#
# Indices 1 2 3 4 5 6 
#
# 1 0.013179 -0.003206 -0.002958 0.000000 0.000000 0.000000
# 2 -0.003206 0.011169 -0.002943 0.000000 0.000000 0.000000
# 3 -0.002958 -0.002943 0.014216 0.000000 0.000000 0.000000
# 4 0.000000 0.000000 0.000000 0.041853 0.000000 0.000000
# 5 0.000000 0.000000 0.000000 0.000000 0.034270 0.000000
# 6 0.000000 0.000000 0.000000 0.000000 0.000000 0.045876
#
#
# Mechanical properties :
#
#
# Convention : Reuss Voigt Hill
#
# Bulk Modulus (GPa) = 49.13787 50.01518 49.57652
# Shear Modulus (GPa) = 26.94558 27.70689 27.32623
#
# Velocity S-wave (km/s) = 3.64760 3.69877 3.67328
# Velocity P-wave (km/s) = 6.48097 6.55266 6.51691
#
# Compressibility (1/GPa) = 0.02035090
#
# Stress axis : x y z
#
# Youngs Moduli (GPa) = 75.87854 89.53716 70.34274
#
# Poissons Ratio (x) = 0.28703 0.20804
# Poissons Ratio (y) = 0.24324 0.20702
# Poissons Ratio (z) = 0.22442 0.26352
#
# Static dielectric constant tensor:
#      x y z
#    x 1.716440 0.000000 0.000000 
#    y 0.000000 1.722050 0.000000 
#    z 0.000000 0.000000 1.714140 
# 
# From -- ./inp_files/6836.got.cif
#   From: 2010.05.17/outbox.cif.g08.bks.cpg/sg34_4_cif.got.tgz:6836.got - 2010.06.03 17:23:11.
