data_PCOD9347424
_publ_section_title
;
Structure prediction by ZEFSAII (Michael W. Deem and Ramdas Pophale) SiO2 
 PCOD9347424
Probable space group: P N N 2
;
_chemical_formula_sum "Si O2"
_cell_formula_units_Z 30
_cell_length_a 29.875065
_cell_length_b 5.235114
_cell_length_c 7.754497
_cell_angle_alpha 90.000000
_cell_angle_beta 90.000000
_cell_angle_gamma 90.000000
_cell_volume 1212.798453
_symmetry_space_group_name_H-M "P N N 2"
_symmetry_group_IT_number 34
_symmetry_cell_setting 'orthorhombic'
loop_
_space_group_symop_operation_xyz
x,y,z
-x,-y,z
1/2-x,1/2+y,1/2+z
1/2+x,1/2-y,1/2+z
loop_
_atom_site_type_symbol
_atom_site_label
_atom_site_fract_x
_atom_site_fract_y
_atom_site_fract_z
Si Si1 0.758193 0.937456 0.644710
Si Si2 0.527875 0.231629 0.385162
Si Si3 0.581065 0.790667 0.759799
Si Si4 0.070785 0.326277 0.548753
Si Si5 0.113819 0.929579 0.938155
Si Si6 0.211212 0.080227 0.027203
Si Si7 0.357449 0.460376 0.057424
Si Si8 0.000000 0.000000 0.379830
O O1 0.727491 0.189516 0.647061
O O2 0.804284 0.022062 0.549381
O O3 0.732902 0.694464 0.567622
O O4 0.772955 0.854285 0.834560
O O5 0.500000 0.500000 0.361805
O O6 0.546690 0.068939 0.216723
O O7 0.574509 0.360219 0.447014
O O8 0.500000 0.000000 0.473925
O O9 0.600314 0.794339 0.569306
O O10 0.532676 0.656417 0.757297
O O11 0.617977 0.660446 0.890948
O O12 0.569421 0.040589 0.865608
O O13 0.121450 0.243160 0.576705
O O14 0.038049 0.091169 0.512121
O O15 0.125853 0.844956 0.741917
O O16 0.158304 0.051675 0.018172
#
# Coordination Sequence:
#
# PCOD9347424 Si02
#       8
#     4   4   4   4   4   4   4   2
#     4  11  25  46  77 108 149 192 246 301 382 447
#     4  11  24  45  76 108 149 206 251 306 374 443
#     4  11  23  42  72  97 145 193 242 307 364 443
#     4  10  21  41  72 104 145 196 252 304 367 439
#     4  10  26  48  66 112 148 186 257 306 374 442
#     4  11  26  48  76 110 147 194 243 314 369 458
#     4   9  24  45  67 103 144 191 243 306 375 442
#     4  10  20  40  58 102 140 178 248 290 362 424
#
# _framework density 24.736179
#
# number of rings (size 3 to 8) (size 9 to 14) (size 15 to 20)
#    0.000    1.600    0.667    2.000   10.267    1.067 
#   12.000    0.000    0.000    0.000    0.000    0.000 
#    0.000    0.000    0.000    0.000    0.000    0.000 
#
# Total GULP energy -167351.249290 kJ/mol
# GULP energy per Si atom -5578.374976 kJ/mol
# Density = 2.467988 g / cm^3
# Si number density = 24.736179 Si / 1000 Ang^3
#
#
#
# Elastic Constant Matrix: (Units=GPa)
#
#
# Indices 1 2 3 4 5 6 
#
# 1 159.2049 40.2012 15.8045 0.0000 0.0000 0.0000
# 2 40.2012 61.9952 -8.2199 0.0000 0.0000 0.0000
# 3 15.8045 -8.2199 58.8067 0.0000 0.0000 0.0000
# 4 0.0000 0.0000 0.0000 7.8689 0.0000 0.0000
# 5 0.0000 0.0000 0.0000 0.0000 17.3588 0.0000
# 6 0.0000 0.0000 0.0000 0.0000 0.0000 9.9435
#
#
#
# Elastic Compliance Matrix: (Units=1/GPa)
#
#
# Indices 1 2 3 4 5 6 
#
# 1 0.007975 -0.005558 -0.002920 0.000000 0.000000 0.000000
# 2 -0.005558 0.020309 0.004333 0.000000 0.000000 0.000000
# 3 -0.002920 0.004333 0.018395 0.000000 0.000000 0.000000
# 4 0.000000 0.000000 0.000000 0.127082 0.000000 0.000000
# 5 0.000000 0.000000 0.000000 0.000000 0.057608 0.000000
# 6 0.000000 0.000000 0.000000 0.000000 0.000000 0.100569
#
#
# Mechanical properties :
#
#
# Convention : Reuss Voigt Hill
#
# Bulk Modulus (GPa) = 26.05039 41.73094 33.89066
# Shear Modulus (GPa) = 14.16330 22.51564 18.33947
#
# Velocity S-wave (km/s) = 2.39545 3.02028 2.72583
# Velocity P-wave (km/s) = 4.26674 5.39164 4.86183
#
# Compressibility (1/GPa) = 0.03838714
#
# Stress axis : x y z
#
# Youngs Moduli (GPa) = 125.39699 49.23893 54.36178
#
# Poissons Ratio (x) = 0.27369 0.15875
# Poissons Ratio (y) = 0.69701 -0.23553
# Poissons Ratio (z) = 0.36618 -0.21333
#
# Static dielectric constant tensor:
#      x y z
#    x 1.938100 0.000000 0.000000 
#    y 0.000000 2.108220 0.000000 
#    z 0.000000 0.000000 2.143920 
# 
# From -- ./inp_files/4147.got.cif
#   From: 2010.05.17/outbox.cif.g08.bks.cpg/sg34_3_cif.got.tgz:4147.got - 2010.06.03 17:23:11.
