data_PCOD9347828
_publ_section_title
;
Structure prediction by ZEFSAII (Michael W. Deem and Ramdas Pophale) SiO2 
 PCOD9347828
Probable space group: P N N 2
;
_chemical_formula_sum "Si O2"
_cell_formula_units_Z 20
_cell_length_a 8.982970
_cell_length_b 10.479965
_cell_length_c 9.727585
_cell_angle_alpha 90.000000
_cell_angle_beta 90.000000
_cell_angle_gamma 90.000000
_cell_volume 915.766634
_symmetry_space_group_name_H-M "P N N 2"
_symmetry_group_IT_number 34
_symmetry_cell_setting 'orthorhombic'
loop_
_space_group_symop_operation_xyz
x,y,z
-x,-y,z
1/2-x,1/2+y,1/2+z
1/2+x,1/2-y,1/2+z
loop_
_atom_site_type_symbol
_atom_site_label
_atom_site_fract_x
_atom_site_fract_y
_atom_site_fract_z
Si Si1 0.668446 0.546224 0.661290
Si Si2 0.305464 0.218413 0.169347
Si Si3 0.317911 0.210684 0.860704
Si Si4 0.906803 0.871293 0.644439
Si Si5 0.151213 0.318038 0.423002
O O1 0.500000 0.500000 0.633636
O O2 0.765848 0.425748 0.707688
O O3 0.661287 0.659335 0.773334
O O4 0.751857 0.595846 0.524725
O O5 0.477688 0.257202 0.181127
O O6 0.221478 0.308566 0.274259
O O7 0.252871 0.237847 0.011888
O O8 0.215191 0.124567 0.763730
O O9 0.478047 0.151314 0.898244
O O10 0.844371 0.820983 0.499386
O O11 0.000000 0.000000 0.630265
#
# Coordination Sequence:
#
# PCOD9347828 Si02
#       5
#     4   4   4   4   4
#     4  11  24  47  76 102 152 196 236 311 378 442
#     4  11  25  40  74 106 135 195 244 293 365 441
#     4  10  24  44  70 104 143 185 247 297 370 432
#     4  10  25  45  69 100 145 192 238 303 367 434
#     4  10  24  44  72 106 140 185 249 295 364 445
#
# _framework density 21.839628000000001
#
# number of rings (size 3 to 8) (size 9 to 14) (size 15 to 20)
#    0.000    1.600    2.000    0.000   11.200    7.200 
#    0.000    0.000    8.800    0.000    0.000    0.000 
#    0.000    0.000    0.000    0.000    0.000    0.000 
#
# Total GULP energy -111775.753932 kJ/mol
# GULP energy per Si atom -5588.787697 kJ/mol
# Density = 2.178992 g / cm^3
# Si number density = 21.839628 Si / 1000 Ang^3
#
#
#
# Elastic Constant Matrix: (Units=GPa)
#
#
# Indices 1 2 3 4 5 6 
#
# 1 64.3238 38.4151 54.2101 0.0000 0.0000 0.0000
# 2 38.4151 112.8720 25.4835 0.0000 0.0000 0.0000
# 3 54.2101 25.4835 127.6818 0.0000 0.0000 0.0000
# 4 0.0000 0.0000 0.0000 11.0710 0.0000 0.0000
# 5 0.0000 0.0000 0.0000 0.0000 35.9770 0.0000
# 6 0.0000 0.0000 0.0000 0.0000 0.0000 40.2618
#
#
#
# Elastic Compliance Matrix: (Units=1/GPa)
#
#
# Indices 1 2 3 4 5 6 
#
# 1 0.029203 -0.007477 -0.010907 0.000000 0.000000 0.000000
# 2 -0.007477 0.011192 0.000941 0.000000 0.000000 0.000000
# 3 -0.010907 0.000941 0.012275 0.000000 0.000000 0.000000
# 4 0.000000 0.000000 0.000000 0.090326 0.000000 0.000000
# 5 0.000000 0.000000 0.000000 0.000000 0.027796 0.000000
# 6 0.000000 0.000000 0.000000 0.000000 0.000000 0.024837
#
#
# Mechanical properties :
#
#
# Convention : Reuss Voigt Hill
#
# Bulk Modulus (GPa) = 56.22822 60.12168 58.17495
# Shear Modulus (GPa) = 21.14674 29.91321 25.52997
#
# Velocity S-wave (km/s) = 3.11509 3.70493 3.42274
# Velocity P-wave (km/s) = 6.22416 6.77425 6.50502
#
# Compressibility (1/GPa) = 0.01778466
#
# Stress axis : x y z
#
# Youngs Moduli (GPa) = 34.24264 89.35066 81.46707
#
# Poissons Ratio (x) = 0.66805 0.88854
# Poissons Ratio (y) = 0.25602 -0.07663
# Poissons Ratio (z) = 0.37347 -0.08405
#
# Static dielectric constant tensor:
#      x y z
#    x 1.867120 0.000000 0.000000 
#    y 0.000000 1.852740 0.000000 
#    z 0.000000 0.000000 1.790050 
# 
# From -- ./inp_files/2456.got.cif
#   From: 2010.05.17/outbox.cif.g08.bks.cpg/sg34_2_cif.got.tgz:2456.got - 2010.06.03 17:23:11.
