data_PCOD9347552
_publ_section_title
;
Structure prediction by ZEFSAII (Michael W. Deem and Ramdas Pophale) SiO2 
 PCOD9347552
Probable space group: P N N 2
;
_chemical_formula_sum "Si O2"
_cell_formula_units_Z 30
_cell_length_a 11.632144
_cell_length_b 20.854089
_cell_length_c 5.477157
_cell_angle_alpha 90.000000
_cell_angle_beta 90.000000
_cell_angle_gamma 90.000000
_cell_volume 1328.636510
_symmetry_space_group_name_H-M "P N N 2"
_symmetry_group_IT_number 34
_symmetry_cell_setting 'orthorhombic'
loop_
_space_group_symop_operation_xyz
x,y,z
-x,-y,z
1/2-x,1/2+y,1/2+z
1/2+x,1/2-y,1/2+z
loop_
_atom_site_type_symbol
_atom_site_label
_atom_site_fract_x
_atom_site_fract_y
_atom_site_fract_z
Si Si1 0.000000 0.500000 0.631211
Si Si2 0.779716 0.493928 0.958927
Si Si3 0.639001 0.202282 0.492524
Si Si4 0.263926 0.647541 0.034173
Si Si5 0.135378 0.415884 0.323354
Si Si6 0.202547 0.878014 0.198839
Si Si7 0.990216 0.788210 0.311560
Si Si8 0.833847 0.298449 0.553758
O O1 0.034221 0.432620 0.506074
O O2 0.116404 0.515777 0.772848
O O3 0.845815 0.515614 0.199966
O O4 0.714585 0.428602 0.012018
O O5 0.713338 0.557494 0.862792
O O6 0.602089 0.139220 0.638571
O O7 0.692187 0.172362 0.248736
O O8 0.546724 0.256566 0.552155
O O9 0.753076 0.236106 0.601229
O O10 0.381574 0.683185 0.955844
O O11 0.175984 0.664368 0.810251
O O12 0.219348 0.667945 0.305648
O O13 0.260932 0.399852 0.431458
O O14 0.085327 0.841665 0.250472
O O15 0.045770 0.731656 0.473171
#
# Coordination Sequence:
#
# PCOD9347552 Si02
#       8
#     2   4   4   4   4   4   4   4
#     4  10  22  38  68  96 134 176 230 290 358 394
#     4  10  23  42  66  99 136 174 243 286 343 417
#     4   9  21  40  62  99 129 175 227 279 335 419
#     4  11  26  45  70 104 138 180 242 287 340 425
#     4  10  21  39  68  94 132 180 225 290 344 419
#     4   9  21  42  65  96 138 181 228 288 347 415
#     4  10  23  43  70  99 141 182 227 283 365 406
#     4  10  25  43  67 101 141 176 226 291 343 413
#
# _framework density 22.579542
#
# number of rings (size 3 to 8) (size 9 to 14) (size 15 to 20)
#    0.000    2.133    0.000    0.400   13.067    5.867 
#    9.600    0.000    0.000    0.000    0.000    0.000 
#    0.000    0.000    0.000    0.000    0.000    0.000 
#
# Total GULP energy -167200.438347 kJ/mol
# GULP energy per Si atom -5573.347945 kJ/mol
# Density = 2.252815 g / cm^3
# Si number density = 22.579542 Si / 1000 Ang^3
#
#
#
# Elastic Constant Matrix: (Units=GPa)
#
#
# Indices 1 2 3 4 5 6 
#
# 1 84.7828 45.5825 16.5089 0.0000 0.0000 0.0000
# 2 45.5825 118.0097 18.3045 0.0000 0.0000 0.0000
# 3 16.5089 18.3045 65.8810 0.0000 0.0000 0.0000
# 4 0.0000 0.0000 0.0000 122.7292 0.0000 0.0000
# 5 0.0000 0.0000 0.0000 0.0000 18.2132 0.0000
# 6 0.0000 0.0000 0.0000 0.0000 0.0000 39.7896
#
#
#
# Elastic Compliance Matrix: (Units=1/GPa)
#
#
# Indices 1 2 3 4 5 6 
#
# 1 0.015206 -0.005520 -0.002277 0.000000 0.000000 0.000000
# 2 -0.005520 0.010860 -0.001634 0.000000 0.000000 0.000000
# 3 -0.002277 -0.001634 0.016203 0.000000 0.000000 0.000000
# 4 0.000000 0.000000 0.000000 0.008148 0.000000 0.000000
# 5 0.000000 0.000000 0.000000 0.000000 0.054905 0.000000
# 6 0.000000 0.000000 0.000000 0.000000 0.000000 0.025132
#
#
# Mechanical properties :
#
#
# Convention : Reuss Voigt Hill
#
# Bulk Modulus (GPa) = 42.72195 47.71835 45.22015
# Shear Modulus (GPa) = 31.82304 48.69825 40.26064
#
# Velocity S-wave (km/s) = 3.75824 4.64911 4.22721
# Velocity P-wave (km/s) = 6.14770 7.07095 6.62542
#
# Compressibility (1/GPa) = 0.02340717
#
# Stress axis : x y z
#
# Youngs Moduli (GPa) = 65.76298 92.08422 61.71568
#
# Poissons Ratio (x) = 0.50834 0.14050
# Poissons Ratio (y) = 0.36304 0.10084
# Poissons Ratio (z) = 0.14972 0.15046
#
# Static dielectric constant tensor:
#      x y z
#    x 1.831980 0.000000 0.000000 
#    y 0.000000 1.851620 0.000000 
#    z 0.000000 0.000000 2.005450 
# 
# From -- ./inp_files/1026.got.cif
#   From: 2010.05.17/outbox.cif.g08.bks.cpg/sg34_1_cif.got.tgz:1026.got - 2010.06.03 17:23:11.
