data_PCOD9347757
_publ_section_title
;
Structure prediction by ZEFSAII (Michael W. Deem and Ramdas Pophale) SiO2 
 PCOD9347757
Probable space group: P N N 2
;
_chemical_formula_sum "Si O2"
_cell_formula_units_Z 24
_cell_length_a 7.522884
_cell_length_b 22.129623
_cell_length_c 6.335570
_cell_angle_alpha 90.000000
_cell_angle_beta 90.000000
_cell_angle_gamma 90.000000
_cell_volume 1054.736740
_symmetry_space_group_name_H-M "P N N 2"
_symmetry_group_IT_number 34
_symmetry_cell_setting 'orthorhombic'
loop_
_space_group_symop_operation_xyz
x,y,z
-x,-y,z
1/2-x,1/2+y,1/2+z
1/2+x,1/2-y,1/2+z
loop_
_atom_site_type_symbol
_atom_site_label
_atom_site_fract_x
_atom_site_fract_y
_atom_site_fract_z
Si Si1 0.419736 0.706438 0.350710
Si Si2 0.292726 0.996300 0.043316
Si Si3 0.231119 0.375690 0.267642
Si Si4 0.092685 0.676518 0.048272
Si Si5 0.213086 0.117920 0.182059
Si Si6 0.091885 0.946071 0.429755
O O1 0.600902 0.667424 0.314808
O O2 0.277330 0.700145 0.158098
O O3 0.487173 0.772236 0.417891
O O4 0.321224 0.678842 0.555309
O O5 0.192051 0.985548 0.259199
O O6 0.500000 0.000000 0.072358
O O7 0.238572 0.066034 0.000973
O O8 0.260280 0.935590 0.912002
O O9 0.039105 0.345050 0.237488
O O10 0.268123 0.404742 0.042128
O O11 0.141636 0.627075 0.867279
O O12 0.041284 0.098841 0.314899
O O13 0.000000 0.000000 0.567943
#
# Coordination Sequence:
#
# PCOD9347757 Si02
#       6
#     4   4   4   4   4   4
#     4  12  28  48  76 105 152 200 255 312 377 443
#     4  11  24  41  70 107 146 193 243 310 377 449
#     4  12  26  45  76 106 147 195 255 305 380 450
#     4  12  29  48  75 112 149 201 256 312 371 456
#     4  11  24  47  73 106 152 190 249 312 379 442
#     4  10  23  40  70 103 146 188 236 309 379 441
#
# _framework density 22.754493
#
# number of rings (size 3 to 8) (size 9 to 14) (size 15 to 20)
#    0.000    0.667    3.333    3.000    4.667    8.667 
#    0.000    0.000    0.000    0.000    0.000    0.000 
#    0.000    0.000    0.000    0.000    0.000    0.000 
#
# Total GULP energy -133822.867231 kJ/mol
# GULP energy per Si atom -5575.952801 kJ/mol
# Density = 2.270270 g / cm^3
# Si number density = 22.754493 Si / 1000 Ang^3
#
#
#
# Elastic Constant Matrix: (Units=GPa)
#
#
# Indices 1 2 3 4 5 6 
#
# 1 185.1771 84.9307 48.8536 0.0000 0.0000 0.0000
# 2 84.9307 125.5495 41.4271 0.0000 0.0000 0.0000
# 3 48.8536 41.4271 54.1942 0.0000 0.0000 0.0000
# 4 0.0000 0.0000 0.0000 10.1758 0.0000 0.0000
# 5 0.0000 0.0000 0.0000 0.0000 25.8899 0.0000
# 6 0.0000 0.0000 0.0000 0.0000 0.0000 38.4562
#
#
#
# Elastic Compliance Matrix: (Units=1/GPa)
#
#
# Indices 1 2 3 4 5 6 
#
# 1 0.008546 -0.004332 -0.004392 0.000000 0.000000 0.000000
# 2 -0.004332 0.012847 -0.005916 0.000000 0.000000 0.000000
# 3 -0.004392 -0.005916 0.026934 0.000000 0.000000 0.000000
# 4 0.000000 0.000000 0.000000 0.098272 0.000000 0.000000
# 5 0.000000 0.000000 0.000000 0.000000 0.038625 0.000000
# 6 0.000000 0.000000 0.000000 0.000000 0.000000 0.026004
#
#
# Mechanical properties :
#
#
# Convention : Reuss Voigt Hill
#
# Bulk Modulus (GPa) = 52.50164 79.48263 65.99214
# Shear Modulus (GPa) = 20.25466 27.55167 23.90316
#
# Velocity S-wave (km/s) = 2.98676 3.48346 3.24463
# Velocity P-wave (km/s) = 5.91756 7.15442 6.56518
#
# Compressibility (1/GPa) = 0.01904702
#
# Stress axis : x y z
#
# Youngs Moduli (GPa) = 117.01774 77.83768 37.12779
#
# Poissons Ratio (x) = 0.33716 0.16308
# Poissons Ratio (y) = 0.50687 0.21965
# Poissons Ratio (z) = 0.51399 0.46048
#
# Static dielectric constant tensor:
#      x y z
#    x 1.855400 0.000000 0.000000 
#    y 0.000000 2.029440 0.000000 
#    z 0.000000 0.000000 1.843390 
# 
# From -- ./inp_files/494.got.cif
#   From: 2010.05.17/outbox.cif.g08.bks.cpg/sg34_1_cif.got.tgz:494.got - 2010.06.03 17:23:11.
