data_PCOD9347626
_publ_section_title
;
Structure prediction by ZEFSAII (Michael W. Deem and Ramdas Pophale) SiO2 
 PCOD9347626
Probable space group: P N N 2
;
_chemical_formula_sum "Si O2"
_cell_formula_units_Z 24
_cell_length_a 11.271292
_cell_length_b 6.088564
_cell_length_c 18.141990
_cell_angle_alpha 90.000000
_cell_angle_beta 90.000000
_cell_angle_gamma 90.000000
_cell_volume 1245.011892
_symmetry_space_group_name_H-M "P N N 2"
_symmetry_group_IT_number 34
_symmetry_cell_setting 'orthorhombic'
loop_
_space_group_symop_operation_xyz
x,y,z
-x,-y,z
1/2-x,1/2+y,1/2+z
1/2+x,1/2-y,1/2+z
loop_
_atom_site_type_symbol
_atom_site_label
_atom_site_fract_x
_atom_site_fract_y
_atom_site_fract_z
Si Si1 0.000000 0.500000 0.984771
Si Si2 0.379434 0.382254 0.578877
Si Si3 0.197722 0.180767 0.945514
Si Si4 0.684716 0.661728 0.316683
Si Si5 0.861307 0.044002 0.352690
Si Si6 0.271572 0.731442 0.216862
Si Si7 0.500000 0.000000 0.259629
O O1 0.902780 0.635192 0.941498
O O2 0.928294 0.322782 0.032518
O O3 0.500000 0.500000 0.608371
O O4 0.314141 0.554177 0.523437
O O5 0.294581 0.286839 0.641410
O O6 0.316844 0.310308 0.922324
O O7 0.166456 0.008340 0.882180
O O8 0.707666 0.520852 0.241999
O O9 0.573399 0.818306 0.304129
O O10 0.793367 0.813266 0.343083
O O11 0.814070 0.176613 0.281519
O O12 0.000000 0.000000 0.353716
O O13 0.396166 0.863755 0.218304
#
# Coordination Sequence:
#
# PCOD9347626 Si02
#       7
#     2   4   4   4   4   4   2
#     4  10  22  37  60  88 117 150 190 238 291 346
#     4  10  22  39  59  86 119 156 195 239 294 352
#     4  10  22  38  60  88 118 152 193 241 292 350
#     4  10  22  38  61  88 116 151 195 244 293 345
#     4  10  22  39  60  87 117 151 195 244 294 345
#     4  10  22  38  59  86 118 153 193 241 292 350
#     4  10  22  39  60  86 115 150 194 242 291 342
#
# _framework density 19.276924000000001
#
# number of rings (size 3 to 8) (size 9 to 14) (size 15 to 20)
#    0.000    2.000    0.000    2.000    0.000   29.333 
#    0.000    3.333    0.000    0.000    0.000    0.000 
#    0.000    0.000    0.000    0.000    0.000    0.000 
#
# Total GULP energy -133959.981775 kJ/mol
# GULP energy per Si atom -5581.665907 kJ/mol
# Density = 1.923305 g / cm^3
# Si number density = 19.276924 Si / 1000 Ang^3
#
#
#
# Elastic Constant Matrix: (Units=GPa)
#
#
# Indices 1 2 3 4 5 6 
#
# 1 163.6834 62.5991 48.0479 0.0000 0.0000 0.0000
# 2 62.5991 123.0665 28.8455 0.0000 0.0000 0.0000
# 3 48.0479 28.8455 65.1965 0.0000 0.0000 0.0000
# 4 0.0000 0.0000 0.0000 18.5381 0.0000 0.0000
# 5 0.0000 0.0000 0.0000 0.0000 20.8163 0.0000
# 6 0.0000 0.0000 0.0000 0.0000 0.0000 19.8347
#
#
#
# Elastic Compliance Matrix: (Units=1/GPa)
#
#
# Indices 1 2 3 4 5 6 
#
# 1 0.008867 -0.003323 -0.005064 0.000000 0.000000 0.000000
# 2 -0.003323 0.010311 -0.002113 0.000000 0.000000 0.000000
# 3 -0.005064 -0.002113 0.020005 0.000000 0.000000 0.000000
# 4 0.000000 0.000000 0.000000 0.053943 0.000000 0.000000
# 5 0.000000 0.000000 0.000000 0.000000 0.048039 0.000000
# 6 0.000000 0.000000 0.000000 0.000000 0.000000 0.050417
#
#
# Mechanical properties :
#
#
# Convention : Reuss Voigt Hill
#
# Bulk Modulus (GPa) = 54.99796 70.10349 62.55073
# Shear Modulus (GPa) = 22.86815 26.00140 24.43478
#
# Velocity S-wave (km/s) = 3.44800 3.67663 3.56415
# Velocity P-wave (km/s) = 6.66664 7.38031 7.03253
#
# Compressibility (1/GPa) = 0.01818249
#
# Stress axis : x y z
#
# Youngs Moduli (GPa) = 112.77945 96.98055 49.98658
#
# Poissons Ratio (x) = 0.32229 0.25315
# Poissons Ratio (y) = 0.37479 0.10562
# Poissons Ratio (z) = 0.57115 0.20492
#
# Static dielectric constant tensor:
#      x y z
#    x 1.658220 0.000000 0.000000 
#    y 0.000000 1.724570 0.000000 
#    z 0.000000 0.000000 1.694960 
# 
# From -- ./inp_files/7201.got.cif
#   From: 2010.05.17/outbox.cif.g08.bks.cpg/sg34_4_cif.got.tgz:7201.got - 2010.06.03 17:23:11.
