data_PCOD9347550
_publ_section_title
;
Structure prediction by ZEFSAII (Michael W. Deem and Ramdas Pophale) SiO2 
 PCOD9347550
Probable space group: P N N 2
;
_chemical_formula_sum "Si O2"
_cell_formula_units_Z 26
_cell_length_a 8.081423
_cell_length_b 24.972598
_cell_length_c 5.167644
_cell_angle_alpha 90.000000
_cell_angle_beta 90.000000
_cell_angle_gamma 90.000000
_cell_volume 1042.903567
_symmetry_space_group_name_H-M "P N N 2"
_symmetry_group_IT_number 34
_symmetry_cell_setting 'orthorhombic'
loop_
_space_group_symop_operation_xyz
x,y,z
-x,-y,z
1/2-x,1/2+y,1/2+z
1/2+x,1/2-y,1/2+z
loop_
_atom_site_type_symbol
_atom_site_label
_atom_site_fract_x
_atom_site_fract_y
_atom_site_fract_z
Si Si1 0.755145 0.011915 0.155360
Si Si2 0.000000 0.000000 0.608342
Si Si3 0.409567 0.409454 0.262403
Si Si4 0.293663 0.743250 0.875435
Si Si5 0.449352 0.699122 0.404521
Si Si6 0.941399 0.407983 0.646484
Si Si7 0.934520 0.645875 0.149572
O O1 0.857900 0.022869 0.408966
O O2 0.598091 0.050873 0.156987
O O3 0.707455 0.950030 0.152800
O O4 0.860475 0.033348 0.906982
O O5 0.070637 0.062417 0.647977
O O6 0.476612 0.360199 0.426946
O O7 0.245482 0.383731 0.138798
O O8 0.312934 0.706133 0.624875
O O9 0.109621 0.762594 0.941336
O O10 0.387706 0.796372 0.767582
O O11 0.376865 0.715353 0.124014
O O12 0.954970 0.381015 0.368975
O O13 0.976609 0.365327 0.875912
#
# Coordination Sequence:
#
# PCOD9347550 Si02
#       7
#     4   2   4   4   4   4   4
#     4  10  23  38  62  93 131 173 221 270 319 406
#     4  12  22  42  60  92 134 170 222 254 338 404
#     4  10  24  42  66  92 138 183 218 268 355 410
#     4  11  24  46  72 104 136 181 234 291 353 419
#     4  11  25  47  74 101 139 184 234 292 356 418
#     4  10  21  39  67  95 127 171 226 268 324 387
#     4  10  21  42  69  96 130 176 219 274 339 402
#
# _framework density 24.930398
#
# number of rings (size 3 to 8) (size 9 to 14) (size 15 to 20)
#    0.000    1.538    1.538    2.308    4.308    3.692 
#    8.308    0.000    0.000    0.000    0.000    0.000 
#    0.000    0.000    0.000    0.000    0.000    0.000 
#
# Total GULP energy -144958.097770 kJ/mol
# GULP energy per Si atom -5575.311453 kJ/mol
# Density = 2.487366 g / cm^3
# Si number density = 24.930398 Si / 1000 Ang^3
#
#
#
# Elastic Constant Matrix: (Units=GPa)
#
#
# Indices 1 2 3 4 5 6 
#
# 1 55.0059 35.3754 13.6305 0.0000 0.0000 0.0000
# 2 35.3754 73.3471 2.4514 0.0000 0.0000 0.0000
# 3 13.6305 2.4514 67.3106 0.0000 0.0000 0.0000
# 4 0.0000 0.0000 0.0000 32.1117 0.0000 0.0000
# 5 0.0000 0.0000 0.0000 0.0000 -236.7031 0.0000
# 6 0.0000 0.0000 0.0000 0.0000 0.0000 39.2815
#
#
#
# Elastic Compliance Matrix: (Units=1/GPa)
#
#
# Indices 1 2 3 4 5 6 
#
# 1 0.028059 -0.013359 -0.005195 0.000000 0.000000 0.000000
# 2 -0.013359 0.020011 0.001976 0.000000 0.000000 0.000000
# 3 -0.005195 0.001976 0.015837 0.000000 0.000000 0.000000
# 4 0.000000 0.000000 0.000000 0.031141 0.000000 0.000000
# 5 0.000000 0.000000 0.000000 0.000000 -0.004225 0.000000
# 6 0.000000 0.000000 0.000000 0.000000 0.000000 0.025457
#
#
# Mechanical properties :
#
#
# Convention : Reuss Voigt Hill
#
# Bulk Modulus (GPa) = 32.52025 33.17536 32.84781
# Shear Modulus (GPa) = 31.31135 -23.44821 3.93157
#
# Velocity S-wave (km/s) = 3.54778 -3.07016 1.25716
# Velocity P-wave (km/s) = 5.46398 0.87649 3.91301
#
# Compressibility (1/GPa) = 0.03075007
#
# Stress axis : x y z
#
# Youngs Moduli (GPa) = 35.63938 49.97276 63.14486
#
# Poissons Ratio (x) = 0.66759 0.32806
# Poissons Ratio (y) = 0.47611 -0.12480
# Poissons Ratio (z) = 0.18516 -0.09877
#
# Static dielectric constant tensor:
#      x y z
#    x 1.905420 0.000000 0.000000 
#    y 0.000000 2.063880 0.000000 
#    z 0.000000 0.000000 2.210000 
# 
# From -- ./inp_files/535.got.cif
#   From: 2010.05.17/outbox.cif.g08.bks.cpg/sg34_1_cif.got.tgz:535.got - 2010.06.03 17:23:11.
