data_PCOD9347648
_publ_section_title
;
Structure prediction by ZEFSAII (Michael W. Deem and Ramdas Pophale) SiO2 
 PCOD9347648
Probable space group: P N N 2
;
_chemical_formula_sum "Si O2"
_cell_formula_units_Z 32
_cell_length_a 13.509446
_cell_length_b 16.659801
_cell_length_c 6.520653
_cell_angle_alpha 90.000000
_cell_angle_beta 90.000000
_cell_angle_gamma 90.000000
_cell_volume 1467.568694
_symmetry_space_group_name_H-M "P N N 2"
_symmetry_group_IT_number 34
_symmetry_cell_setting 'orthorhombic'
loop_
_space_group_symop_operation_xyz
x,y,z
-x,-y,z
1/2-x,1/2+y,1/2+z
1/2+x,1/2-y,1/2+z
loop_
_atom_site_type_symbol
_atom_site_label
_atom_site_fract_x
_atom_site_fract_y
_atom_site_fract_z
Si Si1 0.258157 0.040614 0.077480
Si Si2 0.493799 0.809230 0.686587
Si Si3 0.608676 0.040171 0.754570
Si Si4 0.083370 0.936881 0.218976
Si Si5 0.306082 0.676791 0.276988
Si Si6 0.021651 0.823889 0.863987
Si Si7 0.636209 0.721790 0.978611
Si Si8 0.339123 0.096737 0.468155
O O1 0.181482 0.989225 0.204161
O O2 0.323876 0.092926 0.229352
O O3 0.326273 0.982823 0.947067
O O4 0.201986 0.101055 0.928789
O O5 0.401208 0.864582 0.735602
O O6 0.482602 0.730073 0.554365
O O7 0.560472 0.788014 0.883257
O O8 0.558587 0.864518 0.535450
O O9 0.500000 0.000000 0.784941
O O10 0.657054 0.992906 0.563645
O O11 0.105833 0.861771 0.366975
O O12 0.000000 0.000000 0.289228
O O13 0.055604 0.902925 0.989937
O O14 0.422323 0.680495 0.226095
O O15 0.243921 0.747860 0.393494
O O16 0.244025 0.650797 0.077353
O O17 0.110861 0.791499 0.719468
#
# Coordination Sequence:
#
# PCOD9347648 Si02
#       8
#     4   4   4   4   4   4   4   4
#     4  11  22  39  65  88 129 173 212 263 326 380
#     4   9  20  39  57  89 127 151 206 264 317 383
#     4   9  20  37  60  95 127 157 211 266 317 391
#     4  11  25  43  59  94 129 166 222 269 310 394
#     4  10  22  40  60  91 122 163 221 264 320 388
#     4  11  23  40  66  86 124 173 208 266 331 377
#     4  10  24  41  62  91 124 165 215 268 321 392
#     4   9  20  36  59  87 121 164 200 257 316 380
#
# _framework density 21.804769
#
# number of rings (size 3 to 8) (size 9 to 14) (size 15 to 20)
#    0.000    2.000    1.250    1.500    1.750    8.000 
#    0.000    0.000    0.000    0.000    0.000    0.000 
#    0.000    0.000    0.000    0.000    0.000    0.000 
#
# Total GULP energy -178471.448327 kJ/mol
# GULP energy per Si atom -5577.232760 kJ/mol
# Density = 2.175514 g / cm^3
# Si number density = 21.804769 Si / 1000 Ang^3
#
#
#
# Elastic Constant Matrix: (Units=GPa)
#
#
# Indices 1 2 3 4 5 6 
#
# 1 52.5512 6.7325 -4.2748 0.0000 0.0000 0.0000
# 2 6.7325 73.0404 -1.6837 0.0000 0.0000 0.0000
# 3 -4.2748 -1.6837 34.1625 0.0000 0.0000 0.0000
# 4 0.0000 0.0000 0.0000 4.8198 0.0000 0.0000
# 5 0.0000 0.0000 0.0000 0.0000 3.5708 0.0000
# 6 0.0000 0.0000 0.0000 0.0000 0.0000 23.4481
#
#
#
# Elastic Compliance Matrix: (Units=1/GPa)
#
#
# Indices 1 2 3 4 5 6 
#
# 1 0.019443 -0.001738 0.002347 0.000000 0.000000 0.000000
# 2 -0.001738 0.013862 0.000466 0.000000 0.000000 0.000000
# 3 0.002347 0.000466 0.029589 0.000000 0.000000 0.000000
# 4 0.000000 0.000000 0.000000 0.207478 0.000000 0.000000
# 5 0.000000 0.000000 0.000000 0.000000 0.280048 0.000000
# 6 0.000000 0.000000 0.000000 0.000000 0.000000 0.042647
#
#
# Mechanical properties :
#
#
# Convention : Reuss Voigt Hill
#
# Bulk Modulus (GPa) = 15.37444 17.92245 16.64845
# Shear Modulus (GPa) = 8.16196 16.96641 12.56418
#
# Velocity S-wave (km/s) = 1.93683 2.79248 2.40305
# Velocity P-wave (km/s) = 3.47391 4.31678 3.91808
#
# Compressibility (1/GPa) = 0.06504300
#
# Stress axis : x y z
#
# Youngs Moduli (GPa) = 51.43332 72.13971 33.79686
#
# Poissons Ratio (x) = 0.12538 -0.07933
# Poissons Ratio (y) = 0.08939 -0.01574
# Poissons Ratio (z) = -0.12072 -0.03360
#
# Static dielectric constant tensor:
#      x y z
#    x 1.961540 0.000000 0.000000 
#    y 0.000000 2.643420 0.000000 
#    z 0.000000 0.000000 1.837230 
# 
# From -- ./inp_files/1316.got.cif
#   From: 2010.05.17/outbox.cif.g08.bks.cpg/sg34_1_cif.got.tgz:1316.got - 2010.06.03 17:23:11.
