data_PCOD9347794
_publ_section_title
;
Structure prediction by ZEFSAII (Michael W. Deem and Ramdas Pophale) SiO2 
 PCOD9347794
Probable space group: P N N 2
;
_chemical_formula_sum "Si O2"
_cell_formula_units_Z 20
_cell_length_a 28.394860
_cell_length_b 5.529722
_cell_length_c 4.708695
_cell_angle_alpha 90.000000
_cell_angle_beta 90.000000
_cell_angle_gamma 90.000000
_cell_volume 739.338957
_symmetry_space_group_name_H-M "P N N 2"
_symmetry_group_IT_number 34
_symmetry_cell_setting 'orthorhombic'
loop_
_space_group_symop_operation_xyz
x,y,z
-x,-y,z
1/2-x,1/2+y,1/2+z
1/2+x,1/2-y,1/2+z
loop_
_atom_site_type_symbol
_atom_site_label
_atom_site_fract_x
_atom_site_fract_y
_atom_site_fract_z
Si Si1 0.921705 0.777888 0.053190
Si Si2 0.288851 0.713446 0.644773
Si Si3 0.358784 0.577168 0.073913
Si Si4 0.000000 0.500000 0.315394
Si Si5 0.500000 0.500000 0.181620
Si Si6 0.307981 0.219907 0.800627
O O1 0.899288 0.854612 0.348765
O O2 0.954101 0.546324 0.118855
O O3 0.877038 0.787286 0.847730
O O4 0.956157 0.964332 0.893618
O O5 0.305981 0.441740 0.574903
O O6 0.238056 0.716051 0.500129
O O7 0.308076 0.982081 0.615157
O O8 0.307428 0.683906 0.978387
O O9 0.351100 0.292190 0.007345
O O10 0.003990 0.750639 0.497281
#
# Coordination Sequence:
#
# PCOD9347794 Si02
#       6
#     4   4   4   2   2   4
#     4  12  26  56  76 123 156 205 272 326 408 484
#     4  10  23  44  71 107 150 203 254 313 390 451
#     4  10  28  44  80 115 156 203 268 330 382 486
#     4  12  28  56  86 118 160 220 260 342 420 494
#     4  12  28  56  86 118 160 220 260 342 420 494
#     4  10  23  44  71 107 150 203 254 313 390 451
#
# _framework density 27.051192
#
# number of rings (size 3 to 8) (size 9 to 14) (size 15 to 20)
#    1.200    0.000    2.000    2.400    2.800    1.600 
#    7.200    0.000    0.000    0.000    0.000    0.000 
#    0.000    0.000    0.000    0.000    0.000    0.000 
#
# Total GULP energy -111407.368237 kJ/mol
# GULP energy per Si atom -5570.368412 kJ/mol
# Density = 2.698962 g / cm^3
# Si number density = 27.051192 Si / 1000 Ang^3
#
#
#
# Elastic Constant Matrix: (Units=GPa)
#
#
# Indices 1 2 3 4 5 6 
#
# 1 120.3477 54.9768 52.4263 0.0000 0.0000 0.0000
# 2 54.9768 217.1699 72.8190 0.0000 0.0000 0.0000
# 3 52.4263 72.8190 109.1173 0.0000 0.0000 0.0000
# 4 0.0000 0.0000 0.0000 45.4287 0.0000 0.0000
# 5 0.0000 0.0000 0.0000 0.0000 -135.7608 0.0000
# 6 0.0000 0.0000 0.0000 0.0000 0.0000 48.8684
#
#
#
# Elastic Compliance Matrix: (Units=1/GPa)
#
#
# Indices 1 2 3 4 5 6 
#
# 1 0.010777 -0.001278 -0.004325 0.000000 0.000000 0.000000
# 2 -0.001278 0.006084 -0.003446 0.000000 0.000000 0.000000
# 3 -0.004325 -0.003446 0.013542 0.000000 0.000000 0.000000
# 4 0.000000 0.000000 0.000000 0.022013 0.000000 0.000000
# 5 0.000000 0.000000 0.000000 0.000000 -0.007366 0.000000
# 6 0.000000 0.000000 0.000000 0.000000 0.000000 0.020463
#
#
# Mechanical properties :
#
#
# Convention : Reuss Voigt Hill
#
# Bulk Modulus (GPa) = 81.26826 89.67545 85.47186
# Shear Modulus (GPa) = 57.00455 9.46811 33.23633
#
# Velocity S-wave (km/s) = 4.59550 1.87288 3.50901
# Velocity P-wave (km/s) = 7.63320 6.15623 6.93415
#
# Compressibility (1/GPa) = 0.01230493
#
# Stress axis : x y z
#
# Youngs Moduli (GPa) = 92.78854 164.37499 73.84395
#
# Poissons Ratio (x) = 0.21007 0.31938
# Poissons Ratio (y) = 0.11858 0.25446
# Poissons Ratio (z) = 0.40132 0.56641
#
# Static dielectric constant tensor:
#      x y z
#    x 2.297500 0.000000 0.000000 
#    y 0.000000 2.119340 0.000000 
#    z 0.000000 0.000000 2.257150 
# 
# From -- ./inp_files/1802.got.cif
#   From: 2010.05.17/outbox.cif.g08.bks.cpg/sg34_1_cif.got.tgz:1802.got - 2010.06.03 17:23:11.
