data_PCOD9347041
_publ_section_title
;
Structure prediction by ZEFSAII (Michael W. Deem and Ramdas Pophale) SiO2 
 PCOD9347041
Probable space group: P N A 21
;
_chemical_formula_sum "Si O2"
_cell_formula_units_Z 32
_cell_length_a 22.439217
_cell_length_b 6.813197
_cell_length_c 7.160995
_cell_angle_alpha 90.000000
_cell_angle_beta 90.000000
_cell_angle_gamma 90.000000
_cell_volume 1094.793009
_symmetry_space_group_name_H-M "P N A 21"
_symmetry_group_IT_number 33
_symmetry_cell_setting 'orthorhombic'
loop_
_space_group_symop_operation_xyz
x,y,z
-x,-y,1/2+z
1/2-x,1/2+y,1/2+z
1/2+x,1/2-y,z
loop_
_atom_site_type_symbol
_atom_site_label
_atom_site_fract_x
_atom_site_fract_y
_atom_site_fract_z
Si Si1 0.236635 0.893410 0.949380
Si Si2 0.114540 0.767102 0.980191
Si Si3 0.364249 0.897114 0.973137
Si Si4 0.512065 0.192785 0.480155
Si Si5 0.737532 0.536286 0.518846
Si Si6 0.980883 0.763900 0.540151
Si Si7 0.606967 0.669540 0.532887
Si Si8 0.645038 0.193076 0.050443
O O1 0.171134 0.900038 0.042930
O O2 0.298627 0.921502 0.060937
O O3 0.240700 0.987006 0.744216
O O4 0.241134 0.657754 0.916864
O O5 0.110247 0.797218 0.756480
O O6 0.047592 0.793834 0.060750
O O7 0.129804 0.537620 0.012127
O O8 0.355780 0.796617 0.773855
O O9 0.421662 0.798327 0.070587
O O10 0.384205 0.119132 0.938804
O O11 0.519010 0.250673 0.264446
O O12 0.495218 0.960136 0.478256
O O13 0.667893 0.563209 0.481269
O O14 0.786109 0.709316 0.484705
O O15 0.913355 0.806974 0.477073
O O16 0.039111 0.891655 0.488219
#
# Coordination Sequence:
#
# PCOD9347041 Si02
#       8
#     4   4   4   4   4   4   4   4
#     4   9  17  30  46  65  92 125 158 193 241 297
#     4   8  14  26  42  61  85 116 149 184 229 280
#     4   9  16  26  43  68  89 110 148 196 238 278
#     4   8  13  22  39  62  84 107 142 187 228 269
#     4   9  17  30  46  65  92 125 158 193 241 297
#     4   8  13  22  39  62  84 107 142 187 228 269
#     4   9  16  26  43  68  89 110 148 196 238 278
#     4   8  14  26  42  61  85 116 149 184 229 280
#
# _framework density 29.22927
#
# number of rings (size 3 to 8) (size 9 to 14) (size 15 to 20)
#    0.000    3.500    0.000    0.000    0.000    0.000 
#    0.000   11.250    0.000    1.500    0.000   70.000 
#    0.000    0.000    0.000    0.000    0.000    0.000 
#
# Total GULP energy -178851.547372 kJ/mol
# GULP energy per Si atom -5589.110855 kJ/mol
# Density = 2.916274 g / cm^3
# Si number density = 29.229270 Si / 1000 Ang^3
#
#
#
# Elastic Constant Matrix: (Units=GPa)
#
#
# Indices 1 2 3 4 5 6 
#
# 1 365.5663 32.5154 14.2241 0.0000 0.0000 0.0000
# 2 32.5154 57.1579 39.5823 0.0000 0.0000 0.0000
# 3 14.2241 39.5823 135.1081 0.0000 0.0000 0.0000
# 4 0.0000 0.0000 0.0000 18.1502 0.0000 0.0000
# 5 0.0000 0.0000 0.0000 0.0000 6.6271 0.0000
# 6 0.0000 0.0000 0.0000 0.0000 0.0000 60.7025
#
#
#
# Elastic Compliance Matrix: (Units=1/GPa)
#
#
# Indices 1 2 3 4 5 6 
#
# 1 0.002887 -0.001796 0.000222 0.000000 0.000000 0.000000
# 2 -0.001796 0.023066 -0.006568 0.000000 0.000000 0.000000
# 3 0.000222 -0.006568 0.009302 0.000000 0.000000 0.000000
# 4 0.000000 0.000000 0.000000 0.055096 0.000000 0.000000
# 5 0.000000 0.000000 0.000000 0.000000 0.150896 0.000000
# 6 0.000000 0.000000 0.000000 0.000000 0.000000 0.016474
#
#
# Mechanical properties :
#
#
# Convention : Reuss Voigt Hill
#
# Bulk Modulus (GPa) = 52.71364 81.16398 66.93881
# Shear Modulus (GPa) = 17.83624 48.53000 33.18312
#
# Velocity S-wave (km/s) = 2.47294 4.07913 3.37303
# Velocity P-wave (km/s) = 5.12129 7.07206 6.17420
#
# Compressibility (1/GPa) = 0.01897042
#
# Stress axis : x y z
#
# Youngs Moduli (GPa) = 346.43071 43.35425 107.49888
#
# Poissons Ratio (x) = 0.07786 -0.02389
# Poissons Ratio (y) = 0.62220 0.70610
# Poissons Ratio (z) = -0.07700 0.28477
#
# Static dielectric constant tensor:
#      x y z
#    x 2.448220 0.000000 0.000000 
#    y 0.000000 2.377900 0.000000 
#    z 0.000000 0.000000 2.057490 
# 
# From -- ./inp_files/7277.got.cif
#   From: 2010.05.17/outbox.cif.g08.bks.cpg/sg33_4_cif.got.tgz:7277.got - 2010.06.03 17:15:25.
