data_PCOD9347128
_publ_section_title
;
Structure prediction by ZEFSAII (Michael W. Deem and Ramdas Pophale) SiO2 
 PCOD9347128
Probable space group: P N N 2
;
_chemical_formula_sum "Si O2"
_cell_formula_units_Z 30
_cell_length_a 7.047379
_cell_length_b 12.279517
_cell_length_c 14.737282
_cell_angle_alpha 90.000000
_cell_angle_beta 90.000000
_cell_angle_gamma 90.000000
_cell_volume 1275.340955
_symmetry_space_group_name_H-M "P N N 2"
_symmetry_group_IT_number 34
_symmetry_cell_setting 'orthorhombic'
loop_
_space_group_symop_operation_xyz
x,y,z
-x,-y,z
1/2-x,1/2+y,1/2+z
1/2+x,1/2-y,1/2+z
loop_
_atom_site_type_symbol
_atom_site_label
_atom_site_fract_x
_atom_site_fract_y
_atom_site_fract_z
Si Si1 0.280177 0.463080 0.413000
Si Si2 0.227549 0.643679 0.275423
Si Si3 0.000000 0.500000 0.566120
Si Si4 0.345025 0.338123 0.890694
Si Si5 0.630108 0.763235 0.084842
Si Si6 0.839691 0.223091 0.779354
Si Si7 0.772718 0.427938 0.895114
Si Si8 0.819982 0.913098 0.587942
O O1 0.500000 0.500000 0.425940
O O2 0.189901 0.561387 0.356467
O O3 0.247083 0.355742 0.353257
O O4 0.170449 0.451650 0.505815
O O5 0.142855 0.758381 0.305012
O O6 0.452466 0.669431 0.274297
O O7 0.199987 0.585581 0.179922
O O8 0.904851 0.390716 0.605301
O O9 0.552562 0.389204 0.900749
O O10 0.215923 0.444253 0.872540
O O11 0.291753 0.272530 0.984582
O O12 0.736634 0.721778 0.176124
O O13 0.426960 0.702824 0.085066
O O14 0.854214 0.342010 0.824032
O O15 0.817209 0.421833 0.001902
O O16 0.000000 0.000000 0.587891
#
# Coordination Sequence:
#
# PCOD9347128 Si02
#       8
#     4   4   2   4   4   4   4   4
#     4  10  21  37  62  93 125 156 207 260 312 365
#     4  10  20  34  60  87 117 152 199 255 309 356
#     4  12  22  38  70  88 122 172 206 252 324 368
#     4  10  19  37  59  83 116 157 197 249 299 368
#     4  10  20  36  59  88 118 162 205 243 303 378
#     4  10  22  37  58  87 123 156 200 254 300 370
#     4  10  20  36  62  84 115 154 206 247 299 363
#     4  10  17  35  62  88 108 157 208 242 293 372
#
# _framework density 23.523123999999999
#
# number of rings (size 3 to 8) (size 9 to 14) (size 15 to 20)
#    0.000    1.867    4.000    3.600    0.000    2.667 
#    0.000    1.333    8.800    0.000    0.000    0.000 
#    0.000    0.000    0.000    0.000    0.000    0.000 
#
# Total GULP energy -167264.999406 kJ/mol
# GULP energy per Si atom -5575.499980 kJ/mol
# Density = 2.346958 g / cm^3
# Si number density = 23.523124 Si / 1000 Ang^3
#
#
#
# Elastic Constant Matrix: (Units=GPa)
#
#
# Indices 1 2 3 4 5 6 
#
# 1 25.0688 1.6848 11.7644 0.0000 0.0000 0.0000
# 2 1.6848 121.2114 19.5198 0.0000 0.0000 0.0000
# 3 11.7644 19.5198 77.0985 0.0000 0.0000 0.0000
# 4 0.0000 0.0000 0.0000 37.1831 0.0000 0.0000
# 5 0.0000 0.0000 0.0000 0.0000 4.9133 0.0000
# 6 0.0000 0.0000 0.0000 0.0000 0.0000 37.2277
#
#
#
# Elastic Compliance Matrix: (Units=1/GPa)
#
#
# Indices 1 2 3 4 5 6 
#
# 1 0.042994 0.000478 -0.006681 0.000000 0.000000 0.000000
# 2 0.000478 0.008606 -0.002252 0.000000 0.000000 0.000000
# 3 -0.006681 -0.002252 0.014560 0.000000 0.000000 0.000000
# 4 0.000000 0.000000 0.000000 0.026894 0.000000 0.000000
# 5 0.000000 0.000000 0.000000 0.000000 0.203529 0.000000
# 6 0.000000 0.000000 0.000000 0.000000 0.000000 0.026862
#
#
# Mechanical properties :
#
#
# Convention : Reuss Voigt Hill
#
# Bulk Modulus (GPa) = 20.30466 32.14630 26.22548
# Shear Modulus (GPa) = 14.01461 28.55880 21.28670
#
# Velocity S-wave (km/s) = 2.44351 3.48814 3.01146
# Velocity P-wave (km/s) = 4.07572 5.46976 4.82337
#
# Compressibility (1/GPa) = 0.04924978
#
# Stress axis : x y z
#
# Youngs Moduli (GPa) = 23.25926 116.19740 68.68092
#
# Poissons Ratio (x) = -0.05559 0.45889
# Poissons Ratio (y) = -0.01113 0.15466
# Poissons Ratio (z) = 0.15541 0.26166
#
# Static dielectric constant tensor:
#      x y z
#    x 2.022340 0.000000 0.000000 
#    y 0.000000 1.934070 0.000000 
#    z 0.000000 0.000000 1.964390 
# 
# From -- ./inp_files/6524.got.cif
#   From: 2010.05.17/outbox.cif.g08.bks.cpg/sg34_4_cif.got.tgz:6524.got - 2010.06.03 17:23:11.
