data_PCOD9347341
_publ_section_title
;
Structure prediction by ZEFSAII (Michael W. Deem and Ramdas Pophale) SiO2 
 PCOD9347341
Probable space group: P N N 2
;
_chemical_formula_sum "Si O2"
_cell_formula_units_Z 24
_cell_length_a 16.252370
_cell_length_b 7.846606
_cell_length_c 9.363920
_cell_angle_alpha 90.000000
_cell_angle_beta 90.000000
_cell_angle_gamma 90.000000
_cell_volume 1194.142737
_symmetry_space_group_name_H-M "P N N 2"
_symmetry_group_IT_number 34
_symmetry_cell_setting 'orthorhombic'
loop_
_space_group_symop_operation_xyz
x,y,z
-x,-y,z
1/2-x,1/2+y,1/2+z
1/2+x,1/2-y,1/2+z
loop_
_atom_site_type_symbol
_atom_site_label
_atom_site_fract_x
_atom_site_fract_y
_atom_site_fract_z
Si Si1 0.518315 0.702468 0.634790
Si Si2 0.133026 0.270696 0.963359
Si Si3 0.822546 0.120557 0.984234
Si Si4 0.725594 0.077175 0.723560
Si Si5 0.323103 0.771316 0.154102
Si Si6 0.436903 0.861528 0.907105
O O1 0.500000 0.500000 0.631847
O O2 0.455530 0.800353 0.531599
O O3 0.608791 0.726406 0.569214
O O4 0.493353 0.760917 0.793100
O O5 0.143793 0.337188 0.804481
O O6 0.141914 0.066104 0.955113
O O7 0.200310 0.335422 0.075926
O O8 0.785558 0.181008 0.832315
O O9 0.744789 0.104037 0.088074
O O10 0.639974 0.060903 0.814347
O O11 0.772975 0.903279 0.684500
O O12 0.393991 0.755969 0.034294
O O13 0.500000 0.000000 0.968813
#
# Coordination Sequence:
#
# PCOD9347341 Si02
#       6
#     4   4   4   4   4   4
#     4   9  18  35  56  77 106 142 178 218 272 326
#     4   9  19  35  54  79 108 138 177 224 271 320
#     4   9  18  34  55  78 104 140 179 221 266 319
#     4   9  19  35  56  78 106 142 180 221 267 322
#     4  10  20  35  54  79 108 139 181 225 267 320
#     4  10  20  36  54  79 111 143 179 223 272 321
#
# _framework density 20.098099999999999
#
# number of rings (size 3 to 8) (size 9 to 14) (size 15 to 20)
#    0.000    2.667    0.000    1.000    0.000    5.333 
#    0.000   15.833    0.000    0.000    0.000    0.000 
#    0.000    0.000    0.000    0.000    0.000    0.000 
#
# Total GULP energy -133629.216909 kJ/mol
# GULP energy per Si atom -5567.884038 kJ/mol
# Density = 2.005236 g / cm^3
# Si number density = 20.098100 Si / 1000 Ang^3
#
#
#
# Elastic Constant Matrix: (Units=GPa)
#
#
# Indices 1 2 3 4 5 6 
#
# 1 99.1685 15.4203 58.9745 0.0000 0.0000 0.0000
# 2 15.4203 21.0537 10.4893 0.0000 0.0000 0.0000
# 3 58.9745 10.4893 147.9184 0.0000 0.0000 0.0000
# 4 0.0000 0.0000 0.0000 21.7904 0.0000 0.0000
# 5 0.0000 0.0000 0.0000 0.0000 23.4835 0.0000
# 6 0.0000 0.0000 0.0000 0.0000 0.0000 25.3187
#
#
#
# Elastic Compliance Matrix: (Units=1/GPa)
#
#
# Indices 1 2 3 4 5 6 
#
# 1 0.014402 -0.007969 -0.005177 0.000000 0.000000 0.000000
# 2 -0.007969 0.053647 -0.000627 0.000000 0.000000 0.000000
# 3 -0.005177 -0.000627 0.008869 0.000000 0.000000 0.000000
# 4 0.000000 0.000000 0.000000 0.045892 0.000000 0.000000
# 5 0.000000 0.000000 0.000000 0.000000 0.042583 0.000000
# 6 0.000000 0.000000 0.000000 0.000000 0.000000 0.039496
#
#
# Mechanical properties :
#
#
# Convention : Reuss Voigt Hill
#
# Bulk Modulus (GPa) = 20.25455 48.65650 34.45553
# Shear Modulus (GPa) = 20.08911 26.33562 23.21237
#
# Velocity S-wave (km/s) = 3.16500 3.62381 3.40215
# Velocity P-wave (km/s) = 4.84314 6.46308 5.71084
#
# Compressibility (1/GPa) = 0.04937162
#
# Stress axis : x y z
#
# Youngs Moduli (GPa) = 69.43706 18.64052 112.75363
#
# Poissons Ratio (x) = 0.14854 0.58370
# Poissons Ratio (y) = 0.55334 0.07070
# Poissons Ratio (z) = 0.35946 0.01169
#
# Static dielectric constant tensor:
#      x y z
#    x 1.737050 0.000000 0.000000 
#    y 0.000000 1.727240 0.000000 
#    z 0.000000 0.000000 1.724520 
# 
# From -- ./inp_files/2601.got.cif
#   From: 2010.05.17/outbox.cif.g08.bks.cpg/sg34_2_cif.got.tgz:2601.got - 2010.06.03 17:23:11.
