data_PCOD9347825
_publ_section_title
;
Structure prediction by ZEFSAII (Michael W. Deem and Ramdas Pophale) SiO2 
 PCOD9347825
Probable space group: P N N 2
;
_chemical_formula_sum "Si O2"
_cell_formula_units_Z 30
_cell_length_a 19.816624
_cell_length_b 13.424569
_cell_length_c 4.678323
_cell_angle_alpha 90.000000
_cell_angle_beta 90.000000
_cell_angle_gamma 90.000000
_cell_volume 1244.572566
_symmetry_space_group_name_H-M "P N N 2"
_symmetry_group_IT_number 34
_symmetry_cell_setting 'orthorhombic'
loop_
_space_group_symop_operation_xyz
x,y,z
-x,-y,z
1/2-x,1/2+y,1/2+z
1/2+x,1/2-y,1/2+z
loop_
_atom_site_type_symbol
_atom_site_label
_atom_site_fract_x
_atom_site_fract_y
_atom_site_fract_z
Si Si1 0.405222 0.642953 0.212580
Si Si2 0.686965 0.317392 0.688907
Si Si3 0.598535 0.583169 0.352649
Si Si4 0.208775 0.517553 0.757251
Si Si5 0.539648 0.690152 0.863139
Si Si6 0.500000 0.000000 0.592922
Si Si7 0.067921 0.593809 0.594362
Si Si8 0.248255 0.391631 0.299896
O O1 0.376110 0.703809 0.479941
O O2 0.417037 0.533589 0.349317
O O3 0.343414 0.648831 0.991173
O O4 0.468266 0.673248 0.017579
O O5 0.736172 0.409140 0.613486
O O6 0.731445 0.218815 0.701845
O O7 0.548932 0.652321 0.540715
O O8 0.676109 0.603128 0.422796
O O9 0.590254 0.616409 0.026674
O O10 0.138288 0.575605 0.753590
O O11 0.199460 0.421789 0.557033
O O12 0.234844 0.472487 0.053073
O O13 0.512439 0.914071 0.353085
O O14 0.561680 0.801746 0.933390
O O15 0.558449 0.986228 0.833037
#
# Coordination Sequence:
#
# PCOD9347825 Si02
#       8
#     4   4   4   4   4   2   4   4
#     4  12  26  46  70 104 152 189 241 315 368 439
#     4  12  25  46  71 105 148 189 244 309 370 452
#     4  12  24  48  70 105 144 190 250 308 371 451
#     4  12  24  46  70 105 144 189 245 308 370 439
#     4  12  27  44  75 104 142 198 252 299 378 447
#     4  10  24  44  68  98 148 190 236 312 368 410
#     4  11  25  45  72 105 146 196 249 310 361 462
#     4  12  26  44  77 106 144 196 243 305 380 439
#
# _framework density 24.104662000000001
#
# number of rings (size 3 to 8) (size 9 to 14) (size 15 to 20)
#    0.000    0.267    2.667    6.000    0.000    9.600 
#    0.000    0.000    0.000    0.000    0.000    0.000 
#    0.000    0.000    0.000    0.000    0.000    0.000 
#
# Total GULP energy -167538.095498 kJ/mol
# GULP energy per Si atom -5584.603183 kJ/mol
# Density = 2.404980 g / cm^3
# Si number density = 24.104662 Si / 1000 Ang^3
#
#
#
# Elastic Constant Matrix: (Units=GPa)
#
#
# Indices 1 2 3 4 5 6 
#
# 1 84.6340 38.7404 24.6821 0.0000 0.0000 0.0000
# 2 38.7404 63.6990 13.3340 0.0000 0.0000 0.0000
# 3 24.6821 13.3340 119.2762 0.0000 0.0000 0.0000
# 4 0.0000 0.0000 0.0000 44.5241 0.0000 0.0000
# 5 0.0000 0.0000 0.0000 0.0000 69.0232 0.0000
# 6 0.0000 0.0000 0.0000 0.0000 0.0000 30.4309
#
#
#
# Elastic Compliance Matrix: (Units=1/GPa)
#
#
# Indices 1 2 3 4 5 6 
#
# 1 0.017031 -0.009851 -0.002423 0.000000 0.000000 0.000000
# 2 -0.009851 0.021773 -0.000396 0.000000 0.000000 0.000000
# 3 -0.002423 -0.000396 0.008930 0.000000 0.000000 0.000000
# 4 0.000000 0.000000 0.000000 0.022460 0.000000 0.000000
# 5 0.000000 0.000000 0.000000 0.000000 0.014488 0.000000
# 6 0.000000 0.000000 0.000000 0.000000 0.000000 0.032861
#
#
# Mechanical properties :
#
#
# Convention : Reuss Voigt Hill
#
# Bulk Modulus (GPa) = 44.65363 46.79136 45.72250
# Shear Modulus (GPa) = 33.25647 41.51916 37.38781
#
# Velocity S-wave (km/s) = 3.71842 4.15475 3.94262
# Velocity P-wave (km/s) = 6.08282 6.51689 6.30359
#
# Compressibility (1/GPa) = 0.02239460
#
# Stress axis : x y z
#
# Youngs Moduli (GPa) = 58.71502 45.92896 111.98786
#
# Poissons Ratio (x) = 0.45244 0.27136
# Poissons Ratio (y) = 0.57840 0.04429
# Poissons Ratio (z) = 0.14227 0.01817
#
# Static dielectric constant tensor:
#      x y z
#    x 1.636500 0.000000 0.000000 
#    y 0.000000 1.875030 0.000000 
#    z 0.000000 0.000000 1.914380 
# 
# From -- ./inp_files/1611.got.cif
#   From: 2010.05.17/outbox.cif.g08.bks.cpg/sg34_1_cif.got.tgz:1611.got - 2010.06.03 17:23:11.
