data_PCOD9347785
_publ_section_title
;
Structure prediction by ZEFSAII (Michael W. Deem and Ramdas Pophale) SiO2 
 PCOD9347785
Probable space group: P N N 2
;
_chemical_formula_sum "Si O2"
_cell_formula_units_Z 26
_cell_length_a 12.854698
_cell_length_b 16.885430
_cell_length_c 5.133207
_cell_angle_alpha 90.000000
_cell_angle_beta 90.000000
_cell_angle_gamma 90.000000
_cell_volume 1114.199042
_symmetry_space_group_name_H-M "P N N 2"
_symmetry_group_IT_number 34
_symmetry_cell_setting 'orthorhombic'
loop_
_space_group_symop_operation_xyz
x,y,z
-x,-y,z
1/2-x,1/2+y,1/2+z
1/2+x,1/2-y,1/2+z
loop_
_atom_site_type_symbol
_atom_site_label
_atom_site_fract_x
_atom_site_fract_y
_atom_site_fract_z
Si Si1 0.000000 0.000000 0.182081
Si Si2 0.184241 0.704618 0.937893
Si Si3 0.521938 0.873972 0.841705
Si Si4 0.163420 0.479689 0.361666
Si Si5 0.226630 0.034858 0.343244
Si Si6 0.917418 0.770625 0.481884
Si Si7 0.481203 0.335111 0.446621
O O1 0.897557 0.969637 0.329994
O O2 0.039830 0.924898 0.019695
O O3 0.103579 0.666089 0.144529
O O4 0.228443 0.624786 0.790543
O O5 0.295341 0.742111 0.011227
O O6 0.118561 0.782971 0.861870
O O7 0.409884 0.909020 0.754057
O O8 0.484525 0.808318 0.045423
O O9 0.583889 0.949698 0.936242
O O10 0.228062 0.474102 0.627088
O O11 0.234373 0.509321 0.126378
O O12 0.944852 0.833946 0.698712
O O13 0.958360 0.795632 0.194992
#
# Coordination Sequence:
#
# PCOD9347785 Si02
#       7
#     2   4   4   4   4   4   4
#     4  12  28  48  70 114 144 194 240 308 368 448
#     4  10  23  48  70 101 142 195 231 297 352 433
#     4   9  22  42  71 104 139 180 244 288 353 426
#     4  10  23  43  70 105 136 185 232 300 352 425
#     4  11  25  43  72  98 148 183 234 292 365 423
#     4  11  24  45  69 100 141 186 237 294 352 431
#     4  11  27  45  71 102 140 190 242 293 358 432
#
# _framework density 23.335148
#
# number of rings (size 3 to 8) (size 9 to 14) (size 15 to 20)
#    0.000    1.538    1.538    0.923    6.462   12.308 
#    0.000    0.000    0.000    0.000    0.000    0.000 
#    0.000    0.000    0.000    0.000    0.000    0.000 
#
# Total GULP energy -144819.525859 kJ/mol
# GULP energy per Si atom -5569.981764 kJ/mol
# Density = 2.328204 g / cm^3
# Si number density = 23.335148 Si / 1000 Ang^3
#
#
#
# Elastic Constant Matrix: (Units=GPa)
#
#
# Indices 1 2 3 4 5 6 
#
# 1 170.8539 66.7879 48.1629 0.0000 0.0000 0.0000
# 2 66.7879 96.2573 18.8596 0.0000 0.0000 0.0000
# 3 48.1629 18.8596 80.7685 0.0000 0.0000 0.0000
# 4 0.0000 0.0000 0.0000 25.5227 0.0000 0.0000
# 5 0.0000 0.0000 0.0000 0.0000 -35.0897 0.0000
# 6 0.0000 0.0000 0.0000 0.0000 0.0000 6.0640
#
#
#
# Elastic Compliance Matrix: (Units=1/GPa)
#
#
# Indices 1 2 3 4 5 6 
#
# 1 0.009212 -0.005571 -0.004193 0.000000 0.000000 0.000000
# 2 -0.005571 0.014255 -0.000007 0.000000 0.000000 0.000000
# 3 -0.004193 -0.000007 0.014883 0.000000 0.000000 0.000000
# 4 0.000000 0.000000 0.000000 0.039181 0.000000 0.000000
# 5 0.000000 0.000000 0.000000 0.000000 -0.028498 0.000000
# 6 0.000000 0.000000 0.000000 0.000000 0.000000 0.164907
#
#
# Mechanical properties :
#
#
# Convention : Reuss Voigt Hill
#
# Bulk Modulus (GPa) = 53.16248 68.38895 60.77572
# Shear Modulus (GPa) = 20.85500 13.57070 17.21285
#
# Velocity S-wave (km/s) = 2.99275 2.41416 2.71889
# Velocity P-wave (km/s) = 5.89692 6.09441 5.99648
#
# Compressibility (1/GPa) = 0.01881026
#
# Stress axis : x y z
#
# Youngs Moduli (GPa) = 108.54916 70.14949 67.19161
#
# Poissons Ratio (x) = 0.39077 0.28171
# Poissons Ratio (y) = 0.60468 0.00046
# Poissons Ratio (z) = 0.45511 0.00048
#
# Static dielectric constant tensor:
#      x y z
#    x 2.354520 0.000000 0.000000 
#    y 0.000000 1.959080 0.000000 
#    z 0.000000 0.000000 1.848590 
# 
# From -- ./inp_files/937.got.cif
#   From: 2010.05.17/outbox.cif.g08.bks.cpg/sg34_1_cif.got.tgz:937.got - 2010.06.03 17:23:11.
