data_PCOD9347511
_publ_section_title
;
Structure prediction by ZEFSAII (Michael W. Deem and Ramdas Pophale) SiO2 
 PCOD9347511
Probable space group: P N N 2
;
_chemical_formula_sum "Si O2"
_cell_formula_units_Z 30
_cell_length_a 7.913156
_cell_length_b 30.211355
_cell_length_c 5.040467
_cell_angle_alpha 90.000000
_cell_angle_beta 90.000000
_cell_angle_gamma 90.000000
_cell_volume 1205.010156
_symmetry_space_group_name_H-M "P N N 2"
_symmetry_group_IT_number 34
_symmetry_cell_setting 'orthorhombic'
loop_
_space_group_symop_operation_xyz
x,y,z
-x,-y,z
1/2-x,1/2+y,1/2+z
1/2+x,1/2-y,1/2+z
loop_
_atom_site_type_symbol
_atom_site_label
_atom_site_fract_x
_atom_site_fract_y
_atom_site_fract_z
Si Si1 0.209144 0.740492 0.093510
Si Si2 0.493153 0.205382 0.087971
Si Si3 0.500000 0.500000 0.083317
Si Si4 0.186282 0.911912 0.553159
Si Si5 0.716878 0.963985 0.979584
Si Si6 0.851493 0.557895 0.577402
Si Si7 0.751030 0.369066 0.496742
Si Si8 0.578778 0.340562 0.991940
O O1 0.305720 0.787015 0.069877
O O2 0.105768 0.732049 0.358354
O O3 0.372406 0.707746 0.094530
O O4 0.086620 0.723354 0.861807
O O5 0.430451 0.154775 0.042417
O O6 0.434153 0.453334 0.961640
O O7 0.657703 0.481883 0.257331
O O8 0.342760 0.915425 0.350181
O O9 0.097707 0.864631 0.528464
O O10 0.227176 0.921602 0.859423
O O11 0.526441 0.948326 0.917025
O O12 0.780239 0.918428 0.100287
O O13 0.693435 0.007172 0.156618
O O14 0.703934 0.368598 0.187063
O O15 0.626162 0.340842 0.682439
#
# Coordination Sequence:
#
# PCOD9347511 Si02
#       8
#     4   4   2   4   4   4   4   4
#     4  10  21  40  63  90 122 155 194 244 297 355
#     4  10  21  40  63  91 118 159 191 244 299 354
#     4  10  22  36  72  80 114 158 220 228 292 352
#     4  11  22  40  57  91 112 160 198 241 292 348
#     4  10  22  42  57  90 115 160 196 252 288 355
#     4  10  25  38  58  81 131 150 191 249 310 329
#     4  10  21  37  62  85 118 152 199 242 287 345
#     4  10  21  37  60  88 118 150 199 249 281 343
#
# _framework density 24.896053999999999
#
# number of rings (size 3 to 8) (size 9 to 14) (size 15 to 20)
#    0.000    1.867    1.333    1.600    3.733    5.867 
#    4.800    0.000    0.000    0.000    0.000    0.000 
#    0.000    0.000    0.000    0.000    0.000    0.000 
#
# Total GULP energy -167312.451487 kJ/mol
# GULP energy per Si atom -5577.081716 kJ/mol
# Density = 2.483939 g / cm^3
# Si number density = 24.896054 Si / 1000 Ang^3
#
#
#
# Elastic Constant Matrix: (Units=GPa)
#
#
# Indices 1 2 3 4 5 6 
#
# 1 27.4030 16.7704 7.3151 0.0000 0.0000 0.0000
# 2 16.7704 23.0387 12.7901 0.0000 0.0000 0.0000
# 3 7.3151 12.7901 96.1398 0.0000 0.0000 0.0000
# 4 0.0000 0.0000 0.0000 25.8557 0.0000 0.0000
# 5 0.0000 0.0000 0.0000 0.0000 9.1018 0.0000
# 6 0.0000 0.0000 0.0000 0.0000 0.0000 33.5039
#
#
#
# Elastic Compliance Matrix: (Units=1/GPa)
#
#
# Indices 1 2 3 4 5 6 
#
# 1 0.066003 -0.048866 0.001479 0.000000 0.000000 0.000000
# 2 -0.048866 0.083045 -0.007330 0.000000 0.000000 0.000000
# 3 0.001479 -0.007330 0.011264 0.000000 0.000000 0.000000
# 4 0.000000 0.000000 0.000000 0.038676 0.000000 0.000000
# 5 0.000000 0.000000 0.000000 0.000000 0.109869 0.000000
# 6 0.000000 0.000000 0.000000 0.000000 0.000000 0.029847
#
#
# Mechanical properties :
#
#
# Convention : Reuss Voigt Hill
#
# Bulk Modulus (GPa) = 19.65479 24.48141 22.06810
# Shear Modulus (GPa) = 10.75039 21.00602 15.87820
#
# Velocity S-wave (km/s) = 2.08026 2.90789 2.52817
# Velocity P-wave (km/s) = 3.69890 4.59665 4.17199
#
# Compressibility (1/GPa) = 0.05087817
#
# Stress axis : x y z
#
# Youngs Moduli (GPa) = 15.15074 12.04160 88.77739
#
# Poissons Ratio (x) = 0.58843 -0.13130
# Poissons Ratio (y) = 0.74036 0.65073
# Poissons Ratio (z) = -0.02241 0.08826
#
# Static dielectric constant tensor:
#      x y z
#    x 2.094940 0.000000 0.000000 
#    y 0.000000 2.023430 0.000000 
#    z 0.000000 0.000000 1.881140 
# 
# From -- ./inp_files/642.got.cif
#   From: 2010.05.17/outbox.cif.g08.bks.cpg/sg34_1_cif.got.tgz:642.got - 2010.06.03 17:23:11.
