data_PCOD9347288
_publ_section_title
;
Structure prediction by ZEFSAII (Michael W. Deem and Ramdas Pophale) SiO2 
 PCOD9347288
Probable space group: P N N 2
;
_chemical_formula_sum "Si O2"
_cell_formula_units_Z 24
_cell_length_a 8.824677
_cell_length_b 8.818313
_cell_length_c 15.351508
_cell_angle_alpha 90.000000
_cell_angle_beta 90.000000
_cell_angle_gamma 90.000000
_cell_volume 1194.635377
_symmetry_space_group_name_H-M "P N N 2"
_symmetry_group_IT_number 34
_symmetry_cell_setting 'orthorhombic'
loop_
_space_group_symop_operation_xyz
x,y,z
-x,-y,z
1/2-x,1/2+y,1/2+z
1/2+x,1/2-y,1/2+z
loop_
_atom_site_type_symbol
_atom_site_label
_atom_site_fract_x
_atom_site_fract_y
_atom_site_fract_z
Si Si1 0.168560 0.283035 0.250000
Si Si2 0.500000 0.500000 0.752804
Si Si3 0.758720 0.129834 0.117172
Si Si4 0.026203 0.822437 0.664116
Si Si5 0.000000 0.500000 0.367247
Si Si6 0.524075 0.176688 0.555139
Si Si7 0.317031 0.170874 0.008146
O O1 0.085182 0.140972 0.295726
O O2 0.346035 0.264428 0.231404
O O3 0.092661 0.307081 0.153962
O O4 0.128288 0.427617 0.306734
O O5 0.630746 0.565701 0.690728
O O6 0.627116 0.226577 0.161888
O O7 0.864336 0.235970 0.056941
O O8 0.698417 0.985895 0.063324
O O9 0.096809 0.791608 0.568599
O O10 0.000000 0.000000 0.678134
O O11 0.916776 0.375078 0.426194
O O12 0.648647 0.261372 0.495625
O O13 0.500000 0.000000 0.535775
#
# Coordination Sequence:
#
# PCOD9347288 Si02
#       7
#     4   2   4   4   2   4   4
#     4  10  22  39  60  93 124 171 214 269 333 383
#     4  10  20  36  68  88 120 168 218 268 314 390
#     4  11  17  35  65  94 121 155 222 274 304 382
#     4  11  22  36  64  99 124 161 226 275 308 391
#     4  12  24  42  60  88 140 172 214 278 350 394
#     4  10  19  37  66  96 121 160 229 266 311 388
#     4  11  21  38  61  95 123 174 213 263 335 392
#
# _framework density 20.089812999999999
#
# number of rings (size 3 to 8) (size 9 to 14) (size 15 to 20)
#    0.000    1.333    7.500    2.000    2.333    0.000 
#    1.500    1.667    0.000    0.000    0.000    0.000 
#    0.000    0.000    0.000    0.000    0.000    0.000 
#
# Total GULP energy -133923.329081 kJ/mol
# GULP energy per Si atom -5580.138712 kJ/mol
# Density = 2.004409 g / cm^3
# Si number density = 20.089813 Si / 1000 Ang^3
#
#
#
# Elastic Constant Matrix: (Units=GPa)
#
#
# Indices 1 2 3 4 5 6 
#
# 1 140.5299 41.9373 22.2632 0.0000 0.0000 0.0000
# 2 41.9373 103.6690 3.2303 0.0000 0.0000 0.0000
# 3 22.2632 3.2303 25.5345 0.0000 0.0000 0.0000
# 4 0.0000 0.0000 0.0000 8.7946 0.0000 0.0000
# 5 0.0000 0.0000 0.0000 0.0000 4.8636 0.0000
# 6 0.0000 0.0000 0.0000 0.0000 0.0000 43.4136
#
#
#
# Elastic Compliance Matrix: (Units=1/GPa)
#
#
# Indices 1 2 3 4 5 6 
#
# 1 0.009408 -0.003564 -0.007751 0.000000 0.000000 0.000000
# 2 -0.003564 0.011035 0.001712 0.000000 0.000000 0.000000
# 3 -0.007751 0.001712 0.045705 0.000000 0.000000 0.000000
# 4 0.000000 0.000000 0.000000 0.113706 0.000000 0.000000
# 5 0.000000 0.000000 0.000000 0.000000 0.205611 0.000000
# 6 0.000000 0.000000 0.000000 0.000000 0.000000 0.023034
#
#
# Mechanical properties :
#
#
# Convention : Reuss Voigt Hill
#
# Bulk Modulus (GPa) = 21.30439 44.95500 33.12969
# Shear Modulus (GPa) = 11.27772 24.90120 18.08946
#
# Velocity S-wave (km/s) = 2.37188 3.52446 3.00397
# Velocity P-wave (km/s) = 4.25778 6.24404 5.34400
#
# Compressibility (1/GPa) = 0.04693869
#
# Stress axis : x y z
#
# Youngs Moduli (GPa) = 106.29765 90.62447 21.87966
#
# Poissons Ratio (x) = 0.32300 0.16960
# Poissons Ratio (y) = 0.37886 -0.03745
# Poissons Ratio (z) = 0.82396 -0.15511
#
# Static dielectric constant tensor:
#      x y z
#    x 1.740350 0.000000 0.000000 
#    y 0.000000 1.742320 0.000000 
#    z 0.000000 0.000000 1.684320 
# 
# From -- ./inp_files/7479.got.cif
#   From: 2010.05.17/outbox.cif.g08.bks.cpg/sg34_4_cif.got.tgz:7479.got - 2010.06.03 17:23:11.
