data_PCOD9347167
_publ_section_title
;
Structure prediction by ZEFSAII (Michael W. Deem and Ramdas Pophale) SiO2 
 PCOD9347167
Probable space group: P N N 2
;
_chemical_formula_sum "Si O2"
_cell_formula_units_Z 24
_cell_length_a 7.222042
_cell_length_b 10.108341
_cell_length_c 16.384365
_cell_angle_alpha 90.000000
_cell_angle_beta 90.000000
_cell_angle_gamma 90.000000
_cell_volume 1196.105558
_symmetry_space_group_name_H-M "P N N 2"
_symmetry_group_IT_number 34
_symmetry_cell_setting 'orthorhombic'
loop_
_space_group_symop_operation_xyz
x,y,z
-x,-y,z
1/2-x,1/2+y,1/2+z
1/2+x,1/2-y,1/2+z
loop_
_atom_site_type_symbol
_atom_site_label
_atom_site_fract_x
_atom_site_fract_y
_atom_site_fract_z
Si Si1 0.221771 0.518223 0.939410
Si Si2 0.663357 0.780274 0.934942
Si Si3 0.480961 0.650469 0.548930
Si Si4 0.720995 0.969538 0.787995
Si Si5 0.329313 0.101947 0.614915
Si Si6 0.253581 0.296986 0.396076
O O1 0.314266 0.377559 0.922793
O O2 0.252201 0.640576 0.878651
O O3 0.000000 0.500000 0.940963
O O4 0.276002 0.571548 0.030113
O O5 0.748622 0.860272 0.858242
O O6 0.450198 0.824982 0.933100
O O7 0.774307 0.815198 0.017668
O O8 0.500000 0.500000 0.576008
O O9 0.572440 0.755128 0.610171
O O10 0.600017 0.671730 0.466365
O O11 0.778722 0.921613 0.698637
O O12 0.500000 0.000000 0.783051
O O13 0.798412 0.108176 0.820753
O O14 0.500000 0.000000 0.613828
#
# Coordination Sequence:
#
# PCOD9347167 Si02
#       6
#     4   4   4   4   4   4
#     4  10  18  34  59  82 109 149 196 236 280 344
#     4  11  19  34  58  83 111 154 188 240 282 346
#     4  11  20  34  60  86 111 153 196 238 282 346
#     4   9  19  33  55  84 115 146 190 240 287 340
#     4   9  17  35  56  82 116 150 187 236 292 346
#     4  10  20  33  56  84 114 145 195 239 280 342
#
# _framework density 20.065118999999999
#
# number of rings (size 3 to 8) (size 9 to 14) (size 15 to 20)
#    0.000    2.000    6.667    0.500    0.000    0.000 
#    0.000    5.000   14.667    0.000    0.000    1.167 
#    0.000    0.000    0.000    0.000    0.000    0.000 
#
# Total GULP energy -133795.831929 kJ/mol
# GULP energy per Si atom -5574.826330 kJ/mol
# Density = 2.001945 g / cm^3
# Si number density = 20.065119 Si / 1000 Ang^3
#
#
#
# Elastic Constant Matrix: (Units=GPa)
#
#
# Indices 1 2 3 4 5 6 
#
# 1 61.1509 -9.6772 -0.0449 0.0000 0.0000 0.0000
# 2 -9.6772 176.2806 42.6687 0.0000 0.0000 0.0000
# 3 -0.0449 42.6687 68.6554 0.0000 0.0000 0.0000
# 4 0.0000 0.0000 0.0000 -33.9369 0.0000 0.0000
# 5 0.0000 0.0000 0.0000 0.0000 40.0860 0.0000
# 6 0.0000 0.0000 0.0000 0.0000 0.0000 25.1495
#
#
#
# Elastic Compliance Matrix: (Units=1/GPa)
#
#
# Indices 1 2 3 4 5 6 
#
# 1 0.016521 0.001064 -0.000651 0.000000 0.000000 0.000000
# 2 0.001064 0.006746 -0.004192 0.000000 0.000000 0.000000
# 3 -0.000651 -0.004192 0.017170 0.000000 0.000000 0.000000
# 4 0.000000 0.000000 0.000000 -0.029466 0.000000 0.000000
# 5 0.000000 0.000000 0.000000 0.000000 0.024946 0.000000
# 6 0.000000 0.000000 0.000000 0.000000 0.000000 0.039762
#
#
# Mechanical properties :
#
#
# Convention : Reuss Voigt Hill
#
# Bulk Modulus (GPa) = 30.41281 41.33112 35.87196
# Shear Modulus (GPa) = 53.08108 24.46907 38.77508
#
# Velocity S-wave (km/s) = 5.14896 3.49590 4.40075
# Velocity P-wave (km/s) = 7.10908 6.07769 6.61352
#
# Compressibility (1/GPa) = 0.03288088
#
# Stress axis : x y z
#
# Youngs Moduli (GPa) = 60.52917 148.23976 58.24037
#
# Poissons Ratio (x) = -0.15780 0.03790
# Poissons Ratio (y) = -0.06443 0.24413
# Poissons Ratio (z) = 0.03939 0.62139
#
# Static dielectric constant tensor:
#      x y z
#    x 1.738450 0.000000 0.000000 
#    y 0.000000 1.753260 0.000000 
#    z 0.000000 0.000000 1.722740 
# 
# From -- ./inp_files/7436.got.cif
#   From: 2010.05.17/outbox.cif.g08.bks.cpg/sg34_4_cif.got.tgz:7436.got - 2010.06.03 17:23:11.
