data_PCOD9347708
_publ_section_title
;
Structure prediction by ZEFSAII (Michael W. Deem and Ramdas Pophale) SiO2 
 PCOD9347708
Probable space group: P N N 2
;
_chemical_formula_sum "Si O2"
_cell_formula_units_Z 26
_cell_length_a 8.024027
_cell_length_b 11.723504
_cell_length_c 11.910042
_cell_angle_alpha 90.000000
_cell_angle_beta 90.000000
_cell_angle_gamma 90.000000
_cell_volume 1120.374228
_symmetry_space_group_name_H-M "P N N 2"
_symmetry_group_IT_number 34
_symmetry_cell_setting 'orthorhombic'
loop_
_space_group_symop_operation_xyz
x,y,z
-x,-y,z
1/2-x,1/2+y,1/2+z
1/2+x,1/2-y,1/2+z
loop_
_atom_site_type_symbol
_atom_site_label
_atom_site_fract_x
_atom_site_fract_y
_atom_site_fract_z
Si Si1 0.931679 0.172083 0.211190
Si Si2 0.500000 0.000000 0.458297
Si Si3 0.933963 0.628164 0.345865
Si Si4 0.919622 0.747961 0.991025
Si Si5 0.447834 0.367513 0.270017
Si Si6 0.728545 0.961094 0.255375
Si Si7 0.554505 0.802487 0.077730
O O1 0.940214 0.289939 0.277611
O O2 0.097577 0.106247 0.253786
O O3 0.773990 0.092082 0.230201
O O4 0.963740 0.188194 0.080075
O O5 0.558861 0.113930 0.517552
O O6 0.353546 0.042214 0.376398
O O7 0.751437 0.639455 0.290983
O O8 0.000000 0.500000 0.340062
O O9 0.931744 0.663712 0.477368
O O10 0.969220 0.792418 0.868698
O O11 0.729238 0.777207 0.015730
O O12 0.500000 0.500000 0.275665
O O13 0.492913 0.307095 0.152286
O O14 0.607932 0.900679 0.166006
#
# Coordination Sequence:
#
# PCOD9347708 Si02
#       7
#     4   2   4   4   4   4   4
#     4  10  23  45  70 100 138 192 242 294 364 429
#     4  12  22  40  68 102 140 178 238 304 358 432
#     4  12  26  47  73 107 150 192 248 302 369 445
#     4  11  24  44  73 101 146 188 240 304 370 433
#     4  12  27  52  73 109 150 191 244 307 371 440
#     4  10  22  43  70  98 137 184 243 296 351 436
#     4  11  25  50  69 112 144 194 251 299 370 442
#
# _framework density 23.206533
#
# number of rings (size 3 to 8) (size 9 to 14) (size 15 to 20)
#    0.000    0.923    4.615    1.846    8.615    0.000 
#   13.846    0.000    0.000    0.000    0.000    0.000 
#    0.000    0.000    0.000    0.000    0.000    0.000 
#
# Total GULP energy -145630.925927 kJ/mol
# GULP energy per Si atom -5601.189459 kJ/mol
# Density = 2.315371 g / cm^3
# Si number density = 23.206533 Si / 1000 Ang^3
#
#
#
# Elastic Constant Matrix: (Units=GPa)
#
#
# Indices 1 2 3 4 5 6 
#
# 1 61.4228 26.5959 8.4178 0.0000 0.0000 0.0000
# 2 26.5959 143.9079 16.8959 0.0000 0.0000 0.0000
# 3 8.4178 16.8959 66.2473 0.0000 0.0000 0.0000
# 4 0.0000 0.0000 0.0000 -150.6874 0.0000 0.0000
# 5 0.0000 0.0000 0.0000 0.0000 45.8171 0.0000
# 6 0.0000 0.0000 0.0000 0.0000 0.0000 32.0013
#
#
#
# Elastic Compliance Matrix: (Units=1/GPa)
#
#
# Indices 1 2 3 4 5 6 
#
# 1 0.017834 -0.003123 -0.001470 0.000000 0.000000 0.000000
# 2 -0.003123 0.007710 -0.001570 0.000000 0.000000 0.000000
# 3 -0.001470 -0.001570 0.015682 0.000000 0.000000 0.000000
# 4 0.000000 0.000000 0.000000 -0.006636 0.000000 0.000000
# 5 0.000000 0.000000 0.000000 0.000000 0.021826 0.000000
# 6 0.000000 0.000000 0.000000 0.000000 0.000000 0.031249
#
#
# Mechanical properties :
#
#
# Convention : Reuss Voigt Hill
#
# Bulk Modulus (GPa) = 34.60013 41.71082 38.15547
# Shear Modulus (GPa) = 45.61029 0.07076 22.84053
#
# Velocity S-wave (km/s) = 4.43810 0.17481 3.14064
# Velocity P-wave (km/s) = 6.41906 4.24894 5.44325
#
# Compressibility (1/GPa) = 0.02890163
#
# Stress axis : x y z
#
# Youngs Moduli (GPa) = 56.07126 129.69444 63.76743
#
# Poissons Ratio (x) = 0.40510 0.09371
# Poissons Ratio (y) = 0.17514 0.10009
# Poissons Ratio (z) = 0.08240 0.20357
#
# Static dielectric constant tensor:
#      x y z
#    x 1.832980 0.000000 0.000000 
#    y 0.000000 2.073040 0.000000 
#    z 0.000000 0.000000 1.849600 
# 
# From -- ./inp_files/4962.got.cif
#   From: 2010.05.17/outbox.cif.g08.bks.cpg/sg34_3_cif.got.tgz:4962.got - 2010.06.03 17:23:11.
