data_PCOD9347680
_publ_section_title
;
Structure prediction by ZEFSAII (Michael W. Deem and Ramdas Pophale) SiO2 
 PCOD9347680
Probable space group: P N N 2
;
_chemical_formula_sum "Si O2"
_cell_formula_units_Z 24
_cell_length_a 8.898726
_cell_length_b 21.097855
_cell_length_c 5.183794
_cell_angle_alpha 90.000000
_cell_angle_beta 90.000000
_cell_angle_gamma 90.000000
_cell_volume 973.226381
_symmetry_space_group_name_H-M "P N N 2"
_symmetry_group_IT_number 34
_symmetry_cell_setting 'orthorhombic'
loop_
_space_group_symop_operation_xyz
x,y,z
-x,-y,z
1/2-x,1/2+y,1/2+z
1/2+x,1/2-y,1/2+z
loop_
_atom_site_type_symbol
_atom_site_label
_atom_site_fract_x
_atom_site_fract_y
_atom_site_fract_z
Si Si1 0.746933 0.667586 0.004010
Si Si2 0.236949 0.074410 0.530312
Si Si3 0.751683 0.315374 0.399015
Si Si4 0.500000 0.500000 0.378712
Si Si5 0.422441 0.873644 0.010787
Si Si6 0.491001 0.613331 0.684585
Si Si7 0.500000 0.000000 0.743473
O O1 0.731304 0.740618 0.920398
O O2 0.815750 0.659758 0.290517
O O3 0.857929 0.636686 0.794432
O O4 0.587082 0.635208 0.930160
O O5 0.160116 0.074909 0.256955
O O6 0.390240 0.039057 0.560808
O O7 0.244824 0.147251 0.626663
O O8 0.122777 0.035112 0.706952
O O9 0.587580 0.330463 0.526709
O O10 0.907799 0.345014 0.508719
O O11 0.576314 0.558745 0.530509
O O12 0.429542 0.946182 0.923048
#
# Coordination Sequence:
#
# PCOD9347680 Si02
#       7
#     4   4   4   2   4   4   2
#     4  12  28  45  75 107 145 190 248 297 365 441
#     4  10  23  43  69 100 139 190 233 303 360 429
#     4  10  26  46  68 101 146 188 241 298 364 440
#     4  10  22  42  66 104 140 178 244 296 364 430
#     4  11  28  48  74 110 143 199 241 304 370 434
#     4  11  25  43  73 104 143 192 239 305 366 430
#     4  10  24  48  70 102 150 184 248 294 366 440
#
# _framework density 24.660243999999999
#
# number of rings (size 3 to 8) (size 9 to 14) (size 15 to 20)
#    0.000    1.333    0.000    2.500   18.667    0.667 
#    0.000    0.000    0.000    0.000    0.000    0.000 
#    0.000    0.000    0.000    0.000    0.000    0.000 
#
# Total GULP energy -134183.941873 kJ/mol
# GULP energy per Si atom -5590.997578 kJ/mol
# Density = 2.460412 g / cm^3
# Si number density = 24.660244 Si / 1000 Ang^3
#
#
#
# Elastic Constant Matrix: (Units=GPa)
#
#
# Indices 1 2 3 4 5 6 
#
# 1 100.4627 27.1973 13.7719 0.0000 0.0000 0.0000
# 2 27.1973 141.2575 4.2168 0.0000 0.0000 0.0000
# 3 13.7719 4.2168 44.5330 0.0000 0.0000 0.0000
# 4 0.0000 0.0000 0.0000 -46.3473 0.0000 0.0000
# 5 0.0000 0.0000 0.0000 0.0000 46.7072 0.0000
# 6 0.0000 0.0000 0.0000 0.0000 0.0000 17.4846
#
#
#
# Elastic Compliance Matrix: (Units=1/GPa)
#
#
# Indices 1 2 3 4 5 6 
#
# 1 0.010936 -0.002010 -0.003192 0.000000 0.000000 0.000000
# 2 -0.002010 0.007469 -0.000086 0.000000 0.000000 0.000000
# 3 -0.003192 -0.000086 0.023450 0.000000 0.000000 0.000000
# 4 0.000000 0.000000 0.000000 -0.021576 0.000000 0.000000
# 5 0.000000 0.000000 0.000000 0.000000 0.021410 0.000000
# 6 0.000000 0.000000 0.000000 0.000000 0.000000 0.057193
#
#
# Mechanical properties :
#
#
# Convention : Reuss Voigt Hill
#
# Bulk Modulus (GPa) = 31.96907 41.84724 36.90815
# Shear Modulus (GPa) = 41.70724 19.64004 30.67364
#
# Velocity S-wave (km/s) = 4.11697 2.82516 3.53065
# Velocity P-wave (km/s) = 5.96584 5.25818 5.62315
#
# Compressibility (1/GPa) = 0.03128024
#
# Stress axis : x y z
#
# Youngs Moduli (GPa) = 91.44390 133.88900 42.64334
#
# Poissons Ratio (x) = 0.26915 0.13610
# Poissons Ratio (y) = 0.18383 0.00365
# Poissons Ratio (z) = 0.29184 0.01145
#
# Static dielectric constant tensor:
#      x y z
#    x 2.089460 0.000000 0.000000 
#    y 0.000000 2.628490 0.000000 
#    z 0.000000 0.000000 1.975620 
# 
# From -- ./inp_files/501.got.cif
#   From: 2010.05.17/outbox.cif.g08.bks.cpg/sg34_1_cif.got.tgz:501.got - 2010.06.03 17:23:11.
