data_PCOD9347807
_publ_section_title
;
Structure prediction by ZEFSAII (Michael W. Deem and Ramdas Pophale) SiO2 
 PCOD9347807
Probable space group: P N N 2
;
_chemical_formula_sum "Si O2"
_cell_formula_units_Z 26
_cell_length_a 14.472062
_cell_length_b 13.864965
_cell_length_c 5.483990
_cell_angle_alpha 90.000000
_cell_angle_beta 90.000000
_cell_angle_gamma 90.000000
_cell_volume 1100.388001
_symmetry_space_group_name_H-M "P N N 2"
_symmetry_group_IT_number 34
_symmetry_cell_setting 'orthorhombic'
loop_
_space_group_symop_operation_xyz
x,y,z
-x,-y,z
1/2-x,1/2+y,1/2+z
1/2+x,1/2-y,1/2+z
loop_
_atom_site_type_symbol
_atom_site_label
_atom_site_fract_x
_atom_site_fract_y
_atom_site_fract_z
Si Si1 0.174545 0.449232 0.240820
Si Si2 0.081219 0.101577 0.322506
Si Si3 0.419463 0.295141 0.581548
Si Si4 0.120220 0.991522 0.814424
Si Si5 0.500000 0.000000 0.995622
Si Si6 0.932055 0.661715 0.847171
Si Si7 0.709178 0.248012 0.036161
O O1 0.271053 0.500748 0.260112
O O2 0.189271 0.354407 0.406757
O O3 0.091050 0.512907 0.337129
O O4 0.139280 0.408631 0.984867
O O5 0.081974 0.038492 0.567583
O O6 0.170482 0.171448 0.353500
O O7 0.982440 0.156309 0.293346
O O8 0.095354 0.044607 0.068262
O O9 0.405185 0.379656 0.376448
O O10 0.486822 0.209514 0.500474
O O11 0.315319 0.255498 0.623295
O O12 0.482319 0.904825 0.151013
O O13 0.867147 0.747352 0.749558
#
# Coordination Sequence:
#
# PCOD9347807 Si02
#       7
#     4   4   4   4   2   4   4
#     4  10  23  47  67 107 149 196 247 327 374 459
#     4  12  26  52  75 116 150 205 265 311 383 483
#     4  11  26  50  75 112 152 209 245 331 389 448
#     4  11  29  47  78 108 161 197 260 319 387 458
#     4  10  24  40  76 108 146 198 262 318 384 462
#     4  11  23  47  75 104 153 197 259 315 387 465
#     4  10  25  46  72 107 150 199 252 316 382 451
#
# _framework density 23.628031
#
# number of rings (size 3 to 8) (size 9 to 14) (size 15 to 20)
#    0.000    1.231    1.538    1.846    8.615    6.154 
#    5.538    0.000    0.000    0.000    0.000    0.000 
#    0.000    0.000    0.000    0.000    0.000    0.000 
#
# Total GULP energy -145272.841347 kJ/mol
# GULP energy per Si atom -5587.416975 kJ/mol
# Density = 2.357425 g / cm^3
# Si number density = 23.628031 Si / 1000 Ang^3
#
#
#
# Elastic Constant Matrix: (Units=GPa)
#
#
# Indices 1 2 3 4 5 6 
#
# 1 187.2810 53.0324 27.6276 0.0000 0.0000 0.0000
# 2 53.0324 62.5276 35.9624 0.0000 0.0000 0.0000
# 3 27.6276 35.9624 92.7083 0.0000 0.0000 0.0000
# 4 0.0000 0.0000 0.0000 17.3831 0.0000 0.0000
# 5 0.0000 0.0000 0.0000 0.0000 24.1890 0.0000
# 6 0.0000 0.0000 0.0000 0.0000 0.0000 33.3334
#
#
#
# Elastic Compliance Matrix: (Units=1/GPa)
#
#
# Indices 1 2 3 4 5 6 
#
# 1 0.007033 -0.006126 0.000281 0.000000 0.000000 0.000000
# 2 -0.006126 0.025922 -0.008230 0.000000 0.000000 0.000000
# 3 0.000281 -0.008230 0.013895 0.000000 0.000000 0.000000
# 4 0.000000 0.000000 0.000000 0.057527 0.000000 0.000000
# 5 0.000000 0.000000 0.000000 0.000000 0.041341 0.000000
# 6 0.000000 0.000000 0.000000 0.000000 0.000000 0.030000
#
#
# Mechanical properties :
#
#
# Convention : Reuss Voigt Hill
#
# Bulk Modulus (GPa) = 53.47746 63.97353 58.72550
# Shear Modulus (GPa) = 23.79784 30.04073 26.91928
#
# Velocity S-wave (km/s) = 3.17706 3.56954 3.37901
# Velocity P-wave (km/s) = 6.01170 6.64251 6.33496
#
# Compressibility (1/GPa) = 0.01869947
#
# Stress axis : x y z
#
# Youngs Moduli (GPa) = 142.18715 38.57676 71.96664
#
# Poissons Ratio (x) = 0.23634 -0.02019
# Poissons Ratio (y) = 0.87109 0.59227
# Poissons Ratio (z) = -0.03990 0.31748
#
# Static dielectric constant tensor:
#      x y z
#    x 1.923250 0.000000 0.000000 
#    y 0.000000 1.236060 0.000000 
#    z 0.000000 0.000000 1.944370 
# 
# From -- ./inp_files/1261.got.cif
#   From: 2010.05.17/outbox.cif.g08.bks.cpg/sg34_1_cif.got.tgz:1261.got - 2010.06.03 17:23:11.
