data_PCOD9347804
_publ_section_title
;
Structure prediction by ZEFSAII (Michael W. Deem and Ramdas Pophale) SiO2 
 PCOD9347804
Probable space group: P N N 2
;
_chemical_formula_sum "Si O2"
_cell_formula_units_Z 12
_cell_length_a 7.409957
_cell_length_b 11.900070
_cell_length_c 4.845371
_cell_angle_alpha 90.000000
_cell_angle_beta 90.000000
_cell_angle_gamma 90.000000
_cell_volume 427.260003
_symmetry_space_group_name_H-M "P N N 2"
_symmetry_group_IT_number 34
_symmetry_cell_setting 'orthorhombic'
loop_
_space_group_symop_operation_xyz
x,y,z
-x,-y,z
1/2-x,1/2+y,1/2+z
1/2+x,1/2-y,1/2+z
loop_
_atom_site_type_symbol
_atom_site_label
_atom_site_fract_x
_atom_site_fract_y
_atom_site_fract_z
Si Si1 0.878294 0.087913 0.267730
Si Si2 0.509238 0.806862 0.437984
Si Si3 0.337323 0.085154 0.936933
O O1 0.691538 0.138784 0.404834
O O2 0.980163 0.188978 0.101224
O O3 0.814382 0.996495 0.043496
O O4 0.000000 0.000000 0.447738
O O5 0.598693 0.812420 0.136405
O O6 0.650020 0.877550 0.622957
O O7 0.500000 0.000000 0.967637
#
# Coordination Sequence:
#
# PCOD9347804 Si02
#       3
#     4   4   4
#     4  11  25  47  80 115 156 207 259 322 388 456
#     4  11  25  47  74 113 155 200 260 318 382 464
#     4  10  23  46  72 106 151 197 251 316 382 454
#
# _framework density 28.085947000000001
#
# number of rings (size 3 to 8) (size 9 to 14) (size 15 to 20)
#    0.000    1.333    0.000    5.000    0.000   13.333 
#    0.000   23.333    0.000   12.000    0.000    0.000 
#    0.000    0.000    0.000    0.000    0.000    0.000 
#
# Total GULP energy -66921.607336 kJ/mol
# GULP energy per Si atom -5576.800611 kJ/mol
# Density = 2.802202 g / cm^3
# Si number density = 28.085947 Si / 1000 Ang^3
#
#
#
# Elastic Constant Matrix: (Units=GPa)
#
#
# Indices 1 2 3 4 5 6 
#
# 1 -237.3767 -42.3588 -46.2171 0.0000 0.0000 0.0000
# 2 -42.3588 135.9619 13.4293 0.0000 0.0000 0.0000
# 3 -46.2171 13.4293 123.8325 0.0000 0.0000 0.0000
# 4 0.0000 0.0000 0.0000 20.0532 0.0000 0.0000
# 5 0.0000 0.0000 0.0000 0.0000 12.1869 0.0000
# 6 0.0000 0.0000 0.0000 0.0000 0.0000 246.9001
#
#
#
# Elastic Compliance Matrix: (Units=1/GPa)
#
#
# Indices 1 2 3 4 5 6 
#
# 1 -0.003774 -0.001048 -0.001295 0.000000 0.000000 0.000000
# 2 -0.001048 0.007144 -0.001166 0.000000 0.000000 0.000000
# 3 -0.001295 -0.001166 0.007719 0.000000 0.000000 0.000000
# 4 0.000000 0.000000 0.000000 0.049867 0.000000 0.000000
# 5 0.000000 0.000000 0.000000 0.000000 0.082055 0.000000
# 6 0.000000 0.000000 0.000000 0.000000 0.000000 0.004050
#
#
# Mechanical properties :
#
#
# Convention : Reuss Voigt Hill
#
# Bulk Modulus (GPa) = 245.58017 -14.20841 115.68588
# Shear Modulus (GPa) = 32.16772 62.33234 47.25003
#
# Velocity S-wave (km/s) = 3.38795 4.71610 4.10608
# Velocity P-wave (km/s) = 10.14558 4.95839 7.98494
#
# Compressibility (1/GPa) = 0.00407199
#
# Stress axis : x y z
#
# Youngs Moduli (GPa) = -264.99566 139.98326 129.55700
#
# Poissons Ratio (x) = 0.14667 0.16775
# Poissons Ratio (y) = -0.27766 0.15103
# Poissons Ratio (z) = -0.34311 0.16319
#
# Static dielectric constant tensor:
#      x y z
#    x 2.709790 0.000000 0.000000 
#    y 0.000000 2.242770 0.000000 
#    z 0.000000 0.000000 2.708020 
# 
# From -- ./inp_files/247.got.cif
#   From: 2010.05.17/outbox.cif.g08.bks.cpg/sg34_1_cif.got.tgz:247.got - 2010.06.03 17:23:11.
