data_PCOD9347940
_publ_section_title
;
Structure prediction by ZEFSAII (Michael W. Deem and Ramdas Pophale) SiO2 
 PCOD9347940
Probable space group: P N N 2
;
_chemical_formula_sum "Si O2"
_cell_formula_units_Z 24
_cell_length_a 13.647871
_cell_length_b 5.551442
_cell_length_c 12.602093
_cell_angle_alpha 90.000000
_cell_angle_beta 90.000000
_cell_angle_gamma 90.000000
_cell_volume 954.802167
_symmetry_space_group_name_H-M "P N N 2"
_symmetry_group_IT_number 34
_symmetry_cell_setting 'orthorhombic'
loop_
_space_group_symop_operation_xyz
x,y,z
-x,-y,z
1/2-x,1/2+y,1/2+z
1/2+x,1/2-y,1/2+z
loop_
_atom_site_type_symbol
_atom_site_label
_atom_site_fract_x
_atom_site_fract_y
_atom_site_fract_z
Si Si1 0.084832 0.689690 0.289530
Si Si2 0.708758 0.262148 0.985346
Si Si3 0.456759 0.249326 0.245099
Si Si4 0.892206 0.012846 0.082955
Si Si5 0.776560 0.703653 0.245652
Si Si6 0.104725 0.752968 0.525631
O O1 0.082698 0.865539 0.193614
O O2 0.191837 0.568108 0.273888
O O3 0.064042 0.775665 0.407288
O O4 0.000000 0.500000 0.267112
O O5 0.693346 0.318164 0.859947
O O6 0.672714 0.508109 0.040662
O O7 0.654203 0.013591 0.019061
O O8 0.820064 0.181645 0.013728
O O9 0.500000 0.500000 0.287288
O O10 0.338891 0.249326 0.244304
O O11 0.500000 0.000000 0.290100
O O12 0.474743 0.250718 0.118064
O O13 0.831113 0.788751 0.136943
O O14 0.000000 0.000000 0.029879
#
# Coordination Sequence:
#
# PCOD9347940 Si02
#       6
#     4   4   4   4   4   4
#     4  11  23  41  72 108 144 185 240 307 375 439
#     4  11  25  43  74 101 143 190 233 295 370 438
#     4  12  27  44  70 100 138 190 243 298 358 437
#     4  12  24  43  73 108 145 191 242 305 373 446
#     4  11  25  47  68 102 143 195 239 301 367 442
#     4  11  23  44  70 103 139 183 237 302 362 434
#
# _framework density 25.136094
#
# number of rings (size 3 to 8) (size 9 to 14) (size 15 to 20)
#    0.000    0.667    5.000    2.500    2.333    2.667 
#    0.000    0.833    0.000    0.000    0.000    0.000 
#    0.000    0.000    0.000    0.000    0.000    0.000 
#
# Total GULP energy -133885.009378 kJ/mol
# GULP energy per Si atom -5578.542057 kJ/mol
# Density = 2.507888 g / cm^3
# Si number density = 25.136094 Si / 1000 Ang^3
#
#
#
# Elastic Constant Matrix: (Units=GPa)
#
#
# Indices 1 2 3 4 5 6 
#
# 1 127.8843 59.2460 -12.9857 0.0000 0.0000 0.0000
# 2 59.2460 152.5620 7.0318 0.0000 0.0000 0.0000
# 3 -12.9857 7.0318 73.9337 0.0000 0.0000 0.0000
# 4 0.0000 0.0000 0.0000 4.3383 0.0000 0.0000
# 5 0.0000 0.0000 0.0000 0.0000 -2.7839 0.0000
# 6 0.0000 0.0000 0.0000 0.0000 0.0000 53.7251
#
#
#
# Elastic Compliance Matrix: (Units=1/GPa)
#
#
# Indices 1 2 3 4 5 6 
#
# 1 0.009850 -0.003922 0.002103 0.000000 0.000000 0.000000
# 2 -0.003922 0.008145 -0.001464 0.000000 0.000000 0.000000
# 3 0.002103 -0.001464 0.014034 0.000000 0.000000 0.000000
# 4 0.000000 0.000000 0.000000 0.230503 0.000000 0.000000
# 5 0.000000 0.000000 0.000000 0.000000 -0.359209 0.000000
# 6 0.000000 0.000000 0.000000 0.000000 0.000000 0.018613
#
#
# Mechanical properties :
#
#
# Convention : Reuss Voigt Hill
#
# Bulk Modulus (GPa) = 39.27043 51.21824 45.24434
# Shear Modulus (GPa) = -79.35293 31.12844 -24.11224
#
# Velocity S-wave (km/s) = -5.62475 3.52290 -3.10056
# Velocity P-wave (km/s) = 5.15041 6.08016 2.28491
#
# Compressibility (1/GPa) = 0.02546445
#
# Stress axis : x y z
#
# Youngs Moduli (GPa) = 101.52104 122.77018 71.25439
#
# Poissons Ratio (x) = 0.48152 -0.14986
# Poissons Ratio (y) = 0.39818 0.10429
# Poissons Ratio (z) = -0.21351 0.17968
#
# Static dielectric constant tensor:
#      x y z
#    x 2.249730 0.000000 0.000000 
#    y 0.000000 2.183980 0.000000 
#    z 0.000000 0.000000 2.017450 
# 
# From -- ./inp_files/6110.got.cif
#   From: 2010.05.17/outbox.cif.g08.bks.cpg/sg34_4_cif.got.tgz:6110.got - 2010.06.03 17:23:11.
