data_PCOD9347549
_publ_section_title
;
Structure prediction by ZEFSAII (Michael W. Deem and Ramdas Pophale) SiO2 
 PCOD9347549
Probable space group: P N N 2
;
_chemical_formula_sum "Si O2"
_cell_formula_units_Z 28
_cell_length_a 20.553234
_cell_length_b 13.300035
_cell_length_c 5.158931
_cell_angle_alpha 90.000000
_cell_angle_beta 90.000000
_cell_angle_gamma 90.000000
_cell_volume 1410.238834
_symmetry_space_group_name_H-M "P N N 2"
_symmetry_group_IT_number 34
_symmetry_cell_setting 'orthorhombic'
loop_
_space_group_symop_operation_xyz
x,y,z
-x,-y,z
1/2-x,1/2+y,1/2+z
1/2+x,1/2-y,1/2+z
loop_
_atom_site_type_symbol
_atom_site_label
_atom_site_fract_x
_atom_site_fract_y
_atom_site_fract_z
Si Si1 0.761297 0.395729 0.633920
Si Si2 0.578532 0.296693 0.689107
Si Si3 0.217147 0.307942 0.265086
Si Si4 0.934607 0.935712 0.691537
Si Si5 0.860382 0.564959 0.603856
Si Si6 0.706572 0.492932 0.125493
Si Si7 0.446714 0.913973 0.601271
O O1 0.767838 0.281376 0.723087
O O2 0.826406 0.460141 0.664018
O O3 0.735195 0.416658 0.343961
O O4 0.712693 0.446157 0.841282
O O5 0.650669 0.245877 0.664175
O O6 0.566190 0.373583 0.458124
O O7 0.531608 0.199347 0.671276
O O8 0.572011 0.354934 0.959013
O O9 0.194253 0.349305 0.547175
O O10 0.248803 0.407540 0.140987
O O11 0.869621 0.004561 0.685018
O O12 0.000000 0.000000 0.664397
O O13 0.909362 0.592544 0.829131
O O14 0.897725 0.555978 0.331993
O O15 0.500000 0.000000 0.584066
#
# Coordination Sequence:
#
# PCOD9347549 Si02
#       7
#     4   4   4   4   4   4   4
#     4  11  21  38  63  89 131 157 204 268 327 374
#     4  11  22  42  67  89 118 177 208 257 332 381
#     4  10  21  39  67  91 126 161 212 263 329 377
#     4  12  24  43  65  91 132 172 220 259 314 399
#     4  10  22  38  63  98 124 162 212 262 314 381
#     4  11  23  39  61  99 121 163 217 267 318 388
#     4  11  23  43  65  93 127 168 217 260 309 387
#
# _framework density 19.854790999999999
#
# number of rings (size 3 to 8) (size 9 to 14) (size 15 to 20)
#    0.000    1.143    2.857    5.143    0.000    3.429 
#    5.143    0.000    0.000    0.000    0.000    0.000 
#    0.000    0.000    0.000    0.000    0.000    0.000 
#
# Total GULP energy -156236.164048 kJ/mol
# GULP energy per Si atom -5579.863002 kJ/mol
# Density = 1.980960 g / cm^3
# Si number density = 19.854791 Si / 1000 Ang^3
#
#
#
# Elastic Constant Matrix: (Units=GPa)
#
#
# Indices 1 2 3 4 5 6 
#
# 1 49.4988 30.8132 12.1294 0.0000 0.0000 0.0000
# 2 30.8132 119.3760 26.8960 0.0000 0.0000 0.0000
# 3 12.1294 26.8960 76.7065 0.0000 0.0000 0.0000
# 4 0.0000 0.0000 0.0000 18.9854 0.0000 0.0000
# 5 0.0000 0.0000 0.0000 0.0000 21.2685 0.0000
# 6 0.0000 0.0000 0.0000 0.0000 0.0000 36.5954
#
#
#
# Elastic Compliance Matrix: (Units=1/GPa)
#
#
# Indices 1 2 3 4 5 6 
#
# 1 0.024293 -0.005869 -0.001784 0.000000 0.000000 0.000000
# 2 -0.005869 0.010513 -0.002758 0.000000 0.000000 0.000000
# 3 -0.001784 -0.002758 0.014286 0.000000 0.000000 0.000000
# 4 0.000000 0.000000 0.000000 0.052672 0.000000 0.000000
# 5 0.000000 0.000000 0.000000 0.000000 0.047018 0.000000
# 6 0.000000 0.000000 0.000000 0.000000 0.000000 0.027326
#
#
# Mechanical properties :
#
#
# Convention : Reuss Voigt Hill
#
# Bulk Modulus (GPa) = 35.37214 42.80650 39.08932
# Shear Modulus (GPa) = 24.23041 27.08603 25.65822
#
# Velocity S-wave (km/s) = 3.49719 3.69752 3.59875
# Velocity P-wave (km/s) = 5.84476 6.31154 6.08263
#
# Compressibility (1/GPa) = 0.02827084
#
# Stress axis : x y z
#
# Youngs Moduli (GPa) = 41.16447 95.11908 69.99905
#
# Poissons Ratio (x) = 0.55821 0.12485
# Poissons Ratio (y) = 0.24158 0.19308
# Poissons Ratio (z) = 0.07342 0.26237
#
# Static dielectric constant tensor:
#      x y z
#    x 1.739580 0.000000 0.000000 
#    y 0.000000 1.732880 0.000000 
#    z 0.000000 0.000000 1.699520 
# 
# From -- ./inp_files/1592.got.cif
#   From: 2010.05.17/outbox.cif.g08.bks.cpg/sg34_1_cif.got.tgz:1592.got - 2010.06.03 17:23:11.
