data_PCOD9347776
_publ_section_title
;
Structure prediction by ZEFSAII (Michael W. Deem and Ramdas Pophale) SiO2 
 PCOD9347776
Probable space group: P N N 2
;
_chemical_formula_sum "Si O2"
_cell_formula_units_Z 26
_cell_length_a 9.506881
_cell_length_b 14.030081
_cell_length_c 8.687094
_cell_angle_alpha 90.000000
_cell_angle_beta 90.000000
_cell_angle_gamma 90.000000
_cell_volume 1158.704669
_symmetry_space_group_name_H-M "P N N 2"
_symmetry_group_IT_number 34
_symmetry_cell_setting 'orthorhombic'
loop_
_space_group_symop_operation_xyz
x,y,z
-x,-y,z
1/2-x,1/2+y,1/2+z
1/2+x,1/2-y,1/2+z
loop_
_atom_site_type_symbol
_atom_site_label
_atom_site_fract_x
_atom_site_fract_y
_atom_site_fract_z
Si Si1 0.000000 0.500000 0.141551
Si Si2 0.500000 0.500000 0.205255
Si Si3 0.039106 0.804203 0.851116
Si Si4 0.447113 0.289594 0.685534
Si Si5 0.000000 0.000000 0.247166
Si Si6 0.851655 0.659922 0.713355
Si Si7 0.744138 0.506466 0.959816
Si Si8 0.131966 0.345827 0.368658
O O1 0.077139 0.423952 0.248771
O O2 0.123157 0.544620 0.036029
O O3 0.528576 0.406356 0.307100
O O4 0.632617 0.528774 0.096858
O O5 0.206116 0.817758 0.846017
O O6 0.987979 0.723468 0.737127
O O7 0.994632 0.764158 0.018560
O O8 0.445408 0.405105 0.669323
O O9 0.282236 0.268256 0.704073
O O10 0.534196 0.244802 0.824814
O O11 0.133817 0.039997 0.342450
O O12 0.814218 0.590332 0.855731
O O13 0.872548 0.615997 0.543773
#
# Coordination Sequence:
#
# PCOD9347776 Si02
#       8
#     2   2   4   4   2   4   4   4
#     4  12  24  44  66  94 140 174 230 288 338 416
#     4  11  23  42  72  99 135 180 232 283 355 408
#     4  11  24  43  67  97 136 181 225 284 343 410
#     4  10  23  43  68 100 135 179 232 280 341 414
#     4   9  21  42  70  97 135 172 224 279 343 412
#     4  10  25  44  67  96 140 177 233 281 343 410
#     4  10  23  42  68  97 131 177 227 278 343 410
#     4  11  26  43  66 101 138 181 233 284 346 408
#
# _framework density 22.438849000000001
#
# number of rings (size 3 to 8) (size 9 to 14) (size 15 to 20)
#    0.000    1.538    1.538    1.385    8.615    3.077 
#    0.000    0.000    0.000    0.000    0.000    0.000 
#    0.000    0.000    0.000    0.000    0.000    0.000 
#
# Total GULP energy -144879.547209 kJ/mol
# GULP energy per Si atom -5572.290277 kJ/mol
# Density = 2.238778 g / cm^3
# Si number density = 22.438849 Si / 1000 Ang^3
#
#
#
# Elastic Constant Matrix: (Units=GPa)
#
#
# Indices 1 2 3 4 5 6 
#
# 1 99.2501 25.3288 50.6253 0.0000 0.0000 0.0000
# 2 25.3288 51.0824 24.0706 0.0000 0.0000 0.0000
# 3 50.6253 24.0706 103.9129 0.0000 0.0000 0.0000
# 4 0.0000 0.0000 0.0000 18.9409 0.0000 0.0000
# 5 0.0000 0.0000 0.0000 0.0000 23.7747 0.0000
# 6 0.0000 0.0000 0.0000 0.0000 0.0000 30.6011
#
#
#
# Elastic Compliance Matrix: (Units=1/GPa)
#
#
# Indices 1 2 3 4 5 6 
#
# 1 0.014180 -0.004238 -0.005927 0.000000 0.000000 0.000000
# 2 -0.004238 0.023242 -0.003319 0.000000 0.000000 0.000000
# 3 -0.005927 -0.003319 0.013280 0.000000 0.000000 0.000000
# 4 0.000000 0.000000 0.000000 0.052796 0.000000 0.000000
# 5 0.000000 0.000000 0.000000 0.000000 0.042062 0.000000
# 6 0.000000 0.000000 0.000000 0.000000 0.000000 0.032679
#
#
# Mechanical properties :
#
#
# Convention : Reuss Voigt Hill
#
# Bulk Modulus (GPa) = 42.13420 50.47720 46.30570
# Shear Modulus (GPa) = 23.46134 24.94473 24.20304
#
# Velocity S-wave (km/s) = 3.23703 3.33780 3.28780
# Velocity P-wave (km/s) = 5.72619 6.11546 5.92402
#
# Compressibility (1/GPa) = 0.02373369
#
# Stress axis : x y z
#
# Youngs Moduli (GPa) = 70.52047 43.02614 75.30321
#
# Poissons Ratio (x) = 0.18236 0.44630
# Poissons Ratio (y) = 0.29890 0.24992
# Poissons Ratio (z) = 0.41795 0.14280
#
# Static dielectric constant tensor:
#      x y z
#    x 1.845380 0.000000 0.000000 
#    y 0.000000 1.865140 0.000000 
#    z 0.000000 0.000000 1.869640 
# 
# From -- ./inp_files/2811.got.cif
#   From: 2010.05.17/outbox.cif.g08.bks.cpg/sg34_2_cif.got.tgz:2811.got - 2010.06.03 17:23:11.
