data_PCOD9347259
_publ_section_title
;
Structure prediction by ZEFSAII (Michael W. Deem and Ramdas Pophale) SiO2 
 PCOD9347259
Probable space group: P N N 2
;
_chemical_formula_sum "Si O2"
_cell_formula_units_Z 28
_cell_length_a 14.764341
_cell_length_b 10.792527
_cell_length_c 7.695747
_cell_angle_alpha 90.000000
_cell_angle_beta 90.000000
_cell_angle_gamma 90.000000
_cell_volume 1226.275334
_symmetry_space_group_name_H-M "P N N 2"
_symmetry_group_IT_number 34
_symmetry_cell_setting 'orthorhombic'
loop_
_space_group_symop_operation_xyz
x,y,z
-x,-y,z
1/2-x,1/2+y,1/2+z
1/2+x,1/2-y,1/2+z
loop_
_atom_site_type_symbol
_atom_site_label
_atom_site_fract_x
_atom_site_fract_y
_atom_site_fract_z
Si Si1 0.480035 0.729668 0.330330
Si Si2 0.069162 0.614758 0.117993
Si Si3 0.507244 0.142106 0.989340
Si Si4 0.706202 0.180037 0.824628
Si Si5 0.237490 0.051612 0.462551
Si Si6 0.208165 0.307547 0.910149
Si Si7 0.331333 0.546910 0.322097
O O1 0.542617 0.776429 0.484696
O O2 0.391381 0.819056 0.328626
O O3 0.430120 0.599536 0.374094
O O4 0.518245 0.758227 0.138724
O O5 0.166984 0.566127 0.063318
O O6 0.000000 0.500000 0.094825
O O7 0.055245 0.654100 0.317716
O O8 0.610001 0.155235 0.916288
O O9 0.500000 0.000000 0.055297
O O10 0.700317 0.178383 0.616580
O O11 0.782775 0.079389 0.879224
O O12 0.728863 0.321121 0.864621
O O13 0.163503 0.041508 0.613408
O O14 0.235495 0.926178 0.350950
O O15 0.231971 0.165950 0.868400
#
# Coordination Sequence:
#
# PCOD9347259 Si02
#       7
#     4   4   4   4   4   4   4
#     4  10  19  36  56  84 117 158 196 250 302 357
#     4  11  19  38  55  89 123 148 199 263 294 359
#     4  11  20  33  61  89 118 153 204 248 306 358
#     4  11  20  37  59  91 120 163 193 257 315 352
#     4  11  21  36  61  89 122 155 203 257 308 357
#     4   9  19  36  57  82 122 154 196 249 297 358
#     4   9  19  37  54  83 124 151 199 251 292 366
#
# _framework density 22.833369999999999
#
# number of rings (size 3 to 8) (size 9 to 14) (size 15 to 20)
#    0.857    0.857    4.286    3.000    0.000    2.286 
#    2.571    0.714    0.000    0.000    0.000    3.000 
#    0.000    0.000    0.000    0.000    0.000    0.000 
#
# Total GULP energy -156076.593396 kJ/mol
# GULP energy per Si atom -5574.164050 kJ/mol
# Density = 2.278140 g / cm^3
# Si number density = 22.833370 Si / 1000 Ang^3
#
#
#
# Elastic Constant Matrix: (Units=GPa)
#
#
# Indices 1 2 3 4 5 6 
#
# 1 21.6899 17.4789 13.3129 0.0000 0.0000 0.0000
# 2 17.4789 129.0364 5.2636 0.0000 0.0000 0.0000
# 3 13.3129 5.2636 49.9045 0.0000 0.0000 0.0000
# 4 0.0000 0.0000 0.0000 6.1942 0.0000 0.0000
# 5 0.0000 0.0000 0.0000 0.0000 27.5194 0.0000
# 6 0.0000 0.0000 0.0000 0.0000 0.0000 31.9716
#
#
#
# Elastic Compliance Matrix: (Units=1/GPa)
#
#
# Indices 1 2 3 4 5 6 
#
# 1 0.062007 -0.007758 -0.015723 0.000000 0.000000 0.000000
# 2 -0.007758 0.008754 0.001146 0.000000 0.000000 0.000000
# 3 -0.015723 0.001146 0.024112 0.000000 0.000000 0.000000
# 4 0.000000 0.000000 0.000000 0.161440 0.000000 0.000000
# 5 0.000000 0.000000 0.000000 0.000000 0.036338 0.000000
# 6 0.000000 0.000000 0.000000 0.000000 0.000000 0.031278
#
#
# Mechanical properties :
#
#
# Convention : Reuss Voigt Hill
#
# Bulk Modulus (GPa) = 19.91921 30.30462 25.11191
# Shear Modulus (GPa) = 12.97582 24.10874 18.54228
#
# Velocity S-wave (km/s) = 2.38646 3.25292 2.85277
# Velocity P-wave (km/s) = 4.04181 5.23541 4.67684
#
# Compressibility (1/GPa) = 0.05020280
#
# Stress axis : x y z
#
# Youngs Moduli (GPa) = 16.12731 114.23548 41.47345
#
# Poissons Ratio (x) = 0.88622 0.65209
# Poissons Ratio (y) = 0.12511 -0.04754
# Poissons Ratio (z) = 0.25357 -0.13094
#
# Static dielectric constant tensor:
#      x y z
#    x 1.852840 0.000000 0.000000 
#    y 0.000000 1.978300 0.000000 
#    z 0.000000 0.000000 1.873150 
# 
# From -- ./inp_files/3918.got.cif
#   From: 2010.05.17/outbox.cif.g08.bks.cpg/sg34_2_cif.got.tgz:3918.got - 2010.06.03 17:23:11.
