data_PCOD9347256
_publ_section_title
;
Structure prediction by ZEFSAII (Michael W. Deem and Ramdas Pophale) SiO2 
 PCOD9347256
Probable space group: P N N 2
;
_chemical_formula_sum "Si O2"
_cell_formula_units_Z 32
_cell_length_a 32.004955
_cell_length_b 5.196094
_cell_length_c 8.859154
_cell_angle_alpha 90.000000
_cell_angle_beta 90.000000
_cell_angle_gamma 90.000000
_cell_volume 1473.283996
_symmetry_space_group_name_H-M "P N N 2"
_symmetry_group_IT_number 34
_symmetry_cell_setting 'orthorhombic'
loop_
_space_group_symop_operation_xyz
x,y,z
-x,-y,z
1/2-x,1/2+y,1/2+z
1/2+x,1/2-y,1/2+z
loop_
_atom_site_type_symbol
_atom_site_label
_atom_site_fract_x
_atom_site_fract_y
_atom_site_fract_z
Si Si1 0.633754 0.132954 0.160150
Si Si2 0.875425 0.185064 0.180990
Si Si3 0.719602 0.168223 0.577741
Si Si4 0.340623 0.820168 0.815994
Si Si5 0.659914 0.491209 0.392333
Si Si6 0.282539 0.127370 0.282883
Si Si7 0.547624 0.974253 0.040023
Si Si8 0.546482 0.477426 0.831745
O O1 0.630650 0.389281 0.261111
O O2 0.671917 0.984121 0.239976
O O3 0.588047 0.008716 0.146112
O O4 0.651796 0.175981 0.993419
O O5 0.846274 0.980803 0.272169
O O6 0.873059 0.469176 0.249362
O O7 0.919850 0.050124 0.206362
O O8 0.861187 0.188952 0.007452
O O9 0.676720 0.275763 0.507189
O O10 0.752865 0.375225 0.637705
O O11 0.702250 0.070354 0.740599
O O12 0.735042 0.990805 0.439769
O O13 0.703400 0.582371 0.318856
O O14 0.500000 0.000000 0.102926
O O15 0.550907 0.698401 0.959322
O O16 0.551244 0.204261 0.915523
O O17 0.500000 0.500000 0.769272
#
# Coordination Sequence:
#
# PCOD9347256 Si02
#       8
#     4   4   4   4   4   4   4   4
#     4  11  24  40  64  99 124 176 222 275 333 404
#     4  11  20  42  64  91 127 170 211 269 323 390
#     4  10  25  43  59  91 122 173 216 277 324 397
#     4  11  23  39  68  91 124 167 219 259 328 386
#     4  10  25  41  60  88 132 168 218 274 332 392
#     4  11  25  42  63  87 131 169 222 273 337 395
#     4  10  21  38  65  98 133 165 217 277 328 391
#     4  10  19  35  63  98 127 163 217 273 322 385
#
# _framework density 21.720185000000001
#
# number of rings (size 3 to 8) (size 9 to 14) (size 15 to 20)
#    0.000    1.500    3.750    0.000    7.000    2.000 
#    0.000    0.000    2.750    0.000    0.000    0.000 
#    0.000    0.000    0.000    0.000    0.000    0.000 
#
# Total GULP energy -178202.665014 kJ/mol
# GULP energy per Si atom -5568.833282 kJ/mol
# Density = 2.167075 g / cm^3
# Si number density = 21.720185 Si / 1000 Ang^3
#
#
#
# Elastic Constant Matrix: (Units=GPa)
#
#
# Indices 1 2 3 4 5 6 
#
# 1 110.7137 5.2506 41.3914 0.0000 0.0000 0.0000
# 2 5.2506 67.9799 19.3175 0.0000 0.0000 0.0000
# 3 41.3914 19.3175 113.5729 0.0000 0.0000 0.0000
# 4 0.0000 0.0000 0.0000 16.3504 0.0000 0.0000
# 5 0.0000 0.0000 0.0000 0.0000 30.1546 0.0000
# 6 0.0000 0.0000 0.0000 0.0000 0.0000 27.0296
#
#
#
# Elastic Compliance Matrix: (Units=1/GPa)
#
#
# Indices 1 2 3 4 5 6 
#
# 1 0.010463 0.000289 -0.003862 0.000000 0.000000 0.000000
# 2 0.000289 0.015465 -0.002736 0.000000 0.000000 0.000000
# 3 -0.003862 -0.002736 0.010678 0.000000 0.000000 0.000000
# 4 0.000000 0.000000 0.000000 0.061160 0.000000 0.000000
# 5 0.000000 0.000000 0.000000 0.000000 0.033162 0.000000
# 6 0.000000 0.000000 0.000000 0.000000 0.000000 0.036997
#
#
# Mechanical properties :
#
#
# Convention : Reuss Voigt Hill
#
# Bulk Modulus (GPa) = 41.68731 47.13171 44.40951
# Shear Modulus (GPa) = 26.51975 29.79407 28.15691
#
# Velocity S-wave (km/s) = 3.49803 3.70770 3.60439
# Velocity P-wave (km/s) = 5.96234 6.33056 6.14921
#
# Compressibility (1/GPa) = 0.02398812
#
# Stress axis : x y z
#
# Youngs Moduli (GPa) = 95.57923 64.66075 93.65160
#
# Poissons Ratio (x) = -0.01871 0.36171
# Poissons Ratio (y) = -0.02766 0.25623
# Poissons Ratio (z) = 0.36915 0.17691
#
# Static dielectric constant tensor:
#      x y z
#    x 1.870270 0.000000 0.000000 
#    y 0.000000 1.953690 0.000000 
#    z 0.000000 0.000000 1.810710 
# 
# From -- ./inp_files/2208.got.cif
#   From: 2010.05.17/outbox.cif.g08.bks.cpg/sg34_2_cif.got.tgz:2208.got - 2010.06.03 17:23:11.
