data_PCOD9347567
_publ_section_title
;
Structure prediction by ZEFSAII (Michael W. Deem and Ramdas Pophale) SiO2 
 PCOD9347567
Probable space group: P N N 2
;
_chemical_formula_sum "Si O2"
_cell_formula_units_Z 20
_cell_length_a 16.694852
_cell_length_b 7.781511
_cell_length_c 6.253563
_cell_angle_alpha 90.000000
_cell_angle_beta 90.000000
_cell_angle_gamma 90.000000
_cell_volume 812.407714
_symmetry_space_group_name_H-M "P N N 2"
_symmetry_group_IT_number 34
_symmetry_cell_setting 'orthorhombic'
loop_
_space_group_symop_operation_xyz
x,y,z
-x,-y,z
1/2-x,1/2+y,1/2+z
1/2+x,1/2-y,1/2+z
loop_
_atom_site_type_symbol
_atom_site_label
_atom_site_fract_x
_atom_site_fract_y
_atom_site_fract_z
Si Si1 0.347891 0.072422 0.711290
Si Si2 0.749477 0.752074 0.346785
Si Si3 0.475674 0.240250 0.487940
Si Si4 0.091448 0.819274 0.577833
Si Si5 0.392684 0.562130 0.710926
O O1 0.277617 0.171743 0.576649
O O2 0.420583 0.074448 0.536710
O O3 0.310503 0.907124 0.825109
O O4 0.391531 0.180635 0.894936
O O5 0.671818 0.693535 0.217768
O O6 0.798786 0.899110 0.217848
O O7 0.480549 0.266820 0.234304
O O8 0.421039 0.405853 0.562133
O O9 0.555034 0.279761 0.623421
O O10 0.086776 0.998223 0.450109
#
# Coordination Sequence:
#
# PCOD9347567 Si02
#       5
#     4   4   4   4   4
#     4  10  23  38  63  95 135 173 225 278 346 399
#     4  11  22  39  66 101 132 176 219 287 345 414
#     4   9  22  40  62  95 130 182 223 275 333 414
#     4  10  22  40  64  95 136 170 227 282 328 419
#     4  10  21  40  67  94 131 178 224 274 339 407
#
# _framework density 24.618182000000001
#
# number of rings (size 3 to 8) (size 9 to 14) (size 15 to 20)
#    0.000    2.000    2.000    0.000    8.400    7.200 
#    0.000    0.000    0.000   14.400    0.000    0.000 
#    0.000    0.000    0.000    0.000    0.000    0.000 
#
# Total GULP energy -111515.938053 kJ/mol
# GULP energy per Si atom -5575.796903 kJ/mol
# Density = 2.456215 g / cm^3
# Si number density = 24.618182 Si / 1000 Ang^3
#
#
#
# Elastic Constant Matrix: (Units=GPa)
#
#
# Indices 1 2 3 4 5 6 
#
# 1 91.9930 -8.8456 27.2352 0.0000 0.0000 0.0000
# 2 -8.8456 60.1286 10.2287 0.0000 0.0000 0.0000
# 3 27.2352 10.2287 128.2719 0.0000 0.0000 0.0000
# 4 0.0000 0.0000 0.0000 14.2299 0.0000 0.0000
# 5 0.0000 0.0000 0.0000 0.0000 40.5015 0.0000
# 6 0.0000 0.0000 0.0000 0.0000 0.0000 26.0646
#
#
#
# Elastic Compliance Matrix: (Units=1/GPa)
#
#
# Indices 1 2 3 4 5 6 
#
# 1 0.011882 0.002207 -0.002699 0.000000 0.000000 0.000000
# 2 0.002207 0.017270 -0.001846 0.000000 0.000000 0.000000
# 3 -0.002699 -0.001846 0.008516 0.000000 0.000000 0.000000
# 4 0.000000 0.000000 0.000000 0.070274 0.000000 0.000000
# 5 0.000000 0.000000 0.000000 0.000000 0.024690 0.000000
# 6 0.000000 0.000000 0.000000 0.000000 0.000000 0.038366
#
#
# Mechanical properties :
#
#
# Convention : Reuss Voigt Hill
#
# Bulk Modulus (GPa) = 30.30993 37.51447 33.91220
# Shear Modulus (GPa) = 26.78513 32.94424 29.86469
#
# Velocity S-wave (km/s) = 3.30210 3.66212 3.48676
# Velocity P-wave (km/s) = 5.18432 5.75787 5.47861
#
# Compressibility (1/GPa) = 0.03299248
#
# Stress axis : x y z
#
# Youngs Moduli (GPa) = 84.16384 57.90496 117.42426
#
# Poissons Ratio (x) = -0.12780 0.31690
# Poissons Ratio (y) = -0.18575 0.21673
# Poissons Ratio (z) = 0.22714 0.10688
#
# Static dielectric constant tensor:
#      x y z
#    x 2.031360 0.000000 0.000000 
#    y 0.000000 2.091420 0.000000 
#    z 0.000000 0.000000 2.000350 
# 
# From -- ./inp_files/1395.got.cif
#   From: 2010.05.17/outbox.cif.g08.bks.cpg/sg34_1_cif.got.tgz:1395.got - 2010.06.03 17:23:11.
