data_PCOD9347439
_publ_section_title
;
Structure prediction by ZEFSAII (Michael W. Deem and Ramdas Pophale) SiO2 
 PCOD9347439
Probable space group: P N N 2
;
_chemical_formula_sum "Si O2"
_cell_formula_units_Z 24
_cell_length_a 8.583631
_cell_length_b 8.893168
_cell_length_c 13.005277
_cell_angle_alpha 90.000000
_cell_angle_beta 90.000000
_cell_angle_gamma 90.000000
_cell_volume 992.766566
_symmetry_space_group_name_H-M "P N N 2"
_symmetry_group_IT_number 34
_symmetry_cell_setting 'orthorhombic'
loop_
_space_group_symop_operation_xyz
x,y,z
-x,-y,z
1/2-x,1/2+y,1/2+z
1/2+x,1/2-y,1/2+z
loop_
_atom_site_type_symbol
_atom_site_label
_atom_site_fract_x
_atom_site_fract_y
_atom_site_fract_z
Si Si1 0.288623 0.376913 0.858480
Si Si2 0.906568 0.800120 0.277870
Si Si3 0.162978 0.541298 0.049386
Si Si4 0.136837 0.911034 0.717937
Si Si5 0.093949 0.857506 0.063269
Si Si6 0.584475 0.155835 0.177108
O O1 0.449937 0.285230 0.857559
O O2 0.330143 0.539412 0.806714
O O3 0.166526 0.298934 0.784248
O O4 0.215907 0.420796 0.966200
O O5 0.777777 0.670492 0.276352
O O6 0.990517 0.816547 0.165908
O O7 0.289527 0.531108 0.138306
O O8 0.123609 0.703473 0.000786
O O9 0.000000 0.500000 0.099770
O O10 0.049915 0.777213 0.654858
O O11 0.000000 0.000000 0.775466
O O12 0.271930 0.881680 0.100992
O O13 0.000000 0.000000 0.019837
O O14 0.500000 0.000000 0.196541
#
# Coordination Sequence:
#
# PCOD9347439 Si02
#       6
#     4   4   4   4   4   4
#     4  10  22  41  69  94 127 188 237 284 345 435
#     4  10  20  40  67  92 131 185 236 269 347 433
#     4  12  26  40  67 106 144 174 237 303 363 411
#     4  12  24  39  64 107 140 177 233 309 343 414
#     4  11  20  41  67 100 132 187 228 287 350 433
#     4  11  20  37  68  96 128 181 247 270 334 439
#
# _framework density 24.174868
#
# number of rings (size 3 to 8) (size 9 to 14) (size 15 to 20)
#    0.000    1.000    8.333    0.500    2.333    0.000 
#    0.000    0.833    0.000    2.000    0.000    0.000 
#    0.000    0.000    0.000    0.000    0.000    0.000 
#
# Total GULP energy -133910.896170 kJ/mol
# GULP energy per Si atom -5579.620674 kJ/mol
# Density = 2.411984 g / cm^3
# Si number density = 24.174868 Si / 1000 Ang^3
#
#
#
# Elastic Constant Matrix: (Units=GPa)
#
#
# Indices 1 2 3 4 5 6 
#
# 1 167.5416 66.1159 27.3144 0.0000 0.0000 0.0000
# 2 66.1159 104.3845 5.0973 0.0000 0.0000 0.0000
# 3 27.3144 5.0973 44.5946 0.0000 0.0000 0.0000
# 4 0.0000 0.0000 0.0000 17.7514 0.0000 0.0000
# 5 0.0000 0.0000 0.0000 0.0000 14.8108 0.0000
# 6 0.0000 0.0000 0.0000 0.0000 0.0000 65.7288
#
#
#
# Elastic Compliance Matrix: (Units=1/GPa)
#
#
# Indices 1 2 3 4 5 6 
#
# 1 0.008882 -0.005390 -0.004824 0.000000 0.000000 0.000000
# 2 -0.005390 0.012905 0.001827 0.000000 0.000000 0.000000
# 3 -0.004824 0.001827 0.025170 0.000000 0.000000 0.000000
# 4 0.000000 0.000000 0.000000 0.056334 0.000000 0.000000
# 5 0.000000 0.000000 0.000000 0.000000 0.067518 0.000000
# 6 0.000000 0.000000 0.000000 0.000000 0.000000 0.015214
#
#
# Mechanical properties :
#
#
# Convention : Reuss Voigt Hill
#
# Bulk Modulus (GPa) = 33.13301 57.06398 45.09849
# Shear Modulus (GPa) = 23.48957 34.19109 28.84033
#
# Velocity S-wave (km/s) = 3.12052 3.76483 3.45771
# Velocity P-wave (km/s) = 5.16902 6.52338 5.88529
#
# Compressibility (1/GPa) = 0.03018138
#
# Stress axis : x y z
#
# Youngs Moduli (GPa) = 112.58277 77.48947 39.72918
#
# Poissons Ratio (x) = 0.41770 0.19167
# Poissons Ratio (y) = 0.60686 -0.07257
# Poissons Ratio (z) = 0.54314 -0.14154
#
# Static dielectric constant tensor:
#      x y z
#    x 1.946480 0.000000 0.000000 
#    y 0.000000 2.001250 0.000000 
#    z 0.000000 0.000000 1.903210 
# 
# From -- ./inp_files/6391.got.cif
#   From: 2010.05.17/outbox.cif.g08.bks.cpg/sg34_4_cif.got.tgz:6391.got - 2010.06.03 17:23:11.
