data_PCOD9347428
_publ_section_title
;
Structure prediction by ZEFSAII (Michael W. Deem and Ramdas Pophale) SiO2 
 PCOD9347428
Probable space group: P N N 2
;
_chemical_formula_sum "Si O2"
_cell_formula_units_Z 30
_cell_length_a 16.810459
_cell_length_b 12.586834
_cell_length_c 6.763918
_cell_angle_alpha 90.000000
_cell_angle_beta 90.000000
_cell_angle_gamma 90.000000
_cell_volume 1431.180500
_symmetry_space_group_name_H-M "P N N 2"
_symmetry_group_IT_number 34
_symmetry_cell_setting 'orthorhombic'
loop_
_space_group_symop_operation_xyz
x,y,z
-x,-y,z
1/2-x,1/2+y,1/2+z
1/2+x,1/2-y,1/2+z
loop_
_atom_site_type_symbol
_atom_site_label
_atom_site_fract_x
_atom_site_fract_y
_atom_site_fract_z
Si Si1 0.000000 0.000000 0.202670
Si Si2 0.757675 0.728323 0.460982
Si Si3 0.132267 0.345507 0.134921
Si Si4 0.206637 0.564322 0.119071
Si Si5 0.509288 0.330711 0.039471
Si Si6 0.667510 0.311468 0.301527
Si Si7 0.907235 0.130434 0.915640
Si Si8 0.456719 0.178752 0.710518
O O1 0.023240 0.092635 0.353358
O O2 0.929238 0.031086 0.053496
O O3 0.834195 0.689170 0.346347
O O4 0.734251 0.854039 0.444539
O O5 0.774930 0.724888 0.694201
O O6 0.684363 0.658059 0.396958
O O7 0.185865 0.444450 0.064473
O O8 0.039652 0.375102 0.147594
O O9 0.143187 0.239739 0.005188
O O10 0.278153 0.583621 0.277262
O O11 0.123536 0.610468 0.204404
O O12 0.472659 0.228003 0.928462
O O13 0.589821 0.319734 0.164603
O O14 0.447276 0.375266 0.201177
O O15 0.942577 0.228778 0.045998
#
# Coordination Sequence:
#
# PCOD9347428 Si02
#       8
#     2   4   4   4   4   4   4   4
#     4  10  24  36  64  96 122 170 214 254 318 388
#     4   9  23  43  56  95 127 155 213 259 312 377
#     4  12  21  42  69  86 129 173 198 268 322 372
#     4   9  23  42  61  94 126 161 212 260 314 379
#     4  11  21  40  64  90 132 163 212 266 311 381
#     4  10  23  41  61  95 126 160 216 259 314 376
#     4  10  21  39  62  90 128 168 206 261 318 375
#     4  10  20  40  63  89 124 163 211 266 309 377
#
# _framework density 20.961715999999999
#
# number of rings (size 3 to 8) (size 9 to 14) (size 15 to 20)
#    0.800    1.067    2.667    0.800    1.867    3.200 
#    2.400    0.000    0.000    0.000    0.000    0.000 
#    0.000    0.000    0.000    0.000    0.000    0.000 
#
# Total GULP energy -167092.436376 kJ/mol
# GULP energy per Si atom -5569.747879 kJ/mol
# Density = 2.091401 g / cm^3
# Si number density = 20.961716 Si / 1000 Ang^3
#
#
#
# Elastic Constant Matrix: (Units=GPa)
#
#
# Indices 1 2 3 4 5 6 
#
# 1 80.8365 -4.4656 0.3153 0.0000 0.0000 0.0000
# 2 -4.4656 44.1179 3.0837 0.0000 0.0000 0.0000
# 3 0.3153 3.0837 56.0516 0.0000 0.0000 0.0000
# 4 0.0000 0.0000 0.0000 20.2147 0.0000 0.0000
# 5 0.0000 0.0000 0.0000 0.0000 21.9873 0.0000
# 6 0.0000 0.0000 0.0000 0.0000 0.0000 20.1188
#
#
#
# Elastic Compliance Matrix: (Units=1/GPa)
#
#
# Indices 1 2 3 4 5 6 
#
# 1 0.012441 0.001269 -0.000140 0.000000 0.000000 0.000000
# 2 0.001269 0.022884 -0.001266 0.000000 0.000000 0.000000
# 3 -0.000140 -0.001266 0.017911 0.000000 0.000000 0.000000
# 4 0.000000 0.000000 0.000000 0.049469 0.000000 0.000000
# 5 0.000000 0.000000 0.000000 0.000000 0.045481 0.000000
# 6 0.000000 0.000000 0.000000 0.000000 0.000000 0.049705
#
#
# Mechanical properties :
#
#
# Convention : Reuss Voigt Hill
#
# Bulk Modulus (GPa) = 18.88133 19.87474 19.37803
# Shear Modulus (GPa) = 23.16764 24.60232 23.88498
#
# Velocity S-wave (km/s) = 3.32812 3.42962 3.37925
# Velocity P-wave (km/s) = 4.87807 5.01847 4.94877
#
# Compressibility (1/GPa) = 0.05296237
#
# Stress axis : x y z
#
# Youngs Moduli (GPa) = 80.37742 43.69960 55.83112
#
# Poissons Ratio (x) = -0.05546 0.00781
# Poissons Ratio (y) = -0.10201 0.07069
# Poissons Ratio (z) = 0.01124 0.05533
#
# Static dielectric constant tensor:
#      x y z
#    x 1.779250 0.000000 0.000000 
#    y 0.000000 1.835440 0.000000 
#    z 0.000000 0.000000 1.716610 
# 
# From -- ./inp_files/1486.got.cif
#   From: 2010.05.17/outbox.cif.g08.bks.cpg/sg34_1_cif.got.tgz:1486.got - 2010.06.03 17:23:11.
