data_PCOD9347092
_publ_section_title
;
Structure prediction by ZEFSAII (Michael W. Deem and Ramdas Pophale) SiO2 
 PCOD9347092
Probable space group: P N N 2
;
_chemical_formula_sum "Si O2"
_cell_formula_units_Z 26
_cell_length_a 5.475477
_cell_length_b 14.676007
_cell_length_c 12.511400
_cell_angle_alpha 90.000000
_cell_angle_beta 90.000000
_cell_angle_gamma 90.000000
_cell_volume 1005.392818
_symmetry_space_group_name_H-M "P N N 2"
_symmetry_group_IT_number 34
_symmetry_cell_setting 'orthorhombic'
loop_
_space_group_symop_operation_xyz
x,y,z
-x,-y,z
1/2-x,1/2+y,1/2+z
1/2+x,1/2-y,1/2+z
loop_
_atom_site_type_symbol
_atom_site_label
_atom_site_fract_x
_atom_site_fract_y
_atom_site_fract_z
Si Si1 0.468302 0.801538 0.320130
Si Si2 0.501807 0.889951 0.625575
Si Si3 0.534708 0.211693 0.856313
Si Si4 0.007974 0.829768 0.635263
Si Si5 0.000000 0.500000 0.788089
Si Si6 0.805594 0.431533 0.494971
Si Si7 0.500000 0.500000 0.301660
Si Si8 0.000000 0.000000 0.161470
O O1 0.183324 0.784026 0.341143
O O2 0.501937 0.766808 0.196193
O O3 0.538699 0.904342 0.344917
O O4 0.685280 0.740583 0.370471
O O5 0.488189 0.848430 0.746951
O O6 0.257367 0.849330 0.573380
O O7 0.753602 0.851509 0.579110
O O8 0.500000 0.000000 0.626900
O O9 0.443857 0.156939 0.958517
O O10 0.012560 0.911941 0.725827
O O11 0.739071 0.517777 0.730154
O O12 0.714968 0.480431 0.385917
O O13 0.584295 0.421154 0.577806
O O14 0.000000 0.500000 0.545050
#
# Coordination Sequence:
#
# PCOD9347092 Si02
#       8
#     4   4   4   4   2   4   2   2
#     4  10  21  34  54  72 102 158 191 252 273 333
#     4  10  14  22  35  62 103 137 146 182 262 373
#     4  10  19  30  51  84 105 134 184 237 326 331
#     4  10  17  24  40  71  96 137 166 202 293 336
#     4  12  24  46  54  70 118 174 232 226 254 356
#     4  11  20  32  54  85 124 149 174 234 299 388
#     4  11  16  24  46  76 122 140 149 216 300 397
#     4  11  26  38  58  80 110 184 201 228 286 353
#
# _framework density 25.860537999999998
#
# number of rings (size 3 to 8) (size 9 to 14) (size 15 to 20)
#    0.000    1.538    5.385    3.231    2.154    0.000 
#    0.000    0.000    0.000    0.000    0.000    0.000 
#    0.000    4.923   15.231    0.000    0.000    0.000 
#
# Total GULP energy -145254.939882 kJ/mol
# GULP energy per Si atom -5586.728457 kJ/mol
# Density = 2.580168 g / cm^3
# Si number density = 25.860538 Si / 1000 Ang^3
#
#
#
# Elastic Constant Matrix: (Units=GPa)
#
#
# Indices 1 2 3 4 5 6 
#
# 1 164.3846 -13.8104 6.8989 0.0000 0.0000 0.0000
# 2 -13.8104 79.8462 -3.5328 0.0000 0.0000 0.0000
# 3 6.8989 -3.5328 57.9149 0.0000 0.0000 0.0000
# 4 0.0000 0.0000 0.0000 38.3161 0.0000 0.0000
# 5 0.0000 0.0000 0.0000 0.0000 18.8376 0.0000
# 6 0.0000 0.0000 0.0000 0.0000 0.0000 18.0174
#
#
#
# Elastic Compliance Matrix: (Units=1/GPa)
#
#
# Indices 1 2 3 4 5 6 
#
# 1 0.006199 0.001042 -0.000675 0.000000 0.000000 0.000000
# 2 0.001042 0.012733 0.000653 0.000000 0.000000 0.000000
# 3 -0.000675 0.000653 0.017387 0.000000 0.000000 0.000000
# 4 0.000000 0.000000 0.000000 0.026099 0.000000 0.000000
# 5 0.000000 0.000000 0.000000 0.000000 0.053085 0.000000
# 6 0.000000 0.000000 0.000000 0.000000 0.000000 0.055502
#
#
# Mechanical properties :
#
#
# Convention : Reuss Voigt Hill
#
# Bulk Modulus (GPa) = 26.06918 31.25078 28.65998
# Shear Modulus (GPa) = 27.51006 35.87355 31.69181
#
# Velocity S-wave (km/s) = 3.26511 3.72854 3.50450
# Velocity P-wave (km/s) = 4.93124 5.53594 5.24232
#
# Compressibility (1/GPa) = 0.03835947
#
# Stress axis : x y z
#
# Youngs Moduli (GPa) = 161.31133 78.53458 57.51451
#
# Poissons Ratio (x) = -0.08186 0.03882
# Poissons Ratio (y) = -0.16815 -0.03753
# Poissons Ratio (z) = 0.10886 -0.05125
#
# Static dielectric constant tensor:
#      x y z
#    x 2.087590 0.000000 0.000000 
#    y 0.000000 1.815870 0.000000 
#    z 0.000000 0.000000 2.056820 
# 
# From -- ./inp_files/7232.got.cif
#   From: 2010.05.17/outbox.cif.g08.bks.cpg/sg34_4_cif.got.tgz:7232.got - 2010.06.03 17:23:11.
