data_PCOD9347866
_publ_section_title
;
Structure prediction by ZEFSAII (Michael W. Deem and Ramdas Pophale) SiO2 
 PCOD9347866
Probable space group: P N N 2
;
_chemical_formula_sum "Si O2"
_cell_formula_units_Z 18
_cell_length_a 7.355340
_cell_length_b 18.736310
_cell_length_c 5.342586
_cell_angle_alpha 90.000000
_cell_angle_beta 90.000000
_cell_angle_gamma 90.000000
_cell_volume 736.272090
_symmetry_space_group_name_H-M "P N N 2"
_symmetry_group_IT_number 34
_symmetry_cell_setting 'orthorhombic'
loop_
_space_group_symop_operation_xyz
x,y,z
-x,-y,z
1/2-x,1/2+y,1/2+z
1/2+x,1/2-y,1/2+z
loop_
_atom_site_type_symbol
_atom_site_label
_atom_site_fract_x
_atom_site_fract_y
_atom_site_fract_z
Si Si1 0.778921 0.229163 0.009270
Si Si2 0.735337 0.397584 0.990225
Si Si3 0.962102 0.614551 0.664149
Si Si4 0.146088 0.850427 0.492410
Si Si5 0.500000 0.000000 0.792572
O O1 0.583295 0.192366 0.060297
O O2 0.894819 0.194186 0.235765
O O3 0.775565 0.313540 0.047784
O O4 0.833763 0.197881 0.739330
O O5 0.828313 0.401039 0.716761
O O6 0.520896 0.404291 0.017909
O O7 0.851466 0.454232 0.143734
O O8 0.895936 0.556017 0.471328
O O9 0.837955 0.613304 0.915118
#
# Coordination Sequence:
#
# PCOD9347866 Si02
#       5
#     4   4   4   4   2
#     4  10  25  46  81 114 148 189 269 319 378 456
#     4  12  26  48  76 112 156 205 252 326 391 461
#     4  10  26  48  75 112 154 197 258 317 383 471
#     4  10  26  46  78 115 145 201 258 320 375 458
#     4  12  28  48  74 112 164 210 250 322 406 462
#
# _framework density 24.447482000000001
#
# number of rings (size 3 to 8) (size 9 to 14) (size 15 to 20)
#    1.333    0.000    0.000    3.333   12.444    0.000 
#    0.000   16.667    0.000    0.000    0.000    0.000 
#    0.000    0.000    0.000    0.000    0.000    0.000 
#
# Total GULP energy -100448.440404 kJ/mol
# GULP energy per Si atom -5580.468911 kJ/mol
# Density = 2.439184 g / cm^3
# Si number density = 24.447482 Si / 1000 Ang^3
#
#
#
# Elastic Constant Matrix: (Units=GPa)
#
#
# Indices 1 2 3 4 5 6 
#
# 1 80.9862 -9.8175 7.6436 0.0000 0.0000 0.0000
# 2 -9.8175 84.4392 15.9301 0.0000 0.0000 0.0000
# 3 7.6436 15.9301 113.8045 0.0000 0.0000 0.0000
# 4 0.0000 0.0000 0.0000 47.1946 0.0000 0.0000
# 5 0.0000 0.0000 0.0000 0.0000 23.3493 0.0000
# 6 0.0000 0.0000 0.0000 0.0000 0.0000 31.1470
#
#
#
# Elastic Compliance Matrix: (Units=1/GPa)
#
#
# Indices 1 2 3 4 5 6 
#
# 1 0.012653 0.001676 -0.001084 0.000000 0.000000 0.000000
# 2 0.001676 0.012386 -0.001846 0.000000 0.000000 0.000000
# 3 -0.001084 -0.001846 0.009118 0.000000 0.000000 0.000000
# 4 0.000000 0.000000 0.000000 0.021189 0.000000 0.000000
# 5 0.000000 0.000000 0.000000 0.000000 0.042828 0.000000
# 6 0.000000 0.000000 0.000000 0.000000 0.000000 0.032106
#
#
# Mechanical properties :
#
#
# Convention : Reuss Voigt Hill
#
# Bulk Modulus (GPa) = 31.59798 34.08246 32.84022
# Shear Modulus (GPa) = 34.88227 38.03642 36.45934
#
# Velocity S-wave (km/s) = 3.78143 3.94870 3.86597
# Velocity P-wave (km/s) = 5.65849 5.89584 5.77839
#
# Compressibility (1/GPa) = 0.03164759
#
# Stress axis : x y z
#
# Youngs Moduli (GPa) = 79.03089 80.73637 109.66989
#
# Poissons Ratio (x) = -0.13529 0.11893
# Poissons Ratio (y) = -0.13244 0.20248
# Poissons Ratio (z) = 0.08570 0.14906
#
# Static dielectric constant tensor:
#      x y z
#    x 1.973710 0.000000 0.000000 
#    y 0.000000 1.988190 0.000000 
#    z 0.000000 0.000000 2.021010 
# 
# From -- ./inp_files/389.got.cif
#   From: 2010.05.17/outbox.cif.g08.bks.cpg/sg34_1_cif.got.tgz:389.got - 2010.06.03 17:23:11.
