data_PCOD9347627
_publ_section_title
;
Structure prediction by ZEFSAII (Michael W. Deem and Ramdas Pophale) SiO2 
 PCOD9347627
Probable space group: P N N 2
;
_chemical_formula_sum "Si O2"
_cell_formula_units_Z 20
_cell_length_a 23.764191
_cell_length_b 5.330076
_cell_length_c 7.125209
_cell_angle_alpha 90.000000
_cell_angle_beta 90.000000
_cell_angle_gamma 90.000000
_cell_volume 902.514200
_symmetry_space_group_name_H-M "P N N 2"
_symmetry_group_IT_number 34
_symmetry_cell_setting 'orthorhombic'
loop_
_space_group_symop_operation_xyz
x,y,z
-x,-y,z
1/2-x,1/2+y,1/2+z
1/2+x,1/2-y,1/2+z
loop_
_atom_site_type_symbol
_atom_site_label
_atom_site_fract_x
_atom_site_fract_y
_atom_site_fract_z
Si Si1 0.219618 0.697637 0.295470
Si Si2 0.875932 0.520413 0.568101
Si Si3 0.869658 0.926786 0.271824
Si Si4 0.172354 0.390061 0.959888
Si Si5 0.035030 0.742292 0.342355
O O1 0.178139 0.577141 0.450120
O O2 0.283099 0.699355 0.364367
O O3 0.194413 0.977632 0.279789
O O4 0.208992 0.568670 0.095344
O O5 0.884664 0.792573 0.468561
O O6 0.860040 0.500582 0.783260
O O7 0.932207 0.364646 0.523843
O O8 0.910806 0.158013 0.226609
O O9 0.871487 0.735754 0.101500
O O10 0.000000 0.500000 0.271317
O O11 0.000000 0.000000 0.365520
#
# Coordination Sequence:
#
# PCOD9347627 Si02
#       5
#     4   4   4   4   4
#     4  10  22  37  61 100 141 183 218 274 336 406
#     4  10  22  40  68  98 132 178 228 283 335 411
#     4  10  22  40  68  98 135 177 228 284 336 408
#     4  11  22  39  65 102 141 179 227 269 340 407
#     4  11  22  44  78  96 131 183 229 288 359 398
#
# _framework density 22.160319000000001
#
# number of rings (size 3 to 8) (size 9 to 14) (size 15 to 20)
#    0.000    1.600    2.000    2.400    0.000    8.000 
#    0.000    0.000   17.600    0.000    0.000    0.000 
#    0.000    0.000    0.000    0.000    0.000    0.000 
#
# Total GULP energy -111531.219926 kJ/mol
# GULP energy per Si atom -5576.560996 kJ/mol
# Density = 2.210988 g / cm^3
# Si number density = 22.160319 Si / 1000 Ang^3
#
#
#
# Elastic Constant Matrix: (Units=GPa)
#
#
# Indices 1 2 3 4 5 6 
#
# 1 65.2053 16.5700 -0.0002 0.0000 0.0000 0.0000
# 2 16.5700 94.3155 25.5938 0.0000 0.0000 0.0000
# 3 -0.0002 25.5938 121.7341 0.0000 0.0000 0.0000
# 4 0.0000 0.0000 0.0000 13.6339 0.0000 0.0000
# 5 0.0000 0.0000 0.0000 0.0000 12.5701 0.0000
# 6 0.0000 0.0000 0.0000 0.0000 0.0000 44.9420
#
#
#
# Elastic Compliance Matrix: (Units=1/GPa)
#
#
# Indices 1 2 3 4 5 6 
#
# 1 0.016098 -0.002999 0.000631 0.000000 0.000000 0.000000
# 2 -0.002999 0.011803 -0.002482 0.000000 0.000000 0.000000
# 3 0.000631 -0.002482 0.008736 0.000000 0.000000 0.000000
# 4 0.000000 0.000000 0.000000 0.073347 0.000000 0.000000
# 5 0.000000 0.000000 0.000000 0.000000 0.079554 0.000000
# 6 0.000000 0.000000 0.000000 0.000000 0.000000 0.022251
#
#
# Mechanical properties :
#
#
# Convention : Reuss Voigt Hill
#
# Bulk Modulus (GPa) = 37.12337 40.62023 38.87180
# Shear Modulus (GPa) = 21.69493 30.16863 25.93178
#
# Velocity S-wave (km/s) = 3.13229 3.69369 3.42451
# Velocity P-wave (km/s) = 5.46536 6.04658 5.76330
#
# Compressibility (1/GPa) = 0.02693721
#
# Stress axis : x y z
#
# Youngs Moduli (GPa) = 62.11802 84.72386 114.46434
#
# Poissons Ratio (x) = 0.25412 -0.07218
# Poissons Ratio (y) = 0.18632 0.28404
# Poissons Ratio (z) = -0.03917 0.21024
#
# Static dielectric constant tensor:
#      x y z
#    x 1.883010 0.000000 0.000000 
#    y 0.000000 1.961980 0.000000 
#    z 0.000000 0.000000 1.780020 
# 
# From -- ./inp_files/170.got.cif
#   From: 2010.05.17/outbox.cif.g08.bks.cpg/sg34_1_cif.got.tgz:170.got - 2010.06.03 17:23:11.
