data_PCOD9347712
_publ_section_title
;
Structure prediction by ZEFSAII (Michael W. Deem and Ramdas Pophale) SiO2 
 PCOD9347712
Probable space group: P N N 2
;
_chemical_formula_sum "Si O2"
_cell_formula_units_Z 24
_cell_length_a 21.631559
_cell_length_b 8.745944
_cell_length_c 5.338803
_cell_angle_alpha 90.000000
_cell_angle_beta 90.000000
_cell_angle_gamma 90.000000
_cell_volume 1010.039617
_symmetry_space_group_name_H-M "P N N 2"
_symmetry_group_IT_number 34
_symmetry_cell_setting 'orthorhombic'
loop_
_space_group_symop_operation_xyz
x,y,z
-x,-y,z
1/2-x,1/2+y,1/2+z
1/2+x,1/2-y,1/2+z
loop_
_atom_site_type_symbol
_atom_site_label
_atom_site_fract_x
_atom_site_fract_y
_atom_site_fract_z
Si Si1 0.051325 0.893990 0.077940
Si Si2 0.223346 0.985829 0.399304
Si Si3 0.841396 0.903779 0.900130
Si Si4 0.145495 0.700251 0.429015
Si Si5 0.644412 0.055653 0.563552
Si Si6 0.456300 0.114080 0.303301
O O1 0.099231 0.798768 0.248543
O O2 0.094696 0.000954 0.906924
O O3 0.015045 0.764283 0.923024
O O4 0.000000 0.000000 0.209635
O O5 0.199990 0.022814 0.121650
O O6 0.204720 0.808806 0.456529
O O7 0.296406 0.008774 0.411494
O O8 0.189531 0.080248 0.624556
O O9 0.853186 0.733675 0.002701
O O10 0.157337 0.529772 0.326018
O O11 0.103482 0.679438 0.667962
O O12 0.575545 0.999117 0.501348
O O13 0.500000 0.000000 0.148908
#
# Coordination Sequence:
#
# PCOD9347712 Si02
#       6
#     4   4   4   4   4   4
#     4  10  22  44  68  94 139 183 236 291 357 427
#     4  11  25  45  70 101 143 184 234 292 356 424
#     4  11  25  44  69 105 137 184 237 290 354 423
#     4  10  24  45  66 101 143 187 234 303 359 422
#     4  11  26  41  71  98 139 182 235 291 357 424
#     4  11  24  43  67  99 138 181 235 295 358 426
#
# _framework density 23.761443
#
# number of rings (size 3 to 8) (size 9 to 14) (size 15 to 20)
#    0.000    1.333    1.667    2.000    7.000    4.667 
#    3.000    0.000    0.000    0.000    0.000    0.000 
#    0.000    0.000    0.000    0.000    0.000    0.000 
#
# Total GULP energy -133851.466517 kJ/mol
# GULP energy per Si atom -5577.144438 kJ/mol
# Density = 2.370736 g / cm^3
# Si number density = 23.761443 Si / 1000 Ang^3
#
#
#
# Elastic Constant Matrix: (Units=GPa)
#
#
# Indices 1 2 3 4 5 6 
#
# 1 81.2858 29.2606 4.6494 0.0000 0.0000 0.0000
# 2 29.2606 137.6679 14.5487 0.0000 0.0000 0.0000
# 3 4.6494 14.5487 53.8162 0.0000 0.0000 0.0000
# 4 0.0000 0.0000 0.0000 20.8556 0.0000 0.0000
# 5 0.0000 0.0000 0.0000 0.0000 4.3638 0.0000
# 6 0.0000 0.0000 0.0000 0.0000 0.0000 38.8271
#
#
#
# Elastic Compliance Matrix: (Units=1/GPa)
#
#
# Indices 1 2 3 4 5 6 
#
# 1 0.013330 -0.002791 -0.000397 0.000000 0.000000 0.000000
# 2 -0.002791 0.008062 -0.001938 0.000000 0.000000 0.000000
# 3 -0.000397 -0.001938 0.019140 0.000000 0.000000 0.000000
# 4 0.000000 0.000000 0.000000 0.047949 0.000000 0.000000
# 5 0.000000 0.000000 0.000000 0.000000 0.229160 0.000000
# 6 0.000000 0.000000 0.000000 0.000000 0.000000 0.025755
#
#
# Mechanical properties :
#
#
# Convention : Reuss Voigt Hill
#
# Bulk Modulus (GPa) = 33.02660 41.07638 37.05149
# Shear Modulus (GPa) = 13.74601 27.76338 20.75469
#
# Velocity S-wave (km/s) = 2.40781 3.42193 2.95864
# Velocity P-wave (km/s) = 4.65398 5.73910 5.22479
#
# Compressibility (1/GPa) = 0.03027863
#
# Stress axis : x y z
#
# Youngs Moduli (GPa) = 75.02026 124.03935 52.24637
#
# Poissons Ratio (x) = 0.34622 0.02074
# Poissons Ratio (y) = 0.20940 0.10127
# Poissons Ratio (z) = 0.02979 0.24043
#
# Static dielectric constant tensor:
#      x y z
#    x 1.973540 0.000000 0.000000 
#    y 0.000000 1.958290 0.000000 
#    z 0.000000 0.000000 1.939520 
# 
# From -- ./inp_files/476.got.cif
#   From: 2010.05.17/outbox.cif.g08.bks.cpg/sg34_1_cif.got.tgz:476.got - 2010.06.03 17:23:11.
