data_PCOD9347809
_publ_section_title
;
Structure prediction by ZEFSAII (Michael W. Deem and Ramdas Pophale) SiO2 
 PCOD9347809
Probable space group: P N N 2
;
_chemical_formula_sum "Si O2"
_cell_formula_units_Z 24
_cell_length_a 6.140326
_cell_length_b 22.303940
_cell_length_c 7.342036
_cell_angle_alpha 90.000000
_cell_angle_beta 90.000000
_cell_angle_gamma 90.000000
_cell_volume 1005.517253
_symmetry_space_group_name_H-M "P N N 2"
_symmetry_group_IT_number 34
_symmetry_cell_setting 'orthorhombic'
loop_
_space_group_symop_operation_xyz
x,y,z
-x,-y,z
1/2-x,1/2+y,1/2+z
1/2+x,1/2-y,1/2+z
loop_
_atom_site_type_symbol
_atom_site_label
_atom_site_fract_x
_atom_site_fract_y
_atom_site_fract_z
Si Si1 0.261774 0.407109 0.849380
Si Si2 0.759981 0.991107 0.652921
Si Si3 0.778028 0.245879 0.000608
Si Si4 0.534074 0.127618 0.021636
Si Si5 0.374313 0.672967 0.679712
Si Si6 0.582751 0.866160 0.625464
O O1 0.278487 0.465580 0.975669
O O2 0.467002 0.365007 0.811066
O O3 0.170708 0.417468 0.645322
O O4 0.077589 0.368116 0.953469
O O5 0.500000 0.000000 0.718355
O O6 0.748901 0.920806 0.608009
O O7 0.000000 0.000000 0.749326
O O8 0.602871 0.196536 0.058412
O O9 0.996324 0.207147 0.021203
O O10 0.802844 0.302287 0.134283
O O11 0.726767 0.275609 0.807770
O O12 0.286942 0.126130 0.086177
O O13 0.556924 0.122277 0.806844
#
# Coordination Sequence:
#
# PCOD9347809 Si02
#       6
#     4   4   4   4   4   4
#     4  10  24  47  72  99 145 197 248 312 380 447
#     4  10  23  47  78 102 137 200 251 307 381 442
#     4  11  23  39  65 104 147 191 234 299 376 455
#     4  11  25  43  70 110 142 196 246 309 369 463
#     4  11  24  41  69 102 148 191 245 299 382 447
#     4  11  23  45  73 104 148 191 253 307 379 453
#
# _framework density 23.868310000000001
#
# number of rings (size 3 to 8) (size 9 to 14) (size 15 to 20)
#    0.000    1.333    3.333    1.000    7.000    0.000 
#   15.000    7.500    0.000    0.000    0.000    0.000 
#    0.000    0.000    0.000    0.000    0.000    0.000 
#
# Total GULP energy -133833.170280 kJ/mol
# GULP energy per Si atom -5576.382095 kJ/mol
# Density = 2.381399 g / cm^3
# Si number density = 23.868310 Si / 1000 Ang^3
#
#
#
# Elastic Constant Matrix: (Units=GPa)
#
#
# Indices 1 2 3 4 5 6 
#
# 1 83.6262 -1.1168 1.1150 0.0000 0.0000 0.0000
# 2 -1.1168 87.3904 -25.7230 0.0000 0.0000 0.0000
# 3 1.1150 -25.7230 59.2558 0.0000 0.0000 0.0000
# 4 0.0000 0.0000 0.0000 15.7051 0.0000 0.0000
# 5 0.0000 0.0000 0.0000 0.0000 20.5505 0.0000
# 6 0.0000 0.0000 0.0000 0.0000 0.0000 29.0544
#
#
#
# Elastic Compliance Matrix: (Units=1/GPa)
#
#
# Indices 1 2 3 4 5 6 
#
# 1 0.011962 0.000099 -0.000182 0.000000 0.000000 0.000000
# 2 0.000099 0.013120 0.005694 0.000000 0.000000 0.000000
# 3 -0.000182 0.005694 0.019351 0.000000 0.000000 0.000000
# 4 0.000000 0.000000 0.000000 0.063673 0.000000 0.000000
# 5 0.000000 0.000000 0.000000 0.000000 0.048661 0.000000
# 6 0.000000 0.000000 0.000000 0.000000 0.000000 0.034418
#
#
# Mechanical properties :
#
#
# Convention : Reuss Voigt Hill
#
# Bulk Modulus (GPa) = 17.96799 19.86921 18.91860
# Shear Modulus (GPa) = 25.18706 30.12849 27.65778
#
# Velocity S-wave (km/s) = 3.25199 3.55671 3.40776
# Velocity P-wave (km/s) = 4.65240 5.02091 4.84017
#
# Compressibility (1/GPa) = 0.05565452
#
# Stress axis : x y z
#
# Youngs Moduli (GPa) = 83.59992 76.21926 51.67691
#
# Poissons Ratio (x) = -0.00757 0.00940
# Poissons Ratio (y) = -0.00830 -0.29423
# Poissons Ratio (z) = 0.01521 -0.43396
#
# Static dielectric constant tensor:
#      x y z
#    x 2.029830 0.000000 0.000000 
#    y 0.000000 1.875040 0.000000 
#    z 0.000000 0.000000 1.893830 
# 
# From -- ./inp_files/2091.got.cif
#   From: 2010.05.17/outbox.cif.g08.bks.cpg/sg34_2_cif.got.tgz:2091.got - 2010.06.03 17:23:11.
