data_PCOD9347261
_publ_section_title
;
Structure prediction by ZEFSAII (Michael W. Deem and Ramdas Pophale) SiO2 
 PCOD9347261
Probable space group: P N N 2
;
_chemical_formula_sum "Si O2"
_cell_formula_units_Z 20
_cell_length_a 9.884790
_cell_length_b 14.761344
_cell_length_c 5.062667
_cell_angle_alpha 90.000000
_cell_angle_beta 90.000000
_cell_angle_gamma 90.000000
_cell_volume 738.707844
_symmetry_space_group_name_H-M "P N N 2"
_symmetry_group_IT_number 34
_symmetry_cell_setting 'orthorhombic'
loop_
_space_group_symop_operation_xyz
x,y,z
-x,-y,z
1/2-x,1/2+y,1/2+z
1/2+x,1/2-y,1/2+z
loop_
_atom_site_type_symbol
_atom_site_label
_atom_site_fract_x
_atom_site_fract_y
_atom_site_fract_z
Si Si1 0.720864 0.403117 0.196680
Si Si2 0.135476 0.761039 0.373466
Si Si3 0.954657 0.409271 0.555778
Si Si4 0.292518 0.908335 0.673670
Si Si5 0.466079 0.401697 0.524241
O O1 0.796023 0.307847 0.158893
O O2 0.753680 0.494636 0.040632
O O3 0.567440 0.392602 0.277960
O O4 0.801960 0.429203 0.466630
O O5 0.254102 0.825755 0.482170
O O6 0.065204 0.698104 0.600116
O O7 0.023348 0.822547 0.234752
O O8 0.059211 0.407468 0.304231
O O9 0.000000 0.500000 0.710551
O O10 0.183531 0.896983 0.907827
O O11 0.500000 0.500000 0.640115
#
# Coordination Sequence:
#
# PCOD9347261 Si02
#       5
#     4   4   4   4   4
#     4   8  19  36  57  80 117 155 189 247 299 347
#     4  10  20  35  63  82 112 160 196 232 310 361
#     4   8  17  35  59  79 116 153 184 244 295 342
#     4  10  19  36  58  82 116 154 193 248 299 349
#     4  10  21  36  55  86 120 145 197 251 287 360
#
# _framework density 27.074304999999999
#
# number of rings (size 3 to 8) (size 9 to 14) (size 15 to 20)
#    1.200    1.600    0.000    1.200    0.000    4.000 
#    0.000    4.000    0.000    7.200    0.000    0.000 
#    0.000    0.000    0.000    0.000    0.000    0.000 
#
# Total GULP energy -111382.993325 kJ/mol
# GULP energy per Si atom -5569.149666 kJ/mol
# Density = 2.701268 g / cm^3
# Si number density = 27.074305 Si / 1000 Ang^3
#
#
#
# Elastic Constant Matrix: (Units=GPa)
#
#
# Indices 1 2 3 4 5 6 
#
# 1 90.6969 31.3142 32.2563 0.0000 0.0000 0.0000
# 2 31.3142 237.6742 40.1971 0.0000 0.0000 0.0000
# 3 32.2563 40.1971 75.2245 0.0000 0.0000 0.0000
# 4 0.0000 0.0000 0.0000 -44.3567 0.0000 0.0000
# 5 0.0000 0.0000 0.0000 0.0000 36.9723 0.0000
# 6 0.0000 0.0000 0.0000 0.0000 0.0000 43.7799
#
#
#
# Elastic Compliance Matrix: (Units=1/GPa)
#
#
# Indices 1 2 3 4 5 6 
#
# 1 0.013167 -0.000857 -0.005188 0.000000 0.000000 0.000000
# 2 -0.000857 0.004681 -0.002134 0.000000 0.000000 0.000000
# 3 -0.005188 -0.002134 0.016658 0.000000 0.000000 0.000000
# 4 0.000000 0.000000 0.000000 -0.022545 0.000000 0.000000
# 5 0.000000 0.000000 0.000000 0.000000 0.027047 0.000000
# 6 0.000000 0.000000 0.000000 0.000000 0.000000 0.022842
#
#
# Mechanical properties :
#
#
# Convention : Reuss Voigt Hill
#
# Bulk Modulus (GPa) = 55.10135 67.90343 61.50239
# Shear Modulus (GPa) = 59.34149 27.26765 43.30457
#
# Velocity S-wave (km/s) = 4.68675 3.17699 4.00368
# Velocity P-wave (km/s) = 7.04866 6.21229 6.64365
#
# Compressibility (1/GPa) = 0.01814837
#
# Stress axis : x y z
#
# Youngs Moduli (GPa) = 75.94878 213.61612 60.03015
#
# Poissons Ratio (x) = 0.18315 0.31142
# Poissons Ratio (y) = 0.06512 0.12810
# Poissons Ratio (z) = 0.39400 0.45583
#
# Static dielectric constant tensor:
#      x y z
#    x 2.001610 0.000000 0.000000 
#    y 0.000000 2.385900 0.000000 
#    z 0.000000 0.000000 2.161910 
# 
# From -- ./inp_files/860.got.cif
#   From: 2010.05.17/outbox.cif.g08.bks.cpg/sg34_1_cif.got.tgz:860.got - 2010.06.03 17:23:11.
