data_PCOD9347131
_publ_section_title
;
Structure prediction by ZEFSAII (Michael W. Deem and Ramdas Pophale) SiO2 
 PCOD9347131
Probable space group: P N N 2
;
_chemical_formula_sum "Si O2"
_cell_formula_units_Z 32
_cell_length_a 9.449876
_cell_length_b 7.144683
_cell_length_c 19.088002
_cell_angle_alpha 90.000000
_cell_angle_beta 90.000000
_cell_angle_gamma 90.000000
_cell_volume 1288.752575
_symmetry_space_group_name_H-M "P N N 2"
_symmetry_group_IT_number 34
_symmetry_cell_setting 'orthorhombic'
loop_
_space_group_symop_operation_xyz
x,y,z
-x,-y,z
1/2-x,1/2+y,1/2+z
1/2+x,1/2-y,1/2+z
loop_
_atom_site_type_symbol
_atom_site_label
_atom_site_fract_x
_atom_site_fract_y
_atom_site_fract_z
Si Si1 0.933162 0.753814 0.949450
Si Si2 0.696123 0.720768 0.839543
Si Si3 0.698886 0.193913 0.184226
Si Si4 0.372740 0.132196 0.324849
Si Si5 0.723531 0.695119 0.044418
Si Si6 0.869242 0.247517 0.688806
Si Si7 0.702388 0.644015 0.532995
Si Si8 0.027343 0.279912 0.449228
O O1 0.045668 0.703827 0.890801
O O2 0.804468 0.823149 0.895394
O O3 0.045899 0.833014 0.004826
O O4 0.845904 0.607800 0.997191
O O5 0.726934 0.760870 0.756980
O O6 0.745707 0.504054 0.843205
O O7 0.539587 0.737735 0.872467
O O8 0.537882 0.268942 0.178404
O O9 0.777184 0.226110 0.110766
O O10 0.681527 0.965802 0.185614
O O11 0.337446 0.293770 0.269704
O O12 0.500000 0.000000 0.293053
O O13 0.708292 0.647524 0.125280
O O14 0.763057 0.919291 0.038120
O O15 0.576310 0.678192 0.004204
O O16 0.814782 0.735246 0.478791
O O17 0.000000 0.500000 0.457057
#
# Coordination Sequence:
#
# PCOD9347131 Si02
#       8
#     4   4   4   4   4   4   4   4
#     4  10  18  28  43  73 101 127 158 201 257 312
#     4   9  17  31  51  71  92 131 173 204 251 307
#     4   9  14  26  48  69  93 122 158 208 254 307
#     4   9  15  28  49  71  95 128 171 207 253 314
#     4   9  17  27  46  70 100 125 157 201 256 313
#     4   9  12  25  47  73  89 118 160 206 251 304
#     4  10  18  28  45  70 101 126 157 206 262 301
#     4   9  17  29  47  71  97 128 162 202 252 309
#
# _framework density 24.830210999999998
#
# number of rings (size 3 to 8) (size 9 to 14) (size 15 to 20)
#    0.000    2.750    5.000    0.375    0.000    0.000 
#    0.000    1.875    0.000    5.250    0.000   24.500 
#    0.000    0.000    0.000    0.000    0.000    0.000 
#
# Total GULP energy -178172.635136 kJ/mol
# GULP energy per Si atom -5567.894848 kJ/mol
# Density = 2.477370 g / cm^3
# Si number density = 24.830211 Si / 1000 Ang^3
#
#
#
# Elastic Constant Matrix: (Units=GPa)
#
#
# Indices 1 2 3 4 5 6 
#
# 1 141.2623 28.5743 78.9554 0.0000 0.0000 0.0000
# 2 28.5743 58.8545 26.3097 0.0000 0.0000 0.0000
# 3 78.9554 26.3097 227.2381 0.0000 0.0000 0.0000
# 4 0.0000 0.0000 0.0000 35.6592 0.0000 0.0000
# 5 0.0000 0.0000 0.0000 0.0000 56.7900 0.0000
# 6 0.0000 0.0000 0.0000 0.0000 0.0000 21.5274
#
#
#
# Elastic Compliance Matrix: (Units=1/GPa)
#
#
# Indices 1 2 3 4 5 6 
#
# 1 0.009340 -0.003252 -0.002869 0.000000 0.000000 0.000000
# 2 -0.003252 0.019051 -0.001076 0.000000 0.000000 0.000000
# 3 -0.002869 -0.001076 0.005522 0.000000 0.000000 0.000000
# 4 0.000000 0.000000 0.000000 0.028043 0.000000 0.000000
# 5 0.000000 0.000000 0.000000 0.000000 0.017609 0.000000
# 6 0.000000 0.000000 0.000000 0.000000 0.000000 0.046452
#
#
# Mechanical properties :
#
#
# Convention : Reuss Voigt Hill
#
# Bulk Modulus (GPa) = 51.23049 77.22595 64.22822
# Shear Modulus (GPa) = 34.03260 42.36302 38.19781
#
# Velocity S-wave (km/s) = 3.70619 4.13499 3.92645
# Velocity P-wave (km/s) = 6.24433 7.34620 6.81756
#
# Compressibility (1/GPa) = 0.01951963
#
# Stress axis : x y z
#
# Youngs Moduli (GPa) = 107.06208 52.49080 181.09378
#
# Poissons Ratio (x) = 0.17072 0.51952
# Poissons Ratio (y) = 0.34821 0.19480
# Poissons Ratio (z) = 0.30714 0.05646
#
# Static dielectric constant tensor:
#      x y z
#    x 1.859460 0.000000 0.000000 
#    y 0.000000 2.215970 0.000000 
#    z 0.000000 0.000000 2.108170 
# 
# From -- ./inp_files/7637.got.cif
#   From: 2010.05.17/outbox.cif.g08.bks.cpg/sg34_4_cif.got.tgz:7637.got - 2010.06.03 17:23:11.
