data_PCOD9347425
_publ_section_title
;
Structure prediction by ZEFSAII (Michael W. Deem and Ramdas Pophale) SiO2 
 PCOD9347425
Probable space group: P N N 2
;
_chemical_formula_sum "Si O2"
_cell_formula_units_Z 32
_cell_length_a 5.131401
_cell_length_b 30.413488
_cell_length_c 8.729659
_cell_angle_alpha 90.000000
_cell_angle_beta 90.000000
_cell_angle_gamma 90.000000
_cell_volume 1362.383780
_symmetry_space_group_name_H-M "P N N 2"
_symmetry_group_IT_number 34
_symmetry_cell_setting 'orthorhombic'
loop_
_space_group_symop_operation_xyz
x,y,z
-x,-y,z
1/2-x,1/2+y,1/2+z
1/2+x,1/2-y,1/2+z
loop_
_atom_site_type_symbol
_atom_site_label
_atom_site_fract_x
_atom_site_fract_y
_atom_site_fract_z
Si Si1 0.304608 0.728735 0.979650
Si Si2 0.172389 0.119595 0.999627
Si Si3 0.946187 0.352520 0.790314
Si Si4 0.667464 0.214364 0.683263
Si Si5 0.470626 0.950927 0.888441
Si Si6 0.464545 0.394465 0.905622
Si Si7 0.162518 0.874828 0.741880
Si Si8 0.648379 0.545522 0.675295
O O1 0.190749 0.688344 0.875378
O O2 0.330312 0.766215 0.853246
O O3 0.568055 0.720669 0.080191
O O4 0.071951 0.737261 0.097860
O O5 0.376633 0.145250 0.108092
O O6 0.993634 0.089192 0.108318
O O7 0.292565 0.082341 0.890057
O O8 0.002396 0.146977 0.880302
O O9 0.766244 0.391770 0.855329
O O10 0.248243 0.359893 0.833392
O O11 0.622954 0.161865 0.699334
O O12 0.260193 0.921535 0.803146
O O13 0.500000 0.000000 0.828345
O O14 0.401318 0.955326 0.069630
O O15 0.343661 0.441184 0.852317
O O16 0.474988 0.384540 0.083557
O O17 0.500000 0.500000 0.649031
#
# Coordination Sequence:
#
# PCOD9347425 Si02
#       8
#     4   4   4   4   4   4   4   4
#     4  12  26  49  75 108 149 188 241 302 360 442
#     4  10  23  38  68  94 135 184 233 284 350 430
#     4  11  22  44  70  98 135 182 230 283 350 428
#     4  12  28  49  75 109 148 192 239 303 367 435
#     4  11  22  41  67  97 138 184 240 298 360 429
#     4  11  23  43  69  98 132 186 231 287 360 412
#     4  11  26  43  67 102 143 186 235 298 365 431
#     4  10  20  40  62  94 132 177 238 297 347 421
#
# _framework density 23.488240999999999
#
# number of rings (size 3 to 8) (size 9 to 14) (size 15 to 20)
#    0.000    1.000    5.000    0.750    5.250    1.000 
#    2.250    0.625    0.000    0.000    0.000    0.000 
#    0.000    0.000    0.000    0.000    0.000    0.000 
#
# Total GULP energy -178378.458027 kJ/mol
# GULP energy per Si atom -5574.326813 kJ/mol
# Density = 2.343478 g / cm^3
# Si number density = 23.488241 Si / 1000 Ang^3
#
#
#
# Elastic Constant Matrix: (Units=GPa)
#
#
# Indices 1 2 3 4 5 6 
#
# 1 88.0485 -4.8082 22.4572 0.0000 0.0000 0.0000
# 2 -4.8082 44.5103 23.3880 0.0000 0.0000 0.0000
# 3 22.4572 23.3880 111.5455 0.0000 0.0000 0.0000
# 4 0.0000 0.0000 0.0000 24.1048 0.0000 0.0000
# 5 0.0000 0.0000 0.0000 0.0000 27.5154 0.0000
# 6 0.0000 0.0000 0.0000 0.0000 0.0000 21.1041
#
#
#
# Elastic Compliance Matrix: (Units=1/GPa)
#
#
# Indices 1 2 3 4 5 6 
#
# 1 0.012309 0.002958 -0.003098 0.000000 0.000000 0.000000
# 2 0.002958 0.025959 -0.006038 0.000000 0.000000 0.000000
# 3 -0.003098 -0.006038 0.010855 0.000000 0.000000 0.000000
# 4 0.000000 0.000000 0.000000 0.041485 0.000000 0.000000
# 5 0.000000 0.000000 0.000000 0.000000 0.036343 0.000000
# 6 0.000000 0.000000 0.000000 0.000000 0.000000 0.047384
#
#
# Mechanical properties :
#
#
# Convention : Reuss Voigt Hill
#
# Bulk Modulus (GPa) = 27.19971 36.24203 31.72087
# Shear Modulus (GPa) = 25.13207 28.08268 26.60738
#
# Velocity S-wave (km/s) = 3.27461 3.46151 3.36935
# Velocity P-wave (km/s) = 5.08947 5.60708 5.35454
#
# Compressibility (1/GPa) = 0.03676510
#
# Stress axis : x y z
#
# Youngs Moduli (GPa) = 81.24045 38.52212 92.12509
#
# Poissons Ratio (x) = -0.11394 0.28543
# Poissons Ratio (y) = -0.24029 0.55629
# Poissons Ratio (z) = 0.25171 0.23261
#
# Static dielectric constant tensor:
#      x y z
#    x 1.972780 0.000000 0.000000 
#    y 0.000000 1.971800 0.000000 
#    z 0.000000 0.000000 2.026300 
# 
# From -- ./inp_files/2227.got.cif
#   From: 2010.05.17/outbox.cif.g08.bks.cpg/sg34_2_cif.got.tgz:2227.got - 2010.06.03 17:23:11.
