data_PCOD9347750
_publ_section_title
;
Structure prediction by ZEFSAII (Michael W. Deem and Ramdas Pophale) SiO2 
 PCOD9347750
Probable space group: P N N 2
;
_chemical_formula_sum "Si O2"
_cell_formula_units_Z 30
_cell_length_a 12.641123
_cell_length_b 18.475131
_cell_length_c 5.550096
_cell_angle_alpha 90.000000
_cell_angle_beta 90.000000
_cell_angle_gamma 90.000000
_cell_volume 1296.204959
_symmetry_space_group_name_H-M "P N N 2"
_symmetry_group_IT_number 34
_symmetry_cell_setting 'orthorhombic'
loop_
_space_group_symop_operation_xyz
x,y,z
-x,-y,z
1/2-x,1/2+y,1/2+z
1/2+x,1/2-y,1/2+z
loop_
_atom_site_type_symbol
_atom_site_label
_atom_site_fract_x
_atom_site_fract_y
_atom_site_fract_z
Si Si1 0.380094 0.970042 0.832210
Si Si2 0.530378 0.364881 0.767963
Si Si3 0.819052 0.932912 0.869328
Si Si4 0.000000 0.000000 0.613590
Si Si5 0.434375 0.924674 0.324559
Si Si6 0.835105 0.232140 0.245602
Si Si7 0.128951 0.216168 0.646007
Si Si8 0.078604 0.714527 0.760694
O O1 0.371300 0.926838 0.578829
O O2 0.500000 0.000000 0.830217
O O3 0.297799 0.035422 0.866519
O O4 0.367740 0.925092 0.077885
O O5 0.615658 0.404143 0.598717
O O6 0.504414 0.427014 0.961969
O O7 0.413421 0.335367 0.708089
O O8 0.591674 0.293677 0.871153
O O9 0.894050 0.996570 0.769800
O O10 0.820776 0.861039 0.708156
O O11 0.520016 0.861696 0.289132
O O12 0.500000 0.000000 0.328086
O O13 0.708945 0.223448 0.239464
O O14 0.867090 0.271027 0.499744
O O15 0.850702 0.276352 0.996145
O O16 0.017004 0.227220 0.776759
#
# Coordination Sequence:
#
# PCOD9347750 Si02
#       8
#     4   4   4   2   4   4   4   4
#     4  10  24  40  64 102 136 172 223 285 350 420
#     4  10  23  47  69 104 139 185 244 288 352 421
#     4  11  23  44  72  98 137 189 237 284 356 421
#     4  10  24  44  72 100 138 188 238 294 340 422
#     4  10  23  40  62  97 138 174 217 280 354 419
#     4  11  25  42  74  99 138 188 235 294 347 418
#     4  10  25  41  69  99 134 185 237 291 350 414
#     4  11  24  45  65 101 139 180 235 289 347 425
#
# _framework density 23.144487999999999
#
# number of rings (size 3 to 8) (size 9 to 14) (size 15 to 20)
#    0.000    1.600    1.333    1.200   13.067    1.067 
#    2.400    0.000    0.000    0.000    0.000    0.000 
#    0.000    0.000    0.000    0.000    0.000    0.000 
#
# Total GULP energy -167204.821569 kJ/mol
# GULP energy per Si atom -5573.494052 kJ/mol
# Density = 2.309181 g / cm^3
# Si number density = 23.144488 Si / 1000 Ang^3
#
#
#
# Elastic Constant Matrix: (Units=GPa)
#
#
# Indices 1 2 3 4 5 6 
#
# 1 118.6484 16.3141 31.4568 0.0000 0.0000 0.0000
# 2 16.3141 63.1859 18.5338 0.0000 0.0000 0.0000
# 3 31.4568 18.5338 153.6319 0.0000 0.0000 0.0000
# 4 0.0000 0.0000 0.0000 17.3799 0.0000 0.0000
# 5 0.0000 0.0000 0.0000 0.0000 24.4295 0.0000
# 6 0.0000 0.0000 0.0000 0.0000 0.0000 40.3349
#
#
#
# Elastic Compliance Matrix: (Units=1/GPa)
#
#
# Indices 1 2 3 4 5 6 
#
# 1 0.009121 -0.001873 -0.001642 0.000000 0.000000 0.000000
# 2 -0.001873 0.016792 -0.001642 0.000000 0.000000 0.000000
# 3 -0.001642 -0.001642 0.007043 0.000000 0.000000 0.000000
# 4 0.000000 0.000000 0.000000 0.057538 0.000000 0.000000
# 5 0.000000 0.000000 0.000000 0.000000 0.040934 0.000000
# 6 0.000000 0.000000 0.000000 0.000000 0.000000 0.024792
#
#
# Mechanical properties :
#
#
# Convention : Reuss Voigt Hill
#
# Bulk Modulus (GPa) = 44.16621 52.00840 48.08730
# Shear Modulus (GPa) = 28.72209 34.37296 31.54752
#
# Velocity S-wave (km/s) = 3.52659 3.85794 3.69598
# Velocity P-wave (km/s) = 5.97551 6.50883 6.24786
#
# Compressibility (1/GPa) = 0.02264174
#
# Stress axis : x y z
#
# Youngs Moduli (GPa) = 109.63606 59.55329 141.97920
#
# Poissons Ratio (x) = 0.11157 0.23307
# Poissons Ratio (y) = 0.20540 0.23314
# Poissons Ratio (z) = 0.17998 0.09779
#
# Static dielectric constant tensor:
#      x y z
#    x 1.990300 0.000000 0.000000 
#    y 0.000000 1.865700 0.000000 
#    z 0.000000 0.000000 2.004280 
# 
# From -- ./inp_files/1051.got.cif
#   From: 2010.05.17/outbox.cif.g08.bks.cpg/sg34_1_cif.got.tgz:1051.got - 2010.06.03 17:23:11.
