data_PCOD9347305
_publ_section_title
;
Structure prediction by ZEFSAII (Michael W. Deem and Ramdas Pophale) SiO2 
 PCOD9347305
Probable space group: P N N 2
;
_chemical_formula_sum "Si O2"
_cell_formula_units_Z 32
_cell_length_a 12.016105
_cell_length_b 7.544478
_cell_length_c 15.500929
_cell_angle_alpha 90.000000
_cell_angle_beta 90.000000
_cell_angle_gamma 90.000000
_cell_volume 1405.240436
_symmetry_space_group_name_H-M "P N N 2"
_symmetry_group_IT_number 34
_symmetry_cell_setting 'orthorhombic'
loop_
_space_group_symop_operation_xyz
x,y,z
-x,-y,z
1/2-x,1/2+y,1/2+z
1/2+x,1/2-y,1/2+z
loop_
_atom_site_type_symbol
_atom_site_label
_atom_site_fract_x
_atom_site_fract_y
_atom_site_fract_z
Si Si1 0.628002 0.442159 0.331580
Si Si2 0.852826 0.848901 0.010213
Si Si3 0.607554 0.579488 0.864368
Si Si4 0.888479 0.415548 0.703882
Si Si5 0.707542 0.798919 0.382984
Si Si6 0.578480 0.758112 0.549632
Si Si7 0.914444 0.332357 0.522193
Si Si8 0.736933 0.745085 0.704313
O O1 0.500000 0.500000 0.324675
O O2 0.625476 0.300683 0.409385
O O3 0.711556 0.586027 0.375248
O O4 0.674380 0.384240 0.240313
O O5 0.721050 0.842595 0.021380
O O6 0.945044 0.730482 0.060336
O O7 0.891352 0.049008 0.034243
O O8 0.500000 0.500000 0.818307
O O9 0.684609 0.418036 0.896257
O O10 0.672849 0.690175 0.792197
O O11 0.565808 0.693453 0.945825
O O12 0.831225 0.332626 0.785635
O O13 0.928126 0.294639 0.624375
O O14 0.806493 0.573353 0.672731
O O15 0.000000 0.500000 0.739920
O O16 0.623740 0.842508 0.460912
O O17 0.652375 0.810490 0.631714
O O18 0.000000 0.500000 0.508178
#
# Coordination Sequence:
#
# PCOD9347305 Si02
#       8
#     4   4   4   4   4   4   4   4
#     4  11  20  39  69 102 133 184 240 293 359 431
#     4  10  19  39  68  96 125 178 233 288 344 425
#     4  11  27  41  64  95 139 185 229 294 372 441
#     4  10  22  38  63  94 131 174 225 287 350 416
#     4  10  23  41  61  96 135 175 229 296 350 422
#     4  10  21  37  68  97 132 173 231 286 357 418
#     4  11  24  43  69  98 132 184 235 293 358 443
#     4  11  23  39  65 102 131 181 239 290 360 437
#
# _framework density 22.771903999999999
#
# number of rings (size 3 to 8) (size 9 to 14) (size 15 to 20)
#    0.000    1.500    5.000    0.750    5.250    1.000 
#    0.000    1.250    0.000    3.750    0.000    0.000 
#    0.000    0.000    0.000    0.000    0.000    0.000 
#
# Total GULP energy -178292.759721 kJ/mol
# GULP energy per Si atom -5571.648741 kJ/mol
# Density = 2.272007 g / cm^3
# Si number density = 22.771904 Si / 1000 Ang^3
#
#
#
# Elastic Constant Matrix: (Units=GPa)
#
#
# Indices 1 2 3 4 5 6 
#
# 1 112.4946 9.6401 14.1852 0.0000 0.0000 0.0000
# 2 9.6401 28.8513 24.7621 0.0000 0.0000 0.0000
# 3 14.1852 24.7621 96.4777 0.0000 0.0000 0.0000
# 4 0.0000 0.0000 0.0000 19.7982 0.0000 0.0000
# 5 0.0000 0.0000 0.0000 0.0000 -5.1405 0.0000
# 6 0.0000 0.0000 0.0000 0.0000 0.0000 27.9378
#
#
#
# Elastic Compliance Matrix: (Units=1/GPa)
#
#
# Indices 1 2 3 4 5 6 
#
# 1 0.009190 -0.002451 -0.000722 0.000000 0.000000 0.000000
# 2 -0.002451 0.045106 -0.011217 0.000000 0.000000 0.000000
# 3 -0.000722 -0.011217 0.013350 0.000000 0.000000 0.000000
# 4 0.000000 0.000000 0.000000 0.050510 0.000000 0.000000
# 5 0.000000 0.000000 0.000000 0.000000 -0.194533 0.000000
# 6 0.000000 0.000000 0.000000 0.000000 0.000000 0.035794
#
#
# Mechanical properties :
#
#
# Convention : Reuss Voigt Hill
#
# Bulk Modulus (GPa) = 25.72859 37.22205 31.47532
# Shear Modulus (GPa) = 4338.00722 21.13485 2179.57104
#
# Velocity S-wave (km/s) = 43.69345 3.04980 30.97111
# Velocity P-wave (km/s) = 50.56494 5.36496 35.95550
#
# Compressibility (1/GPa) = 0.03886727
#
# Stress axis : x y z
#
# Youngs Moduli (GPa) = 108.80905 22.16979 74.90540
#
# Poissons Ratio (x) = 0.05434 0.05410
# Poissons Ratio (y) = 0.26669 0.84019
# Poissons Ratio (z) = 0.07858 0.24867
#
# Static dielectric constant tensor:
#      x y z
#    x 1.899700 0.000000 0.000000 
#    y 0.000000 2.132060 0.000000 
#    z 0.000000 0.000000 1.862230 
# 
# From -- ./inp_files/6803.got.cif
#   From: 2010.05.17/outbox.cif.g08.bks.cpg/sg34_4_cif.got.tgz:6803.got - 2010.06.03 17:23:11.
