data_PCOD9347558
_publ_section_title
;
Structure prediction by ZEFSAII (Michael W. Deem and Ramdas Pophale) SiO2 
 PCOD9347558
Probable space group: P N N 2
;
_chemical_formula_sum "Si O2"
_cell_formula_units_Z 32
_cell_length_a 4.966788
_cell_length_b 23.194866
_cell_length_c 12.856443
_cell_angle_alpha 90.000000
_cell_angle_beta 90.000000
_cell_angle_gamma 90.000000
_cell_volume 1481.113429
_symmetry_space_group_name_H-M "P N N 2"
_symmetry_group_IT_number 34
_symmetry_cell_setting 'orthorhombic'
loop_
_space_group_symop_operation_xyz
x,y,z
-x,-y,z
1/2-x,1/2+y,1/2+z
1/2+x,1/2-y,1/2+z
loop_
_atom_site_type_symbol
_atom_site_label
_atom_site_fract_x
_atom_site_fract_y
_atom_site_fract_z
Si Si1 0.619343 0.364858 0.593810
Si Si2 0.751506 0.458614 0.747241
Si Si3 0.681379 0.750556 0.165298
Si Si4 0.943568 0.434339 0.258733
Si Si5 0.057742 0.933912 0.897339
Si Si6 0.149320 0.363431 0.064926
Si Si7 0.613573 0.373355 0.934279
Si Si8 0.335953 0.296788 0.765600
O O1 0.785054 0.414884 0.651141
O O2 0.784414 0.305280 0.588013
O O3 0.509819 0.389170 0.487238
O O4 0.388338 0.346458 0.677793
O O5 0.500000 0.500000 0.727009
O O6 0.705307 0.419155 0.848093
O O7 0.000000 0.500000 0.762398
O O8 0.953754 0.730251 0.746832
O O9 0.678895 0.692545 0.100646
O O10 0.955278 0.747869 0.231113
O O11 0.641037 0.425791 0.298820
O O12 0.000000 0.500000 0.224613
O O13 0.139245 0.426751 0.357991
O O14 0.029825 0.393354 0.166302
O O15 0.000000 0.000000 0.932575
O O16 0.382882 0.400121 0.008176
O O17 0.886745 0.352684 0.991877
O O18 0.443450 0.324259 0.871758
#
# Coordination Sequence:
#
# PCOD9347558 Si02
#       8
#     4   4   4   4   4   4   4   4
#     4   9  23  38  66  92 139 164 213 273 335 400
#     4  11  24  39  64 101 134 172 217 265 340 415
#     4  10  22  41  63  92 135 167 216 266 325 409
#     4  10  24  43  63  89 129 167 224 276 317 373
#     4  10  21  40  63  92 123 169 216 267 327 385
#     4  12  24  44  68  95 128 180 227 269 330 394
#     4  11  24  42  68  94 136 169 219 276 327 399
#     4   9  21  41  63  91 137 164 203 271 337 385
#
# _framework density 21.605364999999999
#
# number of rings (size 3 to 8) (size 9 to 14) (size 15 to 20)
#    0.750    1.000    0.000    3.375    5.250    3.000 
#    6.750    0.000    0.000    0.000    0.000    0.000 
#    0.000    0.000    0.000    0.000    0.000    0.000 
#
# Total GULP energy -178562.199549 kJ/mol
# GULP energy per Si atom -5580.068736 kJ/mol
# Density = 2.155619 g / cm^3
# Si number density = 21.605365 Si / 1000 Ang^3
#
#
#
# Elastic Constant Matrix: (Units=GPa)
#
#
# Indices 1 2 3 4 5 6 
#
# 1 76.5334 19.4176 -3.2825 0.0000 0.0000 0.0000
# 2 19.4176 77.6745 40.7219 0.0000 0.0000 0.0000
# 3 -3.2825 40.7219 55.2051 0.0000 0.0000 0.0000
# 4 0.0000 0.0000 0.0000 8.1509 0.0000 0.0000
# 5 0.0000 0.0000 0.0000 0.0000 16.7062 0.0000
# 6 0.0000 0.0000 0.0000 0.0000 0.0000 21.0379
#
#
#
# Elastic Compliance Matrix: (Units=1/GPa)
#
#
# Indices 1 2 3 4 5 6 
#
# 1 0.015077 -0.006912 0.005995 0.000000 0.000000 0.000000
# 2 -0.006912 0.024161 -0.018234 0.000000 0.000000 0.000000
# 3 0.005995 -0.018234 0.031921 0.000000 0.000000 0.000000
# 4 0.000000 0.000000 0.000000 0.122685 0.000000 0.000000
# 5 0.000000 0.000000 0.000000 0.000000 0.059858 0.000000
# 6 0.000000 0.000000 0.000000 0.000000 0.000000 0.047533
#
#
# Mechanical properties :
#
#
# Convention : Reuss Voigt Hill
#
# Bulk Modulus (GPa) = 30.43389 35.90299 33.16844
# Shear Modulus (GPa) = 14.26578 19.34941 16.80759
#
# Velocity S-wave (km/s) = 2.57240 2.99588 2.79218
# Velocity P-wave (km/s) = 4.78955 5.34984 5.07743
#
# Compressibility (1/GPa) = 0.03285810
#
# Stress axis : x y z
#
# Youngs Moduli (GPa) = 66.32606 41.38834 31.32760
#
# Poissons Ratio (x) = 0.28608 -0.18781
# Poissons Ratio (y) = 0.45845 0.57121
# Poissons Ratio (z) = -0.39764 0.75466
#
# Static dielectric constant tensor:
#      x y z
#    x 1.791730 0.000000 0.000000 
#    y 0.000000 1.786100 0.000000 
#    z 0.000000 0.000000 1.805660 
# 
# From -- ./inp_files/4554.got.cif
#   From: 2010.05.17/outbox.cif.g08.bks.cpg/sg34_3_cif.got.tgz:4554.got - 2010.06.03 17:23:11.
