data_PCOD9347149
_publ_section_title
;
Structure prediction by ZEFSAII (Michael W. Deem and Ramdas Pophale) SiO2 
 PCOD9347149
Probable space group: P N N 2
;
_chemical_formula_sum "Si O2"
_cell_formula_units_Z 28
_cell_length_a 12.531307
_cell_length_b 5.087398
_cell_length_c 25.822856
_cell_angle_alpha 90.000000
_cell_angle_beta 90.000000
_cell_angle_gamma 90.000000
_cell_volume 1646.252161
_symmetry_space_group_name_H-M "P N N 2"
_symmetry_group_IT_number 34
_symmetry_cell_setting 'orthorhombic'
loop_
_space_group_symop_operation_xyz
x,y,z
-x,-y,z
1/2-x,1/2+y,1/2+z
1/2+x,1/2-y,1/2+z
loop_
_atom_site_type_symbol
_atom_site_label
_atom_site_fract_x
_atom_site_fract_y
_atom_site_fract_z
Si Si1 0.706271 0.556920 0.427190
Si Si2 0.808151 0.926569 0.289287
Si Si3 0.629296 0.504766 0.541826
Si Si4 0.431973 0.741117 0.890715
Si Si5 0.129083 0.496509 0.107027
Si Si6 0.876232 0.544614 0.866312
Si Si7 0.873209 0.435159 0.225995
O O1 0.678486 0.474894 0.485286
O O2 0.830191 0.638177 0.420871
O O3 0.664285 0.323662 0.389496
O O4 0.647482 0.823544 0.409795
O O5 0.885343 0.886744 0.338488
O O6 0.811233 0.656487 0.257999
O O7 0.695290 0.989077 0.315773
O O8 0.849990 0.156645 0.252315
O O9 0.500000 0.500000 0.536370
O O10 0.660771 0.279594 0.582399
O O11 0.662523 0.777970 0.567502
O O12 0.500000 0.500000 0.915603
O O13 0.500000 0.000000 0.878081
O O14 0.160972 0.551515 0.165989
O O15 0.000000 0.500000 0.108083
O O16 0.000000 0.500000 0.854248
O O17 0.000000 0.500000 0.228849
#
# Coordination Sequence:
#
# PCOD9347149 Si02
#       7
#     4   4   4   4   4   4   4
#     4  11  22  34  54  78 102 140 175 203 260 313
#     4  11  21  32  51  74 100 137 170 197 252 305
#     4  10  18  32  50  72 101 131 163 204 252 305
#     4  11  21  35  51  75 108 137 171 213 249 303
#     4   9  19  31  47  72 101 129 162 205 254 302
#     4  11  22  36  51  76 108 135 172 216 249 303
#     4  11  20  32  50  75 104 133 165 206 252 305
#
# _framework density 17.008330000000001
#
# number of rings (size 3 to 8) (size 9 to 14) (size 15 to 20)
#    0.000    1.429    0.000    9.000    0.000    3.429 
#    0.000    0.000    0.000    0.000    0.000   10.000 
#    0.000    0.000    0.000    0.000    0.000    0.000 
#
# Total GULP energy -156241.485182 kJ/mol
# GULP energy per Si atom -5580.053042 kJ/mol
# Density = 1.696962 g / cm^3
# Si number density = 17.008330 Si / 1000 Ang^3
#
#
#
# Elastic Constant Matrix: (Units=GPa)
#
#
# Indices 1 2 3 4 5 6 
#
# 1 89.4491 17.5959 22.3272 0.0000 0.0000 0.0000
# 2 17.5959 84.5474 -0.1553 0.0000 0.0000 0.0000
# 3 22.3272 -0.1553 77.5462 0.0000 0.0000 0.0000
# 4 0.0000 0.0000 0.0000 -385.9912 0.0000 0.0000
# 5 0.0000 0.0000 0.0000 0.0000-2988.2445 0.0000
# 6 0.0000 0.0000 0.0000 0.0000 0.0000 17.6142
#
#
#
# Elastic Compliance Matrix: (Units=1/GPa)
#
#
# Indices 1 2 3 4 5 6 
#
# 1 0.012604 -0.002630 -0.003634 0.000000 0.000000 0.000000
# 2 -0.002630 0.012376 0.000782 0.000000 0.000000 0.000000
# 3 -0.003634 0.000782 0.013943 0.000000 0.000000 0.000000
# 4 0.000000 0.000000 0.000000 -0.002591 0.000000 0.000000
# 5 0.000000 0.000000 0.000000 0.000000 -0.000335 0.000000
# 6 0.000000 0.000000 0.000000 0.000000 0.000000 0.056772
#
#
# Mechanical properties :
#
#
# Convention : Reuss Voigt Hill
#
# Bulk Modulus (GPa) = 35.76567 36.78648 36.27608
# Shear Modulus (GPa) = 44.22628 -657.20596 -306.48984
#
# Velocity S-wave (km/s) = 5.10482 -19.67845 -13.43842
# Velocity P-wave (km/s) = 7.47125 22.24064 14.81261
#
# Compressibility (1/GPa) = 0.02795977
#
# Stress axis : x y z
#
# Youngs Moduli (GPa) = 79.34000 80.79871 71.71816
#
# Poissons Ratio (x) = 0.21248 0.26064
# Poissons Ratio (y) = 0.20865 -0.05608
# Poissons Ratio (z) = 0.28834 -0.06318
#
# Static dielectric constant tensor:
#      x y z
#    x 2.687990 0.000000 0.000000 
#    y 0.000000 1.621280 0.000000 
#    z 0.000000 0.000000 1.563270 
# 
# From -- ./inp_files/8462.got.cif
#   From: 2010.05.17/outbox.cif.g08.bks.cpg/sg34_5_cif.got.tgz:8462.got - 2010.06.03 17:23:11.
