data_PCOD9347452
_publ_section_title
;
Structure prediction by ZEFSAII (Michael W. Deem and Ramdas Pophale) SiO2 
 PCOD9347452
Probable space group: P N N 2
;
_chemical_formula_sum "Si O2"
_cell_formula_units_Z 28
_cell_length_a 7.644174
_cell_length_b 21.400984
_cell_length_c 6.928936
_cell_angle_alpha 90.000000
_cell_angle_beta 90.000000
_cell_angle_gamma 90.000000
_cell_volume 1133.524356
_symmetry_space_group_name_H-M "P N N 2"
_symmetry_group_IT_number 34
_symmetry_cell_setting 'orthorhombic'
loop_
_space_group_symop_operation_xyz
x,y,z
-x,-y,z
1/2-x,1/2+y,1/2+z
1/2+x,1/2-y,1/2+z
loop_
_atom_site_type_symbol
_atom_site_label
_atom_site_fract_x
_atom_site_fract_y
_atom_site_fract_z
Si Si1 0.216145 0.886049 0.434550
Si Si2 0.757199 0.318900 0.671734
Si Si3 0.579931 0.437406 0.640648
Si Si4 0.855794 0.718214 0.659787
Si Si5 0.696435 0.850198 0.629867
Si Si6 0.203734 0.016497 0.523426
Si Si7 0.681926 0.188508 0.744728
O O1 0.324487 0.833980 0.321145
O O2 0.167425 0.847078 0.625023
O O3 0.068754 0.906851 0.281329
O O4 0.299212 0.949673 0.520779
O O5 0.680470 0.377781 0.556064
O O6 0.635297 0.258467 0.674330
O O7 0.940979 0.290032 0.607086
O O8 0.782976 0.338224 0.897090
O O9 0.500000 0.500000 0.540605
O O10 0.714234 0.465554 0.797142
O O11 0.795471 0.788122 0.710599
O O12 0.760623 0.695788 0.464556
O O13 0.752691 0.922798 0.646402
O O14 0.498660 0.847277 0.707738
O O15 0.000000 0.000000 0.564374
#
# Coordination Sequence:
#
# PCOD9347452 Si02
#       7
#     4   4   4   4   4   4   4
#     4  10  20  41  67  88 124 169 207 264 323 381
#     4  10  21  36  61  94 123 161 214 259 327 384
#     4   8  17  37  66  89 114 168 214 250 318 390
#     4  11  24  38  64  96 125 161 219 268 323 390
#     4  10  21  40  60  94 127 165 213 264 331 390
#     4   8  18  36  69  89 116 174 212 249 324 395
#     4  11  24  36  61  94 127 163 206 270 326 383
#
# _framework density 24.701720999999999
#
# number of rings (size 3 to 8) (size 9 to 14) (size 15 to 20)
#    0.000    2.571    1.429    0.857   10.000    0.571 
#    2.571    0.000   18.857    7.714    0.000    0.000 
#    0.000    0.000    0.000    0.000    0.000    0.000 
#
# Total GULP energy -156006.922867 kJ/mol
# GULP energy per Si atom -5571.675817 kJ/mol
# Density = 2.464550 g / cm^3
# Si number density = 24.701721 Si / 1000 Ang^3
#
#
#
# Elastic Constant Matrix: (Units=GPa)
#
#
# Indices 1 2 3 4 5 6 
#
# 1 56.8688 49.7741 -5.8950 0.0000 0.0000 0.0000
# 2 49.7741 230.2375 50.0664 0.0000 0.0000 0.0000
# 3 -5.8950 50.0664 63.5959 0.0000 0.0000 0.0000
# 4 0.0000 0.0000 0.0000 38.4148 0.0000 0.0000
# 5 0.0000 0.0000 0.0000 0.0000 10.9791 0.0000
# 6 0.0000 0.0000 0.0000 0.0000 0.0000 45.9830
#
#
#
# Elastic Compliance Matrix: (Units=1/GPa)
#
#
# Indices 1 2 3 4 5 6 
#
# 1 0.024507 -0.006988 0.007773 0.000000 0.000000 0.000000
# 2 -0.006988 0.007233 -0.006342 0.000000 0.000000 0.000000
# 3 0.007773 -0.006342 0.021438 0.000000 0.000000 0.000000
# 4 0.000000 0.000000 0.000000 0.026032 0.000000 0.000000
# 5 0.000000 0.000000 0.000000 0.000000 0.091082 0.000000
# 6 0.000000 0.000000 0.000000 0.000000 0.000000 0.021747
#
#
# Mechanical properties :
#
#
# Convention : Reuss Voigt Hill
#
# Bulk Modulus (GPa) = 23.77389 59.84369 41.80879
# Shear Modulus (GPa) = 23.02301 36.19250 29.60776
#
# Velocity S-wave (km/s) = 3.05625 3.83192 3.46585
# Velocity P-wave (km/s) = 4.70101 6.62248 5.74268
#
# Compressibility (1/GPa) = 0.04206295
#
# Stress axis : x y z
#
# Youngs Moduli (GPa) = 40.80544 138.25033 46.64667
#
# Poissons Ratio (x) = 0.96613 -0.36259
# Poissons Ratio (y) = 0.28516 0.29584
# Poissons Ratio (z) = -0.31719 0.87681
#
# Static dielectric constant tensor:
#      x y z
#    x 2.057860 0.000000 0.000000 
#    y 0.000000 2.002310 0.000000 
#    z 0.000000 0.000000 2.047830 
# 
# From -- ./inp_files/2853.got.cif
#   From: 2010.05.17/outbox.cif.g08.bks.cpg/sg34_2_cif.got.tgz:2853.got - 2010.06.03 17:23:11.
