data_PCOD9347974
_publ_section_title
;
Structure prediction by ZEFSAII (Michael W. Deem and Ramdas Pophale) SiO2 
 PCOD9347974
Probable space group: P N N 2
;
_chemical_formula_sum "Si O2"
_cell_formula_units_Z 20
_cell_length_a 12.798181
_cell_length_b 11.190237
_cell_length_c 5.496372
_cell_angle_alpha 90.000000
_cell_angle_beta 90.000000
_cell_angle_gamma 90.000000
_cell_volume 787.161149
_symmetry_space_group_name_H-M "P N N 2"
_symmetry_group_IT_number 34
_symmetry_cell_setting 'orthorhombic'
loop_
_space_group_symop_operation_xyz
x,y,z
-x,-y,z
1/2-x,1/2+y,1/2+z
1/2+x,1/2-y,1/2+z
loop_
_atom_site_type_symbol
_atom_site_label
_atom_site_fract_x
_atom_site_fract_y
_atom_site_fract_z
Si Si1 0.877508 0.196309 0.006130
Si Si2 0.875700 0.996797 0.641265
Si Si3 0.583024 0.311515 0.789092
Si Si4 0.540226 0.865651 0.139783
Si Si5 0.757389 0.792385 0.912235
O O1 0.780738 0.209580 0.188879
O O2 0.976898 0.146433 0.154567
O O3 0.849457 0.123842 0.760687
O O4 0.926612 0.320623 0.908201
O O5 0.825612 0.902314 0.819652
O O6 0.000000 0.000000 0.648759
O O7 0.855379 0.929495 0.385718
O O8 0.663013 0.241879 0.614182
O O9 0.541074 0.226475 0.008828
O O10 0.500000 0.000000 0.136410
O O11 0.648826 0.849583 0.998446
#
# Coordination Sequence:
#
# PCOD9347974 Si02
#       5
#     4   4   4   4   4
#     4  11  26  48  75 111 155 202 261 332 396 484
#     4  12  24  45  80 114 147 201 267 328 392 477
#     4  11  24  47  76 110 151 200 264 325 400 480
#     4  11  26  48  73 108 160 206 257 323 405 490
#     4  11  26  45  74 114 154 202 260 327 415 477
#
# _framework density 25.407755999999999
#
# number of rings (size 3 to 8) (size 9 to 14) (size 15 to 20)
#    0.000    0.800    4.000    1.200    2.800    8.000 
#    0.000    4.000    0.000    0.000    0.000    0.000 
#    0.000    0.000    0.000    0.000    0.000    0.000 
#
# Total GULP energy -111748.661667 kJ/mol
# GULP energy per Si atom -5587.433083 kJ/mol
# Density = 2.534993 g / cm^3
# Si number density = 25.407756 Si / 1000 Ang^3
#
#
#
# Elastic Constant Matrix: (Units=GPa)
#
#
# Indices 1 2 3 4 5 6 
#
# 1 132.2872 26.4384 47.5852 0.0000 0.0000 0.0000
# 2 26.4384 105.9683 37.1281 0.0000 0.0000 0.0000
# 3 47.5852 37.1281 119.3427 0.0000 0.0000 0.0000
# 4 0.0000 0.0000 0.0000 31.9480 0.0000 0.0000
# 5 0.0000 0.0000 0.0000 0.0000 67.3894 0.0000
# 6 0.0000 0.0000 0.0000 0.0000 0.0000 42.1162
#
#
#
# Elastic Compliance Matrix: (Units=1/GPa)
#
#
# Indices 1 2 3 4 5 6 
#
# 1 0.008938 -0.001101 -0.003221 0.000000 0.000000 0.000000
# 2 -0.001101 0.010727 -0.002898 0.000000 0.000000 0.000000
# 3 -0.003221 -0.002898 0.010565 0.000000 0.000000 0.000000
# 4 0.000000 0.000000 0.000000 0.031301 0.000000 0.000000
# 5 0.000000 0.000000 0.000000 0.000000 0.014839 0.000000
# 6 0.000000 0.000000 0.000000 0.000000 0.000000 0.023744
#
#
# Mechanical properties :
#
#
# Convention : Reuss Voigt Hill
#
# Bulk Modulus (GPa) = 63.33534 64.43351 63.88442
# Shear Modulus (GPa) = 41.72979 44.72051 43.22515
#
# Velocity S-wave (km/s) = 4.05705 4.19992 4.12911
# Velocity P-wave (km/s) = 6.85040 6.99528 6.92322
#
# Compressibility (1/GPa) = 0.01578897
#
# Stress axis : x y z
#
# Youngs Moduli (GPa) = 111.88008 93.22307 94.65016
#
# Poissons Ratio (x) = 0.10267 0.30489
# Poissons Ratio (y) = 0.12322 0.27430
# Poissons Ratio (z) = 0.36039 0.27017
#
# Static dielectric constant tensor:
#      x y z
#    x 1.965650 0.000000 0.000000 
#    y 0.000000 2.020780 0.000000 
#    z 0.000000 0.000000 2.190500 
# 
# From -- ./inp_files/1180.got.cif
#   From: 2010.05.17/outbox.cif.g08.bks.cpg/sg34_1_cif.got.tgz:1180.got - 2010.06.03 17:23:11.
