data_PCOD9347912
_publ_section_title
;
Structure prediction by ZEFSAII (Michael W. Deem and Ramdas Pophale) SiO2 
 PCOD9347912
Probable space group: P N N 2
;
_chemical_formula_sum "Si O2"
_cell_formula_units_Z 30
_cell_length_a 12.994861
_cell_length_b 11.846188
_cell_length_c 8.712309
_cell_angle_alpha 90.000000
_cell_angle_beta 90.000000
_cell_angle_gamma 90.000000
_cell_volume 1341.169070
_symmetry_space_group_name_H-M "P N N 2"
_symmetry_group_IT_number 34
_symmetry_cell_setting 'orthorhombic'
loop_
_space_group_symop_operation_xyz
x,y,z
-x,-y,z
1/2-x,1/2+y,1/2+z
1/2+x,1/2-y,1/2+z
loop_
_atom_site_type_symbol
_atom_site_label
_atom_site_fract_x
_atom_site_fract_y
_atom_site_fract_z
Si Si1 0.202980 0.322874 0.301690
Si Si2 0.698080 0.383461 0.006663
Si Si3 0.597036 0.249301 0.498465
Si Si4 0.500000 0.500000 0.064604
Si Si5 0.756931 0.915373 0.857370
Si Si6 0.877859 0.521495 0.846202
Si Si7 0.923946 0.411637 0.537973
Si Si8 0.937123 0.217677 0.752650
O O1 0.179009 0.240287 0.441222
O O2 0.227154 0.451928 0.347675
O O3 0.314134 0.278139 0.243940
O O4 0.118754 0.299468 0.168392
O O5 0.599259 0.461240 0.969773
O O6 0.708958 0.381476 0.188945
O O7 0.800963 0.441516 0.940484
O O8 0.656414 0.367446 0.471968
O O9 0.644923 0.150044 0.391429
O O10 0.484280 0.267079 0.422704
O O11 0.530211 0.601553 0.176805
O O12 0.652272 0.858738 0.916555
O O13 0.865897 0.486011 0.668713
O O14 0.000000 0.500000 0.883768
O O15 0.976779 0.316707 0.641309
O O16 0.000000 0.500000 0.460389
#
# Coordination Sequence:
#
# PCOD9347912 Si02
#       8
#     4   4   4   2   4   4   4   4
#     4  12  26  47  70 109 150 189 259 315 376 468
#     4  12  25  46  71 104 152 193 246 315 380 449
#     4  12  22  44  75 102 143 196 246 309 383 451
#     4  12  26  44  70 104 146 202 238 306 390 448
#     4  12  26  43  70 106 143 195 243 310 376 460
#     4  11  21  43  74 103 142 193 243 310 378 442
#     4  11  24  43  69 106 142 186 254 306 376 456
#     4  12  21  46  73  99 140 199 245 306 384 451
#
# _framework density 22.368545000000001
#
# number of rings (size 3 to 8) (size 9 to 14) (size 15 to 20)
#    0.000    0.267    9.333    0.000    3.733    0.533 
#    2.400    3.333    0.000    0.000    0.000    0.000 
#    0.000    0.000    0.000    0.000    0.000    0.000 
#
# Total GULP energy -167518.500059 kJ/mol
# GULP energy per Si atom -5583.950002 kJ/mol
# Density = 2.231763 g / cm^3
# Si number density = 22.368545 Si / 1000 Ang^3
#
#
#
# Elastic Constant Matrix: (Units=GPa)
#
#
# Indices 1 2 3 4 5 6 
#
# 1 90.9520 2.0179 21.8036 0.0000 0.0000 0.0000
# 2 2.0179 129.4257 41.6572 0.0000 0.0000 0.0000
# 3 21.8036 41.6572 42.2787 0.0000 0.0000 0.0000
# 4 0.0000 0.0000 0.0000 13.2988 0.0000 0.0000
# 5 0.0000 0.0000 0.0000 0.0000 43.7663 0.0000
# 6 0.0000 0.0000 0.0000 0.0000 0.0000 29.6654
#
#
#
# Elastic Compliance Matrix: (Units=1/GPa)
#
#
# Indices 1 2 3 4 5 6 
#
# 1 0.013259 0.002920 -0.009715 0.000000 0.000000 0.000000
# 2 0.002920 0.011958 -0.013288 0.000000 0.000000 0.000000
# 3 -0.009715 -0.013288 0.041755 0.000000 0.000000 0.000000
# 4 0.000000 0.000000 0.000000 0.075195 0.000000 0.000000
# 5 0.000000 0.000000 0.000000 0.000000 0.022849 0.000000
# 6 0.000000 0.000000 0.000000 0.000000 0.000000 0.033709
#
#
# Mechanical properties :
#
#
# Convention : Reuss Voigt Hill
#
# Bulk Modulus (GPa) = 37.30447 43.73488 40.51967
# Shear Modulus (GPa) = 20.17543 30.49128 25.33336
#
# Velocity S-wave (km/s) = 3.00652 3.69607 3.36898
# Velocity P-wave (km/s) = 5.36336 6.14890 5.76951
#
# Compressibility (1/GPa) = 0.02680644
#
# Stress axis : x y z
#
# Youngs Moduli (GPa) = 75.42055 83.62732 23.94895
#
# Poissons Ratio (x) = -0.24421 0.23267
# Poissons Ratio (y) = -0.22024 0.31823
# Poissons Ratio (z) = 0.73272 1.11124
#
# Static dielectric constant tensor:
#      x y z
#    x 1.900790 0.000000 0.000000 
#    y 0.000000 1.941340 0.000000 
#    z 0.000000 0.000000 1.818480 
# 
# From -- ./inp_files/3644.got.cif
#   From: 2010.05.17/outbox.cif.g08.bks.cpg/sg34_2_cif.got.tgz:3644.got - 2010.06.03 17:23:11.
