data_PCOD9347823
_publ_section_title
;
Structure prediction by ZEFSAII (Michael W. Deem and Ramdas Pophale) SiO2 
 PCOD9347823
Probable space group: P N N 2
;
_chemical_formula_sum "Si O2"
_cell_formula_units_Z 24
_cell_length_a 8.720755
_cell_length_b 10.755484
_cell_length_c 11.163054
_cell_angle_alpha 90.000000
_cell_angle_beta 90.000000
_cell_angle_gamma 90.000000
_cell_volume 1047.049153
_symmetry_space_group_name_H-M "P N N 2"
_symmetry_group_IT_number 34
_symmetry_cell_setting 'orthorhombic'
loop_
_space_group_symop_operation_xyz
x,y,z
-x,-y,z
1/2-x,1/2+y,1/2+z
1/2+x,1/2-y,1/2+z
loop_
_atom_site_type_symbol
_atom_site_label
_atom_site_fract_x
_atom_site_fract_y
_atom_site_fract_z
Si Si1 0.342637 0.570007 0.510490
Si Si2 0.610038 0.107238 0.101207
Si Si3 0.936830 0.814053 0.428384
Si Si4 0.760421 0.050937 0.494278
Si Si5 0.254354 0.269094 0.210779
Si Si6 0.413445 0.780278 0.330653
O O1 0.500000 0.500000 0.537065
O O2 0.220547 0.460181 0.508631
O O3 0.291571 0.660699 0.617341
O O4 0.358716 0.653821 0.392930
O O5 0.682251 0.175022 0.214860
O O6 0.500000 0.000000 0.150527
O O7 0.525018 0.211487 0.027206
O O8 0.876697 0.745166 0.311073
O O9 0.094753 0.889056 0.422578
O O10 0.801597 0.905780 0.478424
O O11 0.763088 0.105154 0.630159
O O12 0.613169 0.111437 0.429115
O O13 0.415117 0.242214 0.279454
#
# Coordination Sequence:
#
# PCOD9347823 Si02
#       6
#     4   4   4   4   4   4
#     4  11  25  42  68 109 136 182 247 293 351 440
#     4  12  23  44  70 100 138 185 237 291 364 427
#     4  11  24  41  70  98 138 184 228 295 355 414
#     4  10  24  44  66 103 136 180 245 280 351 438
#     4  11  23  46  70 101 140 186 232 294 353 422
#     4  11  23  45  72  93 143 188 228 292 361 414
#
# _framework density 22.921562000000002
#
# number of rings (size 3 to 8) (size 9 to 14) (size 15 to 20)
#    0.000    1.000    3.333    3.000    4.667    2.667 
#    0.000    0.000    0.000    0.000    0.000    0.000 
#    0.000    0.000    0.000    0.000    0.000    0.000 
#
# Total GULP energy -133994.263855 kJ/mol
# GULP energy per Si atom -5583.094327 kJ/mol
# Density = 2.286939 g / cm^3
# Si number density = 22.921562 Si / 1000 Ang^3
#
#
#
# Elastic Constant Matrix: (Units=GPa)
#
#
# Indices 1 2 3 4 5 6 
#
# 1 57.9576 28.9587 45.1620 0.0000 0.0000 0.0000
# 2 28.9587 46.9839 53.0875 0.0000 0.0000 0.0000
# 3 45.1620 53.0875 131.8883 0.0000 0.0000 0.0000
# 4 0.0000 0.0000 0.0000 30.1512 0.0000 0.0000
# 5 0.0000 0.0000 0.0000 0.0000 37.7889 0.0000
# 6 0.0000 0.0000 0.0000 0.0000 0.0000 30.5368
#
#
#
# Elastic Compliance Matrix: (Units=1/GPa)
#
#
# Indices 1 2 3 4 5 6 
#
# 1 0.026346 -0.011088 -0.004559 0.000000 0.000000 0.000000
# 2 -0.011088 0.043706 -0.013796 0.000000 0.000000 0.000000
# 3 -0.004559 -0.013796 0.014696 0.000000 0.000000 0.000000
# 4 0.000000 0.000000 0.000000 0.033166 0.000000 0.000000
# 5 0.000000 0.000000 0.000000 0.000000 0.026463 0.000000
# 6 0.000000 0.000000 0.000000 0.000000 0.000000 0.032747
#
#
# Mechanical properties :
#
#
# Convention : Reuss Voigt Hill
#
# Bulk Modulus (GPa) = 38.66373 54.58294 46.62333
# Shear Modulus (GPa) = 20.43907 27.00349 23.72128
#
# Velocity S-wave (km/s) = 2.98937 3.43604 3.22046
# Velocity P-wave (km/s) = 5.36839 6.29337 5.84919
#
# Compressibility (1/GPa) = 0.02586403
#
# Stress axis : x y z
#
# Youngs Moduli (GPa) = 37.95614 22.88037 68.04509
#
# Poissons Ratio (x) = 0.25369 0.31019
# Poissons Ratio (y) = 0.42085 0.93872
# Poissons Ratio (z) = 0.17303 0.31565
#
# Static dielectric constant tensor:
#      x y z
#    x 1.986780 0.000000 0.000000 
#    y 0.000000 1.868730 0.000000 
#    z 0.000000 0.000000 1.840880 
# 
# From -- ./inp_files/4915.got.cif
#   From: 2010.05.17/outbox.cif.g08.bks.cpg/sg34_3_cif.got.tgz:4915.got - 2010.06.03 17:23:11.
