data_PCOD9347817
_publ_section_title
;
Structure prediction by ZEFSAII (Michael W. Deem and Ramdas Pophale) SiO2 
 PCOD9347817
Probable space group: P N N 2
;
_chemical_formula_sum "Si O2"
_cell_formula_units_Z 14
_cell_length_a 11.775936
_cell_length_b 7.126872
_cell_length_c 8.622413
_cell_angle_alpha 90.000000
_cell_angle_beta 90.000000
_cell_angle_gamma 90.000000
_cell_volume 723.641086
_symmetry_space_group_name_H-M "P N N 2"
_symmetry_group_IT_number 34
_symmetry_cell_setting 'orthorhombic'
loop_
_space_group_symop_operation_xyz
x,y,z
-x,-y,z
1/2-x,1/2+y,1/2+z
1/2+x,1/2-y,1/2+z
loop_
_atom_site_type_symbol
_atom_site_label
_atom_site_fract_x
_atom_site_fract_y
_atom_site_fract_z
Si Si1 0.656938 0.535206 0.438280
Si Si2 0.000000 0.000000 0.222309
Si Si3 0.085269 0.334361 0.435923
Si Si4 0.471625 0.787136 0.295136
O O1 0.599235 0.571503 0.605896
O O2 0.786826 0.589724 0.426709
O O3 0.584425 0.664308 0.321499
O O4 0.874580 0.820540 0.893387
O O5 0.056105 0.158766 0.328245
O O6 0.062016 0.286637 0.615682
O O7 0.000000 0.500000 0.390718
O O8 0.500000 0.000000 0.343053
#
# Coordination Sequence:
#
# PCOD9347817 Si02
#       4
#     4   2   4   4
#     4  10  24  43  65  96 129 164 218 263 316 388
#     4  10  24  44  62 100 124 168 216 260 328 372
#     4  11  25  40  68  97 125 169 217 260 322 384
#     4   9  21  44  65  91 129 172 201 264 328 365
#
# _framework density 19.346608
#
# number of rings (size 3 to 8) (size 9 to 14) (size 15 to 20)
#    0.000    2.286    0.000    1.714   12.000    4.571 
#    0.000    0.000    0.000    0.000    0.000    0.000 
#    0.000    0.000    0.000    0.000    0.000    0.000 
#
# Total GULP energy -78145.404067 kJ/mol
# GULP energy per Si atom -5581.814576 kJ/mol
# Density = 1.930257 g / cm^3
# Si number density = 19.346608 Si / 1000 Ang^3
#
#
#
# Elastic Constant Matrix: (Units=GPa)
#
#
# Indices 1 2 3 4 5 6 
#
# 1 213.4115 85.6921 63.7046 0.0000 0.0000 0.0000
# 2 85.6921 131.0663 58.5677 0.0000 0.0000 0.0000
# 3 63.7046 58.5677 66.3408 0.0000 0.0000 0.0000
# 4 0.0000 0.0000 0.0000 109.1505 0.0000 0.0000
# 5 0.0000 0.0000 0.0000 0.0000 13.7343 0.0000
# 6 0.0000 0.0000 0.0000 0.0000 0.0000 31.2864
#
#
#
# Elastic Compliance Matrix: (Units=1/GPa)
#
#
# Indices 1 2 3 4 5 6 
#
# 1 0.007077 -0.002626 -0.004477 0.000000 0.000000 0.000000
# 2 -0.002626 0.013575 -0.009463 0.000000 0.000000 0.000000
# 3 -0.004477 -0.009463 0.027727 0.000000 0.000000 0.000000
# 4 0.000000 0.000000 0.000000 0.009162 0.000000 0.000000
# 5 0.000000 0.000000 0.000000 0.000000 0.072810 0.000000
# 6 0.000000 0.000000 0.000000 0.000000 0.000000 0.031963
#
#
# Mechanical properties :
#
#
# Convention : Reuss Voigt Hill
#
# Bulk Modulus (GPa) = 65.58768 91.86084 78.72426
# Shear Modulus (GPa) = 24.93419 44.35785 34.64602
#
# Velocity S-wave (km/s) = 3.59390 4.79351 4.23638
# Velocity P-wave (km/s) = 7.15517 8.84430 8.04420
#
# Compressibility (1/GPa) = 0.01524677
#
# Stress axis : x y z
#
# Youngs Moduli (GPa) = 141.30847 73.66325 36.06615
#
# Poissons Ratio (x) = 0.19346 0.16147
# Poissons Ratio (y) = 0.37111 0.34129
# Poissons Ratio (z) = 0.63264 0.69706
#
# Static dielectric constant tensor:
#      x y z
#    x 1.656860 0.000000 0.000000 
#    y 0.000000 1.689320 0.000000 
#    z 0.000000 0.000000 1.673930 
# 
# From -- ./inp_files/2257.got.cif
#   From: 2010.05.17/outbox.cif.g08.bks.cpg/sg34_2_cif.got.tgz:2257.got - 2010.06.03 17:23:11.
