data_PCOD9347967
_publ_section_title
;
Structure prediction by ZEFSAII (Michael W. Deem and Ramdas Pophale) SiO2 
 PCOD9347967
Probable space group: P N N 2
;
_chemical_formula_sum "Si O2"
_cell_formula_units_Z 20
_cell_length_a 13.634763
_cell_length_b 5.452599
_cell_length_c 11.382397
_cell_angle_alpha 90.000000
_cell_angle_beta 90.000000
_cell_angle_gamma 90.000000
_cell_volume 846.223111
_symmetry_space_group_name_H-M "P N N 2"
_symmetry_group_IT_number 34
_symmetry_cell_setting 'orthorhombic'
loop_
_space_group_symop_operation_xyz
x,y,z
-x,-y,z
1/2-x,1/2+y,1/2+z
1/2+x,1/2-y,1/2+z
loop_
_atom_site_type_symbol
_atom_site_label
_atom_site_fract_x
_atom_site_fract_y
_atom_site_fract_z
Si Si1 0.159136 0.772153 0.477440
Si Si2 0.000000 0.000000 0.889135
Si Si3 0.151781 0.782207 0.206981
Si Si4 0.000000 0.500000 0.605181
Si Si5 0.871725 0.889643 0.697749
Si Si6 0.619227 0.219648 0.563846
O O1 0.125880 0.803442 0.344123
O O2 0.095355 0.545821 0.525554
O O3 0.276382 0.767302 0.494444
O O4 0.129196 0.973511 0.573666
O O5 0.899994 0.044926 0.813251
O O6 0.967698 0.775223 0.972747
O O7 0.269551 0.748395 0.208358
O O8 0.116391 0.531969 0.140420
O O9 0.122787 0.036768 0.145843
O O10 0.036597 0.288949 0.689961
#
# Coordination Sequence:
#
# PCOD9347967 Si02
#       6
#     4   2   4   2   4   4
#     4  11  24  44  71 104 145 190 243 308 365 441
#     4  12  24  50  72 110 144 200 242 318 352 482
#     4  11  26  49  72 105 147 196 240 312 366 447
#     4  12  22  40  72 106 134 188 248 296 366 448
#     4  11  24  45  72 108 142 192 255 298 376 435
#     4  11  27  45  73 107 147 191 246 298 386 426
#
# _framework density 23.634429000000001
#
# number of rings (size 3 to 8) (size 9 to 14) (size 15 to 20)
#    0.000    0.800    6.000    0.000    2.800    4.000 
#    0.000    0.000    0.000    0.000    0.000    0.000 
#    0.000    0.000    0.000    0.000    0.000    0.000 
#
# Total GULP energy -111609.564173 kJ/mol
# GULP energy per Si atom -5580.478209 kJ/mol
# Density = 2.358064 g / cm^3
# Si number density = 23.634429 Si / 1000 Ang^3
#
#
#
# Elastic Constant Matrix: (Units=GPa)
#
#
# Indices 1 2 3 4 5 6 
#
# 1 82.6542 14.8184 26.0515 0.0000 0.0000 0.0000
# 2 14.8184 115.0108 61.3154 0.0000 0.0000 0.0000
# 3 26.0515 61.3154 126.1363 0.0000 0.0000 0.0000
# 4 0.0000 0.0000 0.0000 21.3761 0.0000 0.0000
# 5 0.0000 0.0000 0.0000 0.0000 28.0247 0.0000
# 6 0.0000 0.0000 0.0000 0.0000 0.0000 32.6642
#
#
#
# Elastic Compliance Matrix: (Units=1/GPa)
#
#
# Indices 1 2 3 4 5 6 
#
# 1 0.012950 -0.000327 -0.002515 0.000000 0.000000 0.000000
# 2 -0.000327 0.011745 -0.005641 0.000000 0.000000 0.000000
# 3 -0.002515 -0.005641 0.011190 0.000000 0.000000 0.000000
# 4 0.000000 0.000000 0.000000 0.046781 0.000000 0.000000
# 5 0.000000 0.000000 0.000000 0.000000 0.035683 0.000000
# 6 0.000000 0.000000 0.000000 0.000000 0.000000 0.030615
#
#
# Mechanical properties :
#
#
# Convention : Reuss Voigt Hill
#
# Bulk Modulus (GPa) = 52.86598 58.68576 55.77587
# Shear Modulus (GPa) = 29.02968 31.18738 30.10853
#
# Velocity S-wave (km/s) = 3.50848 3.63654 3.57308
# Velocity P-wave (km/s) = 6.23132 6.52051 6.37756
#
# Compressibility (1/GPa) = 0.01891576
#
# Stress axis : x y z
#
# Youngs Moduli (GPa) = 77.21915 85.14508 89.36703
#
# Poissons Ratio (x) = 0.02788 0.22480
# Poissons Ratio (y) = 0.02529 0.50416
# Poissons Ratio (z) = 0.19424 0.48035
#
# Static dielectric constant tensor:
#      x y z
#    x 1.943150 0.000000 0.000000 
#    y 0.000000 1.965220 0.000000 
#    z 0.000000 0.000000 2.016580 
# 
# From -- ./inp_files/4366.got.cif
#   From: 2010.05.17/outbox.cif.g08.bks.cpg/sg34_3_cif.got.tgz:4366.got - 2010.06.03 17:23:11.
