data_PCOD9347344
_publ_section_title
;
Structure prediction by ZEFSAII (Michael W. Deem and Ramdas Pophale) SiO2 
 PCOD9347344
Probable space group: P N N 2
;
_chemical_formula_sum "Si O2"
_cell_formula_units_Z 24
_cell_length_a 8.261658
_cell_length_b 15.942883
_cell_length_c 9.264291
_cell_angle_alpha 90.000000
_cell_angle_beta 90.000000
_cell_angle_gamma 90.000000
_cell_volume 1220.242818
_symmetry_space_group_name_H-M "P N N 2"
_symmetry_group_IT_number 34
_symmetry_cell_setting 'orthorhombic'
loop_
_space_group_symop_operation_xyz
x,y,z
-x,-y,z
1/2-x,1/2+y,1/2+z
1/2+x,1/2-y,1/2+z
loop_
_atom_site_type_symbol
_atom_site_label
_atom_site_fract_x
_atom_site_fract_y
_atom_site_fract_z
Si Si1 0.202728 0.834868 0.331920
Si Si2 0.117145 0.276273 0.264289
Si Si3 0.323911 0.686710 0.490936
Si Si4 0.189214 0.872509 0.009291
Si Si5 0.850886 0.557136 0.072280
Si Si6 0.685530 0.972655 0.856497
O O1 0.328522 0.765795 0.386040
O O2 0.227649 0.907756 0.451787
O O3 0.032848 0.782604 0.316085
O O4 0.244726 0.865647 0.173399
O O5 0.212756 0.311462 0.401648
O O6 0.083378 0.360916 0.165356
O O7 0.220421 0.219887 0.150875
O O8 0.502042 0.650386 0.503314
O O9 0.208951 0.619821 0.415247
O O10 0.211303 0.966136 0.955043
O O11 0.769759 0.496109 0.191928
O O12 0.000000 0.500000 0.014342
O O13 0.500000 0.000000 0.871832
#
# Coordination Sequence:
#
# PCOD9347344 Si02
#       6
#     4   4   4   4   4   4
#     4  10  20  35  57  83 111 145 188 235 282 336
#     4   9  20  38  57  81 114 149 189 235 280 337
#     4  10  20  36  58  82 111 146 187 234 277 336
#     4  10  21  35  55  83 112 145 185 234 287 336
#     4   9  18  34  57  83 113 146 185 236 286 338
#     4  10  20  36  58  80 110 149 185 228 285 343
#
# _framework density 19.668215
#
# number of rings (size 3 to 8) (size 9 to 14) (size 15 to 20)
#    0.000    2.333    0.000    3.500    0.000    6.000 
#    0.000    5.000    0.000   10.000    0.000    0.000 
#    0.000    0.000    0.000    0.000    0.000    0.000 
#
# Total GULP energy -133640.485402 kJ/mol
# GULP energy per Si atom -5568.353558 kJ/mol
# Density = 1.962345 g / cm^3
# Si number density = 19.668215 Si / 1000 Ang^3
#
#
#
# Elastic Constant Matrix: (Units=GPa)
#
#
# Indices 1 2 3 4 5 6 
#
# 1 31.5779 12.9988 31.6561 0.0000 0.0000 0.0000
# 2 12.9988 79.9803 44.5709 0.0000 0.0000 0.0000
# 3 31.6561 44.5709 123.0908 0.0000 0.0000 0.0000
# 4 0.0000 0.0000 0.0000 57.3599 0.0000 0.0000
# 5 0.0000 0.0000 0.0000 0.0000 20.0345 0.0000
# 6 0.0000 0.0000 0.0000 0.0000 0.0000 34.3812
#
#
#
# Elastic Compliance Matrix: (Units=1/GPa)
#
#
# Indices 1 2 3 4 5 6 
#
# 1 0.042735 -0.001028 -0.010618 0.000000 0.000000 0.000000
# 2 -0.001028 0.015689 -0.005416 0.000000 0.000000 0.000000
# 3 -0.010618 -0.005416 0.012816 0.000000 0.000000 0.000000
# 4 0.000000 0.000000 0.000000 0.017434 0.000000 0.000000
# 5 0.000000 0.000000 0.000000 0.000000 0.049914 0.000000
# 6 0.000000 0.000000 0.000000 0.000000 0.000000 0.029086
#
#
# Mechanical properties :
#
#
# Convention : Reuss Voigt Hill
#
# Bulk Modulus (GPa) = 26.94373 45.90007 36.42190
# Shear Modulus (GPa) = 23.34587 32.05001 27.69794
#
# Velocity S-wave (km/s) = 3.44900 4.04113 3.75675
# Velocity P-wave (km/s) = 5.43964 6.72028 6.11358
#
# Compressibility (1/GPa) = 0.03711439
#
# Stress axis : x y z
#
# Youngs Moduli (GPa) = 23.39975 63.74056 78.02697
#
# Poissons Ratio (x) = 0.06555 0.82851
# Poissons Ratio (y) = 0.02406 0.42262
# Poissons Ratio (z) = 0.24846 0.34524
#
# Static dielectric constant tensor:
#      x y z
#    x 1.699820 0.000000 0.000000 
#    y 0.000000 1.725170 0.000000 
#    z 0.000000 0.000000 1.718510 
# 
# From -- ./inp_files/2607.got.cif
#   From: 2010.05.17/outbox.cif.g08.bks.cpg/sg34_2_cif.got.tgz:2607.got - 2010.06.03 17:23:11.
