data_PCOD9347924
_publ_section_title
;
Structure prediction by ZEFSAII (Michael W. Deem and Ramdas Pophale) SiO2 
 PCOD9347924
Probable space group: P N N 2
;
_chemical_formula_sum "Si O2"
_cell_formula_units_Z 32
_cell_length_a 9.164310
_cell_length_b 11.194198
_cell_length_c 15.327372
_cell_angle_alpha 90.000000
_cell_angle_beta 90.000000
_cell_angle_gamma 90.000000
_cell_volume 1572.390654
_symmetry_space_group_name_H-M "P N N 2"
_symmetry_group_IT_number 34
_symmetry_cell_setting 'orthorhombic'
loop_
_space_group_symop_operation_xyz
x,y,z
-x,-y,z
1/2-x,1/2+y,1/2+z
1/2+x,1/2-y,1/2+z
loop_
_atom_site_type_symbol
_atom_site_label
_atom_site_fract_x
_atom_site_fract_y
_atom_site_fract_z
Si Si1 0.221795 0.707988 0.190090
Si Si2 0.330069 0.976052 0.149898
Si Si3 0.118766 0.105007 0.038258
Si Si4 0.840472 0.040005 0.417731
Si Si5 0.882630 0.704411 0.197546
Si Si6 0.163555 0.986192 0.616792
Si Si7 0.810651 0.354967 0.816727
Si Si8 0.871165 0.750545 0.858875
O O1 0.267777 0.842724 0.163589
O O2 0.268780 0.617987 0.114528
O O3 0.315643 0.676514 0.275719
O O4 0.053439 0.685231 0.213263
O O5 0.500000 0.000000 0.143449
O O6 0.293604 0.048842 0.238341
O O7 0.264773 0.034732 0.063175
O O8 0.112083 0.171897 0.946195
O O9 0.109381 0.201679 0.116430
O O10 0.000000 0.000000 0.044446
O O11 0.754566 0.150744 0.375509
O O12 0.855450 0.066334 0.519958
O O13 0.740369 0.924381 0.402072
O O14 0.000000 0.000000 0.382480
O O15 0.779921 0.596035 0.166531
O O16 0.800867 0.754942 0.282974
O O17 0.000000 0.000000 0.654237
O O18 0.975158 0.309903 0.831117
#
# Coordination Sequence:
#
# PCOD9347924 Si02
#       8
#     4   4   4   4   4   4   4   4
#     4  12  24  42  71  99 139 182 234 289 351 422
#     4  11  22  41  69 103 132 181 237 286 350 418
#     4  11  25  43  69 101 138 180 230 297 351 423
#     4  11  23  39  64 100 133 174 231 287 339 407
#     4  11  24  45  69 100 137 184 233 283 352 418
#     4  11  26  44  66  99 140 180 229 285 354 417
#     4  11  23  38  70  98 137 175 232 283 344 414
#     4  12  24  43  66 102 143 181 229 292 355 413
#
# _framework density 20.351175999999999
#
# number of rings (size 3 to 8) (size 9 to 14) (size 15 to 20)
#    0.000    0.750    5.000    2.250    3.500    2.500 
#    0.000    2.500    0.000    0.000    0.000    0.000 
#    0.000    0.000    0.000    0.000    0.000    0.000 
#
# Total GULP energy -178512.206503 kJ/mol
# GULP energy per Si atom -5578.506453 kJ/mol
# Density = 2.030486 g / cm^3
# Si number density = 20.351176 Si / 1000 Ang^3
#
#
#
# Elastic Constant Matrix: (Units=GPa)
#
#
# Indices 1 2 3 4 5 6 
#
# 1 139.7235 39.9006 0.4662 0.0000 0.0000 0.0000
# 2 39.9006 78.8872 20.3810 0.0000 0.0000 0.0000
# 3 0.4662 20.3810 51.7314 0.0000 0.0000 0.0000
# 4 0.0000 0.0000 0.0000 -264.6318 0.0000 0.0000
# 5 0.0000 0.0000 0.0000 0.0000 27.0527 0.0000
# 6 0.0000 0.0000 0.0000 0.0000 0.0000 36.8045
#
#
#
# Elastic Compliance Matrix: (Units=1/GPa)
#
#
# Indices 1 2 3 4 5 6 
#
# 1 0.008514 -0.004772 0.001803 0.000000 0.000000 0.000000
# 2 -0.004772 0.016788 -0.006571 0.000000 0.000000 0.000000
# 3 0.001803 -0.006571 0.021903 0.000000 0.000000 0.000000
# 4 0.000000 0.000000 0.000000 -0.003779 0.000000 0.000000
# 5 0.000000 0.000000 0.000000 0.000000 0.036965 0.000000
# 6 0.000000 0.000000 0.000000 0.000000 0.000000 0.027171
#
#
# Mechanical properties :
#
#
# Convention : Reuss Voigt Hill
#
# Bulk Modulus (GPa) = 35.55528 43.53753 39.54640
# Shear Modulus (GPa) = 36.76046 -26.18197 5.28925
#
# Velocity S-wave (km/s) = 4.25468 -3.59068 1.61389
# Velocity P-wave (km/s) = 6.45331 2.06128 4.79031
#
# Compressibility (1/GPa) = 0.02812522
#
# Stress axis : x y z
#
# Youngs Moduli (GPa) = 117.45719 59.56751 45.65547
#
# Poissons Ratio (x) = 0.28426 -0.08233
# Poissons Ratio (y) = 0.56052 0.30000
# Poissons Ratio (z) = -0.21182 0.39142
#
# Static dielectric constant tensor:
#      x y z
#    x 1.557720 0.000000 0.000000 
#    y 0.000000 1.737220 0.000000 
#    z 0.000000 0.000000 1.715530 
# 
# From -- ./inp_files/6554.got.cif
#   From: 2010.05.17/outbox.cif.g08.bks.cpg/sg34_4_cif.got.tgz:6554.got - 2010.06.03 17:23:11.
