data_PCOD9347032
_publ_section_title
;
Structure prediction by ZEFSAII (Michael W. Deem and Ramdas Pophale) SiO2 
 PCOD9347032
Probable space group: P N A 21
;
_chemical_formula_sum "Si O2"
_cell_formula_units_Z 20
_cell_length_a 27.280731
_cell_length_b 4.915126
_cell_length_c 5.914565
_cell_angle_alpha 90.000000
_cell_angle_beta 90.000000
_cell_angle_gamma 90.000000
_cell_volume 793.073553
_symmetry_space_group_name_H-M "P N A 21"
_symmetry_group_IT_number 33
_symmetry_cell_setting 'orthorhombic'
loop_
_space_group_symop_operation_xyz
x,y,z
-x,-y,1/2+z
1/2-x,1/2+y,1/2+z
1/2+x,1/2-y,z
loop_
_atom_site_type_symbol
_atom_site_label
_atom_site_fract_x
_atom_site_fract_y
_atom_site_fract_z
Si Si1 0.805003 0.865058 0.165340
Si Si2 0.804593 0.367663 0.854842
Si Si3 0.054914 0.791148 0.652254
Si Si4 0.449981 0.772055 0.847533
Si Si5 0.124022 0.464513 0.985433
O O1 0.749881 0.831815 0.259191
O O2 0.840786 0.742814 0.353329
O O3 0.809797 0.671318 0.948401
O O4 0.812161 0.166092 0.066206
O O5 0.843821 0.349628 0.654978
O O6 0.045348 0.570009 0.455703
O O7 0.093775 0.655657 0.817529
O O8 0.003661 0.832666 0.780813
O O9 0.071203 0.069023 0.535242
O O10 0.415169 0.797632 0.633232
#
# Coordination Sequence:
#
# PCOD9347032 Si02
#       5
#     4   4   4   4   4
#     4  12  28  53  82 117 161 211 268 329 401 475
#     4  12  28  53  82 117 161 211 268 329 401 475
#     4  12  28  54  82 117 164 215 269 333 409 484
#     4  12  28  54  82 117 164 215 269 333 409 484
#     4  12  30  52  84 120 166 212 270 336 406 476
#
# _framework density 25.218343999999998
#
# number of rings (size 3 to 8) (size 9 to 14) (size 15 to 20)
#    0.000    0.000    4.000    3.600    0.000    9.600 
#    0.000    0.000    0.000    0.000    0.000    0.000 
#    0.000    0.000    0.000    0.000    0.000    0.000 
#
# Total GULP energy -112450.101780 kJ/mol
# GULP energy per Si atom -5622.505089 kJ/mol
# Density = 2.516095 g / cm^3
# Si number density = 25.218344 Si / 1000 Ang^3
#
#
#
# Elastic Constant Matrix: (Units=GPa)
#
#
# Indices 1 2 3 4 5 6 
#
# 1 167.3627 25.8768 66.8958 0.0000 0.0000 0.0000
# 2 25.8768 86.2481 4.2023 0.0000 0.0000 0.0000
# 3 66.8958 4.2023 85.0932 0.0000 0.0000 0.0000
# 4 0.0000 0.0000 0.0000 59.3844 0.0000 0.0000
# 5 0.0000 0.0000 0.0000 0.0000 56.5812 0.0000
# 6 0.0000 0.0000 0.0000 0.0000 0.0000 33.4482
#
#
#
# Elastic Compliance Matrix: (Units=1/GPa)
#
#
# Indices 1 2 3 4 5 6 
#
# 1 0.009187 -0.002410 -0.007103 0.000000 0.000000 0.000000
# 2 -0.002410 0.012255 0.001290 0.000000 0.000000 0.000000
# 3 -0.007103 0.001290 0.017272 0.000000 0.000000 0.000000
# 4 0.000000 0.000000 0.000000 0.016839 0.000000 0.000000
# 5 0.000000 0.000000 0.000000 0.000000 0.017674 0.000000
# 6 0.000000 0.000000 0.000000 0.000000 0.000000 0.029897
#
#
# Mechanical properties :
#
#
# Convention : Reuss Voigt Hill
#
# Bulk Modulus (GPa) = 44.91100 59.18374 52.04737
# Shear Modulus (GPa) = 39.37195 45.99803 42.68499
#
# Velocity S-wave (km/s) = 3.95554 4.27545 4.11861
# Velocity P-wave (km/s) = 6.22168 6.92042 6.58033
#
# Compressibility (1/GPa) = 0.02226626
#
# Stress axis : x y z
#
# Youngs Moduli (GPa) = 108.85054 81.60098 57.89610
#
# Poissons Ratio (x) = 0.19668 0.41125
# Poissons Ratio (y) = 0.26235 -0.07466
# Poissons Ratio (z) = 0.77319 -0.10523
#
# Static dielectric constant tensor:
#      x y z
#    x 1.978620 0.000000 0.000000 
#    y 0.000000 1.927900 0.000000 
#    z 0.000000 0.000000 1.946040 
# 
# From -- ./inp_files/2341.got.cif
#   From: 2010.05.17/outbox.cif.g08.bks.cpg/sg33_2_cif.got.tgz:2341.got - 2010.06.03 17:15:25.
