data_PCOD9347759
_publ_section_title
;
Structure prediction by ZEFSAII (Michael W. Deem and Ramdas Pophale) SiO2 
 PCOD9347759
Probable space group: P N N 2
;
_chemical_formula_sum "Si O2"
_cell_formula_units_Z 18
_cell_length_a 5.518130
_cell_length_b 17.757767
_cell_length_c 6.599855
_cell_angle_alpha 90.000000
_cell_angle_beta 90.000000
_cell_angle_gamma 90.000000
_cell_volume 646.717592
_symmetry_space_group_name_H-M "P N N 2"
_symmetry_group_IT_number 34
_symmetry_cell_setting 'orthorhombic'
loop_
_space_group_symop_operation_xyz
x,y,z
-x,-y,z
1/2-x,1/2+y,1/2+z
1/2+x,1/2-y,1/2+z
loop_
_atom_site_type_symbol
_atom_site_label
_atom_site_fract_x
_atom_site_fract_y
_atom_site_fract_z
Si Si1 0.658625 0.384199 0.707980
Si Si2 0.500000 0.500000 0.154494
Si Si3 0.668964 0.077743 0.322948
Si Si4 0.877999 0.839008 0.681776
Si Si5 0.966295 0.741678 0.992686
O O1 0.395444 0.420677 0.669999
O O2 0.692167 0.313049 0.564666
O O3 0.903046 0.432760 0.722090
O O4 0.618567 0.355071 0.939696
O O5 0.606393 0.425301 0.260344
O O6 0.724044 0.529524 0.012557
O O7 0.631275 0.162611 0.411914
O O8 0.076306 0.788855 0.798611
O O9 0.646576 0.782943 0.672159
#
# Coordination Sequence:
#
# PCOD9347759 Si02
#       5
#     4   2   4   4   4
#     4  10  23  41  69 108 144 185 251 312 369 446
#     4  10  24  48  70 110 160 200 240 324 406 454
#     4  10  23  40  73 100 143 195 238 303 383 452
#     4  10  24  42  76 107 149 197 254 317 388 460
#     4  11  22  42  76 113 140 199 263 318 365 472
#
# _framework density 27.832863
#
# number of rings (size 3 to 8) (size 9 to 14) (size 15 to 20)
#    0.000    1.778    2.222    0.000   12.444    8.000 
#    0.000    4.444    4.889    5.333    0.000    0.000 
#    0.000    0.000    0.000    0.000    0.000    0.000 
#
# Total GULP energy -100203.329637 kJ/mol
# GULP energy per Si atom -5566.851646 kJ/mol
# Density = 2.776951 g / cm^3
# Si number density = 27.832863 Si / 1000 Ang^3
#
#
#
# Elastic Constant Matrix: (Units=GPa)
#
#
# Indices 1 2 3 4 5 6 
#
# 1 197.2632 54.2224 19.1848 0.0000 0.0000 0.0000
# 2 54.2224 210.4098 42.3211 0.0000 0.0000 0.0000
# 3 19.1848 42.3211 51.7371 0.0000 0.0000 0.0000
# 4 0.0000 0.0000 0.0000 59.5511 0.0000 0.0000
# 5 0.0000 0.0000 0.0000 0.0000 23.1938 0.0000
# 6 0.0000 0.0000 0.0000 0.0000 0.0000 68.5957
#
#
#
# Elastic Compliance Matrix: (Units=1/GPa)
#
#
# Indices 1 2 3 4 5 6 
#
# 1 0.005503 -0.001206 -0.001054 0.000000 0.000000 0.000000
# 2 -0.001206 0.005953 -0.004422 0.000000 0.000000 0.000000
# 3 -0.001054 -0.004422 0.023337 0.000000 0.000000 0.000000
# 4 0.000000 0.000000 0.000000 0.016792 0.000000 0.000000
# 5 0.000000 0.000000 0.000000 0.000000 0.043115 0.000000
# 6 0.000000 0.000000 0.000000 0.000000 0.000000 0.014578
#
#
# Mechanical properties :
#
#
# Convention : Reuss Voigt Hill
#
# Bulk Modulus (GPa) = 46.66769 76.76294 61.71532
# Shear Modulus (GPa) = 38.52489 53.18025 45.85257
#
# Velocity S-wave (km/s) = 3.72445 4.37590 4.06325
# Velocity P-wave (km/s) = 5.94129 7.29185 6.65094
#
# Compressibility (1/GPa) = 0.02142810
#
# Stress axis : x y z
#
# Youngs Moduli (GPa) = 181.70457 167.98408 42.85088
#
# Poissons Ratio (x) = 0.20263 0.04517
# Poissons Ratio (y) = 0.21918 0.18950
# Poissons Ratio (z) = 0.19153 0.74287
#
# Static dielectric constant tensor:
#      x y z
#    x 2.379120 0.000000 0.000000 
#    y 0.000000 2.264830 0.000000 
#    z 0.000000 0.000000 2.463040 
# 
# From -- ./inp_files/2005.got.cif
#   From: 2010.05.17/outbox.cif.g08.bks.cpg/sg34_2_cif.got.tgz:2005.got - 2010.06.03 17:23:11.
