data_PCOD9347862
_publ_section_title
;
Structure prediction by ZEFSAII (Michael W. Deem and Ramdas Pophale) SiO2 
 PCOD9347862
Probable space group: P N N 2
;
_chemical_formula_sum "Si O2"
_cell_formula_units_Z 24
_cell_length_a 17.903281
_cell_length_b 9.379088
_cell_length_c 5.475296
_cell_angle_alpha 90.000000
_cell_angle_beta 90.000000
_cell_angle_gamma 90.000000
_cell_volume 919.392256
_symmetry_space_group_name_H-M "P N N 2"
_symmetry_group_IT_number 34
_symmetry_cell_setting 'orthorhombic'
loop_
_space_group_symop_operation_xyz
x,y,z
-x,-y,z
1/2-x,1/2+y,1/2+z
1/2+x,1/2-y,1/2+z
loop_
_atom_site_type_symbol
_atom_site_label
_atom_site_fract_x
_atom_site_fract_y
_atom_site_fract_z
Si Si1 0.237070 0.770795 0.286590
Si Si2 0.118701 0.416125 0.643228
Si Si3 0.987883 0.759869 0.313176
Si Si4 0.114647 0.920023 0.602396
Si Si5 0.621634 0.331122 0.452660
Si Si6 0.880693 0.319981 0.960726
O O1 0.296796 0.856473 0.119291
O O2 0.180322 0.879173 0.415598
O O3 0.289921 0.689725 0.483576
O O4 0.190093 0.654840 0.135461
O O5 0.063602 0.360179 0.437909
O O6 0.095001 0.328612 0.886049
O O7 0.114890 0.577785 0.727253
O O8 0.039445 0.848721 0.499977
O O9 0.046921 0.688789 0.128430
O O10 0.931763 0.869620 0.173247
O O11 0.889162 0.921045 0.705831
O O12 0.131934 0.836755 0.853818
#
# Coordination Sequence:
#
# PCOD9347862 Si02
#       6
#     4   4   4   4   4   4
#     4   9  24  46  74 103 148 190 246 301 366 436
#     4  10  25  45  71 104 145 192 244 299 368 436
#     4  11  26  46  72 107 150 196 244 311 372 436
#     4  11  25  45  73 106 145 193 246 304 366 437
#     4  10  25  45  71 104 145 192 244 299 368 436
#     4  11  25  45  73 106 145 193 246 304 366 437
#
# _framework density 26.104196999999999
#
# number of rings (size 3 to 8) (size 9 to 14) (size 15 to 20)
#    1.000    0.667    0.000    2.000    2.333   14.667 
#    0.000    0.000    0.000    0.000    0.000    0.000 
#    0.000    0.000    0.000    0.000    0.000    0.000 
#
# Total GULP energy -134249.954319 kJ/mol
# GULP energy per Si atom -5593.748097 kJ/mol
# Density = 2.604478 g / cm^3
# Si number density = 26.104197 Si / 1000 Ang^3
#
#
#
# Elastic Constant Matrix: (Units=GPa)
#
#
# Indices 1 2 3 4 5 6 
#
# 1 203.3827 36.3036 57.9631 0.0000 0.0000 0.0000
# 2 36.3036 65.5186 3.9891 0.0000 0.0000 0.0000
# 3 57.9631 3.9891 74.7817 0.0000 0.0000 0.0000
# 4 0.0000 0.0000 0.0000 42.6675 0.0000 0.0000
# 5 0.0000 0.0000 0.0000 0.0000 51.0090 0.0000
# 6 0.0000 0.0000 0.0000 0.0000 0.0000 19.3970
#
#
#
# Elastic Compliance Matrix: (Units=1/GPa)
#
#
# Indices 1 2 3 4 5 6 
#
# 1 0.007064 -0.003592 -0.005284 0.000000 0.000000 0.000000
# 2 -0.003592 0.017139 0.001870 0.000000 0.000000 0.000000
# 3 -0.005284 0.001870 0.017368 0.000000 0.000000 0.000000
# 4 0.000000 0.000000 0.000000 0.023437 0.000000 0.000000
# 5 0.000000 0.000000 0.000000 0.000000 0.019604 0.000000
# 6 0.000000 0.000000 0.000000 0.000000 0.000000 0.051554
#
#
# Mechanical properties :
#
#
# Convention : Reuss Voigt Hill
#
# Bulk Modulus (GPa) = 36.28504 60.02161 48.15333
# Shear Modulus (GPa) = 31.37454 38.97652 35.17553
#
# Velocity S-wave (km/s) = 3.47060 3.86827 3.67482
# Velocity P-wave (km/s) = 5.47634 6.55701 6.04089
#
# Compressibility (1/GPa) = 0.02755957
#
# Stress axis : x y z
#
# Youngs Moduli (GPa) = 141.56580 58.34482 57.57798
#
# Poissons Ratio (x) = 0.20960 0.30422
# Poissons Ratio (y) = 0.50855 -0.10768
# Poissons Ratio (z) = 0.74797 -0.10911
#
# Static dielectric constant tensor:
#      x y z
#    x 2.068230 0.000000 0.000000 
#    y 0.000000 2.000830 0.000000 
#    z 0.000000 0.000000 1.995260 
# 
# From -- ./inp_files/1431.got.cif
#   From: 2010.05.17/outbox.cif.g08.bks.cpg/sg34_1_cif.got.tgz:1431.got - 2010.06.03 17:23:11.
