data_PCOD9347084
_publ_section_title
;
Structure prediction by ZEFSAII (Michael W. Deem and Ramdas Pophale) SiO2 
 PCOD9347084
Probable space group: P N A 21
;
_chemical_formula_sum "Si O2"
_cell_formula_units_Z 32
_cell_length_a 9.000000
_cell_length_b 15.000000
_cell_length_c 12.000000
_cell_angle_alpha 90.000000
_cell_angle_beta 90.000000
_cell_angle_gamma 90.000000
_cell_volume 1620.000000
_symmetry_space_group_name_H-M "P N A 21"
_symmetry_group_IT_number 33
_symmetry_cell_setting 'orthorhombic'
loop_
_space_group_symop_operation_xyz
x,y,z
-x,-y,1/2+z
1/2-x,1/2+y,1/2+z
1/2+x,1/2-y,z
loop_
_atom_site_type_symbol
_atom_site_label
_atom_site_fract_x
_atom_site_fract_y
_atom_site_fract_z
Si Si1 0.984452 0.390907 0.862880
Si Si2 0.335337 0.606222 0.804498
Si Si3 0.734113 0.341699 0.555317
Si Si4 0.337015 0.410366 0.889179
Si Si5 0.342405 0.981996 0.681179
Si Si6 0.886078 0.363097 0.108484
Si Si7 0.405980 0.346598 0.139562
Si Si8 0.451374 0.277319 0.697213
O O1 0.911016 0.469974 0.789933
O O2 0.992292 0.305708 0.779217
O O3 0.156208 0.408577 0.897503
O O4 0.881384 0.375203 0.973030
O O5 0.382819 0.510039 0.853361
O O6 0.213364 0.591803 0.706092
O O7 0.457596 0.653778 0.726782
O O8 0.287557 0.656986 0.920182
O O9 0.800857 0.437351 0.595902
O O10 0.584391 0.323203 0.627376
O O11 0.842990 0.265006 0.603498
O O12 0.381580 0.346837 0.785528
O O13 0.410285 0.380157 0.008320
O O14 0.457950 0.910151 0.633948
O O15 0.200123 0.919649 0.696906
O O16 0.864330 0.257487 0.128523
#
# Coordination Sequence:
#
# PCOD9347084 Si02
#       8
#     4   4   4   4   4   4   4   4
#     4  11  23  45  75 105 137 190 247 291 357 441
#     4  12  28  44  66 108 149 189 231 304 377 427
#     4  11  25  47  71 108 147 184 247 299 362 439
#     4  12  23  47  71 103 143 183 250 294 354 443
#     4  11  24  48  70 101 145 191 237 301 361 434
#     4  12  25  46  73 105 144 195 238 296 372 430
#     4  12  26  45  71 104 147 186 241 312 357 432
#     4  11  24  44  79 104 136 194 241 301 358 432
#
# _framework density 19.753086
#
# number of rings (size 3 to 8) (size 9 to 14) (size 15 to 20)
#    0.000    0.500    6.250    1.500    1.750    3.000 
#    0.000    0.000    0.000    0.000    0.000    0.000 
#    0.000    0.000    0.000    0.000    0.000    0.000 
#
# Total GULP energy -178339.426180 kJ/mol
# GULP energy per Si atom -5573.107068 kJ/mol
# Density = 1.970813 g / cm^3
# Si number density = 19.753086 Si / 1000 Ang^3
#
#
#
# Elastic Constant Matrix: (Units=GPa)
#
#
# Indices 1 2 3 4 5 6 
#
# 1 36.4955 -15.7296 20.3660 0.0000 0.0000 0.0000
# 2 -15.7296 76.7906 10.2205 0.0000 0.0000 0.0000
# 3 20.3660 10.2205 146.4488 0.0000 0.0000 0.0000
# 4 0.0000 0.0000 0.0000 38.3905 0.0000 0.0000
# 5 0.0000 0.0000 0.0000 0.0000 36.7432 0.0000
# 6 0.0000 0.0000 0.0000 0.0000 0.0000 31.6883
#
#
#
# Elastic Compliance Matrix: (Units=1/GPa)
#
#
# Indices 1 2 3 4 5 6 
#
# 1 0.033561 0.007566 -0.005195 0.000000 0.000000 0.000000
# 2 0.007566 0.014850 -0.002089 0.000000 0.000000 0.000000
# 3 -0.005195 -0.002089 0.007697 0.000000 0.000000 0.000000
# 4 0.000000 0.000000 0.000000 0.026048 0.000000 0.000000
# 5 0.000000 0.000000 0.000000 0.000000 0.027216 0.000000
# 6 0.000000 0.000000 0.000000 0.000000 0.000000 0.031557
#
#
# Mechanical properties :
#
#
# Convention : Reuss Voigt Hill
#
# Bulk Modulus (GPa) = 17.64541 32.16096 24.90318
# Shear Modulus (GPa) = 31.39619 37.68961 34.54290
#
# Velocity S-wave (km/s) = 3.99109 4.37285 4.18632
# Velocity P-wave (km/s) = 5.49462 6.46626 6.00014
#
# Compressibility (1/GPa) = 0.05667196
#
# Stress axis : x y z
#
# Youngs Moduli (GPa) = 29.79674 67.33918 129.92837
#
# Poissons Ratio (x) = -0.50948 0.67500
# Poissons Ratio (y) = -0.22544 0.27136
# Poissons Ratio (z) = 0.15480 0.14064
#
# Static dielectric constant tensor:
#      x y z
#    x 1.821220 0.000000 0.000000 
#    y 0.000000 1.688080 0.000000 
#    z 0.000000 0.000000 1.683150 
# 
# From -- ./inp_files/6003.got.cif
#   From: 2010.05.17/outbox.ucp.g08.bks.cvg/sg33_4_cif.got.tgz:6003.got - 2010.06.11 10:35:07.
