data_PCOD9347453
_publ_section_title
;
Structure prediction by ZEFSAII (Michael W. Deem and Ramdas Pophale) SiO2 
 PCOD9347453
Probable space group: P N N 2
;
_chemical_formula_sum "Si O2"
_cell_formula_units_Z 32
_cell_length_a 16.687552
_cell_length_b 9.436940
_cell_length_c 9.594402
_cell_angle_alpha 90.000000
_cell_angle_beta 90.000000
_cell_angle_gamma 90.000000
_cell_volume 1510.920929
_symmetry_space_group_name_H-M "P N N 2"
_symmetry_group_IT_number 34
_symmetry_cell_setting 'orthorhombic'
loop_
_space_group_symop_operation_xyz
x,y,z
-x,-y,z
1/2-x,1/2+y,1/2+z
1/2+x,1/2-y,1/2+z
loop_
_atom_site_type_symbol
_atom_site_label
_atom_site_fract_x
_atom_site_fract_y
_atom_site_fract_z
Si Si1 0.337537 0.160960 0.073370
Si Si2 0.993239 0.330423 0.748943
Si Si3 0.756135 0.047412 0.253445
Si Si4 0.427147 0.609962 0.072105
Si Si5 0.743865 0.547412 0.069280
Si Si6 0.927147 0.890038 0.250620
Si Si7 0.162463 0.660960 0.249355
Si Si8 0.506761 0.830423 0.573783
O O1 0.413704 0.207034 0.163050
O O2 0.301684 0.019867 0.140294
O O3 0.272701 0.286576 0.084506
O O4 0.358943 0.144881 0.911363
O O5 0.000000 0.500000 0.737520
O O6 0.063445 0.241162 0.676347
O O7 0.987251 0.293484 0.911363
O O8 0.725537 0.019827 0.411363
O O9 0.842708 0.970765 0.240589
O O10 0.772701 0.213424 0.238219
O O11 0.500000 0.500000 0.099809
O O12 0.342708 0.529235 0.082136
O O13 0.436272 0.658148 0.911363
O O14 0.801684 0.480133 0.182431
O O15 0.936555 0.758838 0.146378
O O16 0.000000 0.000000 0.222916
O O17 0.086296 0.707034 0.159676
O O18 0.500000 0.000000 0.585205
#
# Coordination Sequence:
#
# PCOD9347453 Si02
#       8
#     4   4   4   4   4   4   4   4
#     4  11  24  43  65  90 124 165 207 251 306 369
#     4  11  25  42  62  92 128 161 204 260 309 361
#     4  10  23  42  63  91 127 161 203 256 305 363
#     4  10  20  41  67  90 119 159 205 253 306 365
#     4  10  23  42  63  91 127 161 203 256 305 363
#     4  10  20  41  67  90 119 159 205 253 306 365
#     4  11  24  43  65  90 124 165 207 251 306 369
#     4  11  25  42  62  92 128 161 204 260 309 361
#
# _framework density 21.179137000000001
#
# number of rings (size 3 to 8) (size 9 to 14) (size 15 to 20)
#    0.000    1.500    2.500    1.500    3.500    5.500 
#    0.000    0.000    0.000    0.000    0.000    0.000 
#    0.000    0.000    0.000    0.000    0.000    0.000 
#
# Total GULP energy -178997.005624 kJ/mol
# GULP energy per Si atom -5593.656426 kJ/mol
# Density = 2.113093 g / cm^3
# Si number density = 21.179137 Si / 1000 Ang^3
#
#
#
# Elastic Constant Matrix: (Units=GPa)
#
#
# Indices 1 2 3 4 5 6 
#
# 1 26.7983 -0.7239 18.8061 0.0000 0.0000 0.0000
# 2 -0.7239 57.9933 65.6751 0.0000 0.0000 0.0000
# 3 18.8061 65.6751 127.1162 0.0000 0.0000 0.0000
# 4 0.0000 0.0000 0.0000 8.4742 0.0000 0.0000
# 5 0.0000 0.0000 0.0000 0.0000 -82.9026 0.0000
# 6 0.0000 0.0000 0.0000 0.0000 0.0000 28.6935
#
#
#
# Elastic Compliance Matrix: (Units=1/GPa)
#
#
# Indices 1 2 3 4 5 6 
#
# 1 0.051318 0.022266 -0.019096 0.000000 0.000000 0.000000
# 2 0.022266 0.051220 -0.029757 0.000000 0.000000 0.000000
# 3 -0.019096 -0.029757 0.026066 0.000000 0.000000 0.000000
# 4 0.000000 0.000000 0.000000 0.118006 0.000000 0.000000
# 5 0.000000 0.000000 0.000000 0.000000 -0.012062 0.000000
# 6 0.000000 0.000000 0.000000 0.000000 0.000000 0.034851
#
#
# Mechanical properties :
#
#
# Convention : Reuss Voigt Hill
#
# Bulk Modulus (GPa) = 13.25726 42.15806 27.70766
# Shear Modulus (GPa) = 14.37947 -0.60363 6.88792
#
# Velocity S-wave (km/s) = 2.60848 -0.53445 1.80535
# Velocity P-wave (km/s) = 3.91732 4.42355 4.17811
#
# Compressibility (1/GPa) = 0.07543036
#
# Stress axis : x y z
#
# Youngs Moduli (GPa) = 19.48620 19.52347 38.36371
#
# Poissons Ratio (x) = -0.43472 0.73260
# Poissons Ratio (y) = -0.43389 1.14160
# Poissons Ratio (z) = 0.37211 0.58097
#
# Static dielectric constant tensor:
#      x y z
#    x 1.784220 0.000000 0.000000 
#    y 0.000000 1.769200 0.000000 
#    z 0.000000 0.000000 1.716690 
# 
# From -- ./inp_files/4017.got.cif
#   From: 2010.05.17/outbox.cif.g08.bks.cpg/sg34_3_cif.got.tgz:4017.got - 2010.06.03 17:23:11.
