data_PCOD9347101
_publ_section_title
;
Structure prediction by ZEFSAII (Michael W. Deem and Ramdas Pophale) SiO2 
 PCOD9347101
Probable space group: P N N 2
;
_chemical_formula_sum "Si O2"
_cell_formula_units_Z 28
_cell_length_a 7.019965
_cell_length_b 5.188940
_cell_length_c 31.181979
_cell_angle_alpha 90.000000
_cell_angle_beta 90.000000
_cell_angle_gamma 90.000000
_cell_volume 1135.840292
_symmetry_space_group_name_H-M "P N N 2"
_symmetry_group_IT_number 34
_symmetry_cell_setting 'orthorhombic'
loop_
_space_group_symop_operation_xyz
x,y,z
-x,-y,z
1/2-x,1/2+y,1/2+z
1/2+x,1/2-y,1/2+z
loop_
_atom_site_type_symbol
_atom_site_label
_atom_site_fract_x
_atom_site_fract_y
_atom_site_fract_z
Si Si1 0.783573 0.555280 0.282400
Si Si2 0.362435 0.253955 0.909205
Si Si3 0.729096 0.525217 0.185923
Si Si4 0.730557 0.023671 0.138646
Si Si5 0.770291 0.035649 0.496654
Si Si6 0.768842 0.529953 0.542002
Si Si7 0.773415 0.063943 0.319709
O O1 0.787839 0.625519 0.232687
O O2 0.699991 0.268203 0.285081
O O3 0.000000 0.500000 0.297560
O O4 0.695267 0.777798 0.311932
O O5 0.500000 0.500000 0.906969
O O6 0.248866 0.287892 0.864850
O O7 0.500000 0.000000 0.912253
O O8 0.238385 0.320376 0.951196
O O9 0.500000 0.500000 0.186402
O O10 0.793623 0.240802 0.172238
O O11 0.791541 0.737840 0.151572
O O12 0.781620 0.102871 0.090366
O O13 0.500000 0.000000 0.139447
O O14 0.703334 0.241964 0.531407
O O15 0.705744 0.747105 0.507835
O O16 0.000000 0.000000 0.499025
O O17 0.000000 0.500000 0.539518
O O18 0.000000 0.000000 0.313987
#
# Coordination Sequence:
#
# PCOD9347101 Si02
#       7
#     4   4   4   4   4   4   4
#     4  10  19  31  46  64  85 113 146 181 219 259
#     4  10  16  24  36  54  80 112 146 176 206 252
#     4  10  19  31  46  64  85 113 146 181 219 259
#     4   9  17  28  42  59  82 113 146 176 212 260
#     4   9  15  21  32  51  76 107 141 170 200 240
#     4   9  15  23  34  51  76 107 140 170 200 246
#     4   9  17  28  42  59  82 113 146 176 212 260
#
# _framework density 24.651354999999999
#
# number of rings (size 3 to 8) (size 9 to 14) (size 15 to 20)
#    0.000    2.571    0.000    6.000    0.000    3.429 
#    0.000    0.000    0.000    0.000    0.000    0.000 
#    0.000    0.000    0.000   25.714    0.000   31.000 
#
# Total GULP energy -156149.647480 kJ/mol
# GULP energy per Si atom -5576.773124 kJ/mol
# Density = 2.459525 g / cm^3
# Si number density = 24.651355 Si / 1000 Ang^3
#
#
#
# Elastic Constant Matrix: (Units=GPa)
#
#
# Indices 1 2 3 4 5 6 
#
# 1 90.1281 -11.4605 -23.7372 0.0000 0.0000 0.0000
# 2 -11.4605 186.3406 53.5831 0.0000 0.0000 0.0000
# 3 -23.7372 53.5831 116.3761 0.0000 0.0000 0.0000
# 4 0.0000 0.0000 0.0000 48.6586 0.0000 0.0000
# 5 0.0000 0.0000 0.0000 0.0000 6.9018 0.0000
# 6 0.0000 0.0000 0.0000 0.0000 0.0000 -19.0420
#
#
#
# Elastic Compliance Matrix: (Units=1/GPa)
#
#
# Indices 1 2 3 4 5 6 
#
# 1 0.011725 0.000039 0.002374 0.000000 0.000000 0.000000
# 2 0.000039 0.006186 -0.002840 0.000000 0.000000 0.000000
# 3 0.002374 -0.002840 0.010385 0.000000 0.000000 0.000000
# 4 0.000000 0.000000 0.000000 0.020551 0.000000 0.000000
# 5 0.000000 0.000000 0.000000 0.000000 0.144889 0.000000
# 6 0.000000 0.000000 0.000000 0.000000 0.000000 -0.052516
#
#
# Mechanical properties :
#
#
# Convention : Reuss Voigt Hill
#
# Bulk Modulus (GPa) = 36.44282 47.73507 42.08894
# Shear Modulus (GPa) = 33.06375 32.26764 32.66569
#
# Velocity S-wave (km/s) = 3.66629 3.62188 3.64415
# Velocity P-wave (km/s) = 5.72168 6.07427 5.90061
#
# Compressibility (1/GPa) = 0.02744025
#
# Stress axis : x y z
#
# Youngs Moduli (GPa) = 85.28468 161.66598 96.29513
#
# Poissons Ratio (x) = -0.00623 -0.22859
# Poissons Ratio (y) = -0.00329 0.27350
# Poissons Ratio (z) = -0.20246 0.45916
#
# Static dielectric constant tensor:
#      x y z
#    x 2.007170 0.000000 0.000000 
#    y 0.000000 1.849520 0.000000 
#    z 0.000000 0.000000 2.021420 
# 
# From -- ./inp_files/8615.got.cif
#   From: 2010.05.17/outbox.cif.g08.bks.cpg/sg34_5_cif.got.tgz:8615.got - 2010.06.03 17:23:11.
