data_PCOD9347696
_publ_section_title
;
Structure prediction by ZEFSAII (Michael W. Deem and Ramdas Pophale) SiO2 
 PCOD9347696
Probable space group: P N N 2
;
_chemical_formula_sum "Si O2"
_cell_formula_units_Z 24
_cell_length_a 15.111078
_cell_length_b 9.185443
_cell_length_c 9.142520
_cell_angle_alpha 90.000000
_cell_angle_beta 90.000000
_cell_angle_gamma 90.000000
_cell_volume 1268.999564
_symmetry_space_group_name_H-M "P N N 2"
_symmetry_group_IT_number 34
_symmetry_cell_setting 'orthorhombic'
loop_
_space_group_symop_operation_xyz
x,y,z
-x,-y,z
1/2-x,1/2+y,1/2+z
1/2+x,1/2-y,1/2+z
loop_
_atom_site_type_symbol
_atom_site_label
_atom_site_fract_x
_atom_site_fract_y
_atom_site_fract_z
Si Si1 0.500000 0.000000 0.834501
Si Si2 0.348260 0.524303 0.977926
Si Si3 0.820805 0.982493 0.820393
Si Si4 0.762622 0.309162 0.769399
Si Si5 0.657865 0.822167 0.973244
Si Si6 0.000000 0.000000 0.007073
Si Si7 0.932012 0.794441 0.232937
O O1 0.573881 0.912750 0.922350
O O2 0.451541 0.873940 0.746655
O O3 0.257570 0.582670 0.902337
O O4 0.355488 0.351388 0.952047
O O5 0.422061 0.619107 0.888885
O O6 0.343865 0.551721 0.150842
O O7 0.782345 0.147161 0.824292
O O8 0.912192 0.984925 0.910719
O O9 0.744245 0.878672 0.885022
O O10 0.831903 0.350432 0.646514
O O11 0.669319 0.309240 0.681476
O O12 0.000198 0.134102 0.120938
#
# Coordination Sequence:
#
# PCOD9347696 Si02
#       7
#     2   4   4   4   4   2   4
#     4  12  24  36  70  94 126 168 218 264 314 386
#     4   9  22  40  65  88 128 168 207 259 318 380
#     4  11  22  41  64  96 128 166 215 262 312 377
#     4   9  21  44  62  88 128 167 210 258 321 374
#     4  11  21  39  64  92 127 166 210 264 315 375
#     4  12  24  40  68  92 130 170 214 262 322 382
#     4  10  22  43  62  93 126 168 209 258 324 374
#
# _framework density 18.912535999999999
#
# number of rings (size 3 to 8) (size 9 to 14) (size 15 to 20)
#    1.000    0.667    3.333    1.000    0.000    8.667 
#    0.000    0.000    0.000    1.000    0.000    0.000 
#    0.000    0.000    0.000    0.000    0.000    0.000 
#
# Total GULP energy -133644.978306 kJ/mol
# GULP energy per Si atom -5568.540763 kJ/mol
# Density = 1.886949 g / cm^3
# Si number density = 18.912536 Si / 1000 Ang^3
#
#
#
# Elastic Constant Matrix: (Units=GPa)
#
#
# Indices 1 2 3 4 5 6 
#
# 1 36.4856 -7.0896 7.7516 0.0000 0.0000 0.0000
# 2 -7.0896 77.4096 40.0203 0.0000 0.0000 0.0000
# 3 7.7516 40.0203 96.0248 0.0000 0.0000 0.0000
# 4 0.0000 0.0000 0.0000 -7.4757 0.0000 0.0000
# 5 0.0000 0.0000 0.0000 0.0000 141.9881 0.0000
# 6 0.0000 0.0000 0.0000 0.0000 0.0000 33.8898
#
#
#
# Elastic Compliance Matrix: (Units=1/GPa)
#
#
# Indices 1 2 3 4 5 6 
#
# 1 0.029320 0.004983 -0.004443 0.000000 0.000000 0.000000
# 2 0.004983 0.017313 -0.007618 0.000000 0.000000 0.000000
# 3 -0.004443 -0.007618 0.013948 0.000000 0.000000 0.000000
# 4 0.000000 0.000000 0.000000 -0.133767 0.000000 0.000000
# 5 0.000000 0.000000 0.000000 0.000000 0.007043 0.000000
# 6 0.000000 0.000000 0.000000 0.000000 0.000000 0.029507
#
#
# Mechanical properties :
#
#
# Convention : Reuss Voigt Hill
#
# Bulk Modulus (GPa) = 21.54083 32.36496 26.95289
# Shear Modulus (GPa) = -713.84012 44.96296 -334.43858
#
# Velocity S-wave (km/s) = -19.44896 4.88116 -13.31233
# Velocity P-wave (km/s) = 22.20214 6.99413 14.89996
#
# Compressibility (1/GPa) = 0.04642347
#
# Stress axis : x y z
#
# Youngs Moduli (GPa) = 34.10607 57.76026 71.69731
#
# Poissons Ratio (x) = -0.28779 0.31858
# Poissons Ratio (y) = -0.16994 0.54617
# Poissons Ratio (z) = 0.15155 0.44000
#
# Static dielectric constant tensor:
#      x y z
#    x 1.678820 0.000000 0.000000 
#    y 0.000000 1.646400 0.000000 
#    z 0.000000 0.000000 1.656500 
# 
# From -- ./inp_files/2635.got.cif
#   From: 2010.05.17/outbox.cif.g08.bks.cpg/sg34_2_cif.got.tgz:2635.got - 2010.06.03 17:23:11.
