data_PCOD9347441
_publ_section_title
;
Structure prediction by ZEFSAII (Michael W. Deem and Ramdas Pophale) SiO2 
 PCOD9347441
Probable space group: P N N 2
;
_chemical_formula_sum "Si O2"
_cell_formula_units_Z 22
_cell_length_a 11.799052
_cell_length_b 5.259258
_cell_length_c 17.502200
_cell_angle_alpha 90.000000
_cell_angle_beta 90.000000
_cell_angle_gamma 90.000000
_cell_volume 1086.086045
_symmetry_space_group_name_H-M "P N N 2"
_symmetry_group_IT_number 34
_symmetry_cell_setting 'orthorhombic'
loop_
_space_group_symop_operation_xyz
x,y,z
-x,-y,z
1/2-x,1/2+y,1/2+z
1/2+x,1/2-y,1/2+z
loop_
_atom_site_type_symbol
_atom_site_label
_atom_site_fract_x
_atom_site_fract_y
_atom_site_fract_z
Si Si1 0.805913 0.321152 0.405500
Si Si2 0.500000 0.500000 0.832764
Si Si3 0.676067 0.414589 0.167937
Si Si4 0.371100 0.080746 0.073653
Si Si5 0.125406 0.381592 0.263711
Si Si6 0.427925 0.742303 0.330631
O O1 0.806423 0.384953 0.494060
O O2 0.819774 0.552889 0.345864
O O3 0.686437 0.204176 0.378932
O O4 0.923063 0.170339 0.388472
O O5 0.402155 0.588106 0.773365
O O6 0.627111 0.654494 0.120803
O O7 0.796705 0.517474 0.197688
O O8 0.609003 0.341909 0.245178
O O9 0.681210 0.155527 0.120147
O O10 0.500000 0.000000 0.057279
O O11 0.000000 0.500000 0.260496
O O12 0.500000 0.500000 0.361374
O O13 0.500000 0.000000 0.326883
#
# Coordination Sequence:
#
# PCOD9347441 Si02
#       6
#     4   2   4   4   4   4
#     4  10  25  40  68  95 128 172 224 272 332 381
#     4  10  20  40  68  96 126 168 232 278 322 376
#     4  11  25  40  65  96 132 172 212 263 337 388
#     4  12  25  42  62  97 131 168 212 271 335 389
#     4   9  21  40  65  93 122 171 223 273 314 383
#     4  11  24  44  68  96 131 174 222 268 321 398
#
# _framework density 20.256222000000001
#
# number of rings (size 3 to 8) (size 9 to 14) (size 15 to 20)
#    0.000    1.455    0.000    4.909   17.818    0.000 
#    0.000    2.727    0.000    0.000    0.000    0.000 
#    0.000    0.000    0.000    0.000    0.000    0.000 
#
# Total GULP energy -122659.760860 kJ/mol
# GULP energy per Si atom -5575.443675 kJ/mol
# Density = 2.021012 g / cm^3
# Si number density = 20.256222 Si / 1000 Ang^3
#
#
#
# Elastic Constant Matrix: (Units=GPa)
#
#
# Indices 1 2 3 4 5 6 
#
# 1 112.4452 40.0356 55.6022 0.0000 0.0000 0.0000
# 2 40.0356 107.7362 46.9660 0.0000 0.0000 0.0000
# 3 55.6022 46.9660 121.9693 0.0000 0.0000 0.0000
# 4 0.0000 0.0000 0.0000 16.7888 0.0000 0.0000
# 5 0.0000 0.0000 0.0000 0.0000 20.4638 0.0000
# 6 0.0000 0.0000 0.0000 0.0000 0.0000 31.9768
#
#
#
# Elastic Compliance Matrix: (Units=1/GPa)
#
#
# Indices 1 2 3 4 5 6 
#
# 1 0.012015 -0.002496 -0.004516 0.000000 0.000000 0.000000
# 2 -0.002496 0.011673 -0.003357 0.000000 0.000000 0.000000
# 3 -0.004516 -0.003357 0.011550 0.000000 0.000000 0.000000
# 4 0.000000 0.000000 0.000000 0.059564 0.000000 0.000000
# 5 0.000000 0.000000 0.000000 0.000000 0.048867 0.000000
# 6 0.000000 0.000000 0.000000 0.000000 0.000000 0.031273
#
#
# Mechanical properties :
#
#
# Convention : Reuss Voigt Hill
#
# Bulk Modulus (GPa) = 68.96647 69.70647 69.33647
# Shear Modulus (GPa) = 24.93605 27.14902 26.04253
#
# Velocity S-wave (km/s) = 3.51241 3.66496 3.58949
# Velocity P-wave (km/s) = 7.11128 7.23853 7.17519
#
# Compressibility (1/GPa) = 0.01449980
#
# Stress axis : x y z
#
# Youngs Moduli (GPa) = 83.22842 85.66840 86.57872
#
# Poissons Ratio (x) = 0.21384 0.39100
# Poissons Ratio (y) = 0.20775 0.29064
# Poissons Ratio (z) = 0.37587 0.28758
#
# Static dielectric constant tensor:
#      x y z
#    x 1.752090 0.000000 0.000000 
#    y 0.000000 1.950150 0.000000 
#    z 0.000000 0.000000 1.696580 
# 
# From -- ./inp_files/6687.got.cif
#   From: 2010.05.17/outbox.cif.g08.bks.cpg/sg34_4_cif.got.tgz:6687.got - 2010.06.03 17:23:11.
