data_PCOD9347063
_publ_section_title
;
Structure prediction by ZEFSAII (Michael W. Deem and Ramdas Pophale) SiO2 
 PCOD9347063
Probable space group: P N A 21
;
_chemical_formula_sum "Si O2"
_cell_formula_units_Z 32
_cell_length_a 12.000000
_cell_length_b 15.000000
_cell_length_c 9.000000
_cell_angle_alpha 90.000000
_cell_angle_beta 90.000000
_cell_angle_gamma 90.000000
_cell_volume 1620.000000
_symmetry_space_group_name_H-M "P N A 21"
_symmetry_group_IT_number 33
_symmetry_cell_setting 'orthorhombic'
loop_
_space_group_symop_operation_xyz
x,y,z
-x,-y,1/2+z
1/2-x,1/2+y,1/2+z
1/2+x,1/2-y,z
loop_
_atom_site_type_symbol
_atom_site_label
_atom_site_fract_x
_atom_site_fract_y
_atom_site_fract_z
Si Si1 0.496465 0.583455 0.589180
Si Si2 0.036431 0.383660 0.110712
Si Si3 0.580665 0.038344 0.436774
Si Si4 0.693951 0.272556 0.075831
Si Si5 0.783813 0.382190 0.819506
Si Si6 0.472481 0.606185 0.240883
Si Si7 0.614936 0.737139 0.765697
Si Si8 0.534681 0.798099 0.092647
O O1 0.383690 0.641755 0.604351
O O2 0.518915 0.592385 0.410644
O O3 0.490934 0.480344 0.642404
O O4 0.578075 0.641099 0.698145
O O5 0.065424 0.428131 0.268529
O O6 0.126733 0.317435 0.039353
O O7 0.942460 0.312804 0.162100
O O8 0.004605 0.463309 0.999826
O O9 0.687022 0.972162 0.414100
O O10 0.441000 0.873192 0.040836
O O11 0.756088 0.249432 0.228529
O O12 0.769300 0.301411 0.936972
O O13 0.662406 0.396610 0.748307
O O14 0.876564 0.351962 0.697539
O O15 0.500646 0.706051 0.178662
O O16 0.584183 0.760871 0.935070
#
# Coordination Sequence:
#
# PCOD9347063 Si02
#       8
#     4   4   4   4   4   4   4   4
#     4  10  23  42  69  93 140 179 218 289 336 405
#     4  10  22  38  66  92 131 171 215 283 331 391
#     4  11  22  42  66  96 131 170 225 279 336 392
#     4  10  22  41  67  98 128 179 221 272 343 407
#     4  11  24  42  68  97 134 179 230 275 341 412
#     4  11  25  46  66 102 138 182 231 279 347 412
#     4  10  21  40  65  96 131 174 223 274 336 408
#     4  11  25  43  67 100 137 178 227 291 332 405
#
# _framework density 19.753086
#
# number of rings (size 3 to 8) (size 9 to 14) (size 15 to 20)
#    0.000    1.500    2.500    1.500    5.250    4.000 
#    4.500    3.750    0.000    0.000    0.000    0.000 
#    0.000    0.000    0.000    0.000    0.000    0.000 
#
# Total GULP energy -178212.507575 kJ/mol
# GULP energy per Si atom -5569.140862 kJ/mol
# Density = 1.970813 g / cm^3
# Si number density = 19.753086 Si / 1000 Ang^3
#
#
#
# Elastic Constant Matrix: (Units=GPa)
#
#
# Indices 1 2 3 4 5 6 
#
# 1 48.5110 30.0004 31.2253 0.0000 0.0000 0.0000
# 2 30.0004 156.3280 43.1118 0.0000 0.0000 0.0000
# 3 31.2253 43.1118 110.1886 0.0000 0.0000 0.0000
# 4 0.0000 0.0000 0.0000 49.9238 0.0000 0.0000
# 5 0.0000 0.0000 0.0000 0.0000 25.1319 0.0000
# 6 0.0000 0.0000 0.0000 0.0000 0.0000 25.0063
#
#
#
# Elastic Compliance Matrix: (Units=1/GPa)
#
#
# Indices 1 2 3 4 5 6 
#
# 1 0.026742 -0.003410 -0.006244 0.000000 0.000000 0.000000
# 2 -0.003410 0.007605 -0.002009 0.000000 0.000000 0.000000
# 3 -0.006244 -0.002009 0.011631 0.000000 0.000000 0.000000
# 4 0.000000 0.000000 0.000000 0.020031 0.000000 0.000000
# 5 0.000000 0.000000 0.000000 0.000000 0.039790 0.000000
# 6 0.000000 0.000000 0.000000 0.000000 0.000000 0.039990
#
#
# Mechanical properties :
#
#
# Convention : Reuss Voigt Hill
#
# Bulk Modulus (GPa) = 44.14704 58.18916 51.16810
# Shear Modulus (GPa) = 28.30210 34.05842 31.18026
#
# Velocity S-wave (km/s) = 3.78933 4.15686 3.97734
# Velocity P-wave (km/s) = 6.44541 7.24993 6.85948
#
# Compressibility (1/GPa) = 0.02265158
#
# Stress axis : x y z
#
# Youngs Moduli (GPa) = 37.39474 131.48680 85.97798
#
# Poissons Ratio (x) = 0.44837 0.53684
# Poissons Ratio (y) = 0.12752 0.17275
# Poissons Ratio (z) = 0.23349 0.26420
#
# Static dielectric constant tensor:
#      x y z
#    x 1.795030 0.000000 0.000000 
#    y 0.000000 1.687870 0.000000 
#    z 0.000000 0.000000 1.701530 
# 
# From -- ./inp_files/4000.got.cif
#   From: 2010.05.17/outbox.ucp.g08.bks.cvg/sg33_2_cif.got.tgz:4000.got - 2010.06.11 10:35:07.
