data_PCOD9347258
_publ_section_title
;
Structure prediction by ZEFSAII (Michael W. Deem and Ramdas Pophale) SiO2 
 PCOD9347258
Probable space group: P N N 2
;
_chemical_formula_sum "Si O2"
_cell_formula_units_Z 30
_cell_length_a 14.821712
_cell_length_b 7.681557
_cell_length_c 11.833396
_cell_angle_alpha 90.000000
_cell_angle_beta 90.000000
_cell_angle_gamma 90.000000
_cell_volume 1347.277404
_symmetry_space_group_name_H-M "P N N 2"
_symmetry_group_IT_number 34
_symmetry_cell_setting 'orthorhombic'
loop_
_space_group_symop_operation_xyz
x,y,z
-x,-y,z
1/2-x,1/2+y,1/2+z
1/2+x,1/2-y,1/2+z
loop_
_atom_site_type_symbol
_atom_site_label
_atom_site_fract_x
_atom_site_fract_y
_atom_site_fract_z
Si Si1 0.621607 0.362321 0.669030
Si Si2 0.574997 0.368513 0.921608
Si Si3 0.729839 0.942748 0.484691
Si Si4 0.671105 0.652740 0.334630
Si Si5 0.793915 0.273529 0.590133
Si Si6 0.500000 0.500000 0.471825
Si Si7 0.133571 0.511272 0.405807
Si Si8 0.599834 0.961488 0.671522
O O1 0.592579 0.429891 0.791117
O O2 0.721482 0.416740 0.633220
O O3 0.553414 0.382599 0.564852
O O4 0.634886 0.156924 0.691654
O O5 0.500000 0.500000 0.966492
O O6 0.666706 0.390582 0.991404
O O7 0.570311 0.158768 0.918177
O O8 0.738297 0.149567 0.502036
O O9 0.665453 0.872727 0.584040
O O10 0.688893 0.852056 0.375037
O O11 0.670350 0.664854 0.198095
O O12 0.579230 0.582908 0.393624
O O13 0.761041 0.549134 0.379942
O O14 0.867126 0.371611 0.516343
O O15 0.102759 0.619479 0.295052
O O16 0.500000 0.000000 0.628505
#
# Coordination Sequence:
#
# PCOD9347258 Si02
#       8
#     4   4   4   4   4   2   4   4
#     4  10  19  35  64  96 128 171 227 288 338 415
#     4  10  20  39  64 100 135 173 231 287 350 430
#     4  10  21  40  65  96 133 179 220 289 355 411
#     4  11  22  42  65 103 138 180 238 295 359 436
#     4  11  21  43  63  95 146 183 227 294 362 433
#     4  12  22  36  74 102 132 188 238 292 356 430
#     4  10  21  40  66  92 138 185 229 289 362 422
#     4  10  20  38  62  92 130 165 235 287 339 413
#
# _framework density 22.267129000000001
#
# number of rings (size 3 to 8) (size 9 to 14) (size 15 to 20)
#    0.000    1.600    7.333    0.800    0.000    2.133 
#    8.400    0.000    0.000    5.600    0.000    0.000 
#    0.000    0.000    0.000    0.000    0.000    0.000 
#
# Total GULP energy -167059.915229 kJ/mol
# GULP energy per Si atom -5568.663841 kJ/mol
# Density = 2.221645 g / cm^3
# Si number density = 22.267129 Si / 1000 Ang^3
#
#
#
# Elastic Constant Matrix: (Units=GPa)
#
#
# Indices 1 2 3 4 5 6 
#
# 1 126.8453 15.7561 43.1578 0.0000 0.0000 0.0000
# 2 15.7561 56.0612 32.9905 0.0000 0.0000 0.0000
# 3 43.1578 32.9905 102.8274 0.0000 0.0000 0.0000
# 4 0.0000 0.0000 0.0000 30.6750 0.0000 0.0000
# 5 0.0000 0.0000 0.0000 0.0000 28.3304 0.0000
# 6 0.0000 0.0000 0.0000 0.0000 0.0000 33.7886
#
#
#
# Elastic Compliance Matrix: (Units=1/GPa)
#
#
# Indices 1 2 3 4 5 6 
#
# 1 0.009204 -0.000386 -0.003739 0.000000 0.000000 0.000000
# 2 -0.000386 0.022005 -0.006898 0.000000 0.000000 0.000000
# 3 -0.003739 -0.006898 0.013507 0.000000 0.000000 0.000000
# 4 0.000000 0.000000 0.000000 0.032600 0.000000 0.000000
# 5 0.000000 0.000000 0.000000 0.000000 0.035298 0.000000
# 6 0.000000 0.000000 0.000000 0.000000 0.000000 0.029596
#
#
# Mechanical properties :
#
#
# Convention : Reuss Voigt Hill
#
# Bulk Modulus (GPa) = 44.11110 52.17139 48.14125
# Shear Modulus (GPa) = 29.10137 31.48077 30.29107
#
# Velocity S-wave (km/s) = 3.61906 3.76410 3.69229
# Velocity P-wave (km/s) = 6.10872 6.50937 6.31222
#
# Compressibility (1/GPa) = 0.02267003
#
# Stress axis : x y z
#
# Youngs Moduli (GPa) = 108.65129 45.44327 74.03365
#
# Poissons Ratio (x) = 0.01756 0.27681
# Poissons Ratio (y) = 0.04199 0.51067
# Poissons Ratio (z) = 0.40624 0.31346
#
# Static dielectric constant tensor:
#      x y z
#    x 1.967940 0.000000 0.000000 
#    y 0.000000 1.856270 0.000000 
#    z 0.000000 0.000000 1.926430 
# 
# From -- ./inp_files/5657.got.cif
#   From: 2010.05.17/outbox.cif.g08.bks.cpg/sg34_3_cif.got.tgz:5657.got - 2010.06.03 17:23:11.
