data_PCOD9347611
_publ_section_title
;
Structure prediction by ZEFSAII (Michael W. Deem and Ramdas Pophale) SiO2 
 PCOD9347611
Probable space group: P N N 2
;
_chemical_formula_sum "Si O2"
_cell_formula_units_Z 20
_cell_length_a 7.990169
_cell_length_b 9.978448
_cell_length_c 11.536184
_cell_angle_alpha 90.000000
_cell_angle_beta 90.000000
_cell_angle_gamma 90.000000
_cell_volume 919.774019
_symmetry_space_group_name_H-M "P N N 2"
_symmetry_group_IT_number 34
_symmetry_cell_setting 'orthorhombic'
loop_
_space_group_symop_operation_xyz
x,y,z
-x,-y,z
1/2-x,1/2+y,1/2+z
1/2+x,1/2-y,1/2+z
loop_
_atom_site_type_symbol
_atom_site_label
_atom_site_fract_x
_atom_site_fract_y
_atom_site_fract_z
Si Si1 0.302602 0.019158 0.600380
Si Si2 0.038182 0.350248 0.773832
Si Si3 0.384709 0.378909 0.887025
Si Si4 0.370438 0.794418 0.025034
Si Si5 0.160748 0.909528 0.842333
O O1 0.198674 0.934346 0.505591
O O2 0.252343 0.965793 0.727866
O O3 0.500000 0.000000 0.585581
O O4 0.242561 0.170910 0.573771
O O5 0.231527 0.328191 0.809769
O O6 0.028020 0.342949 0.635573
O O7 0.000000 0.500000 0.814877
O O8 0.909543 0.241380 0.822625
O O9 0.500000 0.500000 0.837089
O O10 0.509966 0.263473 0.925318
O O11 0.265296 0.906899 0.960021
O O12 0.000000 0.000000 0.857361
#
# Coordination Sequence:
#
# PCOD9347611 Si02
#       5
#     4   4   4   4   4
#     4  11  22  45  73  98 137 193 235 286 362 420
#     4  12  25  45  68 102 145 183 236 302 347 421
#     4  10  21  44  70  97 138 187 231 288 354 426
#     4  11  25  43  70 106 141 180 239 292 353 424
#     4  12  25  47  72 102 146 187 235 294 353 423
#
# _framework density 21.744472999999999
#
# number of rings (size 3 to 8) (size 9 to 14) (size 15 to 20)
#    0.000    0.800    4.000    4.800    2.800    3.200 
#    3.600    0.000    0.000    0.000    0.000    0.000 
#    0.000    0.000    0.000    0.000    0.000    0.000 
#
# Total GULP energy -111882.602878 kJ/mol
# GULP energy per Si atom -5594.130144 kJ/mol
# Density = 2.169498 g / cm^3
# Si number density = 21.744473 Si / 1000 Ang^3
#
#
#
# Elastic Constant Matrix: (Units=GPa)
#
#
# Indices 1 2 3 4 5 6 
#
# 1 80.3618 1.3893 -12.2933 0.0000 0.0000 0.0000
# 2 1.3893 52.9478 6.5904 0.0000 0.0000 0.0000
# 3 -12.2933 6.5904 56.4587 0.0000 0.0000 0.0000
# 4 0.0000 0.0000 0.0000 -13.3379 0.0000 0.0000
# 5 0.0000 0.0000 0.0000 0.0000 82.5283 0.0000
# 6 0.0000 0.0000 0.0000 0.0000 0.0000 27.6268
#
#
#
# Elastic Compliance Matrix: (Units=1/GPa)
#
#
# Indices 1 2 3 4 5 6 
#
# 1 0.012898 -0.000698 0.002890 0.000000 0.000000 0.000000
# 2 -0.000698 0.019203 -0.002394 0.000000 0.000000 0.000000
# 3 0.002890 -0.002394 0.018621 0.000000 0.000000 0.000000
# 4 0.000000 0.000000 0.000000 -0.074974 0.000000 0.000000
# 5 0.000000 0.000000 0.000000 0.000000 0.012117 0.000000
# 6 0.000000 0.000000 0.000000 0.000000 0.000000 0.036197
#
#
# Mechanical properties :
#
#
# Convention : Reuss Voigt Hill
#
# Bulk Modulus (GPa) = 19.87372 20.12680 20.00026
# Shear Modulus (GPa) = 121.25054 32.30224 76.77639
#
# Velocity S-wave (km/s) = 7.47547 3.85845 5.94854
# Velocity P-wave (km/s) = 9.14711 5.39688 7.50986
#
# Compressibility (1/GPa) = 0.05031770
#
# Stress axis : x y z
#
# Youngs Moduli (GPa) = 77.53224 52.07583 53.70373
#
# Poissons Ratio (x) = 0.03636 -0.15520
# Poissons Ratio (y) = 0.05413 0.12854
# Poissons Ratio (z) = -0.22406 0.12465
#
# Static dielectric constant tensor:
#      x y z
#    x 1.644320 0.000000 0.000000 
#    y 0.000000 1.844060 0.000000 
#    z 0.000000 0.000000 1.751220 
# 
# From -- ./inp_files/4767.got.cif
#   From: 2010.05.17/outbox.cif.g08.bks.cpg/sg34_3_cif.got.tgz:4767.got - 2010.06.03 17:23:11.
