data_PCOD9347437
_publ_section_title
;
Structure prediction by ZEFSAII (Michael W. Deem and Ramdas Pophale) SiO2 
 PCOD9347437
Probable space group: P N N 2
;
_chemical_formula_sum "Si O2"
_cell_formula_units_Z 18
_cell_length_a 9.688644
_cell_length_b 11.134690
_cell_length_c 8.937709
_cell_angle_alpha 90.000000
_cell_angle_beta 90.000000
_cell_angle_gamma 90.000000
_cell_volume 964.200471
_symmetry_space_group_name_H-M "P N N 2"
_symmetry_group_IT_number 34
_symmetry_cell_setting 'orthorhombic'
loop_
_space_group_symop_operation_xyz
x,y,z
-x,-y,z
1/2-x,1/2+y,1/2+z
1/2+x,1/2-y,1/2+z
loop_
_atom_site_type_symbol
_atom_site_label
_atom_site_fract_x
_atom_site_fract_y
_atom_site_fract_z
Si Si1 0.099862 0.716426 0.262830
Si Si2 0.906191 0.616900 0.035045
Si Si3 0.000000 0.500000 0.465731
Si Si4 0.892410 0.693322 0.690860
Si Si5 0.088591 0.880523 0.547552
O O1 0.083850 0.593981 0.361308
O O2 0.247338 0.735597 0.183709
O O3 0.082556 0.823745 0.381320
O O4 0.979241 0.714264 0.140519
O O5 0.748631 0.597967 0.083606
O O6 0.000000 0.500000 0.052227
O O7 0.905773 0.650375 0.861018
O O8 0.094816 0.417333 0.574153
O O9 0.017892 0.781678 0.652496
O O10 0.000000 0.000000 0.555692
#
# Coordination Sequence:
#
# PCOD9347437 Si02
#       5
#     4   4   2   4   4
#     4  10  22  40  63  92 121 165 203 250 311 363
#     4  11  21  39  64  89 120 159 204 248 313 366
#     4  10  20  40  66  90 126 160 202 262 302 362
#     4  10  22  41  62  91 124 160 207 250 309 365
#     4  10  23  40  60  91 125 159 202 253 305 366
#
# _framework density 18.668317999999999
#
# number of rings (size 3 to 8) (size 9 to 14) (size 15 to 20)
#    0.000    1.778    2.222    1.333    0.000    5.333 
#   12.000    0.000    0.000    0.000    0.000    0.000 
#    0.000    0.000    0.000    0.000    0.000    0.000 
#
# Total GULP energy -100438.846101 kJ/mol
# GULP energy per Si atom -5579.935895 kJ/mol
# Density = 1.862583 g / cm^3
# Si number density = 18.668318 Si / 1000 Ang^3
#
#
#
# Elastic Constant Matrix: (Units=GPa)
#
#
# Indices 1 2 3 4 5 6 
#
# 1 166.7168 42.9804 49.4770 0.0000 0.0000 0.0000
# 2 42.9804 72.6100 20.3484 0.0000 0.0000 0.0000
# 3 49.4770 20.3484 79.7072 0.0000 0.0000 0.0000
# 4 0.0000 0.0000 0.0000 9.9071 0.0000 0.0000
# 5 0.0000 0.0000 0.0000 0.0000 29.3720 0.0000
# 6 0.0000 0.0000 0.0000 0.0000 0.0000 30.1831
#
#
#
# Elastic Compliance Matrix: (Units=1/GPa)
#
#
# Indices 1 2 3 4 5 6 
#
# 1 0.008174 -0.003680 -0.004134 0.000000 0.000000 0.000000
# 2 -0.003680 0.016490 -0.001926 0.000000 0.000000 0.000000
# 3 -0.004134 -0.001926 0.015604 0.000000 0.000000 0.000000
# 4 0.000000 0.000000 0.000000 0.100938 0.000000 0.000000
# 5 0.000000 0.000000 0.000000 0.000000 0.034046 0.000000
# 6 0.000000 0.000000 0.000000 0.000000 0.000000 0.033131
#
#
# Mechanical properties :
#
#
# Convention : Reuss Voigt Hill
#
# Bulk Modulus (GPa) = 48.10404 60.51619 54.31011
# Shear Modulus (GPa) = 21.29550 27.64100 24.46825
#
# Velocity S-wave (km/s) = 3.38113 3.85208 3.62426
# Velocity P-wave (km/s) = 6.40831 7.22991 6.83147
#
# Compressibility (1/GPa) = 0.02078827
#
# Stress axis : x y z
#
# Youngs Moduli (GPa) = 122.34188 60.64280 64.08671
#
# Poissons Ratio (x) = 0.22315 0.26496
# Poissons Ratio (y) = 0.45019 0.12340
# Poissons Ratio (z) = 0.50581 0.11677
#
# Static dielectric constant tensor:
#      x y z
#    x 1.629860 0.000000 0.000000 
#    y 0.000000 1.657190 0.000000 
#    z 0.000000 0.000000 1.643770 
# 
# From -- ./inp_files/2365.got.cif
#   From: 2010.05.17/outbox.cif.g08.bks.cpg/sg34_2_cif.got.tgz:2365.got - 2010.06.03 17:23:11.
