data_PCOD9347768
_publ_section_title
;
Structure prediction by ZEFSAII (Michael W. Deem and Ramdas Pophale) SiO2 
 PCOD9347768
Probable space group: P N N 2
;
_chemical_formula_sum "Si O2"
_cell_formula_units_Z 32
_cell_length_a 5.304492
_cell_length_b 31.421023
_cell_length_c 8.906262
_cell_angle_alpha 90.000000
_cell_angle_beta 90.000000
_cell_angle_gamma 90.000000
_cell_volume 1484.429533
_symmetry_space_group_name_H-M "P N N 2"
_symmetry_group_IT_number 34
_symmetry_cell_setting 'orthorhombic'
loop_
_space_group_symop_operation_xyz
x,y,z
-x,-y,z
1/2-x,1/2+y,1/2+z
1/2+x,1/2-y,1/2+z
loop_
_atom_site_type_symbol
_atom_site_label
_atom_site_fract_x
_atom_site_fract_y
_atom_site_fract_z
Si Si1 0.241365 0.109211 0.819430
Si Si2 0.570819 0.165260 0.013207
Si Si3 0.822752 0.716457 0.233008
Si Si4 0.952273 0.103713 0.104186
Si Si5 0.510576 0.050687 0.594841
Si Si6 0.334275 0.677100 0.099375
Si Si7 0.490119 0.550585 0.904677
Si Si8 0.207102 0.185419 0.251730
O O1 0.345093 0.150752 0.905154
O O2 0.444852 0.078952 0.740272
O O3 0.098577 0.132741 0.683114
O O4 0.084828 0.087189 0.952154
O O5 0.719751 0.196329 0.900412
O O6 0.678655 0.118818 0.053642
O O7 0.476909 0.185617 0.167233
O O8 0.566961 0.707814 0.140529
O O9 0.883815 0.766230 0.244784
O O10 0.061932 0.694830 0.151775
O O11 0.972910 0.073509 0.245956
O O12 0.055244 0.149768 0.160478
O O13 0.777430 0.060647 0.517028
O O14 0.282142 0.059576 0.478065
O O15 0.500000 0.000000 0.629323
O O16 0.303175 0.671015 0.922673
O O17 0.500000 0.500000 0.880474
#
# Coordination Sequence:
#
# PCOD9347768 Si02
#       8
#     4   4   4   4   4   4   4   4
#     4  10  23  42  64  96 132 176 211 279 323 403
#     4  10  24  43  61  93 135 168 219 276 333 389
#     4  11  25  44  63  91 131 170 218 280 332 390
#     4  11  24  42  65  97 134 176 220 275 335 400
#     4  10  23  45  71 102 133 172 222 271 330 400
#     4  11  25  42  65  93 125 172 222 268 332 390
#     4  10  24  45  70  99 136 175 219 277 331 405
#     4  11  26  39  67  92 126 174 224 272 333 396
#
# _framework density 21.557105
#
# number of rings (size 3 to 8) (size 9 to 14) (size 15 to 20)
#    0.000    1.500    1.250    1.500   12.250    1.000 
#    2.250    0.000    0.000    0.000    0.000    0.000 
#    0.000    0.000    0.000    0.000    0.000    0.000 
#
# Total GULP energy -178448.496480 kJ/mol
# GULP energy per Si atom -5576.515515 kJ/mol
# Density = 2.150804 g / cm^3
# Si number density = 21.557105 Si / 1000 Ang^3
#
#
#
# Elastic Constant Matrix: (Units=GPa)
#
#
# Indices 1 2 3 4 5 6 
#
# 1 52.6538 -0.7402 4.9089 0.0000 0.0000 0.0000
# 2 -0.7402 57.9896 28.6656 0.0000 0.0000 0.0000
# 3 4.9089 28.6656 123.4193 0.0000 0.0000 0.0000
# 4 0.0000 0.0000 0.0000 18.6878 0.0000 0.0000
# 5 0.0000 0.0000 0.0000 0.0000 21.8789 0.0000
# 6 0.0000 0.0000 0.0000 0.0000 0.0000 22.7233
#
#
#
# Elastic Compliance Matrix: (Units=1/GPa)
#
#
# Indices 1 2 3 4 5 6 
#
# 1 0.019088 0.000699 -0.000922 0.000000 0.000000 0.000000
# 2 0.000699 0.019507 -0.004558 0.000000 0.000000 0.000000
# 3 -0.000922 -0.004558 0.009198 0.000000 0.000000 0.000000
# 4 0.000000 0.000000 0.000000 0.053511 0.000000 0.000000
# 5 0.000000 0.000000 0.000000 0.000000 0.045706 0.000000
# 6 0.000000 0.000000 0.000000 0.000000 0.000000 0.044008
#
#
# Mechanical properties :
#
#
# Convention : Reuss Voigt Hill
#
# Bulk Modulus (GPa) = 26.15704 33.30347 29.73025
# Shear Modulus (GPa) = 23.43869 26.07322 24.75596
#
# Velocity S-wave (km/s) = 3.30098 3.48155 3.39247
# Velocity P-wave (km/s) = 5.16612 5.62531 5.40060
#
# Compressibility (1/GPa) = 0.03823063
#
# Stress axis : x y z
#
# Youngs Moduli (GPa) = 52.38971 51.26426 108.72073
#
# Poissons Ratio (x) = -0.03584 0.10020
# Poissons Ratio (y) = -0.03663 0.49560
# Poissons Ratio (z) = 0.04828 0.23369
#
# Static dielectric constant tensor:
#      x y z
#    x 2.025960 0.000000 0.000000 
#    y 0.000000 1.803180 0.000000 
#    z 0.000000 0.000000 1.802990 
# 
# From -- ./inp_files/2214.got.cif
#   From: 2010.05.17/outbox.cif.g08.bks.cpg/sg34_2_cif.got.tgz:2214.got - 2010.06.03 17:23:11.
