data_PCOD9347736
_publ_section_title
;
Structure prediction by ZEFSAII (Michael W. Deem and Ramdas Pophale) SiO2 
 PCOD9347736
Probable space group: P N N 2
;
_chemical_formula_sum "Si O2"
_cell_formula_units_Z 22
_cell_length_a 13.446413
_cell_length_b 10.221057
_cell_length_c 6.988459
_cell_angle_alpha 90.000000
_cell_angle_beta 90.000000
_cell_angle_gamma 90.000000
_cell_volume 960.469721
_symmetry_space_group_name_H-M "P N N 2"
_symmetry_group_IT_number 34
_symmetry_cell_setting 'orthorhombic'
loop_
_space_group_symop_operation_xyz
x,y,z
-x,-y,z
1/2-x,1/2+y,1/2+z
1/2+x,1/2-y,1/2+z
loop_
_atom_site_type_symbol
_atom_site_label
_atom_site_fract_x
_atom_site_fract_y
_atom_site_fract_z
Si Si1 0.000000 0.000000 0.359610
Si Si2 0.124451 0.417115 0.700485
Si Si3 0.661363 0.700666 0.774506
Si Si4 0.514671 0.787905 0.506808
Si Si5 0.885282 0.759455 0.367764
Si Si6 0.835734 0.274524 0.716008
O O1 0.066006 0.111335 0.464770
O O2 0.913524 0.077754 0.245163
O O3 0.227480 0.337311 0.720899
O O4 0.052490 0.381457 0.875260
O O5 0.083343 0.363077 0.498503
O O6 0.145824 0.569927 0.705175
O O7 0.608381 0.816819 0.652358
O O8 0.662272 0.725174 0.000433
O O9 0.434624 0.737605 0.658353
O O10 0.576904 0.711141 0.344010
O O11 0.768932 0.756155 0.322434
#
# Coordination Sequence:
#
# PCOD9347736 Si02
#       6
#     2   4   4   4   4   4
#     4  10  22  46  72  94 144 184 232 296 328 424
#     4  12  25  46  73 104 143 183 237 294 346 421
#     4  11  24  46  72 106 138 189 237 282 356 420
#     4  11  24  44  70 100 146 176 227 293 351 403
#     4  11  24  46  72 106 138 189 237 282 356 420
#     4  12  25  46  73 104 143 183 237 294 346 421
#
# _framework density 22.905459
#
# number of rings (size 3 to 8) (size 9 to 14) (size 15 to 20)
#    0.000    0.727    5.455    2.727    0.000    2.909 
#    3.273   14.545    0.000    0.000    0.000    0.000 
#    0.000    0.000    0.000    0.000    0.000    0.000 
#
# Total GULP energy -122538.974555 kJ/mol
# GULP energy per Si atom -5569.953389 kJ/mol
# Density = 2.285333 g / cm^3
# Si number density = 22.905459 Si / 1000 Ang^3
#
#
#
# Elastic Constant Matrix: (Units=GPa)
#
#
# Indices 1 2 3 4 5 6 
#
# 1 150.0353 27.9673 45.1056 0.0000 0.0000 0.0000
# 2 27.9673 52.5590 44.3731 0.0000 0.0000 0.0000
# 3 45.1056 44.3731 141.0082 0.0000 0.0000 0.0000
# 4 0.0000 0.0000 0.0000 9.2935 0.0000 0.0000
# 5 0.0000 0.0000 0.0000 0.0000 -68.8982 0.0000
# 6 0.0000 0.0000 0.0000 0.0000 0.0000 27.8838
#
#
#
# Elastic Compliance Matrix: (Units=1/GPa)
#
#
# Indices 1 2 3 4 5 6 
#
# 1 0.007652 -0.002731 -0.001588 0.000000 0.000000 0.000000
# 2 -0.002731 0.026884 -0.007587 0.000000 0.000000 0.000000
# 3 -0.001588 -0.007587 0.009987 0.000000 0.000000 0.000000
# 4 0.000000 0.000000 0.000000 0.107602 0.000000 0.000000
# 5 0.000000 0.000000 0.000000 0.000000 -0.014514 0.000000
# 6 0.000000 0.000000 0.000000 0.000000 0.000000 0.035863
#
#
# Mechanical properties :
#
#
# Convention : Reuss Voigt Hill
#
# Bulk Modulus (GPa) = 48.28095 64.27716 56.27905
# Shear Modulus (GPa) = 24.48711 8.73293 16.61002
#
# Velocity S-wave (km/s) = 3.27318 1.95471 2.69579
# Velocity P-wave (km/s) = 5.95055 5.76345 5.85775
#
# Compressibility (1/GPa) = 0.02071210
#
# Stress axis : x y z
#
# Youngs Moduli (GPa) = 130.69178 37.19651 100.12774
#
# Poissons Ratio (x) = 0.10157 0.15903
# Poissons Ratio (y) = 0.35686 0.75963
# Poissons Ratio (z) = 0.20758 0.28220
#
# Static dielectric constant tensor:
#      x y z
#    x 1.886350 0.000000 0.000000 
#    y 0.000000 1.978190 0.000000 
#    z 0.000000 0.000000 1.891070 
# 
# From -- ./inp_files/876.got.cif
#   From: 2010.05.17/outbox.cif.g08.bks.cpg/sg34_1_cif.got.tgz:876.got - 2010.06.03 17:23:11.
