data_PCOD9347198
_publ_section_title
;
Structure prediction by ZEFSAII (Michael W. Deem and Ramdas Pophale) SiO2 
 PCOD9347198
Probable space group: P N N 2
;
_chemical_formula_sum "Si O2"
_cell_formula_units_Z 24
_cell_length_a 11.865995
_cell_length_b 7.042629
_cell_length_c 10.806310
_cell_angle_alpha 90.000000
_cell_angle_beta 90.000000
_cell_angle_gamma 90.000000
_cell_volume 903.059558
_symmetry_space_group_name_H-M "P N N 2"
_symmetry_group_IT_number 34
_symmetry_cell_setting 'orthorhombic'
loop_
_space_group_symop_operation_xyz
x,y,z
-x,-y,z
1/2-x,1/2+y,1/2+z
1/2+x,1/2-y,1/2+z
loop_
_atom_site_type_symbol
_atom_site_label
_atom_site_fract_x
_atom_site_fract_y
_atom_site_fract_z
Si Si1 0.044442 0.223902 0.086550
Si Si2 0.675744 0.773495 0.452487
Si Si3 0.885922 0.836951 0.611187
Si Si4 0.987599 0.220877 0.351545
Si Si5 0.268550 0.134309 0.964634
Si Si6 0.598805 0.785536 0.195298
O O1 0.044111 0.299903 0.227484
O O2 0.946285 0.310407 0.006017
O O3 0.000000 0.000000 0.086407
O O4 0.164446 0.250920 0.021269
O O5 0.758957 0.816284 0.565548
O O6 0.708046 0.555040 0.420805
O O7 0.670150 0.851397 0.313551
O O8 0.947688 0.766127 0.482363
O O9 0.962100 0.720776 0.710215
O O10 0.889262 0.061401 0.650402
O O11 0.857049 0.278191 0.368154
O O12 0.000000 0.000000 0.331820
O O13 0.349194 0.097987 0.082188
#
# Coordination Sequence:
#
# PCOD9347198 Si02
#       6
#     4   4   4   4   4   4
#     4   9  21  35  57  92 127 161 212 264 331 394
#     4  11  24  38  66 100 130 168 224 277 335 403
#     4  10  21  40  66  91 129 173 217 269 341 395
#     4  10  18  38  63  87 122 175 214 262 330 398
#     4  10  21  40  64  92 126 171 218 272 327 398
#     4  10  22  41  66  91 131 174 219 271 334 411
#
# _framework density 26.576321
#
# number of rings (size 3 to 8) (size 9 to 14) (size 15 to 20)
#    0.000    2.000    3.333    1.000    9.333    2.667 
#    0.000    0.833    3.667    0.000    0.000    0.000 
#    0.000    0.000    0.000    0.000    0.000    0.000 
#
# Total GULP energy -133811.293102 kJ/mol
# GULP energy per Si atom -5575.470546 kJ/mol
# Density = 2.651583 g / cm^3
# Si number density = 26.576321 Si / 1000 Ang^3
#
#
#
# Elastic Constant Matrix: (Units=GPa)
#
#
# Indices 1 2 3 4 5 6 
#
# 1 147.5069 36.9769 14.2888 0.0000 0.0000 0.0000
# 2 36.9769 70.8967 5.9173 0.0000 0.0000 0.0000
# 3 14.2888 5.9173 97.5318 0.0000 0.0000 0.0000
# 4 0.0000 0.0000 0.0000 13.1620 0.0000 0.0000
# 5 0.0000 0.0000 0.0000 0.0000 29.6786 0.0000
# 6 0.0000 0.0000 0.0000 0.0000 0.0000 39.5180
#
#
#
# Elastic Compliance Matrix: (Units=1/GPa)
#
#
# Indices 1 2 3 4 5 6 
#
# 1 0.007878 -0.004033 -0.000910 0.000000 0.000000 0.000000
# 2 -0.004033 0.016242 -0.000395 0.000000 0.000000 0.000000
# 3 -0.000910 -0.000395 0.010410 0.000000 0.000000 0.000000
# 4 0.000000 0.000000 0.000000 0.075976 0.000000 0.000000
# 5 0.000000 0.000000 0.000000 0.000000 0.033694 0.000000
# 6 0.000000 0.000000 0.000000 0.000000 0.000000 0.025305
#
#
# Mechanical properties :
#
#
# Convention : Reuss Voigt Hill
#
# Bulk Modulus (GPa) = 41.91857 47.81129 44.86493
# Shear Modulus (GPa) = 26.57706 33.72187 30.14946
#
# Velocity S-wave (km/s) = 3.16575 3.56598 3.37181
# Velocity P-wave (km/s) = 5.40091 5.91475 5.66366
#
# Compressibility (1/GPa) = 0.02385578
#
# Stress axis : x y z
#
# Youngs Moduli (GPa) = 126.92793 61.57062 96.05920
#
# Poissons Ratio (x) = 0.24833 0.08737
# Poissons Ratio (y) = 0.51192 0.03790
# Poissons Ratio (z) = 0.11545 0.02429
#
# Static dielectric constant tensor:
#      x y z
#    x 2.124590 0.000000 0.000000 
#    y 0.000000 2.155110 0.000000 
#    z 0.000000 0.000000 2.110880 
# 
# From -- ./inp_files/4906.got.cif
#   From: 2010.05.17/outbox.cif.g08.bks.cpg/sg34_3_cif.got.tgz:4906.got - 2010.06.03 17:23:11.
