data_PCOD9347898
_publ_section_title
;
Structure prediction by ZEFSAII (Michael W. Deem and Ramdas Pophale) SiO2 
 PCOD9347898
Probable space group: P N N 2
;
_chemical_formula_sum "Si O2"
_cell_formula_units_Z 30
_cell_length_a 6.421658
_cell_length_b 11.421089
_cell_length_c 18.588347
_cell_angle_alpha 90.000000
_cell_angle_beta 90.000000
_cell_angle_gamma 90.000000
_cell_volume 1363.312634
_symmetry_space_group_name_H-M "P N N 2"
_symmetry_group_IT_number 34
_symmetry_cell_setting 'orthorhombic'
loop_
_space_group_symop_operation_xyz
x,y,z
-x,-y,z
1/2-x,1/2+y,1/2+z
1/2+x,1/2-y,1/2+z
loop_
_atom_site_type_symbol
_atom_site_label
_atom_site_fract_x
_atom_site_fract_y
_atom_site_fract_z
Si Si1 0.515546 0.870352 0.241800
Si Si2 0.549276 0.758134 0.101289
Si Si3 0.673379 0.403217 0.513371
Si Si4 0.317639 0.401955 0.865159
Si Si5 0.167467 0.708474 0.998197
Si Si6 0.740491 0.543853 0.027636
Si Si7 0.500000 0.000000 0.896151
Si Si8 0.664439 0.237413 0.842750
O O1 0.455591 0.777344 0.179918
O O2 0.363790 0.899475 0.307874
O O3 0.716337 0.804021 0.277869
O O4 0.500000 0.000000 0.206266
O O5 0.691149 0.869359 0.082156
O O6 0.363464 0.757340 0.043200
O O7 0.699831 0.645111 0.087305
O O8 0.500000 0.500000 0.525787
O O9 0.531617 0.290072 0.499555
O O10 0.830503 0.438311 0.449203
O O11 0.500000 0.500000 0.854727
O O12 0.230883 0.412012 0.945588
O O13 0.430179 0.280995 0.848961
O O14 0.234593 0.709072 0.915391
O O15 0.135548 0.580285 0.033472
O O16 0.500000 0.500000 0.022945
O O17 0.364839 0.903255 0.851224
#
# Coordination Sequence:
#
# PCOD9347898 Si02
#       8
#     4   4   4   4   4   4   2   4
#     4  12  28  43  70 106 149 193 243 295 386 451
#     4  11  25  46  64 106 151 181 235 316 361 447
#     4  12  24  41  71 105 138 188 246 297 374 436
#     4  11  20  45  73 104 140 182 238 311 355 437
#     4  11  22  42  76 102 131 187 249 297 363 434
#     4   9  18  41  73 101 133 175 237 302 352 417
#     4  12  26  46  68 106 154 182 250 318 364 450
#     4  12  24  45  68 107 142 186 246 299 370 437
#
# _framework density 22.005223999999998
#
# number of rings (size 3 to 8) (size 9 to 14) (size 15 to 20)
#    0.000    0.800    8.000    0.000    6.533    1.600 
#    0.000    5.333    0.000    0.000    0.000    0.000 
#    0.000    0.000    0.000    0.000    0.000    0.000 
#
# Total GULP energy -167113.996696 kJ/mol
# GULP energy per Si atom -5570.466557 kJ/mol
# Density = 2.195514 g / cm^3
# Si number density = 22.005224 Si / 1000 Ang^3
#
#
#
# Elastic Constant Matrix: (Units=GPa)
#
#
# Indices 1 2 3 4 5 6 
#
# 1 66.1930 52.6567 6.3610 0.0000 0.0000 0.0000
# 2 52.6567 148.2857 37.4366 0.0000 0.0000 0.0000
# 3 6.3610 37.4366 65.9318 0.0000 0.0000 0.0000
# 4 0.0000 0.0000 0.0000 21.0167 0.0000 0.0000
# 5 0.0000 0.0000 0.0000 0.0000 5.9051 0.0000
# 6 0.0000 0.0000 0.0000 0.0000 0.0000 58.8389
#
#
#
# Elastic Compliance Matrix: (Units=1/GPa)
#
#
# Indices 1 2 3 4 5 6 
#
# 1 0.021439 -0.008278 0.002632 0.000000 0.000000 0.000000
# 2 -0.008278 0.011068 -0.005486 0.000000 0.000000 0.000000
# 3 0.002632 -0.005486 0.018028 0.000000 0.000000 0.000000
# 4 0.000000 0.000000 0.000000 0.047581 0.000000 0.000000
# 5 0.000000 0.000000 0.000000 0.000000 0.169344 0.000000
# 6 0.000000 0.000000 0.000000 0.000000 0.000000 0.016996
#
#
# Mechanical properties :
#
#
# Convention : Reuss Voigt Hill
#
# Bulk Modulus (GPa) = 35.37081 52.59100 43.98091
# Shear Modulus (GPa) = 15.81557 29.41591 22.61574
#
# Velocity S-wave (km/s) = 2.68380 3.66015 3.20932
# Velocity P-wave (km/s) = 5.07074 6.46634 5.81059
#
# Compressibility (1/GPa) = 0.02827190
#
# Stress axis : x y z
#
# Youngs Moduli (GPa) = 46.64342 90.34960 55.46850
#
# Poissons Ratio (x) = 0.74787 -0.14597
# Poissons Ratio (y) = 0.38609 0.30430
# Poissons Ratio (z) = -0.12275 0.49565
#
# Static dielectric constant tensor:
#      x y z
#    x 2.044030 0.000000 0.000000 
#    y 0.000000 2.027360 0.000000 
#    z 0.000000 0.000000 1.792550 
# 
# From -- ./inp_files/7981.got.cif
#   From: 2010.05.17/outbox.cif.g08.bks.cpg/sg34_4_cif.got.tgz:7981.got - 2010.06.03 17:23:11.
