data_PCOD9347933
_publ_section_title
;
Structure prediction by ZEFSAII (Michael W. Deem and Ramdas Pophale) SiO2 
 PCOD9347933
Probable space group: P N N 2
;
_chemical_formula_sum "Si O2"
_cell_formula_units_Z 24
_cell_length_a 8.733271
_cell_length_b 11.612057
_cell_length_c 9.376325
_cell_angle_alpha 90.000000
_cell_angle_beta 90.000000
_cell_angle_gamma 90.000000
_cell_volume 950.864751
_symmetry_space_group_name_H-M "P N N 2"
_symmetry_group_IT_number 34
_symmetry_cell_setting 'orthorhombic'
loop_
_space_group_symop_operation_xyz
x,y,z
-x,-y,z
1/2-x,1/2+y,1/2+z
1/2+x,1/2-y,1/2+z
loop_
_atom_site_type_symbol
_atom_site_label
_atom_site_fract_x
_atom_site_fract_y
_atom_site_fract_z
Si Si1 0.697076 0.389785 0.659370
Si Si2 0.994561 0.260620 0.997893
Si Si3 0.889055 0.161211 0.714530
Si Si4 0.847163 0.574663 0.803698
Si Si5 0.679273 0.974828 0.860364
Si Si6 0.799928 0.804594 0.639952
O O1 0.542399 0.319430 0.629120
O O2 0.815020 0.283796 0.678070
O O3 0.711374 0.483606 0.783351
O O4 0.743869 0.457235 0.514404
O O5 0.826015 0.311680 0.017239
O O6 0.981173 0.178296 0.862437
O O7 0.118148 0.357837 0.951898
O O8 0.034131 0.138575 0.611611
O O9 0.761896 0.069384 0.759274
O O10 0.832070 0.672803 0.683497
O O11 0.000000 0.500000 0.777432
O O12 0.708372 0.859110 0.772341
O O13 0.500000 0.000000 0.875467
#
# Coordination Sequence:
#
# PCOD9347933 Si02
#       6
#     4   4   4   4   4   4
#     4  12  24  47  82 106 154 210 258 332 399 484
#     4  11  25  45  75 112 158 197 264 326 392 475
#     4  11  25  47  73 114 153 202 265 324 398 480
#     4  11  22  46  75 110 152 205 253 327 401 466
#     4  12  26  45  78 112 154 209 267 325 408 471
#     4  11  24  47  74 110 154 203 258 326 408 466
#
# _framework density 25.240181
#
# number of rings (size 3 to 8) (size 9 to 14) (size 15 to 20)
#    0.000    0.667    6.667    3.000    2.333    4.000 
#    0.000    0.000    3.667    0.000    0.000    0.000 
#    0.000    0.000    0.000    0.000    0.000    0.000 
#
# Total GULP energy -134117.218499 kJ/mol
# GULP energy per Si atom -5588.217437 kJ/mol
# Density = 2.518273 g / cm^3
# Si number density = 25.240181 Si / 1000 Ang^3
#
#
#
# Elastic Constant Matrix: (Units=GPa)
#
#
# Indices 1 2 3 4 5 6 
#
# 1 123.9763 39.3857 22.6374 0.0000 0.0000 0.0000
# 2 39.3857 131.3186 36.5898 0.0000 0.0000 0.0000
# 3 22.6374 36.5898 44.5974 0.0000 0.0000 0.0000
# 4 0.0000 0.0000 0.0000 44.2833 0.0000 0.0000
# 5 0.0000 0.0000 0.0000 0.0000 38.4049 0.0000
# 6 0.0000 0.0000 0.0000 0.0000 0.0000 50.3692
#
#
#
# Elastic Compliance Matrix: (Units=1/GPa)
#
#
# Indices 1 2 3 4 5 6 
#
# 1 0.009241 -0.001899 -0.003133 0.000000 0.000000 0.000000
# 2 -0.001899 0.010262 -0.007456 0.000000 0.000000 0.000000
# 3 -0.003133 -0.007456 0.030130 0.000000 0.000000 0.000000
# 4 0.000000 0.000000 0.000000 0.022582 0.000000 0.000000
# 5 0.000000 0.000000 0.000000 0.000000 0.026038 0.000000
# 6 0.000000 0.000000 0.000000 0.000000 0.000000 0.019853
#
#
# Mechanical properties :
#
#
# Convention : Reuss Voigt Hill
#
# Bulk Modulus (GPa) = 40.55382 55.23536 47.89459
# Shear Modulus (GPa) = 33.04668 40.03011 36.53839
#
# Velocity S-wave (km/s) = 3.62233 3.98674 3.80890
# Velocity P-wave (km/s) = 5.79630 6.56685 6.19357
#
# Compressibility (1/GPa) = 0.02465859
#
# Stress axis : x y z
#
# Youngs Moduli (GPa) = 108.20948 97.44765 33.18948
#
# Poissons Ratio (x) = 0.18503 0.10398
# Poissons Ratio (y) = 0.20546 0.24745
# Poissons Ratio (z) = 0.33902 0.72653
#
# Static dielectric constant tensor:
#      x y z
#    x 2.068030 0.000000 0.000000 
#    y 0.000000 2.008450 0.000000 
#    z 0.000000 0.000000 2.073290 
# 
# From -- ./inp_files/4901.got.cif
#   From: 2010.05.17/outbox.cif.g08.bks.cpg/sg34_3_cif.got.tgz:4901.got - 2010.06.03 17:23:11.
