data_PCOD9347863
_publ_section_title
;
Structure prediction by ZEFSAII (Michael W. Deem and Ramdas Pophale) SiO2 
 PCOD9347863
Probable space group: P N N 2
;
_chemical_formula_sum "Si O2"
_cell_formula_units_Z 32
_cell_length_a 12.799107
_cell_length_b 21.787906
_cell_length_c 5.015079
_cell_angle_alpha 90.000000
_cell_angle_beta 90.000000
_cell_angle_gamma 90.000000
_cell_volume 1398.533717
_symmetry_space_group_name_H-M "P N N 2"
_symmetry_group_IT_number 34
_symmetry_cell_setting 'orthorhombic'
loop_
_space_group_symop_operation_xyz
x,y,z
-x,-y,z
1/2-x,1/2+y,1/2+z
1/2+x,1/2-y,1/2+z
loop_
_atom_site_type_symbol
_atom_site_label
_atom_site_fract_x
_atom_site_fract_y
_atom_site_fract_z
Si Si1 0.913805 0.539647 0.517910
Si Si2 0.781213 0.117567 0.027471
Si Si3 0.783070 0.321607 0.568341
Si Si4 0.987871 0.352106 0.771245
Si Si5 0.358230 0.595548 0.894303
Si Si6 0.507479 0.429946 0.374339
Si Si7 0.840123 0.430854 0.156490
Si Si8 0.708307 0.188976 0.504391
O O1 0.797794 0.561244 0.591427
O O2 0.000000 0.500000 0.681519
O O3 0.971705 0.605531 0.525564
O O4 0.110107 0.508185 0.281487
O O5 0.893146 0.094721 0.935800
O O6 0.731969 0.160907 0.795765
O O7 0.784931 0.154830 0.299799
O O8 0.899934 0.305604 0.669137
O O9 0.707408 0.345336 0.802042
O O10 0.800438 0.380781 0.376322
O O11 0.730158 0.260574 0.465278
O O12 0.089915 0.326354 0.914469
O O13 0.921616 0.395401 0.969717
O O14 0.423042 0.572113 0.642079
O O15 0.434478 0.606756 0.140995
O O16 0.264533 0.551510 0.994304
O O17 0.500000 0.500000 0.279057
#
# Coordination Sequence:
#
# PCOD9347863 Si02
#       8
#     4   4   4   4   4   4   4   4
#     4  11  22  44  72 107 148 184 233 311 375 445
#     4  11  27  46  71 108 148 194 245 297 379 440
#     4  11  25  49  75 104 147 192 258 304 364 443
#     4  10  25  45  72 114 148 194 245 305 385 438
#     4  11  25  45  72 105 142 191 255 290 362 429
#     4  12  25  47  71 108 151 197 240 299 361 447
#     4  11  23  46  73 112 143 191 249 302 376 444
#     4  11  27  49  71 105 149 190 244 307 365 438
#
# _framework density 22.88111
#
# number of rings (size 3 to 8) (size 9 to 14) (size 15 to 20)
#    0.000    1.000    2.500    2.625    5.250    4.500 
#    6.750    0.000    0.000    0.000    0.000    0.000 
#    0.000    0.000    0.000    0.000    0.000    0.000 
#
# Total GULP energy -178700.902268 kJ/mol
# GULP energy per Si atom -5584.403196 kJ/mol
# Density = 2.282903 g / cm^3
# Si number density = 22.881110 Si / 1000 Ang^3
#
#
#
# Elastic Constant Matrix: (Units=GPa)
#
#
# Indices 1 2 3 4 5 6 
#
# 1 163.2005 55.2239 26.9158 0.0000 0.0000 0.0000
# 2 55.2239 67.4927 21.1422 0.0000 0.0000 0.0000
# 3 26.9158 21.1422 89.5800 0.0000 0.0000 0.0000
# 4 0.0000 0.0000 0.0000 15.7711 0.0000 0.0000
# 5 0.0000 0.0000 0.0000 0.0000 14.3942 0.0000
# 6 0.0000 0.0000 0.0000 0.0000 0.0000 20.0208
#
#
#
# Elastic Compliance Matrix: (Units=1/GPa)
#
#
# Indices 1 2 3 4 5 6 
#
# 1 0.008554 -0.006689 -0.000992 0.000000 0.000000 0.000000
# 2 -0.006689 0.021229 -0.003001 0.000000 0.000000 0.000000
# 3 -0.000992 -0.003001 0.012169 0.000000 0.000000 0.000000
# 4 0.000000 0.000000 0.000000 0.063407 0.000000 0.000000
# 5 0.000000 0.000000 0.000000 0.000000 0.069472 0.000000
# 6 0.000000 0.000000 0.000000 0.000000 0.000000 0.049948
#
#
# Mechanical properties :
#
#
# Convention : Reuss Voigt Hill
#
# Bulk Modulus (GPa) = 48.56524 58.53745 53.55134
# Shear Modulus (GPa) = 19.76239 24.50332 22.13285
#
# Velocity S-wave (km/s) = 2.94206 3.27601 3.11352
# Velocity P-wave (km/s) = 5.72818 6.32048 6.03161
#
# Compressibility (1/GPa) = 0.02059086
#
# Stress axis : x y z
#
# Youngs Moduli (GPa) = 116.90033 47.10495 82.17351
#
# Poissons Ratio (x) = 0.31507 0.08149
# Poissons Ratio (y) = 0.78191 0.24658
# Poissons Ratio (z) = 0.11593 0.14135
#
# Static dielectric constant tensor:
#      x y z
#    x 1.871830 0.000000 0.000000 
#    y 0.000000 1.862490 0.000000 
#    z 0.000000 0.000000 1.912820 
# 
# From -- ./inp_files/1086.got.cif
#   From: 2010.05.17/outbox.cif.g08.bks.cpg/sg34_1_cif.got.tgz:1086.got - 2010.06.03 17:23:11.
