data_PCOD9347174
_publ_section_title
;
Structure prediction by ZEFSAII (Michael W. Deem and Ramdas Pophale) SiO2 
 PCOD9347174
Probable space group: P N N 2
;
_chemical_formula_sum "Si O2"
_cell_formula_units_Z 28
_cell_length_a 21.191373
_cell_length_b 7.246529
_cell_length_c 9.312551
_cell_angle_alpha 90.000000
_cell_angle_beta 90.000000
_cell_angle_gamma 90.000000
_cell_volume 1430.071641
_symmetry_space_group_name_H-M "P N N 2"
_symmetry_group_IT_number 34
_symmetry_cell_setting 'orthorhombic'
loop_
_space_group_symop_operation_xyz
x,y,z
-x,-y,z
1/2-x,1/2+y,1/2+z
1/2+x,1/2-y,1/2+z
loop_
_atom_site_type_symbol
_atom_site_label
_atom_site_fract_x
_atom_site_fract_y
_atom_site_fract_z
Si Si1 0.195063 0.308355 0.453100
Si Si2 0.822909 0.162990 0.778438
Si Si3 0.920049 0.198373 0.006796
Si Si4 0.767848 0.082803 0.504980
Si Si5 0.329821 0.772650 0.274495
Si Si6 0.067122 0.242343 0.995050
Si Si7 0.144367 0.511878 0.188984
O O1 0.265763 0.324336 0.391200
O O2 0.182949 0.353737 0.618500
O O3 0.155862 0.443677 0.350189
O O4 0.188275 0.082984 0.445508
O O5 0.802885 0.218742 0.617169
O O6 0.834520 0.946638 0.757376
O O7 0.881276 0.250030 0.862481
O O8 0.887007 0.295166 0.143308
O O9 0.992153 0.261107 0.991924
O O10 0.918759 0.975888 0.015866
O O11 0.729121 0.178257 0.377415
O O12 0.711745 0.998614 0.606252
O O13 0.395113 0.815995 0.355630
O O14 0.098637 0.357935 0.121433
#
# Coordination Sequence:
#
# PCOD9347174 Si02
#       7
#     4   4   4   4   4   4   4
#     4  10  19  33  53  81 114 143 183 232 288 339
#     4   9  18  32  52  82 109 144 183 229 287 338
#     4  10  18  35  60  81 113 144 198 233 277 345
#     4   9  18  33  52  79 112 146 180 227 287 342
#     4   9  19  34  54  79 111 146 185 236 281 336
#     4   9  20  35  58  84 104 153 195 232 282 335
#     4  10  19  34  55  79 112 150 185 237 283 331
#
# _framework density 19.579439000000001
#
# number of rings (size 3 to 8) (size 9 to 14) (size 15 to 20)
#    0.000    2.571    1.429    0.429    0.000    4.571 
#    0.000    0.000    0.000   18.857    0.000    0.000 
#    0.000    0.000    0.000    0.000    0.000    0.000 
#
# Total GULP energy -155989.288178 kJ/mol
# GULP energy per Si atom -5571.046006 kJ/mol
# Density = 1.953488 g / cm^3
# Si number density = 19.579439 Si / 1000 Ang^3
#
#
#
# Elastic Constant Matrix: (Units=GPa)
#
#
# Indices 1 2 3 4 5 6 
#
# 1 83.4263 28.3627 46.6378 0.0000 0.0000 0.0000
# 2 28.3627 84.0977 35.5899 0.0000 0.0000 0.0000
# 3 46.6378 35.5899 152.1217 0.0000 0.0000 0.0000
# 4 0.0000 0.0000 0.0000 -7.1619 0.0000 0.0000
# 5 0.0000 0.0000 0.0000 0.0000 13.8359 0.0000
# 6 0.0000 0.0000 0.0000 0.0000 0.0000 19.4125
#
#
#
# Elastic Compliance Matrix: (Units=1/GPa)
#
#
# Indices 1 2 3 4 5 6 
#
# 1 0.015359 -0.003537 -0.003881 0.000000 0.000000 0.000000
# 2 -0.003537 0.014012 -0.002194 0.000000 0.000000 0.000000
# 3 -0.003881 -0.002194 0.008277 0.000000 0.000000 0.000000
# 4 0.000000 0.000000 0.000000 -0.139629 0.000000 0.000000
# 5 0.000000 0.000000 0.000000 0.000000 0.072276 0.000000
# 6 0.000000 0.000000 0.000000 0.000000 0.000000 0.051513
#
#
# Mechanical properties :
#
#
# Convention : Reuss Voigt Hill
#
# Bulk Modulus (GPa) = 54.27888 60.09183 57.18536
# Shear Modulus (GPa) = 105.98880 19.15431 62.57155
#
# Velocity S-wave (km/s) = 7.36547 3.13115 5.65925
# Velocity P-wave (km/s) = 10.00581 6.62043 8.48370
#
# Compressibility (1/GPa) = 0.01842337
#
# Stress axis : x y z
#
# Youngs Moduli (GPa) = 65.10858 71.36551 120.81920
#
# Poissons Ratio (x) = 0.25245 0.46892
# Poissons Ratio (y) = 0.23032 0.26505
# Poissons Ratio (z) = 0.25270 0.15656
#
# Static dielectric constant tensor:
#      x y z
#    x 1.704720 0.000000 0.000000 
#    y 0.000000 1.789630 0.000000 
#    z 0.000000 0.000000 1.721790 
# 
# From -- ./inp_files/2848.got.cif
#   From: 2010.05.17/outbox.cif.g08.bks.cpg/sg34_2_cif.got.tgz:2848.got - 2010.06.03 17:23:11.
