data_PCOD9347183
_publ_section_title
;
Structure prediction by ZEFSAII (Michael W. Deem and Ramdas Pophale) SiO2 
 PCOD9347183
Probable space group: P N N 2
;
_chemical_formula_sum "Si O2"
_cell_formula_units_Z 26
_cell_length_a 16.369069
_cell_length_b 9.117282
_cell_length_c 7.301240
_cell_angle_alpha 90.000000
_cell_angle_beta 90.000000
_cell_angle_gamma 90.000000
_cell_volume 1089.647412
_symmetry_space_group_name_H-M "P N N 2"
_symmetry_group_IT_number 34
_symmetry_cell_setting 'orthorhombic'
loop_
_space_group_symop_operation_xyz
x,y,z
-x,-y,z
1/2-x,1/2+y,1/2+z
1/2+x,1/2-y,1/2+z
loop_
_atom_site_type_symbol
_atom_site_label
_atom_site_fract_x
_atom_site_fract_y
_atom_site_fract_z
Si Si1 0.486989 0.753639 0.473590
Si Si2 0.667215 0.945119 0.713319
Si Si3 0.000000 0.500000 0.269234
Si Si4 0.115675 0.576832 0.786300
Si Si5 0.300816 0.357556 0.129979
Si Si6 0.622523 0.509737 0.450814
Si Si7 0.251591 0.862061 0.227112
O O1 0.476020 0.862967 0.641943
O O2 0.524202 0.850569 0.303367
O O3 0.554596 0.628233 0.513562
O O4 0.405865 0.656788 0.460597
O O5 0.587791 0.948151 0.847134
O O6 0.635259 0.922099 0.505265
O O7 0.731428 0.811625 0.729526
O O8 0.714660 0.097688 0.720114
O O9 0.171698 0.694599 0.679970
O O10 0.155321 0.421065 0.727082
O O11 0.365967 0.454898 0.237514
O O12 0.209553 0.902332 0.421037
O O13 0.701199 0.555469 0.568371
#
# Coordination Sequence:
#
# PCOD9347183 Si02
#       7
#     4   4   2   4   4   4   4
#     4   9  19  37  62  84 126 165 203 253 316 379
#     4  10  21  37  59  92 120 160 209 256 313 379
#     4  10  18  36  60  90 118 160 212 242 312 394
#     4   9  20  39  57  89 122 157 209 257 309 379
#     4  10  22  36  61  91 121 154 209 265 303 368
#     4  10  20  40  61  89 119 169 205 252 320 375
#     4  11  21  36  61  92 116 160 212 254 314 371
#
# _framework density 23.860927
#
# number of rings (size 3 to 8) (size 9 to 14) (size 15 to 20)
#    0.000    2.154    4.615    0.000    4.308    2.462 
#    0.000    6.154    0.000    8.308    0.000    0.000 
#    0.000    0.000    0.000    0.000    0.000    0.000 
#
# Total GULP energy -144794.330630 kJ/mol
# GULP energy per Si atom -5569.012717 kJ/mol
# Density = 2.380662 g / cm^3
# Si number density = 23.860927 Si / 1000 Ang^3
#
#
#
# Elastic Constant Matrix: (Units=GPa)
#
#
# Indices 1 2 3 4 5 6 
#
# 1 93.5183 52.5413 18.8497 0.0000 0.0000 0.0000
# 2 52.5413 128.2673 5.2466 0.0000 0.0000 0.0000
# 3 18.8497 5.2466 72.9932 0.0000 0.0000 0.0000
# 4 0.0000 0.0000 0.0000 21.1263 0.0000 0.0000
# 5 0.0000 0.0000 0.0000 0.0000 13.7591 0.0000
# 6 0.0000 0.0000 0.0000 0.0000 0.0000 58.5819
#
#
#
# Elastic Compliance Matrix: (Units=1/GPa)
#
#
# Indices 1 2 3 4 5 6 
#
# 1 0.014671 -0.005872 -0.003366 0.000000 0.000000 0.000000
# 2 -0.005872 0.010169 0.000785 0.000000 0.000000 0.000000
# 3 -0.003366 0.000785 0.014513 0.000000 0.000000 0.000000
# 4 0.000000 0.000000 0.000000 0.047334 0.000000 0.000000
# 5 0.000000 0.000000 0.000000 0.000000 0.072679 0.000000
# 6 0.000000 0.000000 0.000000 0.000000 0.000000 0.017070
#
#
# Mechanical properties :
#
#
# Convention : Reuss Voigt Hill
#
# Bulk Modulus (GPa) = 44.54934 49.78379 47.16656
# Shear Modulus (GPa) = 24.89740 33.23620 29.06680
#
# Velocity S-wave (km/s) = 3.23373 3.73622 3.49402
# Velocity P-wave (km/s) = 5.71434 6.28665 6.00731
#
# Compressibility (1/GPa) = 0.02244702
#
# Stress axis : x y z
#
# Youngs Moduli (GPa) = 68.16380 98.33537 68.90460
#
# Poissons Ratio (x) = 0.57740 0.23197
# Poissons Ratio (y) = 0.40024 -0.05411
# Poissons Ratio (z) = 0.22947 -0.07723
#
# Static dielectric constant tensor:
#      x y z
#    x 2.067520 0.000000 0.000000 
#    y 0.000000 1.975770 0.000000 
#    z 0.000000 0.000000 1.945390 
# 
# From -- ./inp_files/5766.got.cif
#   From: 2010.05.17/outbox.cif.g08.bks.cpg/sg34_3_cif.got.tgz:5766.got - 2010.06.03 17:23:11.
