data_PCOD9347088
_publ_section_title
;
Structure prediction by ZEFSAII (Michael W. Deem and Ramdas Pophale) SiO2 
 PCOD9347088
Probable space group: P N A 21
;
_chemical_formula_sum "Si O2"
_cell_formula_units_Z 28
_cell_length_a 24.000000
_cell_length_b 9.000000
_cell_length_c 6.000000
_cell_angle_alpha 90.000000
_cell_angle_beta 90.000000
_cell_angle_gamma 90.000000
_cell_volume 1296.000000
_symmetry_space_group_name_H-M "P N A 21"
_symmetry_group_IT_number 33
_symmetry_cell_setting 'orthorhombic'
loop_
_space_group_symop_operation_xyz
x,y,z
-x,-y,1/2+z
1/2-x,1/2+y,1/2+z
1/2+x,1/2-y,z
loop_
_atom_site_type_symbol
_atom_site_label
_atom_site_fract_x
_atom_site_fract_y
_atom_site_fract_z
Si Si1 0.124700 0.541038 0.301190
Si Si2 0.351931 0.816703 0.402608
Si Si3 0.060451 0.273668 0.515639
Si Si4 0.313354 0.204795 0.201714
Si Si5 0.258502 0.440693 0.889027
Si Si6 0.373761 0.546830 0.706510
Si Si7 0.573740 0.720922 0.995797
O O1 0.080092 0.425208 0.398250
O O2 0.168174 0.601769 0.486987
O O3 0.092198 0.681024 0.205807
O O4 0.147060 0.449758 0.085791
O O5 0.291912 0.840468 0.284749
O O6 0.349543 0.668665 0.542178
O O7 0.408448 0.802022 0.255761
O O8 0.094143 0.135061 0.404038
O O9 0.993522 0.251655 0.473362
O O10 0.374764 0.244554 0.316081
O O11 0.270919 0.105142 0.355800
O O12 0.278411 0.349832 0.114274
O O13 0.319371 0.453483 0.776781
O O14 0.417419 0.447897 0.570360
#
# Coordination Sequence:
#
# PCOD9347088 Si02
#       7
#     4   4   4   4   4   4   4
#     4  11  24  46  72 111 137 190 250 303 386 440
#     4  11  25  47  72 108 146 197 241 313 382 444
#     4  11  28  47  75 102 160 193 257 317 380 459
#     4  12  27  48  75 113 152 196 254 321 385 462
#     4  12  24  48  76 108 156 195 249 315 382 468
#     4  11  28  45  69 113 143 206 245 308 387 445
#     4  12  28  47  75 109 148 201 258 311 384 458
#
# _framework density 21.604938000000001
#
# number of rings (size 3 to 8) (size 9 to 14) (size 15 to 20)
#    0.000    0.571    5.714    0.000    8.000    4.571 
#    0.000    0.000    0.000    0.000    0.000    0.000 
#    0.000    0.000    0.000    0.000    0.000    0.000 
#
# Total GULP energy -155912.384468 kJ/mol
# GULP energy per Si atom -5568.299445 kJ/mol
# Density = 2.155576 g / cm^3
# Si number density = 21.604938 Si / 1000 Ang^3
#
#
#
# Elastic Constant Matrix: (Units=GPa)
#
#
# Indices 1 2 3 4 5 6 
#
# 1 164.5677 24.9662 37.4414 0.0000 0.0000 0.0000
# 2 24.9662 78.6694 31.8751 0.0000 0.0000 0.0000
# 3 37.4414 31.8751 81.1315 0.0000 0.0000 0.0000
# 4 0.0000 0.0000 0.0000 45.9867 0.0000 0.0000
# 5 0.0000 0.0000 0.0000 0.0000 38.9561 0.0000
# 6 0.0000 0.0000 0.0000 0.0000 0.0000 31.0181
#
#
#
# Elastic Compliance Matrix: (Units=1/GPa)
#
#
# Indices 1 2 3 4 5 6 
#
# 1 0.006863 -0.001064 -0.002749 0.000000 0.000000 0.000000
# 2 -0.001064 0.015283 -0.005513 0.000000 0.000000 0.000000
# 3 -0.002749 -0.005513 0.015761 0.000000 0.000000 0.000000
# 4 0.000000 0.000000 0.000000 0.021745 0.000000 0.000000
# 5 0.000000 0.000000 0.000000 0.000000 0.025670 0.000000
# 6 0.000000 0.000000 0.000000 0.000000 0.000000 0.032239
#
#
# Mechanical properties :
#
#
# Convention : Reuss Voigt Hill
#
# Bulk Modulus (GPa) = 51.93896 56.99268 54.46582
# Shear Modulus (GPa) = 35.05498 38.53123 36.79311
#
# Velocity S-wave (km/s) = 4.03245 4.22767 4.13121
# Velocity P-wave (km/s) = 6.76560 7.08997 6.92968
#
# Compressibility (1/GPa) = 0.01925337
#
# Stress axis : x y z
#
# Youngs Moduli (GPa) = 145.69863 65.43210 63.44963
#
# Poissons Ratio (x) = 0.06963 0.17444
# Poissons Ratio (y) = 0.15505 0.34982
# Poissons Ratio (z) = 0.40057 0.36075
#
# Static dielectric constant tensor:
#      x y z
#    x 1.770360 0.000000 0.000000 
#    y 0.000000 1.829160 0.000000 
#    z 0.000000 0.000000 1.886130 
# 
# From -- ./inp_files/2207.got.cif
#   From: 2010.05.17/outbox.ucp.g08.bks.cvg/sg33_2_cif.got.tgz:2207.got - 2010.06.11 10:35:07.
