data_PCOD9347778
_publ_section_title
;
Structure prediction by ZEFSAII (Michael W. Deem and Ramdas Pophale) SiO2 
 PCOD9347778
Probable space group: P N N 2
;
_chemical_formula_sum "Si O2"
_cell_formula_units_Z 20
_cell_length_a 18.897715
_cell_length_b 8.289999
_cell_length_c 4.865746
_cell_angle_alpha 90.000000
_cell_angle_beta 90.000000
_cell_angle_gamma 90.000000
_cell_volume 762.277687
_symmetry_space_group_name_H-M "P N N 2"
_symmetry_group_IT_number 34
_symmetry_cell_setting 'orthorhombic'
loop_
_space_group_symop_operation_xyz
x,y,z
-x,-y,z
1/2-x,1/2+y,1/2+z
1/2+x,1/2-y,1/2+z
loop_
_atom_site_type_symbol
_atom_site_label
_atom_site_fract_x
_atom_site_fract_y
_atom_site_fract_z
Si Si1 0.685750 0.423384 0.324840
Si Si2 0.600846 0.845359 0.215956
Si Si3 0.037562 0.159609 0.906234
Si Si4 0.417608 0.954595 0.724610
Si Si5 0.711482 0.633642 0.868706
O O1 0.850331 0.225030 0.542084
O O2 0.604167 0.403755 0.235287
O O3 0.691838 0.553167 0.575602
O O4 0.728941 0.486086 0.065653
O O5 0.604415 0.007234 0.031794
O O6 0.523166 0.762174 0.250529
O O7 0.617110 0.914597 0.517900
O O8 0.078567 0.272022 0.124501
O O9 0.000000 0.000000 0.026115
O O10 0.276904 0.745508 0.381112
O O11 0.500000 0.000000 0.714500
#
# Coordination Sequence:
#
# PCOD9347778 Si02
#       5
#     4   4   4   4   4
#     4  12  29  51  79 112 156 207 260 323 393 466
#     4  11  24  47  74 107 154 191 254 306 395 450
#     4  11  25  50  74 117 151 197 262 327 384 445
#     4  10  23  42  71 106 145 199 234 311 378 461
#     4  12  28  51  78 112 153 209 255 324 385 484
#
# _framework density 26.237158999999998
#
# number of rings (size 3 to 8) (size 9 to 14) (size 15 to 20)
#    0.000    0.800    2.000    4.200    8.400    4.800 
#    0.000    0.000    0.000    0.000    0.000    0.000 
#    0.000    0.000    0.000    0.000    0.000    0.000 
#
# Total GULP energy -111857.849292 kJ/mol
# GULP energy per Si atom -5592.892465 kJ/mol
# Density = 2.617744 g / cm^3
# Si number density = 26.237159 Si / 1000 Ang^3
#
#
#
# Elastic Constant Matrix: (Units=GPa)
#
#
# Indices 1 2 3 4 5 6 
#
# 1 129.4987 22.8014 18.9554 0.0000 0.0000 0.0000
# 2 22.8014 105.0763 17.1258 0.0000 0.0000 0.0000
# 3 18.9554 17.1258 123.3327 0.0000 0.0000 0.0000
# 4 0.0000 0.0000 0.0000 48.7677 0.0000 0.0000
# 5 0.0000 0.0000 0.0000 0.0000 56.9436 0.0000
# 6 0.0000 0.0000 0.0000 0.0000 0.0000 71.5657
#
#
#
# Elastic Compliance Matrix: (Units=1/GPa)
#
#
# Indices 1 2 3 4 5 6 
#
# 1 0.008155 -0.001602 -0.001031 0.000000 0.000000 0.000000
# 2 -0.001602 0.010052 -0.001150 0.000000 0.000000 0.000000
# 3 -0.001031 -0.001150 0.008426 0.000000 0.000000 0.000000
# 4 0.000000 0.000000 0.000000 0.020505 0.000000 0.000000
# 5 0.000000 0.000000 0.000000 0.000000 0.017561 0.000000
# 6 0.000000 0.000000 0.000000 0.000000 0.000000 0.013973
#
#
# Mechanical properties :
#
#
# Convention : Reuss Voigt Hill
#
# Bulk Modulus (GPa) = 52.44205 52.85254 52.64730
# Shear Modulus (GPa) = 53.99953 55.39042 54.69497
#
# Velocity S-wave (km/s) = 4.54159 4.59970 4.57074
# Velocity P-wave (km/s) = 6.89438 6.95684 6.92568
#
# Compressibility (1/GPa) = 0.01906867
#
# Stress axis : x y z
#
# Youngs Moduli (GPa) = 122.62423 99.48463 118.67696
#
# Poissons Ratio (x) = 0.15933 0.12235
# Poissons Ratio (y) = 0.19639 0.13643
# Poissons Ratio (z) = 0.12642 0.11437
#
# Static dielectric constant tensor:
#      x y z
#    x 1.803970 0.000000 0.000000 
#    y 0.000000 2.192540 0.000000 
#    z 0.000000 0.000000 2.085250 
# 
# From -- ./inp_files/1387.got.cif
#   From: 2010.05.17/outbox.cif.g08.bks.cpg/sg34_1_cif.got.tgz:1387.got - 2010.06.03 17:23:11.
