data_PCOD9347393
_publ_section_title
;
Structure prediction by ZEFSAII (Michael W. Deem and Ramdas Pophale) SiO2 
 PCOD9347393
Probable space group: P N N 2
;
_chemical_formula_sum "Si O2"
_cell_formula_units_Z 28
_cell_length_a 5.092078
_cell_length_b 20.730974
_cell_length_c 11.211752
_cell_angle_alpha 90.000000
_cell_angle_beta 90.000000
_cell_angle_gamma 90.000000
_cell_volume 1183.554435
_symmetry_space_group_name_H-M "P N N 2"
_symmetry_group_IT_number 34
_symmetry_cell_setting 'orthorhombic'
loop_
_space_group_symop_operation_xyz
x,y,z
-x,-y,z
1/2-x,1/2+y,1/2+z
1/2+x,1/2-y,1/2+z
loop_
_atom_site_type_symbol
_atom_site_label
_atom_site_fract_x
_atom_site_fract_y
_atom_site_fract_z
Si Si1 0.000000 0.500000 0.451700
Si Si2 0.985814 0.327749 0.099090
Si Si3 0.985813 0.827749 0.880560
Si Si4 0.000000 0.000000 0.527949
Si Si5 0.494444 0.859123 0.030952
Si Si6 0.750000 0.285796 0.739825
Si Si7 0.750001 0.067615 0.739825
Si Si8 0.505556 0.640877 0.948698
O O1 0.946004 0.435846 0.526348
O O2 0.787438 0.523778 0.355144
O O3 0.074162 0.261079 0.157732
O O4 0.023613 0.382685 0.200078
O O5 0.203122 0.345699 0.998025
O O6 0.699914 0.327544 0.042114
O O7 0.074160 0.761079 0.821917
O O8 0.023612 0.882685 0.779572
O O9 0.203121 0.845698 0.981625
O O10 0.699913 0.827544 0.937536
O O11 0.053997 0.064154 0.453302
O O12 0.787439 0.023778 0.624505
O O13 0.563876 0.828859 0.157097
O O14 0.563877 0.328859 0.822553
#
# Coordination Sequence:
#
# PCOD9347393 Si02
#       8
#     2   4   4   2   4   4   4   4
#     4  10  20  38  62  94 126 164 212 256 318 380
#     4  10  23  40  64  94 122 162 217 264 313 368
#     4  10  23  40  64  94 122 162 217 264 313 368
#     4  10  20  38  62  94 126 164 212 256 318 380
#     4  11  24  41  63  93 128 167 211 263 312 384
#     4  11  24  42  66  94 132 171 208 262 328 381
#     4   9  18  34  62  86 116 159 208 268 306 353
#     4  11  24  41  63  93 128 167 211 263 312 384
#
# _framework density 23.657551000000002
#
# number of rings (size 3 to 8) (size 9 to 14) (size 15 to 20)
#    0.000    1.714    0.000    3.429    0.000   16.000 
#    0.000    5.714    0.000    0.000    0.000    0.000 
#    0.000    0.000    0.000    0.000    0.000    0.000 
#
# Total GULP energy -156762.945890 kJ/mol
# GULP energy per Si atom -5598.676639 kJ/mol
# Density = 2.360370 g / cm^3
# Si number density = 23.657551 Si / 1000 Ang^3
#
#
#
# Elastic Constant Matrix: (Units=GPa)
#
#
# Indices 1 2 3 4 5 6 
#
# 1 77.0016 -0.0803 8.3919 0.0000 0.0000 0.0000
# 2 -0.0803 179.2821 61.3096 0.0000 0.0000 0.0000
# 3 8.3919 61.3096 73.8447 0.0000 0.0000 0.0000
# 4 0.0000 0.0000 0.0000 4.8343 0.0000 0.0000
# 5 0.0000 0.0000 0.0000 0.0000 29.6093 0.0000
# 6 0.0000 0.0000 0.0000 0.0000 0.0000 19.8039
#
#
#
# Elastic Compliance Matrix: (Units=1/GPa)
#
#
# Indices 1 2 3 4 5 6 
#
# 1 0.013217 0.000726 -0.002104 0.000000 0.000000 0.000000
# 2 0.000726 0.007829 -0.006583 0.000000 0.000000 0.000000
# 3 -0.002104 -0.006583 0.019246 0.000000 0.000000 0.000000
# 4 0.000000 0.000000 0.000000 0.206856 0.000000 0.000000
# 5 0.000000 0.000000 0.000000 0.000000 0.033773 0.000000
# 6 0.000000 0.000000 0.000000 0.000000 0.000000 0.050495
#
#
# Mechanical properties :
#
#
# Convention : Reuss Voigt Hill
#
# Bulk Modulus (GPa) = 41.03506 52.15230 46.59368
# Shear Modulus (GPa) = 14.06618 28.21665 21.14141
#
# Velocity S-wave (km/s) = 2.44104 3.45731 2.99263
# Velocity P-wave (km/s) = 5.03269 6.16684 5.62840
#
# Compressibility (1/GPa) = 0.02436941
#
# Stress axis : x y z
#
# Youngs Moduli (GPa) = 75.66102 127.72666 51.95793
#
# Poissons Ratio (x) = -0.09268 0.10934
# Poissons Ratio (y) = -0.05490 0.34202
# Poissons Ratio (z) = 0.15922 0.84078
#
# Static dielectric constant tensor:
#      x y z
#    x 1.764650 0.000000 0.000000 
#    y 0.000000 1.928190 0.000000 
#    z 0.000000 0.000000 1.900060 
# 
# From -- ./inp_files/4513.got.cif
#   From: 2010.05.17/outbox.cif.g08.bks.cpg/sg34_3_cif.got.tgz:4513.got - 2010.06.03 17:23:11.
