data_PCOD9347613
_publ_section_title
;
Structure prediction by ZEFSAII (Michael W. Deem and Ramdas Pophale) SiO2 
 PCOD9347613
Probable space group: P N N 2
;
_chemical_formula_sum "Si O2"
_cell_formula_units_Z 26
_cell_length_a 18.088137
_cell_length_b 9.493474
_cell_length_c 7.745815
_cell_angle_alpha 90.000000
_cell_angle_beta 90.000000
_cell_angle_gamma 90.000000
_cell_volume 1330.105607
_symmetry_space_group_name_H-M "P N N 2"
_symmetry_group_IT_number 34
_symmetry_cell_setting 'orthorhombic'
loop_
_space_group_symop_operation_xyz
x,y,z
-x,-y,z
1/2-x,1/2+y,1/2+z
1/2+x,1/2-y,1/2+z
loop_
_atom_site_type_symbol
_atom_site_label
_atom_site_fract_x
_atom_site_fract_y
_atom_site_fract_z
Si Si1 0.536396 0.776431 0.626630
Si Si2 0.887415 0.560143 0.068337
Si Si3 0.000000 0.000000 0.908696
Si Si4 0.157230 0.800280 0.401468
Si Si5 0.305387 0.823503 0.231337
Si Si6 0.348547 0.507371 0.224699
Si Si7 0.208491 0.487871 0.405154
O O1 0.456144 0.849636 0.642833
O O2 0.523731 0.634442 0.520818
O O3 0.581859 0.735437 0.799138
O O4 0.584181 0.900363 0.534389
O O5 0.828117 0.546522 0.220926
O O6 0.853579 0.632268 0.898150
O O7 0.929879 0.963391 0.792847
O O8 0.220514 0.862751 0.276161
O O9 0.193922 0.650724 0.451415
O O10 0.148289 0.902288 0.563745
O O11 0.312083 0.658750 0.187369
O O12 0.327973 0.902952 0.059185
O O13 0.294578 0.451070 0.376071
#
# Coordination Sequence:
#
# PCOD9347613 Si02
#       7
#     4   4   2   4   4   4   4
#     4  10  23  42  65  92 137 174 212 278 341 384
#     4  10  21  45  66  96 127 173 232 268 318 409
#     4  12  24  38  60  94 132 170 204 272 342 388
#     4  10  23  42  64  96 134 169 220 274 333 395
#     4  11  22  42  68  95 126 180 216 278 326 387
#     4  11  24  41  58 100 131 163 224 269 328 409
#     4  10  23  41  68  94 125 170 225 273 320 390
#
# _framework density 19.547321
#
# number of rings (size 3 to 8) (size 9 to 14) (size 15 to 20)
#    0.000    1.538    3.077    0.923    2.154    4.308 
#    0.000    1.538    0.000    0.000    0.000    0.000 
#    0.000    0.000    0.000    0.000    0.000    0.000 
#
# Total GULP energy -145045.668964 kJ/mol
# GULP energy per Si atom -5578.679576 kJ/mol
# Density = 1.950283 g / cm^3
# Si number density = 19.547321 Si / 1000 Ang^3
#
#
#
# Elastic Constant Matrix: (Units=GPa)
#
#
# Indices 1 2 3 4 5 6 
#
# 1 103.7219 17.0695 38.5015 0.0000 0.0000 0.0000
# 2 17.0695 97.2270 61.8152 0.0000 0.0000 0.0000
# 3 38.5015 61.8152 98.5995 0.0000 0.0000 0.0000
# 4 0.0000 0.0000 0.0000 29.3091 0.0000 0.0000
# 5 0.0000 0.0000 0.0000 0.0000 21.1802 0.0000
# 6 0.0000 0.0000 0.0000 0.0000 0.0000 18.8825
#
#
#
# Elastic Compliance Matrix: (Units=1/GPa)
#
#
# Indices 1 2 3 4 5 6 
#
# 1 0.011385 0.001376 -0.005309 0.000000 0.000000 0.000000
# 2 0.001376 0.017268 -0.011363 0.000000 0.000000 0.000000
# 3 -0.005309 -0.011363 0.019339 0.000000 0.000000 0.000000
# 4 0.000000 0.000000 0.000000 0.034119 0.000000 0.000000
# 5 0.000000 0.000000 0.000000 0.000000 0.047214 0.000000
# 6 0.000000 0.000000 0.000000 0.000000 0.000000 0.052959
#
#
# Mechanical properties :
#
#
# Convention : Reuss Voigt Hill
#
# Bulk Modulus (GPa) = 57.46778 59.36896 58.41837
# Shear Modulus (GPa) = 22.86483 26.01851 24.44167
#
# Velocity S-wave (km/s) = 3.42382 3.65232 3.53991
# Velocity P-wave (km/s) = 6.71515 6.94433 6.83070
#
# Compressibility (1/GPa) = 0.01740105
#
# Stress axis : x y z
#
# Youngs Moduli (GPa) = 87.83319 57.90976 51.70882
#
# Poissons Ratio (x) = -0.07970 0.27450
# Poissons Ratio (y) = -0.12088 0.58759
# Poissons Ratio (z) = 0.46627 0.65805
#
# Static dielectric constant tensor:
#      x y z
#    x 1.717680 0.000000 0.000000 
#    y 0.000000 1.708100 0.000000 
#    z 0.000000 0.000000 1.665000 
# 
# From -- ./inp_files/953.got.cif
#   From: 2010.05.17/outbox.cif.g08.bks.cpg/sg34_1_cif.got.tgz:953.got - 2010.06.03 17:23:11.
