data_PCOD9347079
_publ_section_title
;
Structure prediction by ZEFSAII (Michael W. Deem and Ramdas Pophale) SiO2 
 PCOD9347079
Probable space group: P N A 21
;
_chemical_formula_sum "Si O2"
_cell_formula_units_Z 24
_cell_length_a 9.000000
_cell_length_b 9.000000
_cell_length_c 15.000000
_cell_angle_alpha 90.000000
_cell_angle_beta 90.000000
_cell_angle_gamma 90.000000
_cell_volume 1215.000000
_symmetry_space_group_name_H-M "P N A 21"
_symmetry_group_IT_number 33
_symmetry_cell_setting 'orthorhombic'
loop_
_space_group_symop_operation_xyz
x,y,z
-x,-y,1/2+z
1/2-x,1/2+y,1/2+z
1/2+x,1/2-y,z
loop_
_atom_site_type_symbol
_atom_site_label
_atom_site_fract_x
_atom_site_fract_y
_atom_site_fract_z
Si Si1 0.656135 0.855367 0.294370
Si Si2 0.210478 0.187326 0.233941
Si Si3 0.515629 0.061544 0.154526
Si Si4 0.566232 0.051119 0.466416
Si Si5 0.005464 0.052356 0.807664
Si Si6 0.346192 0.312807 0.417803
O O1 0.832692 0.882212 0.280673
O O2 0.608541 0.687883 0.316646
O O3 0.569812 0.915001 0.207345
O O4 0.600824 0.953077 0.378924
O O5 0.360477 0.116163 0.196701
O O6 0.256387 0.261803 0.328619
O O7 0.142339 0.317217 0.174136
O O8 0.079513 0.066597 0.245708
O O9 0.489010 0.039477 0.050666
O O10 0.444179 0.174669 0.445549
O O11 0.721912 0.133935 0.486726
O O12 0.048101 0.951700 0.893282
#
# Coordination Sequence:
#
# PCOD9347079 Si02
#       6
#     4   4   4   4   4   4
#     4  11  23  42  63 103 135 177 231 289 340 397
#     4  12  20  45  71  92 133 191 225 276 347 414
#     4  12  24  42  69 102 135 179 237 282 341 412
#     4  11  25  41  68 100 136 176 239 280 339 413
#     4  11  22  39  74  91 132 185 225 279 346 406
#     4  11  20  45  69  92 131 192 221 276 349 412
#
# _framework density 19.753086
#
# number of rings (size 3 to 8) (size 9 to 14) (size 15 to 20)
#    0.000    0.667    8.333    1.000    0.000    5.333 
#    0.000    1.667    0.000    0.000    0.000    0.000 
#    0.000    0.000    0.000    0.000    0.000    0.000 
#
# Total GULP energy -134043.149882 kJ/mol
# GULP energy per Si atom -5585.131245 kJ/mol
# Density = 1.970813 g / cm^3
# Si number density = 19.753086 Si / 1000 Ang^3
#
#
#
# Elastic Constant Matrix: (Units=GPa)
#
#
# Indices 1 2 3 4 5 6 
#
# 1 58.9348 18.2230 -8.4037 0.0000 0.0000 0.0000
# 2 18.2230 97.4614 0.3503 0.0000 0.0000 0.0000
# 3 -8.4037 0.3503 11.8871 0.0000 0.0000 0.0000
# 4 0.0000 0.0000 0.0000 25.5878 0.0000 0.0000
# 5 0.0000 0.0000 0.0000 0.0000 21.0824 0.0000
# 6 0.0000 0.0000 0.0000 0.0000 0.0000 44.8422
#
#
#
# Elastic Compliance Matrix: (Units=1/GPa)
#
#
# Indices 1 2 3 4 5 6 
#
# 1 0.020205 -0.003830 0.014397 0.000000 0.000000 0.000000
# 2 -0.003830 0.010987 -0.003031 0.000000 0.000000 0.000000
# 3 0.014397 -0.003031 0.094392 0.000000 0.000000 0.000000
# 4 0.000000 0.000000 0.000000 0.039081 0.000000 0.000000
# 5 0.000000 0.000000 0.000000 0.000000 0.047433 0.000000
# 6 0.000000 0.000000 0.000000 0.000000 0.000000 0.022300
#
#
# Mechanical properties :
#
#
# Convention : Reuss Voigt Hill
#
# Bulk Modulus (GPa) = 7.10948 20.95804 14.03376
# Shear Modulus (GPa) = 18.78200 28.84340 23.81270
#
# Velocity S-wave (km/s) = 3.08691 3.82540 3.47582
# Velocity P-wave (km/s) = 4.03886 5.49041 4.81959
#
# Compressibility (1/GPa) = 0.14065720
#
# Stress axis : x y z
#
# Youngs Moduli (GPa) = 49.49287 91.01324 10.59408
#
# Poissons Ratio (x) = 0.34854 -0.15252
# Poissons Ratio (y) = 0.18954 0.03211
# Poissons Ratio (z) = -0.71255 0.27587
#
# Static dielectric constant tensor:
#      x y z
#    x 1.696570 0.000000 0.000000 
#    y 0.000000 1.713120 0.000000 
#    z 0.000000 0.000000 1.678550 
# 
# From -- ./inp_files/7525.got.cif
#   From: 2010.05.17/outbox.ucp.g08.bks.cvg/sg33_4_cif.got.tgz:7525.got - 2010.06.11 10:35:07.
