data_PCOD9347764
_publ_section_title
;
Structure prediction by ZEFSAII (Michael W. Deem and Ramdas Pophale) SiO2 
 PCOD9347764
Probable space group: P N N 2
;
_chemical_formula_sum "Si O2"
_cell_formula_units_Z 16
_cell_length_a 20.576592
_cell_length_b 5.098417
_cell_length_c 6.896267
_cell_angle_alpha 90.000000
_cell_angle_beta 90.000000
_cell_angle_gamma 90.000000
_cell_volume 723.473899
_symmetry_space_group_name_H-M "P N N 2"
_symmetry_group_IT_number 34
_symmetry_cell_setting 'orthorhombic'
loop_
_space_group_symop_operation_xyz
x,y,z
-x,-y,z
1/2-x,1/2+y,1/2+z
1/2+x,1/2-y,1/2+z
loop_
_atom_site_type_symbol
_atom_site_label
_atom_site_fract_x
_atom_site_fract_y
_atom_site_fract_z
Si Si1 0.636052 0.019986 0.787440
Si Si2 0.789684 0.014106 0.238983
Si Si3 0.343020 0.761933 0.386912
Si Si4 0.541855 0.240752 0.098201
O O1 0.692366 0.233918 0.829493
O O2 0.627410 0.052724 0.556174
O O3 0.663006 0.733190 0.829885
O O4 0.574477 0.113561 0.907268
O O5 0.716369 0.096534 0.278219
O O6 0.811349 0.969743 0.016199
O O7 0.399314 0.684590 0.241215
O O8 0.500000 0.500000 0.058154
O O9 0.500000 0.000000 0.184616
#
# Coordination Sequence:
#
# PCOD9347764 Si02
#       4
#     4   4   4   4
#     4  10  25  44  66 102 139 175 227 289 339 417
#     4  10  23  41  73 101 136 168 224 288 369 392
#     4  10  26  42  73 101 141 175 228 291 350 416
#     4  12  28  45  70  98 140 192 239 276 338 417
#
# _framework density 22.115516
#
# number of rings (size 3 to 8) (size 9 to 14) (size 15 to 20)
#    1.500    0.000    0.000    3.000   10.500    2.000 
#    0.000    0.000    0.000    0.000    0.000    0.000 
#    0.000    0.000    0.000    0.000    0.000    0.000 
#
# Total GULP energy -89295.041830 kJ/mol
# GULP energy per Si atom -5580.940114 kJ/mol
# Density = 2.206518 g / cm^3
# Si number density = 22.115516 Si / 1000 Ang^3
#
#
#
# Elastic Constant Matrix: (Units=GPa)
#
#
# Indices 1 2 3 4 5 6 
#
# 1 118.7557 25.5967 52.7353 0.0000 0.0000 0.0000
# 2 25.5967 105.8485 17.2776 0.0000 0.0000 0.0000
# 3 52.7353 17.2776 99.6106 0.0000 0.0000 0.0000
# 4 0.0000 0.0000 0.0000 20.4595 0.0000 0.0000
# 5 0.0000 0.0000 0.0000 0.0000 26.6318 0.0000
# 6 0.0000 0.0000 0.0000 0.0000 0.0000 38.4987
#
#
#
# Elastic Compliance Matrix: (Units=1/GPa)
#
#
# Indices 1 2 3 4 5 6 
#
# 1 0.011337 -0.001813 -0.005688 0.000000 0.000000 0.000000
# 2 -0.001813 0.010013 -0.000777 0.000000 0.000000 0.000000
# 3 -0.005688 -0.000777 0.013185 0.000000 0.000000 0.000000
# 4 0.000000 0.000000 0.000000 0.048877 0.000000 0.000000
# 5 0.000000 0.000000 0.000000 0.000000 0.037549 0.000000
# 6 0.000000 0.000000 0.000000 0.000000 0.000000 0.025975
#
#
# Mechanical properties :
#
#
# Convention : Reuss Voigt Hill
#
# Bulk Modulus (GPa) = 55.61834 57.27047 56.44441
# Shear Modulus (GPa) = 29.50132 32.35836 30.92984
#
# Velocity S-wave (km/s) = 3.65631 3.82927 3.74379
# Velocity P-wave (km/s) = 6.55961 6.74561 6.65326
#
# Compressibility (1/GPa) = 0.01797968
#
# Stress axis : x y z
#
# Youngs Moduli (GPa) = 88.20592 99.87280 75.84444
#
# Poissons Ratio (x) = 0.18109 0.43137
# Poissons Ratio (y) = 0.15994 0.05891
# Poissons Ratio (z) = 0.50167 0.07758
#
# Static dielectric constant tensor:
#      x y z
#    x 1.776870 0.000000 0.000000 
#    y 0.000000 1.814030 0.000000 
#    z 0.000000 0.000000 1.851120 
# 
# From -- ./inp_files/3769.got.cif
#   From: 2010.05.17/outbox.cif.g08.bks.cpg/sg34_2_cif.got.tgz:3769.got - 2010.06.03 17:23:11.
