data_PCOD9347758
_publ_section_title
;
Structure prediction by ZEFSAII (Michael W. Deem and Ramdas Pophale) SiO2 
 PCOD9347758
Probable space group: P N N 2
;
_chemical_formula_sum "Si O2"
_cell_formula_units_Z 24
_cell_length_a 7.237819
_cell_length_b 11.690369
_cell_length_c 10.386464
_cell_angle_alpha 90.000000
_cell_angle_beta 90.000000
_cell_angle_gamma 90.000000
_cell_volume 878.827540
_symmetry_space_group_name_H-M "P N N 2"
_symmetry_group_IT_number 34
_symmetry_cell_setting 'orthorhombic'
loop_
_space_group_symop_operation_xyz
x,y,z
-x,-y,z
1/2-x,1/2+y,1/2+z
1/2+x,1/2-y,1/2+z
loop_
_atom_site_type_symbol
_atom_site_label
_atom_site_fract_x
_atom_site_fract_y
_atom_site_fract_z
Si Si1 0.496534 0.324141 0.762530
Si Si2 0.779895 0.501547 0.673962
Si Si3 0.176109 0.163573 0.695531
Si Si4 0.189956 0.445300 0.113810
Si Si5 0.251610 0.512027 0.401362
Si Si6 0.081581 0.735595 0.521043
O O1 0.333187 0.418415 0.771292
O O2 0.381452 0.216393 0.703870
O O3 0.115336 0.105801 0.831363
O O4 0.541445 0.286455 0.905832
O O5 0.671795 0.379705 0.692046
O O6 0.708470 0.551780 0.533565
O O7 0.000000 0.500000 0.696376
O O8 0.038684 0.258485 0.649007
O O9 0.175390 0.054962 0.601635
O O10 0.187592 0.443276 0.274137
O O11 0.000000 0.500000 0.066706
O O12 0.257095 0.328618 0.049941
O O13 0.118960 0.607681 0.470474
#
# Coordination Sequence:
#
# PCOD9347758 Si02
#       6
#     4   4   4   4   4   4
#     4  10  25  43  64 104 143 178 238 304 354 439
#     4  11  23  41  68  96 140 185 225 296 369 434
#     4   9  22  43  66  96 133 182 235 293 369 427
#     4  10  23  40  71  99 135 184 244 304 374 446
#     4   9  23  40  66  99 135 178 243 294 362 439
#     4  11  22  44  70  95 144 187 240 307 362 444
#
# _framework density 27.309114000000001
#
# number of rings (size 3 to 8) (size 9 to 14) (size 15 to 20)
#    1.000    1.000    0.000    2.000    7.000    3.333 
#    0.000    1.667    0.000    0.000    0.000    0.000 
#    0.000    0.000    0.000    0.000    0.000    0.000 
#
# Total GULP energy -133709.034605 kJ/mol
# GULP energy per Si atom -5571.209775 kJ/mol
# Density = 2.724696 g / cm^3
# Si number density = 27.309114 Si / 1000 Ang^3
#
#
#
# Elastic Constant Matrix: (Units=GPa)
#
#
# Indices 1 2 3 4 5 6 
#
# 1 150.7377 30.4640 9.4423 0.0000 0.0000 0.0000
# 2 30.4640 141.9822 15.4402 0.0000 0.0000 0.0000
# 3 9.4423 15.4402 67.5393 0.0000 0.0000 0.0000
# 4 0.0000 0.0000 0.0000 33.8727 0.0000 0.0000
# 5 0.0000 0.0000 0.0000 0.0000 40.7388 0.0000
# 6 0.0000 0.0000 0.0000 0.0000 0.0000 50.2870
#
#
#
# Elastic Compliance Matrix: (Units=1/GPa)
#
#
# Indices 1 2 3 4 5 6 
#
# 1 0.006962 -0.001423 -0.000648 0.000000 0.000000 0.000000
# 2 -0.001423 0.007514 -0.001519 0.000000 0.000000 0.000000
# 3 -0.000648 -0.001519 0.015244 0.000000 0.000000 0.000000
# 4 0.000000 0.000000 0.000000 0.029522 0.000000 0.000000
# 5 0.000000 0.000000 0.000000 0.000000 0.024547 0.000000
# 6 0.000000 0.000000 0.000000 0.000000 0.000000 0.019886
#
#
# Mechanical properties :
#
#
# Convention : Reuss Voigt Hill
#
# Bulk Modulus (GPa) = 44.36588 52.32804 48.34696
# Shear Modulus (GPa) = 42.24109 45.30721 43.77415
#
# Velocity S-wave (km/s) = 3.93717 4.07756 4.00798
# Velocity P-wave (km/s) = 6.07861 6.43208 6.25784
#
# Compressibility (1/GPa) = 0.02253985
#
# Stress axis : x y z
#
# Youngs Moduli (GPa) = 143.63077 133.09032 65.59969
#
# Poissons Ratio (x) = 0.18944 0.04251
# Poissons Ratio (y) = 0.20444 0.09963
# Poissons Ratio (z) = 0.09307 0.20213
#
# Static dielectric constant tensor:
#      x y z
#    x 2.348980 0.000000 0.000000 
#    y 0.000000 2.612000 0.000000 
#    z 0.000000 0.000000 2.166710 
# 
# From -- ./inp_files/4921.got.cif
#   From: 2010.05.17/outbox.cif.g08.bks.cpg/sg34_3_cif.got.tgz:4921.got - 2010.06.03 17:23:11.
