data_PCOD9347102
_publ_section_title
;
Structure prediction by ZEFSAII (Michael W. Deem and Ramdas Pophale) SiO2 
 PCOD9347102
Probable space group: P N N 2
;
_chemical_formula_sum "Si O2"
_cell_formula_units_Z 24
_cell_length_a 7.177791
_cell_length_b 5.434168
_cell_length_c 24.888389
_cell_angle_alpha 90.000000
_cell_angle_beta 90.000000
_cell_angle_gamma 90.000000
_cell_volume 970.779631
_symmetry_space_group_name_H-M "P N N 2"
_symmetry_group_IT_number 34
_symmetry_cell_setting 'orthorhombic'
loop_
_space_group_symop_operation_xyz
x,y,z
-x,-y,z
1/2-x,1/2+y,1/2+z
1/2+x,1/2-y,1/2+z
loop_
_atom_site_type_symbol
_atom_site_label
_atom_site_fract_x
_atom_site_fract_y
_atom_site_fract_z
Si Si1 0.720234 0.463145 0.000000
Si Si2 0.716088 0.280643 0.333436
Si Si3 0.780344 0.779588 0.621393
Si Si4 0.293689 0.220577 0.290409
Si Si5 0.705208 0.778185 0.164263
Si Si6 0.722929 0.963153 0.953768
O O1 0.500000 0.500000 0.988678
O O2 0.791536 0.742920 0.992970
O O3 0.795932 0.241749 0.962491
O O4 0.738440 0.357482 0.059804
O O5 0.500786 0.250822 0.315348
O O6 0.793323 0.512391 0.300374
O O7 0.736725 0.358053 0.394948
O O8 0.795735 0.012736 0.319837
O O9 0.704295 0.511465 0.635368
O O10 0.998804 0.750858 0.638168
O O11 0.707563 0.011028 0.655040
O O12 0.308517 0.169662 0.227312
O O13 0.500000 0.000000 0.960938
#
# Coordination Sequence:
#
# PCOD9347102 Si02
#       6
#     4   4   4   4   4   4
#     4  10  18  29  41  61  89 133 158 182 223 276
#     4  10  18  32  46  65  91 129 158 199 233 277
#     4  10  16  24  40  60  93 121 142 176 222 295
#     4  10  19  31  50  70  95 125 153 199 243 281
#     4  10  17  25  42  69  90 120 143 179 241 296
#     4  10  21  31  45  63  93 134 167 190 227 271
#
# _framework density 24.722397000000001
#
# number of rings (size 3 to 8) (size 9 to 14) (size 15 to 20)
#    0.000    2.000    1.667    7.000    4.667    0.000 
#    0.000    0.000    0.000    0.000    0.000    0.000 
#    0.000    0.000  328.667    0.000    0.000    0.000 
#
# Total GULP energy -134069.973366 kJ/mol
# GULP energy per Si atom -5586.248890 kJ/mol
# Density = 2.466613 g / cm^3
# Si number density = 24.722397 Si / 1000 Ang^3
#
#
#
# Elastic Constant Matrix: (Units=GPa)
#
#
# Indices 1 2 3 4 5 6 
#
# 1 108.0003 27.0769 -3.3225 0.0000 0.0000 0.0000
# 2 27.0769 264.0739 90.8877 0.0000 0.0000 0.0000
# 3 -3.3225 90.8877 147.7241 0.0000 0.0000 0.0000
# 4 0.0000 0.0000 0.0000 51.3053 0.0000 0.0000
# 5 0.0000 0.0000 0.0000 0.0000 -26.1236 0.0000
# 6 0.0000 0.0000 0.0000 0.0000 0.0000 -25.6667
#
#
#
# Elastic Compliance Matrix: (Units=1/GPa)
#
#
# Indices 1 2 3 4 5 6 
#
# 1 0.009629 -0.001347 0.001045 0.000000 0.000000 0.000000
# 2 -0.001347 0.004993 -0.003102 0.000000 0.000000 0.000000
# 3 0.001045 -0.003102 0.008701 0.000000 0.000000 0.000000
# 4 0.000000 0.000000 0.000000 0.019491 0.000000 0.000000
# 5 0.000000 0.000000 0.000000 0.000000 -0.038280 0.000000
# 6 0.000000 0.000000 0.000000 0.000000 0.000000 -0.038961
#
#
# Mechanical properties :
#
#
# Convention : Reuss Voigt Hill
#
# Bulk Modulus (GPa) = 60.54860 83.23137 71.88998
# Shear Modulus (GPa) = -226.10370 26.91344 -99.59513
#
# Velocity S-wave (km/s) = -9.57369 3.30301 -6.35396
# Velocity P-wave (km/s) = 9.88245 6.94881 4.96875
#
# Compressibility (1/GPa) = 0.01651566
#
# Stress axis : x y z
#
# Youngs Moduli (GPa) = 103.85153 200.29743 114.92403
#
# Poissons Ratio (x) = 0.26983 -0.12014
# Poissons Ratio (y) = 0.13990 0.35649
# Poissons Ratio (z) = -0.10857 0.62132
#
# Static dielectric constant tensor:
#      x y z
#    x 2.012470 0.000000 0.000000 
#    y 0.000000 2.026310 0.000000 
#    z 0.000000 0.000000 1.894190 
# 
# From -- ./inp_files/8387.got.cif
#   From: 2010.05.17/outbox.cif.g08.bks.cpg/sg34_5_cif.got.tgz:8387.got - 2010.06.03 17:23:11.
