data_PCOD9347705
_publ_section_title
;
Structure prediction by ZEFSAII (Michael W. Deem and Ramdas Pophale) SiO2 
 PCOD9347705
Probable space group: P N N 2
;
_chemical_formula_sum "Si O2"
_cell_formula_units_Z 16
_cell_length_a 16.618360
_cell_length_b 6.857621
_cell_length_c 4.513147
_cell_angle_alpha 90.000000
_cell_angle_beta 90.000000
_cell_angle_gamma 90.000000
_cell_volume 514.329129
_symmetry_space_group_name_H-M "P N N 2"
_symmetry_group_IT_number 34
_symmetry_cell_setting 'orthorhombic'
loop_
_space_group_symop_operation_xyz
x,y,z
-x,-y,z
1/2-x,1/2+y,1/2+z
1/2+x,1/2-y,1/2+z
loop_
_atom_site_type_symbol
_atom_site_label
_atom_site_fract_x
_atom_site_fract_y
_atom_site_fract_z
Si Si1 0.000000 0.000000 0.295000
Si Si2 0.778857 0.140442 0.763911
Si Si3 0.624065 0.781449 0.809672
Si Si4 0.500000 0.000000 0.381190
Si Si5 0.129522 0.230769 0.897521
O O1 0.058599 0.859631 0.472547
O O2 0.935638 0.887343 0.091703
O O3 0.818990 0.324072 0.586883
O O4 0.689105 0.153411 0.627656
O O5 0.810924 0.174641 0.095481
O O6 0.817977 0.924805 0.708784
O O7 0.561857 0.890707 0.600575
O O8 0.432654 0.869253 0.214402
#
# Coordination Sequence:
#
# PCOD9347705 Si02
#       5
#     2   4   4   2   4
#     4   8  20  40  64  92 134 180 230 286 350 416
#     4  11  24  43  69 100 142 192 245 299 363 435
#     4  10  23  43  68 102 142 190 242 299 361 435
#     4  10  22  44  72 108 150 194 248 304 376 446
#     4  10  22  43  69 102 142 192 242 301 365 441
#
# _framework density 31.108483
#
# number of rings (size 3 to 8) (size 9 to 14) (size 15 to 20)
#    0.000    2.000    0.000    1.500    0.000   15.000 
#    0.000   12.500    0.000    0.000    0.000    0.000 
#    0.000    0.000    0.000    0.000    0.000    0.000 
#
# Total GULP energy -89278.997057 kJ/mol
# GULP energy per Si atom -5579.937316 kJ/mol
# Density = 3.103768 g / cm^3
# Si number density = 31.108483 Si / 1000 Ang^3
#
#
#
# Elastic Constant Matrix: (Units=GPa)
#
#
# Indices 1 2 3 4 5 6 
#
# 1 303.3797 110.6647 64.5829 0.0000 0.0000 0.0000
# 2 110.6647 71.0202 18.6622 0.0000 0.0000 0.0000
# 3 64.5829 18.6622 109.7137 0.0000 0.0000 0.0000
# 4 0.0000 0.0000 0.0000 24.0069 0.0000 0.0000
# 5 0.0000 0.0000 0.0000 0.0000 77.6928 0.0000
# 6 0.0000 0.0000 0.0000 0.0000 0.0000 115.7050
#
#
#
# Elastic Compliance Matrix: (Units=1/GPa)
#
#
# Indices 1 2 3 4 5 6 
#
# 1 0.008409 -0.012355 -0.002849 0.000000 0.000000 0.000000
# 2 -0.012355 0.032892 0.001678 0.000000 0.000000 0.000000
# 3 -0.002849 0.001678 0.010506 0.000000 0.000000 0.000000
# 4 0.000000 0.000000 0.000000 0.041655 0.000000 0.000000
# 5 0.000000 0.000000 0.000000 0.000000 0.012871 0.000000
# 6 0.000000 0.000000 0.000000 0.000000 0.000000 0.008643
#
#
# Mechanical properties :
#
#
# Convention : Reuss Voigt Hill
#
# Bulk Modulus (GPa) = 40.39499 96.88148 68.63824
# Shear Modulus (GPa) = 33.27147 62.82786 48.04967
#
# Velocity S-wave (km/s) = 3.27392 4.49891 3.93438
# Velocity P-wave (km/s) = 5.22540 7.62874 6.53844
#
# Compressibility (1/GPa) = 0.02475555
#
# Stress axis : x y z
#
# Youngs Moduli (GPa) = 118.91396 30.40293 95.18344
#
# Poissons Ratio (x) = 0.37563 0.27114
# Poissons Ratio (y) = 1.46920 -0.15972
# Poissons Ratio (z) = 0.33874 -0.05102
#
# Static dielectric constant tensor:
#      x y z
#    x 2.385640 0.000000 0.000000 
#    y 0.000000 3.196690 0.000000 
#    z 0.000000 0.000000 2.227400 
# 
# From -- ./inp_files/352.got.cif
#   From: 2010.05.17/outbox.cif.g08.bks.cpg/sg34_1_cif.got.tgz:352.got - 2010.06.03 17:23:11.
