data_PCOD9347520
_publ_section_title
;
Structure prediction by ZEFSAII (Michael W. Deem and Ramdas Pophale) SiO2 
 PCOD9347520
Probable space group: P N N 2
;
_chemical_formula_sum "Si O2"
_cell_formula_units_Z 30
_cell_length_a 12.161442
_cell_length_b 22.086542
_cell_length_c 5.134604
_cell_angle_alpha 90.000000
_cell_angle_beta 90.000000
_cell_angle_gamma 90.000000
_cell_volume 1379.176197
_symmetry_space_group_name_H-M "P N N 2"
_symmetry_group_IT_number 34
_symmetry_cell_setting 'orthorhombic'
loop_
_space_group_symop_operation_xyz
x,y,z
-x,-y,z
1/2-x,1/2+y,1/2+z
1/2+x,1/2-y,1/2+z
loop_
_atom_site_type_symbol
_atom_site_label
_atom_site_fract_x
_atom_site_fract_y
_atom_site_fract_z
Si Si1 0.205305 0.871783 0.758900
Si Si2 0.499033 0.198619 0.399431
Si Si3 0.500000 0.000000 0.453027
Si Si4 0.522334 0.672922 0.604690
Si Si5 0.289363 0.631531 0.564798
Si Si6 0.829925 0.245537 0.510670
Si Si7 0.661790 0.899296 0.587179
Si Si8 0.830096 0.595197 0.768932
O O1 0.229695 0.800442 0.710667
O O2 0.238271 0.907338 0.497322
O O3 0.276978 0.899388 0.988681
O O4 0.082289 0.864336 0.873268
O O5 0.526394 0.262341 0.523580
O O6 0.416178 0.160825 0.586101
O O7 0.598836 0.155616 0.326231
O O8 0.431472 0.220354 0.147291
O O9 0.576627 0.954187 0.611644
O O10 0.416222 0.959100 0.289175
O O11 0.413905 0.634710 0.670326
O O12 0.617771 0.697744 0.802366
O O13 0.251774 0.698890 0.467397
O O14 0.215886 0.606476 0.801753
O O15 0.255102 0.595401 0.305740
#
# Coordination Sequence:
#
# PCOD9347520 Si02
#       8
#     4   4   2   4   4   4   4   4
#     4  11  24  39  59  93 136 171 218 254 322 397
#     4   9  21  33  59  93 132 166 216 254 319 388
#     4  10  26  48  78  94 126 164 228 294 356 372
#     4  11  22  37  62  92 137 179 212 247 321 400
#     4  11  24  37  64  92 138 170 223 260 321 392
#     4  10  21  38  58  96 134 183 210 251 316 404
#     4  10  23  43  61  97 125 168 216 285 328 388
#     4  11  24  41  66  96 126 169 220 285 328 385
#
# _framework density 21.752116999999998
#
# number of rings (size 3 to 8) (size 9 to 14) (size 15 to 20)
#    0.000    1.600    2.667    0.800    7.467    5.333 
#    0.000    0.000    0.000    4.800    0.000    0.000 
#    0.000    0.000    0.000    0.000    0.000    0.000 
#
# Total GULP energy -167144.375646 kJ/mol
# GULP energy per Si atom -5571.479188 kJ/mol
# Density = 2.170261 g / cm^3
# Si number density = 21.752117 Si / 1000 Ang^3
#
#
#
# Elastic Constant Matrix: (Units=GPa)
#
#
# Indices 1 2 3 4 5 6 
#
# 1 73.7613 42.1501 16.8368 0.0000 0.0000 0.0000
# 2 42.1501 46.5451 29.7901 0.0000 0.0000 0.0000
# 3 16.8368 29.7901 93.7129 0.0000 0.0000 0.0000
# 4 0.0000 0.0000 0.0000 -13.8609 0.0000 0.0000
# 5 0.0000 0.0000 0.0000 0.0000 9.2369 0.0000
# 6 0.0000 0.0000 0.0000 0.0000 0.0000 11.8643
#
#
#
# Elastic Compliance Matrix: (Units=1/GPa)
#
#
# Indices 1 2 3 4 5 6 
#
# 1 0.029228 -0.029009 0.003971 0.000000 0.000000 0.000000
# 2 -0.029009 0.055765 -0.012515 0.000000 0.000000 0.000000
# 3 0.003971 -0.012515 0.013936 0.000000 0.000000 0.000000
# 4 0.000000 0.000000 0.000000 -0.072146 0.000000 0.000000
# 5 0.000000 0.000000 0.000000 0.000000 0.108262 0.000000
# 6 0.000000 0.000000 0.000000 0.000000 0.000000 0.084287
#
#
# Mechanical properties :
#
#
# Convention : Reuss Voigt Hill
#
# Bulk Modulus (GPa) = 41.97999 43.50814 42.74406
# Shear Modulus (GPa) = 16.53554 9.79755 13.16654
#
# Velocity S-wave (km/s) = 2.76013 2.12461 2.46295
# Velocity P-wave (km/s) = 5.43129 5.10527 5.27080
#
# Compressibility (1/GPa) = 0.02382087
#
# Stress axis : x y z
#
# Youngs Moduli (GPa) = 34.21374 17.93253 71.75726
#
# Poissons Ratio (x) = 0.52021 -0.28491
# Poissons Ratio (y) = 0.99252 0.89804
# Poissons Ratio (z) = -0.13585 0.22442
#
# Static dielectric constant tensor:
#      x y z
#    x 1.857400 0.000000 0.000000 
#    y 0.000000 1.805650 0.000000 
#    z 0.000000 0.000000 1.866580 
# 
# From -- ./inp_files/1052.got.cif
#   From: 2010.05.17/outbox.cif.g08.bks.cpg/sg34_1_cif.got.tgz:1052.got - 2010.06.03 17:23:11.
