data_PCOD9347308
_publ_section_title
;
Structure prediction by ZEFSAII (Michael W. Deem and Ramdas Pophale) SiO2 
 PCOD9347308
Probable space group: P N N 2
;
_chemical_formula_sum "Si O2"
_cell_formula_units_Z 30
_cell_length_a 12.370052
_cell_length_b 8.238097
_cell_length_c 15.588523
_cell_angle_alpha 90.000000
_cell_angle_beta 90.000000
_cell_angle_gamma 90.000000
_cell_volume 1588.559165
_symmetry_space_group_name_H-M "P N N 2"
_symmetry_group_IT_number 34
_symmetry_cell_setting 'orthorhombic'
loop_
_space_group_symop_operation_xyz
x,y,z
-x,-y,z
1/2-x,1/2+y,1/2+z
1/2+x,1/2-y,1/2+z
loop_
_atom_site_type_symbol
_atom_site_label
_atom_site_fract_x
_atom_site_fract_y
_atom_site_fract_z
Si Si1 0.586514 0.356953 0.814270
Si Si2 0.056354 0.672972 0.794016
Si Si3 0.233425 0.660835 0.946142
Si Si4 0.571725 0.344475 0.428151
Si Si5 0.290195 0.024464 0.985345
Si Si6 0.607552 0.074800 0.569227
Si Si7 0.500000 0.000000 0.870790
Si Si8 0.258775 0.193634 0.167637
O O1 0.500000 0.500000 0.803730
O O2 0.654659 0.389237 0.901308
O O3 0.675276 0.377166 0.738161
O O4 0.538233 0.169621 0.822029
O O5 0.143464 0.664347 0.871211
O O6 0.127730 0.729222 0.713986
O O7 0.000000 0.500000 0.777832
O O8 0.966138 0.788973 0.834497
O O9 0.255752 0.837493 0.983678
O O10 0.181939 0.547792 0.016891
O O11 0.500000 0.500000 0.453393
O O12 0.697100 0.386347 0.431357
O O13 0.560820 0.203523 0.499205
O O14 0.401036 0.045464 0.934049
O O15 0.284195 0.089177 0.082537
O O16 0.689024 0.156028 0.634723
O O17 0.500000 0.000000 0.610101
#
# Coordination Sequence:
#
# PCOD9347308 Si02
#       8
#     4   4   4   4   4   4   2   4
#     4  10  24  42  63  90 127 174 214 268 327 398
#     4  11  20  39  60  89 125 164 203 265 319 381
#     4  10  19  40  65  90 115 163 223 257 312 397
#     4  11  19  34  65  95 115 159 216 261 304 380
#     4  10  22  40  66  93 125 165 217 270 316 387
#     4  11  20  37  64  93 120 164 209 272 313 385
#     4  10  24  44  70  88 128 180 222 254 328 396
#     4  10  26  38  58  96 134 158 210 275 339 380
#
# _framework density 18.885038000000002
#
# number of rings (size 3 to 8) (size 9 to 14) (size 15 to 20)
#    0.000    1.600    4.000    0.000    5.600    3.200 
#    0.000    1.333    0.000    0.000    0.000    0.000 
#    0.000    0.000    0.000    0.000    0.000    0.000 
#
# Total GULP energy -167176.263481 kJ/mol
# GULP energy per Si atom -5572.542116 kJ/mol
# Density = 1.884205 g / cm^3
# Si number density = 18.885038 Si / 1000 Ang^3
#
#
#
# Elastic Constant Matrix: (Units=GPa)
#
#
# Indices 1 2 3 4 5 6 
#
# 1 115.8086 30.5802 58.5674 0.0000 0.0000 0.0000
# 2 30.5802 50.4592 29.4667 0.0000 0.0000 0.0000
# 3 58.5674 29.4667 90.9349 0.0000 0.0000 0.0000
# 4 0.0000 0.0000 0.0000 13.8150 0.0000 0.0000
# 5 0.0000 0.0000 0.0000 0.0000 35.5789 0.0000
# 6 0.0000 0.0000 0.0000 0.0000 0.0000 34.0708
#
#
#
# Elastic Compliance Matrix: (Units=1/GPa)
#
#
# Indices 1 2 3 4 5 6 
#
# 1 0.013369 -0.003791 -0.007382 0.000000 0.000000 0.000000
# 2 -0.003791 0.025519 -0.005827 0.000000 0.000000 0.000000
# 3 -0.007382 -0.005827 0.017640 0.000000 0.000000 0.000000
# 4 0.000000 0.000000 0.000000 0.072385 0.000000 0.000000
# 5 0.000000 0.000000 0.000000 0.000000 0.028107 0.000000
# 6 0.000000 0.000000 0.000000 0.000000 0.000000 0.029351
#
#
# Mechanical properties :
#
#
# Convention : Reuss Voigt Hill
#
# Bulk Modulus (GPa) = 44.39270 54.93682 49.66476
# Shear Modulus (GPa) = 21.94136 25.93217 23.93676
#
# Velocity S-wave (km/s) = 3.41227 3.70964 3.56406
# Velocity P-wave (km/s) = 6.25161 6.89216 6.57968
#
# Compressibility (1/GPa) = 0.02252622
#
# Stress axis : x y z
#
# Youngs Moduli (GPa) = 74.79761 39.18706 56.69050
#
# Poissons Ratio (x) = 0.14857 0.41850
# Poissons Ratio (y) = 0.28359 0.33035
# Poissons Ratio (z) = 0.55216 0.22835
#
# Static dielectric constant tensor:
#      x y z
#    x 1.661650 0.000000 0.000000 
#    y 0.000000 1.686510 0.000000 
#    z 0.000000 0.000000 1.663990 
# 
# From -- ./inp_files/6776.got.cif
#   From: 2010.05.17/outbox.cif.g08.bks.cpg/sg34_4_cif.got.tgz:6776.got - 2010.06.03 17:23:11.
