data_PCOD9347075
_publ_section_title
;
Structure prediction by ZEFSAII (Michael W. Deem and Ramdas Pophale) SiO2 
 PCOD9347075
Probable space group: P N A 21
;
_chemical_formula_sum "Si O2"
_cell_formula_units_Z 32
_cell_length_a 9.000000
_cell_length_b 12.000000
_cell_length_c 15.000000
_cell_angle_alpha 90.000000
_cell_angle_beta 90.000000
_cell_angle_gamma 90.000000
_cell_volume 1620.000000
_symmetry_space_group_name_H-M "P N A 21"
_symmetry_group_IT_number 33
_symmetry_cell_setting 'orthorhombic'
loop_
_space_group_symop_operation_xyz
x,y,z
-x,-y,1/2+z
1/2-x,1/2+y,1/2+z
1/2+x,1/2-y,z
loop_
_atom_site_type_symbol
_atom_site_label
_atom_site_fract_x
_atom_site_fract_y
_atom_site_fract_z
Si Si1 0.073104 0.227029 0.670190
Si Si2 0.768241 0.990338 0.243704
Si Si3 0.088690 0.986543 0.935336
Si Si4 0.864678 0.631136 0.595926
Si Si5 0.732668 0.968649 0.949787
Si Si6 0.826113 0.331443 0.010833
Si Si7 0.985503 0.622724 0.335692
Si Si8 0.688352 0.732402 0.038105
O O1 0.140458 0.102582 0.685897
O O2 0.084345 0.289600 0.765505
O O3 0.153384 0.283309 0.585121
O O4 0.907996 0.233894 0.630279
O O5 0.615677 0.937074 0.280441
O O6 0.866402 0.014707 0.331286
O O7 0.713317 0.099434 0.189443
O O8 0.908795 0.998417 0.942502
O O9 0.129401 0.870394 0.981610
O O10 0.199709 0.076220 0.984217
O O11 0.832484 0.521483 0.539223
O O12 0.772164 0.728394 0.545937
O O13 0.043497 0.647948 0.585484
O O14 0.635153 0.033209 0.873710
O O15 0.703859 0.837762 0.970370
O O16 0.928631 0.320606 0.920659
#
# Coordination Sequence:
#
# PCOD9347075 Si02
#       8
#     4   4   4   4   4   4   4   4
#     4  12  24  42  71 101 134 176 231 289 329 407
#     4  11  25  44  65 101 139 173 236 285 341 404
#     4  11  26  44  68 101 136 185 226 281 344 423
#     4  11  22  45  66 101 131 179 225 292 326 419
#     4  11  24  44  72  97 137 180 228 278 355 406
#     4  10  25  41  73  93 141 180 229 273 358 400
#     4  10  25  41  68 101 134 178 227 287 338 416
#     4  12  25  45  71  99 138 181 228 281 351 413
#
# _framework density 19.753086
#
# number of rings (size 3 to 8) (size 9 to 14) (size 15 to 20)
#    0.000    1.000    3.750    0.750   17.500    0.000 
#    4.500    0.000    0.000    0.000    0.000    0.000 
#    0.000    0.000    0.000    0.000    0.000    0.000 
#
# Total GULP energy -178353.695759 kJ/mol
# GULP energy per Si atom -5573.552992 kJ/mol
# Density = 1.970813 g / cm^3
# Si number density = 19.753086 Si / 1000 Ang^3
#
#
#
# Elastic Constant Matrix: (Units=GPa)
#
#
# Indices 1 2 3 4 5 6 
#
# 1 92.4461 35.3573 7.5692 0.0000 0.0000 0.0000
# 2 35.3573 84.4725 29.6421 0.0000 0.0000 0.0000
# 3 7.5692 29.6421 63.3048 0.0000 0.0000 0.0000
# 4 0.0000 0.0000 0.0000 42.1132 0.0000 0.0000
# 5 0.0000 0.0000 0.0000 0.0000 35.2946 0.0000
# 6 0.0000 0.0000 0.0000 0.0000 0.0000 27.3229
#
#
#
# Elastic Compliance Matrix: (Units=1/GPa)
#
#
# Indices 1 2 3 4 5 6 
#
# 1 0.012953 -0.005837 0.001185 0.000000 0.000000 0.000000
# 2 -0.005837 0.016796 -0.007167 0.000000 0.000000 0.000000
# 3 0.001185 -0.007167 0.019011 0.000000 0.000000 0.000000
# 4 0.000000 0.000000 0.000000 0.023746 0.000000 0.000000
# 5 0.000000 0.000000 0.000000 0.000000 0.028333 0.000000
# 6 0.000000 0.000000 0.000000 0.000000 0.000000 0.036599
#
#
# Mechanical properties :
#
#
# Convention : Reuss Voigt Hill
#
# Bulk Modulus (GPa) = 39.80773 42.81782 41.31278
# Shear Modulus (GPa) = 29.50719 32.12311 30.81515
#
# Velocity S-wave (km/s) = 3.86917 4.03703 3.95399
# Velocity P-wave (km/s) = 6.33696 6.59195 6.46571
#
# Compressibility (1/GPa) = 0.02512075
#
# Stress axis : x y z
#
# Youngs Moduli (GPa) = 77.20425 59.53683 52.60168
#
# Poissons Ratio (x) = 0.34753 -0.06231
# Poissons Ratio (y) = 0.45066 0.37699
# Poissons Ratio (z) = -0.09145 0.42669
#
# Static dielectric constant tensor:
#      x y z
#    x 1.714510 0.000000 0.000000 
#    y 0.000000 1.722260 0.000000 
#    z 0.000000 0.000000 1.722830 
# 
# From -- ./inp_files/7700.got.cif
#   From: 2010.05.17/outbox.ucp.g08.bks.cvg/sg33_4_cif.got.tgz:7700.got - 2010.06.11 10:35:07.
