data_PCOD9347518
_publ_section_title
;
Structure prediction by ZEFSAII (Michael W. Deem and Ramdas Pophale) SiO2 
 PCOD9347518
Probable space group: P N N 2
;
_chemical_formula_sum "Si O2"
_cell_formula_units_Z 32
_cell_length_a 28.247314
_cell_length_b 8.420534
_cell_length_c 5.513840
_cell_angle_alpha 90.000000
_cell_angle_beta 90.000000
_cell_angle_gamma 90.000000
_cell_volume 1311.508021
_symmetry_space_group_name_H-M "P N N 2"
_symmetry_group_IT_number 34
_symmetry_cell_setting 'orthorhombic'
loop_
_space_group_symop_operation_xyz
x,y,z
-x,-y,z
1/2-x,1/2+y,1/2+z
1/2+x,1/2-y,1/2+z
loop_
_atom_site_type_symbol
_atom_site_label
_atom_site_fract_x
_atom_site_fract_y
_atom_site_fract_z
Si Si1 0.798914 0.183081 0.829920
Si Si2 0.883597 0.995019 0.955225
Si Si3 0.147836 0.592991 0.457881
Si Si4 0.482847 0.814073 0.041338
Si Si5 0.547789 0.108660 0.543288
Si Si6 0.923187 0.131331 0.439391
Si Si7 0.357791 0.865114 0.344806
Si Si8 0.728207 0.968820 0.566208
O O1 0.834958 0.093532 0.005106
O O2 0.830570 0.305254 0.679536
O O3 0.773894 0.055239 0.663138
O O4 0.760345 0.299995 0.945489
O O5 0.903839 0.054016 0.691868
O O6 0.867654 0.814251 0.918194
O O7 0.915570 0.031308 0.191991
O O8 0.103865 0.701554 0.387038
O O9 0.135088 0.422196 0.569342
O O10 0.190478 0.575353 0.273260
O O11 0.451081 0.809157 0.802458
O O12 0.524078 0.689326 0.992647
O O13 0.500000 0.000000 0.056923
O O14 0.461126 0.783621 0.305428
O O15 0.599899 0.037981 0.485926
O O16 0.500000 0.000000 0.554108
O O17 0.303962 0.911569 0.408097
#
# Coordination Sequence:
#
# PCOD9347518 Si02
#       8
#     4   4   4   4   4   4   4   4
#     4  10  25  43  63 102 132 184 234 287 360 412
#     4  11  26  46  69 100 148 189 227 301 356 441
#     4  10  23  42  69  96 134 182 235 287 342 430
#     4  10  21  37  69 100 130 177 229 297 332 414
#     4  10  22  39  66 101 136 175 233 296 343 414
#     4  11  23  46  72 100 144 186 238 285 366 415
#     4  11  27  43  68 104 137 189 241 291 367 423
#     4  11  25  42  71  95 139 182 239 295 348 436
#
# _framework density 24.399393
#
# number of rings (size 3 to 8) (size 9 to 14) (size 15 to 20)
#    0.000    1.500    1.250    2.250   10.500    2.000 
#    0.000    3.750    0.000    0.000    0.000    0.000 
#    0.000    0.000    0.000    0.000    0.000    0.000 
#
# Total GULP energy -178731.466655 kJ/mol
# GULP energy per Si atom -5585.358333 kJ/mol
# Density = 2.434386 g / cm^3
# Si number density = 24.399393 Si / 1000 Ang^3
#
#
#
# Elastic Constant Matrix: (Units=GPa)
#
#
# Indices 1 2 3 4 5 6 
#
# 1 55.9978 0.7530 -7.9571 0.0000 0.0000 0.0000
# 2 0.7530 99.4410 30.5166 0.0000 0.0000 0.0000
# 3 -7.9571 30.5166 116.1661 0.0000 0.0000 0.0000
# 4 0.0000 0.0000 0.0000 14.7764 0.0000 0.0000
# 5 0.0000 0.0000 0.0000 0.0000 32.8199 0.0000
# 6 0.0000 0.0000 0.0000 0.0000 0.0000 26.1345
#
#
#
# Elastic Compliance Matrix: (Units=1/GPa)
#
#
# Indices 1 2 3 4 5 6 
#
# 1 0.018062 -0.000562 0.001385 0.000000 0.000000 0.000000
# 2 -0.000562 0.010955 -0.002916 0.000000 0.000000 0.000000
# 3 0.001385 -0.002916 0.009469 0.000000 0.000000 0.000000
# 4 0.000000 0.000000 0.000000 0.067675 0.000000 0.000000
# 5 0.000000 0.000000 0.000000 0.000000 0.030469 0.000000
# 6 0.000000 0.000000 0.000000 0.000000 0.000000 0.038264
#
#
# Mechanical properties :
#
#
# Convention : Reuss Voigt Hill
#
# Bulk Modulus (GPa) = 29.15434 35.35886 32.25660
# Shear Modulus (GPa) = 26.24458 31.29900 28.77179
#
# Velocity S-wave (km/s) = 3.28323 3.58547 3.43768
# Velocity P-wave (km/s) = 5.13298 5.62708 5.38570
#
# Compressibility (1/GPa) = 0.03430021
#
# Stress axis : x y z
#
# Youngs Moduli (GPa) = 55.36430 91.27856 105.60375
#
# Poissons Ratio (x) = 0.05127 -0.14624
# Poissons Ratio (y) = 0.03110 0.30799
# Poissons Ratio (z) = -0.07667 0.26621
#
# Static dielectric constant tensor:
#      x y z
#    x 1.946190 0.000000 0.000000 
#    y 0.000000 2.052500 0.000000 
#    z 0.000000 0.000000 2.016290 
# 
# From -- ./inp_files/1827.got.cif
#   From: 2010.05.17/outbox.cif.g08.bks.cpg/sg34_1_cif.got.tgz:1827.got - 2010.06.03 17:23:11.
