data_PCOD9347741
_publ_section_title
;
Structure prediction by ZEFSAII (Michael W. Deem and Ramdas Pophale) SiO2 
 PCOD9347741
Probable space group: P N N 2
;
_chemical_formula_sum "Si O2"
_cell_formula_units_Z 18
_cell_length_a 5.245056
_cell_length_b 17.479417
_cell_length_c 8.079025
_cell_angle_alpha 90.000000
_cell_angle_beta 90.000000
_cell_angle_gamma 90.000000
_cell_volume 740.689221
_symmetry_space_group_name_H-M "P N N 2"
_symmetry_group_IT_number 34
_symmetry_cell_setting 'orthorhombic'
loop_
_space_group_symop_operation_xyz
x,y,z
-x,-y,z
1/2-x,1/2+y,1/2+z
1/2+x,1/2-y,1/2+z
loop_
_atom_site_type_symbol
_atom_site_label
_atom_site_fract_x
_atom_site_fract_y
_atom_site_fract_z
Si Si1 0.249953 0.620494 0.924260
Si Si2 0.051953 0.268789 0.327952
Si Si3 0.500000 0.500000 0.382056
Si Si4 0.740423 0.088557 0.626553
Si Si5 0.341975 0.648503 0.574338
O O1 0.274975 0.712593 0.938276
O O2 0.195985 0.609243 0.729678
O O3 0.516277 0.591889 0.003158
O O4 0.014556 0.588416 0.022523
O O5 0.832017 0.305991 0.441157
O O6 0.214586 0.333770 0.236207
O O7 0.983006 0.206102 0.184766
O O8 0.725608 0.520635 0.256408
O O9 0.464686 0.576760 0.484409
#
# Coordination Sequence:
#
# PCOD9347741 Si02
#       5
#     4   4   2   4   4
#     4  10  25  47  81 116 151 217 272 342 384 504
#     4  10  22  47  83 115 155 213 283 333 395 507
#     4  12  30  50  78 128 174 222 262 364 426 498
#     4  12  26  49  79 116 168 207 274 333 424 481
#     4  10  24  50  84 118 167 212 285 341 426 486
#
# _framework density 24.301687999999999
#
# number of rings (size 3 to 8) (size 9 to 14) (size 15 to 20)
#    1.333    0.000    2.222    1.333    3.111    9.778 
#    0.000    4.444    0.000    0.000    0.000    0.000 
#    0.000    0.000    0.000    0.000    0.000    0.000 
#
# Total GULP energy -100418.701909 kJ/mol
# GULP energy per Si atom -5578.816773 kJ/mol
# Density = 2.424638 g / cm^3
# Si number density = 24.301688 Si / 1000 Ang^3
#
#
#
# Elastic Constant Matrix: (Units=GPa)
#
#
# Indices 1 2 3 4 5 6 
#
# 1 143.0731 46.4057 92.1458 0.0000 0.0000 0.0000
# 2 46.4057 110.1559 103.9258 0.0000 0.0000 0.0000
# 3 92.1458 103.9258 175.2023 0.0000 0.0000 0.0000
# 4 0.0000 0.0000 0.0000 73.5879 0.0000 0.0000
# 5 0.0000 0.0000 0.0000 0.0000 40.4155 0.0000
# 6 0.0000 0.0000 0.0000 0.0000 0.0000 23.2915
#
#
#
# Elastic Compliance Matrix: (Units=1/GPa)
#
#
# Indices 1 2 3 4 5 6 
#
# 1 0.010729 0.001825 -0.006726 0.000000 0.000000 0.000000
# 2 0.001825 0.020925 -0.013372 0.000000 0.000000 0.000000
# 3 -0.006726 -0.013372 0.017177 0.000000 0.000000 0.000000
# 4 0.000000 0.000000 0.000000 0.013589 0.000000 0.000000
# 5 0.000000 0.000000 0.000000 0.000000 0.024743 0.000000
# 6 0.000000 0.000000 0.000000 0.000000 0.000000 0.042934
#
#
# Mechanical properties :
#
#
# Convention : Reuss Voigt Hill
#
# Bulk Modulus (GPa) = 81.39271 101.48732 91.44001
# Shear Modulus (GPa) = 29.28473 39.85591 34.57032
#
# Velocity S-wave (km/s) = 3.47515 4.05414 3.77576
# Velocity P-wave (km/s) = 7.04752 7.98541 7.53108
#
# Compressibility (1/GPa) = 0.01228611
#
# Stress axis : x y z
#
# Youngs Moduli (GPa) = 93.20581 47.78968 58.21738
#
# Poissons Ratio (x) = -0.08723 0.39154
# Poissons Ratio (y) = -0.17013 0.77850
# Poissons Ratio (z) = 0.62686 0.63905
#
# Static dielectric constant tensor:
#      x y z
#    x 1.967700 0.000000 0.000000 
#    y 0.000000 1.917560 0.000000 
#    z 0.000000 0.000000 2.055530 
# 
# From -- ./inp_files/2073.got.cif
#   From: 2010.05.17/outbox.cif.g08.bks.cpg/sg34_2_cif.got.tgz:2073.got - 2010.06.03 17:23:11.
