data_PCOD9347528
_publ_section_title
;
Structure prediction by ZEFSAII (Michael W. Deem and Ramdas Pophale) SiO2 
 PCOD9347528
Probable space group: P N N 2
;
_chemical_formula_sum "Si O2"
_cell_formula_units_Z 28
_cell_length_a 7.934809
_cell_length_b 19.282800
_cell_length_c 9.456135
_cell_angle_alpha 90.000000
_cell_angle_beta 90.000000
_cell_angle_gamma 90.000000
_cell_volume 1446.839103
_symmetry_space_group_name_H-M "P N N 2"
_symmetry_group_IT_number 34
_symmetry_cell_setting 'orthorhombic'
loop_
_space_group_symop_operation_xyz
x,y,z
-x,-y,z
1/2-x,1/2+y,1/2+z
1/2+x,1/2-y,1/2+z
loop_
_atom_site_type_symbol
_atom_site_label
_atom_site_fract_x
_atom_site_fract_y
_atom_site_fract_z
Si Si1 0.380891 0.433861 0.754620
Si Si2 0.207176 0.345753 0.519207
Si Si3 0.313343 0.849058 0.695083
Si Si4 0.947373 0.284054 0.967166
Si Si5 0.355638 0.626482 0.967722
Si Si6 0.989411 0.758652 0.679975
Si Si7 0.304220 0.982550 0.519074
O O1 0.500000 0.500000 0.724633
O O2 0.295953 0.402887 0.615751
O O3 0.499741 0.382371 0.849021
O O4 0.231948 0.456058 0.860852
O O5 0.158664 0.364796 0.359639
O O6 0.344923 0.283709 0.513333
O O7 0.046045 0.310614 0.592663
O O8 0.465552 0.821384 0.598952
O O9 0.178492 0.786812 0.690834
O O10 0.251768 0.919857 0.621412
O O11 0.813766 0.339413 0.904222
O O12 0.068446 0.259173 0.839816
O O13 0.308632 0.551411 0.029771
O O14 0.402819 0.678648 0.094240
O O15 0.500000 0.000000 0.542404
#
# Coordination Sequence:
#
# PCOD9347528 Si02
#       7
#     4   4   4   4   4   4   4
#     4  10  22  42  65  90 126 168 208 258 319 392
#     4  10  24  39  61  91 126 160 205 264 315 379
#     4  11  22  40  61  92 121 162 208 260 316 373
#     4  10  22  38  63  90 122 156 211 254 321 373
#     4  10  21  38  64  92 118 166 209 256 320 380
#     4  10  22  37  60  93 119 161 201 263 313 378
#     4  11  21  39  67  87 122 165 214 257 308 387
#
# _framework density 19.352533000000001
#
# number of rings (size 3 to 8) (size 9 to 14) (size 15 to 20)
#    0.000    1.714    2.857    0.857    6.000    1.143 
#    5.143    0.714    0.000    0.000    0.000    0.000 
#    0.000    0.000    0.000    0.000    0.000    0.000 
#
# Total GULP energy -156087.296003 kJ/mol
# GULP energy per Si atom -5574.546286 kJ/mol
# Density = 1.930849 g / cm^3
# Si number density = 19.352533 Si / 1000 Ang^3
#
#
#
# Elastic Constant Matrix: (Units=GPa)
#
#
# Indices 1 2 3 4 5 6 
#
# 1 45.0544 10.3784 32.8862 0.0000 0.0000 0.0000
# 2 10.3784 80.7296 49.8985 0.0000 0.0000 0.0000
# 3 32.8862 49.8985 129.1750 0.0000 0.0000 0.0000
# 4 0.0000 0.0000 0.0000 31.3490 0.0000 0.0000
# 5 0.0000 0.0000 0.0000 0.0000 16.7503 0.0000
# 6 0.0000 0.0000 0.0000 0.0000 0.0000 30.0866
#
#
#
# Elastic Compliance Matrix: (Units=1/GPa)
#
#
# Indices 1 2 3 4 5 6 
#
# 1 0.027327 0.001034 -0.007356 0.000000 0.000000 0.000000
# 2 0.001034 0.016311 -0.006564 0.000000 0.000000 0.000000
# 3 -0.007356 -0.006564 0.012150 0.000000 0.000000 0.000000
# 4 0.000000 0.000000 0.000000 0.031899 0.000000 0.000000
# 5 0.000000 0.000000 0.000000 0.000000 0.059700 0.000000
# 6 0.000000 0.000000 0.000000 0.000000 0.000000 0.033237
#
#
# Mechanical properties :
#
#
# Convention : Reuss Voigt Hill
#
# Bulk Modulus (GPa) = 33.31679 49.03167 41.17423
# Shear Modulus (GPa) = 23.10504 26.42357 24.76430
#
# Velocity S-wave (km/s) = 3.45904 3.69911 3.58109
# Velocity P-wave (km/s) = 5.76250 6.60573 6.19847
#
# Compressibility (1/GPa) = 0.03001489
#
# Stress axis : x y z
#
# Youngs Moduli (GPa) = 36.59404 61.30710 82.30530
#
# Poissons Ratio (x) = -0.06338 0.60547
# Poissons Ratio (y) = -0.03783 0.54026
# Poissons Ratio (z) = 0.26920 0.40242
#
# Static dielectric constant tensor:
#      x y z
#    x 1.733470 0.000000 0.000000 
#    y 0.000000 1.695330 0.000000 
#    z 0.000000 0.000000 1.699170 
# 
# From -- ./inp_files/2782.got.cif
#   From: 2010.05.17/outbox.cif.g08.bks.cpg/sg34_2_cif.got.tgz:2782.got - 2010.06.03 17:23:11.
