data_PCOD9347547
_publ_section_title
;
Structure prediction by ZEFSAII (Michael W. Deem and Ramdas Pophale) SiO2 
 PCOD9347547
Probable space group: P N N 2
;
_chemical_formula_sum "Si O2"
_cell_formula_units_Z 24
_cell_length_a 15.703852
_cell_length_b 9.021224
_cell_length_c 8.043377
_cell_angle_alpha 90.000000
_cell_angle_beta 90.000000
_cell_angle_gamma 90.000000
_cell_volume 1139.488864
_symmetry_space_group_name_H-M "P N N 2"
_symmetry_group_IT_number 34
_symmetry_cell_setting 'orthorhombic'
loop_
_space_group_symop_operation_xyz
x,y,z
-x,-y,z
1/2-x,1/2+y,1/2+z
1/2+x,1/2-y,1/2+z
loop_
_atom_site_type_symbol
_atom_site_label
_atom_site_fract_x
_atom_site_fract_y
_atom_site_fract_z
Si Si1 0.743074 0.890144 0.300380
Si Si2 0.852331 0.173913 0.269333
Si Si3 0.020683 0.827961 0.975231
Si Si4 0.189713 0.181128 0.644802
Si Si5 0.870563 0.155968 0.643435
Si Si6 0.915906 0.596396 0.833451
O O1 0.780732 0.802732 0.455789
O O2 0.705116 0.773740 0.171665
O O3 0.812077 0.009713 0.239216
O O4 0.663183 0.988258 0.367703
O O5 0.770366 0.280817 0.260521
O O6 0.896116 0.172511 0.450429
O O7 0.914631 0.214318 0.120420
O O8 0.062597 0.815061 0.791184
O O9 0.941626 0.715079 0.974536
O O10 0.000000 0.000000 0.999231
O O11 0.116839 0.299337 0.685029
O O12 0.159476 0.013103 0.667265
O O13 0.000000 0.500000 0.799708
#
# Coordination Sequence:
#
# PCOD9347547 Si02
#       6
#     4   4   4   4   4   4
#     4  10  22  41  69  95 134 174 224 276 321 393
#     4  10  24  40  65 101 128 172 230 259 326 407
#     4  12  24  43  67  93 137 177 208 275 345 382
#     4  10  21  39  65  97 124 174 223 263 327 392
#     4  11  22  39  67  94 134 167 218 271 324 386
#     4  11  21  38  68  94 133 176 215 276 333 386
#
# _framework density 21.062075
#
# number of rings (size 3 to 8) (size 9 to 14) (size 15 to 20)
#    0.000    1.333    5.000    0.000    2.333    2.000 
#    0.000    0.000   11.000    0.000    0.000    0.000 
#    0.000    0.000    0.000    0.000    0.000    0.000 
#
# Total GULP energy -134016.176549 kJ/mol
# GULP energy per Si atom -5584.007356 kJ/mol
# Density = 2.101414 g / cm^3
# Si number density = 21.062075 Si / 1000 Ang^3
#
#
#
# Elastic Constant Matrix: (Units=GPa)
#
#
# Indices 1 2 3 4 5 6 
#
# 1 53.0076 10.8684 23.0499 0.0000 0.0000 0.0000
# 2 10.8684 85.6130 15.5224 0.0000 0.0000 0.0000
# 3 23.0499 15.5224 57.8594 0.0000 0.0000 0.0000
# 4 0.0000 0.0000 0.0000 18.1379 0.0000 0.0000
# 5 0.0000 0.0000 0.0000 0.0000 8.7872 0.0000
# 6 0.0000 0.0000 0.0000 0.0000 0.0000 8.5200
#
#
#
# Elastic Compliance Matrix: (Units=1/GPa)
#
#
# Indices 1 2 3 4 5 6 
#
# 1 0.022959 -0.001321 -0.008792 0.000000 0.000000 0.000000
# 2 -0.001321 0.012354 -0.002788 0.000000 0.000000 0.000000
# 3 -0.008792 -0.002788 0.021534 0.000000 0.000000 0.000000
# 4 0.000000 0.000000 0.000000 0.055133 0.000000 0.000000
# 5 0.000000 0.000000 0.000000 0.000000 0.113802 0.000000
# 6 0.000000 0.000000 0.000000 0.000000 0.000000 0.117371
#
#
# Mechanical properties :
#
#
# Convention : Reuss Voigt Hill
#
# Bulk Modulus (GPa) = 32.21126 32.81791 32.51458
# Shear Modulus (GPa) = 13.18207 16.89164 15.03686
#
# Velocity S-wave (km/s) = 2.50445 2.83502 2.67485
# Velocity P-wave (km/s) = 4.86721 5.13145 5.00108
#
# Compressibility (1/GPa) = 0.03104505
#
# Stress axis : x y z
#
# Youngs Moduli (GPa) = 43.55561 80.94793 46.43849
#
# Poissons Ratio (x) = 0.10689 0.40829
# Poissons Ratio (y) = 0.05752 0.12948
# Poissons Ratio (z) = 0.38295 0.22569
#
# Static dielectric constant tensor:
#      x y z
#    x 1.788890 0.000000 0.000000 
#    y 0.000000 1.776060 0.000000 
#    z 0.000000 0.000000 1.740350 
# 
# From -- ./inp_files/3838.got.cif
#   From: 2010.05.17/outbox.cif.g08.bks.cpg/sg34_2_cif.got.tgz:3838.got - 2010.06.03 17:23:11.
