data_PCOD9347686
_publ_section_title
;
Structure prediction by ZEFSAII (Michael W. Deem and Ramdas Pophale) SiO2 
 PCOD9347686
Probable space group: P N N 2
;
_chemical_formula_sum "Si O2"
_cell_formula_units_Z 20
_cell_length_a 18.476209
_cell_length_b 7.054041
_cell_length_c 5.850911
_cell_angle_alpha 90.000000
_cell_angle_beta 90.000000
_cell_angle_gamma 90.000000
_cell_volume 762.560557
_symmetry_space_group_name_H-M "P N N 2"
_symmetry_group_IT_number 34
_symmetry_cell_setting 'orthorhombic'
loop_
_space_group_symop_operation_xyz
x,y,z
-x,-y,z
1/2-x,1/2+y,1/2+z
1/2+x,1/2-y,1/2+z
loop_
_atom_site_type_symbol
_atom_site_label
_atom_site_fract_x
_atom_site_fract_y
_atom_site_fract_z
Si Si1 0.000000 0.000000 0.291631
Si Si2 0.842111 0.469809 0.475298
Si Si3 0.927687 0.767327 0.933976
Si Si4 0.145507 0.071911 0.555806
Si Si5 0.500000 0.000000 0.073246
Si Si6 0.301379 0.026709 0.485926
O O1 0.925214 0.002339 0.427045
O O2 0.983598 0.825727 0.124322
O O3 0.835538 0.703146 0.502724
O O4 0.818330 0.394647 0.728813
O O5 0.927950 0.440039 0.446419
O O6 0.804634 0.391476 0.246435
O O7 0.880624 0.935151 0.819349
O O8 0.865757 0.624857 0.011136
O O9 0.973686 0.671040 0.733657
O O10 0.217741 0.968749 0.480773
#
# Coordination Sequence:
#
# PCOD9347686 Si02
#       6
#     2   4   4   4   2   4
#     4  12  22  44  74  98 144 184 242 292 358 426
#     4  10  22  43  67 100 138 179 235 283 347 415
#     4  10  23  46  68 106 144 182 243 289 356 426
#     4  10  23  43  65 102 136 186 227 294 347 422
#     4   8  20  44  70 102 140 184 230 298 346 428
#     4  10  22  42  68  95 143 177 229 282 346 413
#
# _framework density 26.227425
#
# number of rings (size 3 to 8) (size 9 to 14) (size 15 to 20)
#    0.000    2.400    2.000    0.600    2.800    3.200 
#   14.400    8.000    0.000    0.000    0.000    0.000 
#    0.000    0.000    0.000    0.000    0.000    0.000 
#
# Total GULP energy -111595.347823 kJ/mol
# GULP energy per Si atom -5579.767391 kJ/mol
# Density = 2.616773 g / cm^3
# Si number density = 26.227425 Si / 1000 Ang^3
#
#
#
# Elastic Constant Matrix: (Units=GPa)
#
#
# Indices 1 2 3 4 5 6 
#
# 1 196.6306 17.1188 70.9853 0.0000 0.0000 0.0000
# 2 17.1188 81.7492 21.1199 0.0000 0.0000 0.0000
# 3 70.9853 21.1199 188.1974 0.0000 0.0000 0.0000
# 4 0.0000 0.0000 0.0000 28.6129 0.0000 0.0000
# 5 0.0000 0.0000 0.0000 0.0000 39.4342 0.0000
# 6 0.0000 0.0000 0.0000 0.0000 0.0000 5.9730
#
#
#
# Elastic Compliance Matrix: (Units=1/GPa)
#
#
# Indices 1 2 3 4 5 6 
#
# 1 0.005924 -0.000683 -0.002158 0.000000 0.000000 0.000000
# 2 -0.000683 0.012677 -0.001165 0.000000 0.000000 0.000000
# 3 -0.002158 -0.001165 0.006258 0.000000 0.000000 0.000000
# 4 0.000000 0.000000 0.000000 0.034949 0.000000 0.000000
# 5 0.000000 0.000000 0.000000 0.000000 0.025359 0.000000
# 6 0.000000 0.000000 0.000000 0.000000 0.000000 0.167420
#
#
# Mechanical properties :
#
#
# Convention : Reuss Voigt Hill
#
# Bulk Modulus (GPa) = 59.35716 76.11392 67.73554
# Shear Modulus (GPa) = 18.78185 38.62758 28.70471
#
# Velocity S-wave (km/s) = 2.67894 3.84186 3.31184
# Velocity P-wave (km/s) = 5.67889 6.98309 6.36449
#
# Compressibility (1/GPa) = 0.01684717
#
# Stress axis : x y z
#
# Youngs Moduli (GPa) = 168.80060 78.88592 159.79011
#
# Poissons Ratio (x) = 0.05388 0.34480
# Poissons Ratio (y) = 0.11530 0.18615
# Poissons Ratio (z) = 0.36425 0.09190
#
# Static dielectric constant tensor:
#      x y z
#    x 1.957120 0.000000 0.000000 
#    y 0.000000 2.191310 0.000000 
#    z 0.000000 0.000000 2.153530 
# 
# From -- ./inp_files/1402.got.cif
#   From: 2010.05.17/outbox.cif.g08.bks.cpg/sg34_1_cif.got.tgz:1402.got - 2010.06.03 17:23:11.
