data_PCOD9347667
_publ_section_title
;
Structure prediction by ZEFSAII (Michael W. Deem and Ramdas Pophale) SiO2 
 PCOD9347667
Probable space group: P N N 2
;
_chemical_formula_sum "Si O2"
_cell_formula_units_Z 22
_cell_length_a 13.239015
_cell_length_b 8.803762
_cell_length_c 8.894760
_cell_angle_alpha 90.000000
_cell_angle_beta 90.000000
_cell_angle_gamma 90.000000
_cell_volume 1036.712182
_symmetry_space_group_name_H-M "P N N 2"
_symmetry_group_IT_number 34
_symmetry_cell_setting 'orthorhombic'
loop_
_space_group_symop_operation_xyz
x,y,z
-x,-y,z
1/2-x,1/2+y,1/2+z
1/2+x,1/2-y,1/2+z
loop_
_atom_site_type_symbol
_atom_site_label
_atom_site_fract_x
_atom_site_fract_y
_atom_site_fract_z
Si Si1 0.185532 0.515618 0.314860
Si Si2 0.500000 0.500000 0.555060
Si Si3 0.615475 0.282794 0.339847
Si Si4 0.758598 0.547153 0.991943
Si Si5 0.074544 0.816764 0.316183
Si Si6 0.873608 0.766545 0.493529
O O1 0.286305 0.608600 0.353072
O O2 0.101628 0.642726 0.280026
O O3 0.152644 0.403608 0.445898
O O4 0.210488 0.422880 0.163631
O O5 0.537104 0.363167 0.449747
O O6 0.419721 0.422234 0.668847
O O7 0.652606 0.116639 0.391155
O O8 0.588303 0.279903 0.164567
O O9 0.655835 0.629694 0.939290
O O10 0.726458 0.371081 0.979505
O O11 0.962569 0.822647 0.384302
#
# Coordination Sequence:
#
# PCOD9347667 Si02
#       6
#     4   2   4   4   4   4
#     4  10  24  41  66  94 132 169 223 275 339 407
#     4  12  24  42  70  94 138 176 228 282 330 410
#     4  10  26  39  65  98 129 177 224 271 340 404
#     4  10  22  41  63  96 127 174 218 269 337 404
#     4  11  23  42  68  96 128 180 219 273 344 397
#     4  11  22  42  67  94 133 169 224 281 335 403
#
# _framework density 21.220934
#
# number of rings (size 3 to 8) (size 9 to 14) (size 15 to 20)
#    0.000    1.455    1.818    1.636   12.727    1.455 
#    0.000    3.636    0.000    0.000    0.000    0.000 
#    0.000    0.000    0.000    0.000    0.000    0.000 
#
# Total GULP energy -122844.624092 kJ/mol
# GULP energy per Si atom -5583.846550 kJ/mol
# Density = 2.117263 g / cm^3
# Si number density = 21.220934 Si / 1000 Ang^3
#
#
#
# Elastic Constant Matrix: (Units=GPa)
#
#
# Indices 1 2 3 4 5 6 
#
# 1 40.1741 8.6812 34.0273 0.0000 0.0000 0.0000
# 2 8.6812 71.2479 47.8234 0.0000 0.0000 0.0000
# 3 34.0273 47.8234 125.2709 0.0000 0.0000 0.0000
# 4 0.0000 0.0000 0.0000 28.6200 0.0000 0.0000
# 5 0.0000 0.0000 0.0000 0.0000 30.9175 0.0000
# 6 0.0000 0.0000 0.0000 0.0000 0.0000 33.2529
#
#
#
# Elastic Compliance Matrix: (Units=1/GPa)
#
#
# Indices 1 2 3 4 5 6 
#
# 1 0.032700 0.002659 -0.009897 0.000000 0.000000 0.000000
# 2 0.002659 0.019087 -0.008009 0.000000 0.000000 0.000000
# 3 -0.009897 -0.008009 0.013729 0.000000 0.000000 0.000000
# 4 0.000000 0.000000 0.000000 0.034941 0.000000 0.000000
# 5 0.000000 0.000000 0.000000 0.000000 0.032344 0.000000
# 6 0.000000 0.000000 0.000000 0.000000 0.000000 0.030073
#
#
# Mechanical properties :
#
#
# Convention : Reuss Voigt Hill
#
# Bulk Modulus (GPa) = 28.55403 46.41741 37.48572
# Shear Modulus (GPa) = 24.38522 28.30217 26.34370
#
# Velocity S-wave (km/s) = 3.39353 3.65594 3.52717
# Velocity P-wave (km/s) = 5.37025 6.30413 5.85583
#
# Compressibility (1/GPa) = 0.03502132
#
# Stress axis : x y z
#
# Youngs Moduli (GPa) = 30.58089 52.39062 72.84016
#
# Poissons Ratio (x) = -0.13931 0.72093
# Poissons Ratio (y) = -0.08132 0.58338
# Poissons Ratio (z) = 0.30267 0.41960
#
# Static dielectric constant tensor:
#      x y z
#    x 1.758580 0.000000 0.000000 
#    y 0.000000 1.818770 0.000000 
#    z 0.000000 0.000000 1.765220 
# 
# From -- ./inp_files/2558.got.cif
#   From: 2010.05.17/outbox.cif.g08.bks.cpg/sg34_2_cif.got.tgz:2558.got - 2010.06.03 17:23:11.
