data_PCOD9347357
_publ_section_title
;
Structure prediction by ZEFSAII (Michael W. Deem and Ramdas Pophale) SiO2 
 PCOD9347357
Probable space group: P N N 2
;
_chemical_formula_sum "Si O2"
_cell_formula_units_Z 26
_cell_length_a 25.095536
_cell_length_b 8.664180
_cell_length_c 5.308360
_cell_angle_alpha 90.000000
_cell_angle_beta 90.000000
_cell_angle_gamma 90.000000
_cell_volume 1154.208611
_symmetry_space_group_name_H-M "P N N 2"
_symmetry_group_IT_number 34
_symmetry_cell_setting 'orthorhombic'
loop_
_space_group_symop_operation_xyz
x,y,z
-x,-y,z
1/2-x,1/2+y,1/2+z
1/2+x,1/2-y,1/2+z
loop_
_atom_site_type_symbol
_atom_site_label
_atom_site_fract_x
_atom_site_fract_y
_atom_site_fract_z
Si Si1 0.749734 0.581285 0.573540
Si Si2 0.391141 0.979017 0.672582
Si Si3 0.500000 0.000000 0.425236
Si Si4 0.388459 0.461357 0.076733
Si Si5 0.265753 0.567096 0.071801
Si Si6 0.913911 0.691946 0.688159
Si Si7 0.871480 0.185239 0.077752
O O1 0.764158 0.514564 0.302516
O O2 0.685859 0.602779 0.564907
O O3 0.771991 0.751511 0.616889
O O4 0.761379 0.467403 0.803650
O O5 0.382080 0.857725 0.443449
O O6 0.450946 0.041173 0.605641
O O7 0.359937 0.137824 0.643637
O O8 0.391412 0.897816 0.943418
O O9 0.526650 0.130272 0.250400
O O10 0.324863 0.494634 0.061315
O O11 0.413259 0.626913 0.138892
O O12 0.397425 0.342933 0.305785
O O13 0.403589 0.391814 0.807049
#
# Coordination Sequence:
#
# PCOD9347357 Si02
#       7
#     4   4   2   4   4   4   4
#     4  10  21  36  55  81 115 146 182 226 267 318
#     4  10  20  36  60  78 107 144 181 224 270 325
#     4   8  22  36  60  76 114 128 192 224 278 304
#     4  10  21  37  56  82 114 144 179 227 275 319
#     4  10  21  36  55  81 115 146 182 226 267 318
#     4  10  20  36  60  78 107 144 181 224 270 325
#     4  10  21  37  56  82 114 144 179 227 275 319
#
# _framework density 22.526256
#
# number of rings (size 3 to 8) (size 9 to 14) (size 15 to 20)
#    0.923    1.231    0.000    3.231    0.000    2.462 
#    0.000    0.769    0.000    0.000    0.000    0.000 
#    0.000    0.000    0.000    0.000    0.000    0.000 
#
# Total GULP energy -145122.357715 kJ/mol
# GULP energy per Si atom -5581.629143 kJ/mol
# Density = 2.247499 g / cm^3
# Si number density = 22.526256 Si / 1000 Ang^3
#
#
#
# Elastic Constant Matrix: (Units=GPa)
#
#
# Indices 1 2 3 4 5 6 
#
# 1 1107.9431 177.2285 121.9344 0.0000 0.0000 0.0000
# 2 177.2285 87.0192 22.1988 0.0000 0.0000 0.0000
# 3 121.9344 22.1988 123.2223 0.0000 0.0000 0.0000
# 4 0.0000 0.0000 0.0000 41.9990 0.0000 0.0000
# 5 0.0000 0.0000 0.0000 0.0000 -0.6679 0.0000
# 6 0.0000 0.0000 0.0000 0.0000 0.0000 28.4563
#
#
#
# Elastic Compliance Matrix: (Units=1/GPa)
#
#
# Indices 1 2 3 4 5 6 
#
# 1 0.001435 -0.002683 -0.000936 0.000000 0.000000 0.000000
# 2 -0.002683 0.017064 -0.000419 0.000000 0.000000 0.000000
# 3 -0.000936 -0.000419 0.009118 0.000000 0.000000 0.000000
# 4 0.000000 0.000000 0.000000 0.023810 0.000000 0.000000
# 5 0.000000 0.000000 0.000000 0.000000 -1.497309 0.000000
# 6 0.000000 0.000000 0.000000 0.000000 0.000000 0.035142
#
#
# Mechanical properties :
#
#
# Convention : Reuss Voigt Hill
#
# Bulk Modulus (GPa) = 51.17952 217.87867 134.52910
# Shear Modulus (GPa) = -3.58127 80.41235 38.41554
#
# Velocity S-wave (km/s) = -1.26225 5.98119 4.13409
# Velocity P-wave (km/s) = 4.54367 12.02629 9.09056
#
# Compressibility (1/GPa) = 0.01953906
#
# Stress axis : x y z
#
# Youngs Moduli (GPa) = 696.91710 58.60330 109.67917
#
# Poissons Ratio (x) = 0.15726 0.10271
# Poissons Ratio (y) = 1.87017 0.04592
# Poissons Ratio (z) = 0.65263 0.02453
#
# Static dielectric constant tensor:
#      x y z
#    x 1.897230 0.000000 0.000000 
#    y 0.000000 1.789710 0.000000 
#    z 0.000000 0.000000 0.849780 
# 
# From -- ./inp_files/1744.got.cif
#   From: 2010.05.17/outbox.cif.g08.bks.cpg/sg34_1_cif.got.tgz:1744.got - 2010.06.03 17:23:11.
