data_PCOD9347762
_publ_section_title
;
Structure prediction by ZEFSAII (Michael W. Deem and Ramdas Pophale) SiO2 
 PCOD9347762
Probable space group: P N N 2
;
_chemical_formula_sum "Si O2"
_cell_formula_units_Z 32
_cell_length_a 5.275536
_cell_length_b 30.392889
_cell_length_c 8.520829
_cell_angle_alpha 90.000000
_cell_angle_beta 90.000000
_cell_angle_gamma 90.000000
_cell_volume 1366.219327
_symmetry_space_group_name_H-M "P N N 2"
_symmetry_group_IT_number 34
_symmetry_cell_setting 'orthorhombic'
loop_
_space_group_symop_operation_xyz
x,y,z
-x,-y,z
1/2-x,1/2+y,1/2+z
1/2+x,1/2-y,1/2+z
loop_
_atom_site_type_symbol
_atom_site_label
_atom_site_fract_x
_atom_site_fract_y
_atom_site_fract_z
Si Si1 0.875817 0.753861 0.735830
Si Si2 0.449233 0.620937 0.781849
Si Si3 0.103513 0.117906 0.928945
Si Si4 0.300212 0.340739 0.208807
Si Si5 0.973538 0.302510 0.442137
Si Si6 0.039091 0.330552 0.903399
Si Si7 0.255563 0.525336 0.840859
Si Si8 0.257114 0.024347 0.960430
O O1 0.604134 0.769485 0.800838
O O2 0.964260 0.722366 0.879720
O O3 0.033081 0.796883 0.684092
O O4 0.914305 0.721924 0.590023
O O5 0.518102 0.609199 0.601310
O O6 0.701071 0.646039 0.842394
O O7 0.335415 0.576596 0.862076
O O8 0.209433 0.652762 0.814506
O O9 0.234619 0.165418 0.959682
O O10 0.281900 0.075499 0.919404
O O11 0.980443 0.119404 0.754259
O O12 0.187165 0.334431 0.381021
O O13 0.073464 0.342807 0.085986
O O14 0.500000 0.500000 0.901452
O O15 0.241787 0.521182 0.650658
O O16 0.000000 0.500000 0.897555
O O17 0.500000 0.000000 0.895999
O O18 0.000000 0.000000 0.908303
#
# Coordination Sequence:
#
# PCOD9347762 Si02
#       8
#     4   4   4   4   4   4   4   4
#     4  11  24  41  61  94 125 176 222 272 328 388
#     4  11  24  41  68  99 131 172 219 276 334 397
#     4  10  23  41  65  99 132 174 222 278 337 397
#     4  11  27  41  64  92 133 178 222 278 328 397
#     4  11  24  41  64  92 130 175 222 276 329 397
#     4  12  26  43  65  95 133 174 222 274 328 396
#     4   9  17  34  61  95 129 160 206 268 329 387
#     4   9  19  34  62  96 131 163 209 272 331 389
#
# _framework density 23.4223
#
# number of rings (size 3 to 8) (size 9 to 14) (size 15 to 20)
#    0.000    1.500    2.500    1.500    8.750    2.000 
#    0.000    0.000    0.000    3.000    0.000    0.000 
#    0.000    0.000    0.000    0.000    0.000    0.000 
#
# Total GULP energy -178170.740007 kJ/mol
# GULP energy per Si atom -5567.835625 kJ/mol
# Density = 2.336899 g / cm^3
# Si number density = 23.422300 Si / 1000 Ang^3
#
#
#
# Elastic Constant Matrix: (Units=GPa)
#
#
# Indices 1 2 3 4 5 6 
#
# 1 87.9580 14.4935 14.8587 0.0000 0.0000 0.0000
# 2 14.4935 59.0083 -8.8356 0.0000 0.0000 0.0000
# 3 14.8587 -8.8356 55.2040 0.0000 0.0000 0.0000
# 4 0.0000 0.0000 0.0000 -4.0779 0.0000 0.0000
# 5 0.0000 0.0000 0.0000 0.0000 20.1028 0.0000
# 6 0.0000 0.0000 0.0000 0.0000 0.0000 24.7048
#
#
#
# Elastic Compliance Matrix: (Units=1/GPa)
#
#
# Indices 1 2 3 4 5 6 
#
# 1 0.012656 -0.003707 -0.004000 0.000000 0.000000 0.000000
# 2 -0.003707 0.018449 0.003951 0.000000 0.000000 0.000000
# 3 -0.004000 0.003951 0.019824 0.000000 0.000000 0.000000
# 4 0.000000 0.000000 0.000000 -0.245225 0.000000 0.000000
# 5 0.000000 0.000000 0.000000 0.000000 0.049744 0.000000
# 6 0.000000 0.000000 0.000000 0.000000 0.000000 0.040478
#
#
# Mechanical properties :
#
#
# Convention : Reuss Voigt Hill
#
# Bulk Modulus (GPa) = 23.03341 27.02262 25.02801
# Shear Modulus (GPa) = -60.90878 20.25618 -20.32630
#
# Velocity S-wave (km/s) = -5.10500 2.94398 -2.94907
# Velocity P-wave (km/s) = 4.98927 4.80814 0.94196
#
# Compressibility (1/GPa) = 0.04341520
#
# Stress axis : x y z
#
# Youngs Moduli (GPa) = 79.01621 54.20370 50.44511
#
# Poissons Ratio (x) = 0.20095 0.20177
# Poissons Ratio (y) = 0.29294 -0.19929
# Poissons Ratio (z) = 0.31605 -0.21414
#
# Static dielectric constant tensor:
#      x y z
#    x 2.039700 0.000000 0.000000 
#    y 0.000000 2.136270 0.000000 
#    z 0.000000 0.000000 2.017070 
# 
# From -- ./inp_files/2225.got.cif
#   From: 2010.05.17/outbox.cif.g08.bks.cpg/sg34_2_cif.got.tgz:2225.got - 2010.06.03 17:23:11.
