data_PCOD9347713
_publ_section_title
;
Structure prediction by ZEFSAII (Michael W. Deem and Ramdas Pophale) SiO2 
 PCOD9347713
Probable space group: P N N 2
;
_chemical_formula_sum "Si O2"
_cell_formula_units_Z 20
_cell_length_a 23.625341
_cell_length_b 5.593277
_cell_length_c 5.126530
_cell_angle_alpha 90.000000
_cell_angle_beta 90.000000
_cell_angle_gamma 90.000000
_cell_volume 677.435446
_symmetry_space_group_name_H-M "P N N 2"
_symmetry_group_IT_number 34
_symmetry_cell_setting 'orthorhombic'
loop_
_space_group_symop_operation_xyz
x,y,z
-x,-y,z
1/2-x,1/2+y,1/2+z
1/2+x,1/2-y,1/2+z
loop_
_atom_site_type_symbol
_atom_site_label
_atom_site_fract_x
_atom_site_fract_y
_atom_site_fract_z
Si Si1 0.021638 0.745522 0.348850
Si Si2 0.323973 0.050587 0.290180
Si Si3 0.119227 0.017421 0.212679
Si Si4 0.573500 0.225033 0.217800
Si Si5 0.216737 0.048854 0.542153
O O1 0.992929 0.736202 0.639633
O O2 0.000000 0.500000 0.223065
O O3 0.088355 0.776405 0.311727
O O4 0.000000 0.000000 0.239218
O O5 0.301789 0.806180 0.152770
O O6 0.307443 0.308329 0.175306
O O7 0.391278 0.008678 0.303743
O O8 0.284470 0.040090 0.545594
O O9 0.186112 0.029792 0.257511
O O10 0.096297 0.204356 0.429656
O O11 0.096530 0.089066 0.930496
#
# Coordination Sequence:
#
# PCOD9347713 Si02
#       5
#     4   4   4   4   4
#     4  10  22  44  68  98 134 178 230 288 350 418
#     4  11  23  42  68 104 144 187 236 290 354 425
#     4  10  23  44  69 101 138 184 234 292 355 424
#     4  10  23  44  69 101 138 184 234 292 355 424
#     4  11  23  42  68 104 144 187 236 290 354 425
#
# _framework density 29.523108000000001
#
# number of rings (size 3 to 8) (size 9 to 14) (size 15 to 20)
#    0.000    1.600    0.000    3.600    0.000   10.400 
#    0.000   32.000    0.000    0.000    0.000    0.000 
#    0.000    0.000    0.000    0.000    0.000    0.000 
#
# Total GULP energy -111658.148720 kJ/mol
# GULP energy per Si atom -5582.907436 kJ/mol
# Density = 2.945591 g / cm^3
# Si number density = 29.523108 Si / 1000 Ang^3
#
#
#
# Elastic Constant Matrix: (Units=GPa)
#
#
# Indices 1 2 3 4 5 6 
#
# 1 105.1140 23.3337 51.3702 0.0000 0.0000 0.0000
# 2 23.3337 223.8158 62.5981 0.0000 0.0000 0.0000
# 3 51.3702 62.5981 99.1980 0.0000 0.0000 0.0000
# 4 0.0000 0.0000 0.0000 53.6331 0.0000 0.0000
# 5 0.0000 0.0000 0.0000 0.0000 47.0710 0.0000
# 6 0.0000 0.0000 0.0000 0.0000 0.0000 50.7247
#
#
#
# Elastic Compliance Matrix: (Units=1/GPa)
#
#
# Indices 1 2 3 4 5 6 
#
# 1 0.012810 0.000631 -0.007032 0.000000 0.000000 0.000000
# 2 0.000631 0.005457 -0.003770 0.000000 0.000000 0.000000
# 3 -0.007032 -0.003770 0.016102 0.000000 0.000000 0.000000
# 4 0.000000 0.000000 0.000000 0.018645 0.000000 0.000000
# 5 0.000000 0.000000 0.000000 0.000000 0.021245 0.000000
# 6 0.000000 0.000000 0.000000 0.000000 0.000000 0.019714
#
#
# Mechanical properties :
#
#
# Convention : Reuss Voigt Hill
#
# Bulk Modulus (GPa) = 71.29555 78.08130 74.68842
# Shear Modulus (GPa) = 42.02039 49.67414 45.84727
#
# Velocity S-wave (km/s) = 3.77676 4.10634 3.94500
# Velocity P-wave (km/s) = 6.57420 6.99912 6.78998
#
# Compressibility (1/GPa) = 0.01402612
#
# Stress axis : x y z
#
# Youngs Moduli (GPa) = 78.06401 183.26295 62.10539
#
# Poissons Ratio (x) = -0.11569 0.43673
# Poissons Ratio (y) = -0.04928 0.23415
# Poissons Ratio (z) = 0.54895 0.69095
#
# Static dielectric constant tensor:
#      x y z
#    x 2.608200 0.000000 0.000000 
#    y 0.000000 2.300270 0.000000 
#    z 0.000000 0.000000 2.339500 
# 
# From -- ./inp_files/1784.got.cif
#   From: 2010.05.17/outbox.cif.g08.bks.cpg/sg34_1_cif.got.tgz:1784.got - 2010.06.03 17:23:11.
