data_PCOD9347765
_publ_section_title
;
Structure prediction by ZEFSAII (Michael W. Deem and Ramdas Pophale) SiO2 
 PCOD9347765
Probable space group: P N N 2
;
_chemical_formula_sum "Si O2"
_cell_formula_units_Z 24
_cell_length_a 12.741456
_cell_length_b 13.129033
_cell_length_c 6.302724
_cell_angle_alpha 90.000000
_cell_angle_beta 90.000000
_cell_angle_gamma 90.000000
_cell_volume 1054.338556
_symmetry_space_group_name_H-M "P N N 2"
_symmetry_group_IT_number 34
_symmetry_cell_setting 'orthorhombic'
loop_
_space_group_symop_operation_xyz
x,y,z
-x,-y,z
1/2-x,1/2+y,1/2+z
1/2+x,1/2-y,1/2+z
loop_
_atom_site_type_symbol
_atom_site_label
_atom_site_fract_x
_atom_site_fract_y
_atom_site_fract_z
Si Si1 0.879404 0.380083 0.413970
Si Si2 0.000000 0.500000 0.736338
Si Si3 0.628415 0.626215 0.608509
Si Si4 0.000000 0.000000 0.441015
Si Si5 0.515045 0.193420 0.541804
Si Si6 0.692757 0.494212 0.225556
Si Si7 0.753699 0.696956 0.978338
O O1 0.786664 0.415822 0.257588
O O2 0.833904 0.280909 0.529223
O O3 0.906159 0.467989 0.579604
O O4 0.979425 0.350064 0.271246
O O5 0.017328 0.401800 0.882114
O O6 0.550735 0.585591 0.791966
O O7 0.569521 0.719014 0.494017
O O8 0.652945 0.534347 0.452106
O O9 0.730288 0.667516 0.733242
O O10 0.906334 0.958036 0.588322
O O11 0.631471 0.238532 0.528745
O O12 0.738584 0.594060 0.110053
#
# Coordination Sequence:
#
# PCOD9347765 Si02
#       7
#     4   2   4   2   4   4   4
#     4  11  25  42  69 102 133 180 229 276 351 407
#     4  12  22  42  72  96 132 182 222 278 342 408
#     4  10  23  43  65  97 130 175 222 277 337 404
#     4  10  24  40  66  94 130 172 224 276 340 400
#     4  11  24  44  66  98 139 173 226 280 339 407
#     4  11  22  43  66  93 135 171 224 280 336 410
#     4  10  23  42  62 100 132 173 225 276 340 410
#
# _framework density 22.763088
#
# number of rings (size 3 to 8) (size 9 to 14) (size 15 to 20)
#    0.000    1.333    0.000    5.000    4.667    1.333 
#    6.000    0.000    0.000    0.000    0.000    0.000 
#    0.000    0.000    0.000    0.000    0.000    0.000 
#
# Total GULP energy -134261.588852 kJ/mol
# GULP energy per Si atom -5594.232869 kJ/mol
# Density = 2.271128 g / cm^3
# Si number density = 22.763088 Si / 1000 Ang^3
#
#
#
# Elastic Constant Matrix: (Units=GPa)
#
#
# Indices 1 2 3 4 5 6 
#
# 1 95.9541 13.4514 53.6357 0.0000 0.0000 0.0000
# 2 13.4514 68.0287 20.3477 0.0000 0.0000 0.0000
# 3 53.6357 20.3477 79.1019 0.0000 0.0000 0.0000
# 4 0.0000 0.0000 0.0000 -7.2625 0.0000 0.0000
# 5 0.0000 0.0000 0.0000 0.0000 28.3657 0.0000
# 6 0.0000 0.0000 0.0000 0.0000 0.0000 26.6341
#
#
#
# Elastic Compliance Matrix: (Units=1/GPa)
#
#
# Indices 1 2 3 4 5 6 
#
# 1 0.016783 0.000092 -0.011404 0.000000 0.000000 0.000000
# 2 0.000092 0.015925 -0.004159 0.000000 0.000000 0.000000
# 3 -0.011404 -0.004159 0.021444 0.000000 0.000000 0.000000
# 4 0.000000 0.000000 0.000000 -0.137694 0.000000 0.000000
# 5 0.000000 0.000000 0.000000 0.000000 0.035254 0.000000
# 6 0.000000 0.000000 0.000000 0.000000 0.000000 0.037546
#
#
# Mechanical properties :
#
#
# Convention : Reuss Voigt Hill
#
# Bulk Modulus (GPa) = 43.08177 46.43938 44.76057
# Shear Modulus (GPa) = 178.97446 19.92411 99.44928
#
# Velocity S-wave (km/s) = 8.87669 2.96173 6.61692
# Velocity P-wave (km/s) = 11.13678 5.66932 8.83655
#
# Compressibility (1/GPa) = 0.02321167
#
# Stress axis : x y z
#
# Youngs Moduli (GPa) = 59.58397 62.79255 46.63276
#
# Poissons Ratio (x) = -0.00580 0.53178
# Poissons Ratio (y) = -0.00550 0.19395
# Poissons Ratio (z) = 0.67947 0.26117
#
# Static dielectric constant tensor:
#      x y z
#    x 1.851680 0.000000 0.000000 
#    y 0.000000 1.828960 0.000000 
#    z 0.000000 0.000000 1.855050 
# 
# From -- ./inp_files/1262.got.cif
#   From: 2010.05.17/outbox.cif.g08.bks.cpg/sg34_1_cif.got.tgz:1262.got - 2010.06.03 17:23:11.
