data_PCOD9347501
_publ_section_title
;
Structure prediction by ZEFSAII (Michael W. Deem and Ramdas Pophale) SiO2 
 PCOD9347501
Probable space group: P N N 2
;
_chemical_formula_sum "Si O2"
_cell_formula_units_Z 32
_cell_length_a 5.158798
_cell_length_b 18.840627
_cell_length_c 16.640512
_cell_angle_alpha 90.000000
_cell_angle_beta 90.000000
_cell_angle_gamma 90.000000
_cell_volume 1617.374379
_symmetry_space_group_name_H-M "P N N 2"
_symmetry_group_IT_number 34
_symmetry_cell_setting 'orthorhombic'
loop_
_space_group_symop_operation_xyz
x,y,z
-x,-y,z
1/2-x,1/2+y,1/2+z
1/2+x,1/2-y,1/2+z
loop_
_atom_site_type_symbol
_atom_site_label
_atom_site_fract_x
_atom_site_fract_y
_atom_site_fract_z
Si Si1 0.636401 0.075759 0.910990
Si Si2 0.830169 0.316174 0.326074
Si Si3 0.389623 0.362291 0.560978
Si Si4 0.534114 0.581557 0.246888
Si Si5 0.115058 0.661330 0.657281
Si Si6 0.131306 0.697378 0.006297
Si Si7 0.634816 0.674701 0.101076
Si Si8 0.821624 0.283024 0.824999
O O1 0.424168 0.139539 0.904377
O O2 0.807216 0.083262 0.830411
O O3 0.500000 0.000000 0.911372
O O4 0.815319 0.086799 0.987975
O O5 0.735355 0.376917 0.264416
O O6 0.578249 0.266358 0.331830
O O7 0.071830 0.265911 0.305396
O O8 0.659267 0.375174 0.605685
O O9 0.381433 0.282395 0.523681
O O10 0.161786 0.364455 0.626777
O O11 0.500000 0.500000 0.225831
O O12 0.672615 0.622586 0.175286
O O13 0.138472 0.745057 0.635118
O O14 0.146307 0.661238 0.753079
O O15 0.205115 0.685962 0.913982
O O16 0.854560 0.668398 0.033853
O O17 0.353706 0.665439 0.062281
#
# Coordination Sequence:
#
# PCOD9347501 Si02
#       8
#     4   4   4   4   4   4   4   4
#     4  12  25  38  58  83 121 163 199 228 280 353
#     4  12  22  35  56  84 116 155 196 230 274 346
#     4  10  22  36  54  82 114 151 190 235 284 335
#     4  12  25  38  58  83 121 163 199 228 280 353
#     4  10  21  36  57  80 113 148 189 240 288 340
#     4  10  21  36  57  80 113 148 189 240 288 340
#     4  10  22  36  54  82 114 151 190 235 284 335
#     4  12  22  37  62  86 114 155 192 238 302 352
#
# _framework density 19.785153999999999
#
# number of rings (size 3 to 8) (size 9 to 14) (size 15 to 20)
#    0.000    1.000    5.000    1.500   10.500    0.000 
#    0.000    0.000    0.000    0.000    0.000    3.500 
#    0.000    0.000    0.000    0.000    0.000    0.000 
#
# Total GULP energy -178909.830916 kJ/mol
# GULP energy per Si atom -5590.932216 kJ/mol
# Density = 1.974012 g / cm^3
# Si number density = 19.785154 Si / 1000 Ang^3
#
#
#
# Elastic Constant Matrix: (Units=GPa)
#
#
# Indices 1 2 3 4 5 6 
#
# 1 76.6410 3.9482 -13.1251 0.0000 0.0000 0.0000
# 2 3.9482 22.4837 -4.6340 0.0000 0.0000 0.0000
# 3 -13.1251 -4.6340 60.3852 0.0000 0.0000 0.0000
# 4 0.0000 0.0000 0.0000 14.0673 0.0000 0.0000
# 5 0.0000 0.0000 0.0000 0.0000 25.9754 0.0000
# 6 0.0000 0.0000 0.0000 0.0000 0.0000 13.6285
#
#
#
# Elastic Compliance Matrix: (Units=1/GPa)
#
#
# Indices 1 2 3 4 5 6 
#
# 1 0.013624 -0.001811 0.002822 0.000000 0.000000 0.000000
# 2 -0.001811 0.045432 0.003093 0.000000 0.000000 0.000000
# 3 0.002822 0.003093 0.017411 0.000000 0.000000 0.000000
# 4 0.000000 0.000000 0.000000 0.071087 0.000000 0.000000
# 5 0.000000 0.000000 0.000000 0.000000 0.038498 0.000000
# 6 0.000000 0.000000 0.000000 0.000000 0.000000 0.073376
#
#
# Mechanical properties :
#
#
# Convention : Reuss Voigt Hill
#
# Bulk Modulus (GPa) = 11.80961 14.65423 13.23192
# Shear Modulus (GPa) = 17.89260 22.28894 20.09077
#
# Velocity S-wave (km/s) = 3.01049 3.36005 3.19006
# Velocity P-wave (km/s) = 4.25041 4.74089 4.50233
#
# Compressibility (1/GPa) = 0.08467682
#
# Stress axis : x y z
#
# Youngs Moduli (GPa) = 73.39729 22.01084 57.43437
#
# Poissons Ratio (x) = 0.03986 -0.16210
# Poissons Ratio (y) = 0.13291 -0.17764
# Poissons Ratio (z) = -0.20716 -0.06808
#
# Static dielectric constant tensor:
#      x y z
#    x 1.740910 0.000000 0.000000 
#    y 0.000000 1.672270 0.000000 
#    z 0.000000 0.000000 1.704330 
# 
# From -- ./inp_files/6169.got.cif
#   From: 2010.05.17/outbox.cif.g08.bks.cpg/sg34_4_cif.got.tgz:6169.got - 2010.06.03 17:23:11.
