data_PCOD9347845
_publ_section_title
;
Structure prediction by ZEFSAII (Michael W. Deem and Ramdas Pophale) SiO2 
 PCOD9347845
Probable space group: P N N 2
;
_chemical_formula_sum "Si O2"
_cell_formula_units_Z 18
_cell_length_a 5.612470
_cell_length_b 5.178293
_cell_length_c 25.799878
_cell_angle_alpha 90.000000
_cell_angle_beta 90.000000
_cell_angle_gamma 90.000000
_cell_volume 749.822218
_symmetry_space_group_name_H-M "P N N 2"
_symmetry_group_IT_number 34
_symmetry_cell_setting 'orthorhombic'
loop_
_space_group_symop_operation_xyz
x,y,z
-x,-y,z
1/2-x,1/2+y,1/2+z
1/2+x,1/2-y,1/2+z
loop_
_atom_site_type_symbol
_atom_site_label
_atom_site_fract_x
_atom_site_fract_y
_atom_site_fract_z
Si Si1 0.252398 0.652983 0.631220
Si Si2 0.168774 0.748706 0.855547
Si Si3 0.165411 0.754596 0.744517
Si Si4 0.500000 0.500000 0.939654
Si Si5 0.838927 0.742521 0.017484
O O1 0.500000 0.500000 0.626792
O O2 0.279711 0.781419 0.687786
O O3 0.246661 0.799374 0.576475
O O4 0.000000 0.500000 0.632282
O O5 0.302759 0.756083 0.799343
O O6 0.339910 0.677409 0.902254
O O7 0.000000 0.500000 0.851865
O O8 0.000000 0.000000 0.863382
O O9 0.000000 0.500000 0.742479
O O10 0.000000 0.000000 0.749586
O O11 0.629522 0.706725 0.976772
O O12 0.000000 0.500000 0.004587
O O13 0.000000 0.000000 0.013684
#
# Coordination Sequence:
#
# PCOD9347845 Si02
#       5
#     4   4   4   2   4
#     4  10  24  46  76 111 151 196 249 316 390 463
#     4  10  24  47  70 109 146 193 257 313 381 461
#     4   9  20  41  72 103 146 187 242 313 379 455
#     4  12  28  46  82 100 158 204 264 316 400 464
#     4  11  29  49  71 111 149 196 255 316 385 464
#
# _framework density 24.005689
#
# number of rings (size 3 to 8) (size 9 to 14) (size 15 to 20)
#    0.000    1.778    0.000    0.667    9.333    9.778 
#    0.000    0.000    0.000    0.000    0.000    0.000 
#    0.000    0.000    0.000    0.000    0.000    0.000 
#
# Total GULP energy -100510.394876 kJ/mol
# GULP energy per Si atom -5583.910826 kJ/mol
# Density = 2.395105 g / cm^3
# Si number density = 24.005689 Si / 1000 Ang^3
#
#
#
# Elastic Constant Matrix: (Units=GPa)
#
#
# Indices 1 2 3 4 5 6 
#
# 1 84.2056 26.4477 61.4800 0.0000 0.0000 0.0000
# 2 26.4477 141.8622 24.8707 0.0000 0.0000 0.0000
# 3 61.4800 24.8707 265.1376 0.0000 0.0000 0.0000
# 4 0.0000 0.0000 0.0000 53.7426 0.0000 0.0000
# 5 0.0000 0.0000 0.0000 0.0000 -18.7868 0.0000
# 6 0.0000 0.0000 0.0000 0.0000 0.0000 30.3526
#
#
#
# Elastic Compliance Matrix: (Units=1/GPa)
#
#
# Indices 1 2 3 4 5 6 
#
# 1 0.014951 -0.002216 -0.003259 0.000000 0.000000 0.000000
# 2 -0.002216 0.007495 -0.000189 0.000000 0.000000 0.000000
# 3 -0.003259 -0.000189 0.004545 0.000000 0.000000 0.000000
# 4 0.000000 0.000000 0.000000 0.018607 0.000000 0.000000
# 5 0.000000 0.000000 0.000000 0.000000 -0.053229 0.000000
# 6 0.000000 0.000000 0.000000 0.000000 0.000000 0.032946
#
#
# Mechanical properties :
#
#
# Convention : Reuss Voigt Hill
#
# Bulk Modulus (GPa) = 63.84427 79.64469 71.74448
# Shear Modulus (GPa) = 119.42953 38.28882 78.85918
#
# Velocity S-wave (km/s) = 7.06106 3.99806 5.73773
# Velocity P-wave (km/s) = 9.65045 7.38662 8.59341
#
# Compressibility (1/GPa) = 0.01566311
#
# Stress axis : x y z
#
# Youngs Moduli (GPa) = 66.88443 133.41495 220.01851
#
# Poissons Ratio (x) = 0.29565 0.71704
# Poissons Ratio (y) = 0.14822 0.04164
# Poissons Ratio (z) = 0.21798 0.02525
#
# Static dielectric constant tensor:
#      x y z
#    x 2.170890 0.000000 0.000000 
#    y 0.000000 1.860610 0.000000 
#    z 0.000000 0.000000 2.045490 
# 
# From -- ./inp_files/8229.got.cif
#   From: 2010.05.17/outbox.cif.g08.bks.cpg/sg34_5_cif.got.tgz:8229.got - 2010.06.03 17:23:11.
