data_PCOD9347165
_publ_section_title
;
Structure prediction by ZEFSAII (Michael W. Deem and Ramdas Pophale) SiO2 
 PCOD9347165
Probable space group: P N N 2
;
_chemical_formula_sum "Si O2"
_cell_formula_units_Z 18
_cell_length_a 8.581495
_cell_length_b 12.454686
_cell_length_c 6.613381
_cell_angle_alpha 90.000000
_cell_angle_beta 90.000000
_cell_angle_gamma 90.000000
_cell_volume 706.837008
_symmetry_space_group_name_H-M "P N N 2"
_symmetry_group_IT_number 34
_symmetry_cell_setting 'orthorhombic'
loop_
_space_group_symop_operation_xyz
x,y,z
-x,-y,z
1/2-x,1/2+y,1/2+z
1/2+x,1/2-y,1/2+z
loop_
_atom_site_type_symbol
_atom_site_label
_atom_site_fract_x
_atom_site_fract_y
_atom_site_fract_z
Si Si1 0.165665 0.546411 0.924260
Si Si2 0.500000 0.500000 0.297211
Si Si3 0.614348 0.646014 0.933331
Si Si4 0.822426 0.758099 0.227548
Si Si5 0.329932 0.983225 0.880545
O O1 0.293291 0.458567 0.860407
O O2 0.203999 0.659493 0.830301
O O3 0.000000 0.500000 0.872516
O O4 0.163371 0.546680 0.166831
O O5 0.347171 0.513974 0.435337
O O6 0.527092 0.600101 0.138332
O O7 0.493216 0.693104 0.772876
O O8 0.747504 0.729213 0.009717
O O9 0.824312 0.643631 0.338878
O O10 0.500000 0.000000 0.975133
#
# Coordination Sequence:
#
# PCOD9347165 Si02
#       5
#     4   2   4   4   4
#     4   9  17  34  57  88 120 164 215 273 331 407
#     4   8  14  32  56  76 116 158 198 266 324 388
#     4  10  18  34  59  85 126 164 215 271 333 414
#     4  10  18  34  58  88 118 173 212 268 346 403
#     4   9  18  32  57  83 121 162 216 266 331 410
#
# _framework density 25.465561000000001
#
# number of rings (size 3 to 8) (size 9 to 14) (size 15 to 20)
#    0.000    3.111    4.444    0.000    0.000    0.000 
#    8.000    1.111    0.000    8.000    0.000    0.000 
#    0.000    0.000    0.000    0.000    0.000    0.000 
#
# Total GULP energy -100499.468750 kJ/mol
# GULP energy per Si atom -5583.303819 kJ/mol
# Density = 2.540760 g / cm^3
# Si number density = 25.465561 Si / 1000 Ang^3
#
#
#
# Elastic Constant Matrix: (Units=GPa)
#
#
# Indices 1 2 3 4 5 6 
#
# 1 232.6869 29.2181 31.4253 0.0000 0.0000 0.0000
# 2 29.2181 90.6012 3.7906 0.0000 0.0000 0.0000
# 3 31.4253 3.7906 100.4908 0.0000 0.0000 0.0000
# 4 0.0000 0.0000 0.0000 9.0556 0.0000 0.0000
# 5 0.0000 0.0000 0.0000 0.0000 -0.5328 0.0000
# 6 0.0000 0.0000 0.0000 0.0000 0.0000 38.3771
#
#
#
# Elastic Compliance Matrix: (Units=1/GPa)
#
#
# Indices 1 2 3 4 5 6 
#
# 1 0.004669 -0.001447 -0.001406 0.000000 0.000000 0.000000
# 2 -0.001447 0.011503 0.000019 0.000000 0.000000 0.000000
# 3 -0.001406 0.000019 0.010390 0.000000 0.000000 0.000000
# 4 0.000000 0.000000 0.000000 0.110428 0.000000 0.000000
# 5 0.000000 0.000000 0.000000 0.000000 -1.877041 0.000000
# 6 0.000000 0.000000 0.000000 0.000000 0.000000 0.026057
#
#
# Mechanical properties :
#
#
# Convention : Reuss Voigt Hill
#
# Bulk Modulus (GPa) = 47.85940 61.40520 54.63230
# Shear Modulus (GPa) = -2.93882 33.33632 15.19875
#
# Velocity S-wave (km/s) = -1.07543 3.62204 2.44567
# Velocity P-wave (km/s) = 4.15843 6.45427 5.42909
#
# Compressibility (1/GPa) = 0.02089454
#
# Stress axis : x y z
#
# Youngs Moduli (GPa) = 214.17236 86.93209 96.24640
#
# Poissons Ratio (x) = 0.12579 0.13528
# Poissons Ratio (y) = 0.30990 -0.00179
# Poissons Ratio (z) = 0.30103 -0.00162
#
# Static dielectric constant tensor:
#      x y z
#    x 2.068140 0.000000 0.000000 
#    y 0.000000 1.962980 0.000000 
#    z 0.000000 0.000000 2.067980 
# 
# From -- ./inp_files/2437.got.cif
#   From: 2010.05.17/outbox.cif.g08.bks.cpg/sg34_2_cif.got.tgz:2437.got - 2010.06.03 17:23:11.
