data_PCOD9347931
_publ_section_title
;
Structure prediction by ZEFSAII (Michael W. Deem and Ramdas Pophale) SiO2 
 PCOD9347931
Probable space group: P N N 2
;
_chemical_formula_sum "Si O2"
_cell_formula_units_Z 22
_cell_length_a 8.419847
_cell_length_b 8.077946
_cell_length_c 12.877173
_cell_angle_alpha 90.000000
_cell_angle_beta 90.000000
_cell_angle_gamma 90.000000
_cell_volume 875.841815
_symmetry_space_group_name_H-M "P N N 2"
_symmetry_group_IT_number 34
_symmetry_cell_setting 'orthorhombic'
loop_
_space_group_symop_operation_xyz
x,y,z
-x,-y,z
1/2-x,1/2+y,1/2+z
1/2+x,1/2-y,1/2+z
loop_
_atom_site_type_symbol
_atom_site_label
_atom_site_fract_x
_atom_site_fract_y
_atom_site_fract_z
Si Si1 0.500000 0.000000 0.584920
Si Si2 0.957163 0.809521 0.398863
Si Si3 0.070603 0.319423 0.747725
Si Si4 0.283662 0.610616 0.415235
Si Si5 0.752909 0.154021 0.733277
Si Si6 0.301239 0.317111 0.560493
O O1 0.344688 0.942767 0.647885
O O2 0.561347 0.819694 0.545351
O O3 0.867124 0.783293 0.288495
O O4 0.837211 0.753362 0.487446
O O5 0.109572 0.691812 0.413895
O O6 0.000000 0.000000 0.409692
O O7 0.107593 0.248888 0.861474
O O8 0.227643 0.319056 0.676490
O O9 0.000000 0.500000 0.759072
O O10 0.922974 0.220029 0.697477
O O11 0.288292 0.471546 0.326347
O O12 0.324267 0.506554 0.518902
#
# Coordination Sequence:
#
# PCOD9347931 Si02
#       6
#     2   4   4   4   4   4
#     4  12  24  48  76 112 160 216 270 332 406 498
#     4  11  23  44  72 109 155 206 262 328 410 484
#     4  12  25  46  81 118 153 211 274 330 424 500
#     4  11  23  49  74 110 162 209 267 339 413 487
#     4  11  22  45  76 105 154 205 261 328 403 480
#     4  11  26  47  73 116 160 213 272 336 405 497
#
# _framework density 25.118690999999998
#
# number of rings (size 3 to 8) (size 9 to 14) (size 15 to 20)
#    0.000    0.727    3.636    4.364    2.545    0.000 
#   16.364    3.636    0.000    0.000    0.000    0.000 
#    0.000    0.000    0.000    0.000    0.000    0.000 
#
# Total GULP energy -123101.254268 kJ/mol
# GULP energy per Si atom -5595.511558 kJ/mol
# Density = 2.506152 g / cm^3
# Si number density = 25.118691 Si / 1000 Ang^3
#
#
#
# Elastic Constant Matrix: (Units=GPa)
#
#
# Indices 1 2 3 4 5 6 
#
# 1 91.5656 19.5387 49.0287 0.0000 0.0000 0.0000
# 2 19.5387 116.0456 47.8628 0.0000 0.0000 0.0000
# 3 49.0287 47.8628 104.3554 0.0000 0.0000 0.0000
# 4 0.0000 0.0000 0.0000 34.6576 0.0000 0.0000
# 5 0.0000 0.0000 0.0000 0.0000 0.2188 0.0000
# 6 0.0000 0.0000 0.0000 0.0000 0.0000 50.2155
#
#
#
# Elastic Compliance Matrix: (Units=1/GPa)
#
#
# Indices 1 2 3 4 5 6 
#
# 1 0.014612 0.000458 -0.007075 0.000000 0.000000 0.000000
# 2 0.000458 0.010642 -0.005096 0.000000 0.000000 0.000000
# 3 -0.007075 -0.005096 0.015244 0.000000 0.000000 0.000000
# 4 0.000000 0.000000 0.000000 0.028854 0.000000 0.000000
# 5 0.000000 0.000000 0.000000 0.000000 4.569552 0.000000
# 6 0.000000 0.000000 0.000000 0.000000 0.000000 0.019914
#
#
# Mechanical properties :
#
#
# Convention : Reuss Voigt Hill
#
# Bulk Modulus (GPa) = 58.57764 60.53632 59.55698
# Shear Modulus (GPa) = 1.06657 30.05415 15.56036
#
# Velocity S-wave (km/s) = 0.65233 3.46278 2.49162
# Velocity P-wave (km/s) = 4.89268 6.33563 5.66032
#
# Compressibility (1/GPa) = 0.01707136
#
# Stress axis : x y z
#
# Youngs Moduli (GPa) = 68.43828 93.96644 65.59975
#
# Poissons Ratio (x) = -0.04302 0.46411
# Poissons Ratio (y) = -0.03134 0.33430
# Poissons Ratio (z) = 0.48420 0.47887
#
# Static dielectric constant tensor:
#      x y z
#    x 2.174270 0.000000 0.000000 
#    y 0.000000 2.007600 0.000000 
#    z 0.000000 0.000000 1.996720 
# 
# From -- ./inp_files/6389.got.cif
#   From: 2010.05.17/outbox.cif.g08.bks.cpg/sg34_4_cif.got.tgz:6389.got - 2010.06.03 17:23:11.
