data_PCOD9347904
_publ_section_title
;
Structure prediction by ZEFSAII (Michael W. Deem and Ramdas Pophale) SiO2 
 PCOD9347904
Probable space group: P N N 2
;
_chemical_formula_sum "Si O2"
_cell_formula_units_Z 20
_cell_length_a 23.243303
_cell_length_b 4.882825
_cell_length_c 8.283565
_cell_angle_alpha 90.000000
_cell_angle_beta 90.000000
_cell_angle_gamma 90.000000
_cell_volume 940.126485
_symmetry_space_group_name_H-M "P N N 2"
_symmetry_group_IT_number 34
_symmetry_cell_setting 'orthorhombic'
loop_
_space_group_symop_operation_xyz
x,y,z
-x,-y,z
1/2-x,1/2+y,1/2+z
1/2+x,1/2-y,1/2+z
loop_
_atom_site_type_symbol
_atom_site_label
_atom_site_fract_x
_atom_site_fract_y
_atom_site_fract_z
Si Si1 0.462122 0.760212 0.962060
Si Si2 0.868907 0.626089 0.224584
Si Si3 0.646359 0.450858 0.165574
Si Si4 0.657540 0.620611 0.519722
Si Si5 0.708400 0.977047 0.027785
O O1 0.500000 0.500000 0.912730
O O2 0.429286 0.911841 0.815313
O O3 0.500000 0.000000 0.042991
O O4 0.411604 0.635629 0.073600
O O5 0.853509 0.427625 0.077617
O O6 0.820525 0.575743 0.360809
O O7 0.869610 0.932232 0.158175
O O8 0.633712 0.562669 0.342543
O O9 0.684758 0.177195 0.167529
O O10 0.684033 0.677095 0.068966
O O11 0.724074 0.525987 0.516500
#
# Coordination Sequence:
#
# PCOD9347904 Si02
#       5
#     4   4   4   4   4
#     4  11  23  45  68  84 114 167 219 265 310 366
#     4  11  24  39  63  94 123 163 211 248 303 374
#     4  11  24  39  63  94 123 163 211 248 303 376
#     4  12  22  38  61  97 134 157 193 260 308 361
#     4  11  21  39  61  91 132 174 196 229 304 391
#
# _framework density 21.273734999999999
#
# number of rings (size 3 to 8) (size 9 to 14) (size 15 to 20)
#    0.000    0.800    0.000   10.800    0.000    0.000 
#    0.000    4.000    0.000    2.400    0.000    0.000 
#    0.000    0.000    0.000    0.000    0.000    0.000 
#
# Total GULP energy -111834.291026 kJ/mol
# GULP energy per Si atom -5591.714551 kJ/mol
# Density = 2.122532 g / cm^3
# Si number density = 21.273735 Si / 1000 Ang^3
#
#
#
# Elastic Constant Matrix: (Units=GPa)
#
#
# Indices 1 2 3 4 5 6 
#
# 1 101.9356 27.5047 25.4397 0.0000 0.0000 0.0000
# 2 27.5047 90.1952 -0.7235 0.0000 0.0000 0.0000
# 3 25.4397 -0.7235 73.9453 0.0000 0.0000 0.0000
# 4 0.0000 0.0000 0.0000 38.3899 0.0000 0.0000
# 5 0.0000 0.0000 0.0000 0.0000 4.4820 0.0000
# 6 0.0000 0.0000 0.0000 0.0000 0.0000 42.5461
#
#
#
# Elastic Compliance Matrix: (Units=1/GPa)
#
#
# Indices 1 2 3 4 5 6 
#
# 1 0.011814 -0.003636 -0.004100 0.000000 0.000000 0.000000
# 2 -0.003636 0.012207 0.001370 0.000000 0.000000 0.000000
# 3 -0.004100 0.001370 0.014948 0.000000 0.000000 0.000000
# 4 0.000000 0.000000 0.000000 0.026049 0.000000 0.000000
# 5 0.000000 0.000000 0.000000 0.000000 0.223117 0.000000
# 6 0.000000 0.000000 0.000000 0.000000 0.000000 0.023504
#
#
# Mechanical properties :
#
#
# Convention : Reuss Voigt Hill
#
# Bulk Modulus (GPa) = 38.11338 41.16868 39.64103
# Shear Modulus (GPa) = 15.00983 31.34060 23.17521
#
# Velocity S-wave (km/s) = 2.65911 3.84240 3.30416
# Velocity P-wave (km/s) = 5.23282 6.25134 5.76462
#
# Compressibility (1/GPa) = 0.02623750
#
# Stress axis : x y z
#
# Youngs Moduli (GPa) = 84.64281 81.92205 66.90078
#
# Poissons Ratio (x) = 0.29784 0.27430
# Poissons Ratio (y) = 0.30773 -0.09167
# Poissons Ratio (z) = 0.34705 -0.11225
#
# Static dielectric constant tensor:
#      x y z
#    x 1.804760 0.000000 0.000000 
#    y 0.000000 1.771150 0.000000 
#    z 0.000000 0.000000 1.764960 
# 
# From -- ./inp_files/4038.got.cif
#   From: 2010.05.17/outbox.cif.g08.bks.cpg/sg34_3_cif.got.tgz:4038.got - 2010.06.03 17:23:11.
