data_PCOD9347524
_publ_section_title
;
Structure prediction by ZEFSAII (Michael W. Deem and Ramdas Pophale) SiO2 
 PCOD9347524
Probable space group: P N N 2
;
_chemical_formula_sum "Si O2"
_cell_formula_units_Z 32
_cell_length_a 14.996701
_cell_length_b 7.357061
_cell_length_c 11.834756
_cell_angle_alpha 90.000000
_cell_angle_beta 90.000000
_cell_angle_gamma 90.000000
_cell_volume 1305.748086
_symmetry_space_group_name_H-M "P N N 2"
_symmetry_group_IT_number 34
_symmetry_cell_setting 'orthorhombic'
loop_
_space_group_symop_operation_xyz
x,y,z
-x,-y,z
1/2-x,1/2+y,1/2+z
1/2+x,1/2-y,1/2+z
loop_
_atom_site_type_symbol
_atom_site_label
_atom_site_fract_x
_atom_site_fract_y
_atom_site_fract_z
Si Si1 0.660493 0.821571 0.813600
Si Si2 0.423846 0.146499 0.254011
Si Si3 0.220345 0.093658 0.256928
Si Si4 0.540338 0.758993 0.004000
Si Si5 0.860017 0.873026 0.474024
Si Si6 0.164638 0.669848 0.060224
Si Si7 0.497439 0.700298 0.452521
Si Si8 0.808259 0.897944 0.001672
O O1 0.686400 0.612721 0.777737
O O2 0.570239 0.842533 0.885250
O O3 0.657055 0.899957 0.688605
O O4 0.734814 0.882089 0.904041
O O5 0.323866 0.102825 0.291286
O O6 0.460722 0.315505 0.326521
O O7 0.500000 0.000000 0.280306
O O8 0.420191 0.168359 0.120081
O O9 0.158380 0.194977 0.346906
O O10 0.213069 0.162967 0.129488
O O11 0.586894 0.561661 0.987531
O O12 0.433921 0.760747 0.024895
O O13 0.761667 0.902892 0.522720
O O14 0.178423 0.885920 0.026570
O O15 0.064922 0.656717 0.008785
O O16 0.500000 0.500000 0.510441
O O17 0.391543 0.723141 0.457768
#
# Coordination Sequence:
#
# PCOD9347524 Si02
#       8
#     4   4   4   4   4   4   4   4
#     4  10  21  39  61  89 122 166 212 266 331 393
#     4  12  24  40  66  94 130 169 220 280 339 399
#     4  10  21  40  62  87 124 172 215 270 330 400
#     4  10  24  38  63  90 126 167 215 272 325 396
#     4  10  22  41  60  92 125 168 219 266 325 394
#     4  10  22  39  65  89 126 166 215 267 328 393
#     4  10  23  40  63  94 127 168 220 271 332 401
#     4  10  21  38  62  92 124 165 213 271 329 393
#
# _framework density 24.507024999999999
#
# number of rings (size 3 to 8) (size 9 to 14) (size 15 to 20)
#    0.000    1.750    2.500    0.750    8.750    1.000 
#    0.000    0.000    0.000    0.750    0.000    0.000 
#    0.000    0.000    0.000    0.000    0.000    0.000 
#
# Total GULP energy -178269.475085 kJ/mol
# GULP energy per Si atom -5570.921096 kJ/mol
# Density = 2.445125 g / cm^3
# Si number density = 24.507025 Si / 1000 Ang^3
#
#
#
# Elastic Constant Matrix: (Units=GPa)
#
#
# Indices 1 2 3 4 5 6 
#
# 1 136.7184 32.2191 30.6318 0.0000 0.0000 0.0000
# 2 32.2191 47.4668 23.6048 0.0000 0.0000 0.0000
# 3 30.6318 23.6048 132.0365 0.0000 0.0000 0.0000
# 4 0.0000 0.0000 0.0000 22.6843 0.0000 0.0000
# 5 0.0000 0.0000 0.0000 0.0000 40.1247 0.0000
# 6 0.0000 0.0000 0.0000 0.0000 0.0000 30.1306
#
#
#
# Elastic Compliance Matrix: (Units=1/GPa)
#
#
# Indices 1 2 3 4 5 6 
#
# 1 0.008844 -0.005469 -0.001074 0.000000 0.000000 0.000000
# 2 -0.005469 0.026505 -0.003470 0.000000 0.000000 0.000000
# 3 -0.001074 -0.003470 0.008443 0.000000 0.000000 0.000000
# 4 0.000000 0.000000 0.000000 0.044083 0.000000 0.000000
# 5 0.000000 0.000000 0.000000 0.000000 0.024922 0.000000
# 6 0.000000 0.000000 0.000000 0.000000 0.000000 0.033189
#
#
# Mechanical properties :
#
#
# Convention : Reuss Voigt Hill
#
# Bulk Modulus (GPa) = 42.07558 54.34811 48.21184
# Shear Modulus (GPa) = 28.74667 33.90566 31.32616
#
# Velocity S-wave (km/s) = 3.42862 3.72359 3.57914
# Velocity P-wave (km/s) = 5.73411 6.38056 6.06595
#
# Compressibility (1/GPa) = 0.02376676
#
# Stress axis : x y z
#
# Youngs Moduli (GPa) = 113.07482 37.72900 118.43959
#
# Poissons Ratio (x) = 0.20633 0.12721
# Poissons Ratio (y) = 0.61838 0.41095
# Poissons Ratio (z) = 0.12144 0.13091
#
# Static dielectric constant tensor:
#      x y z
#    x 1.984180 0.000000 0.000000 
#    y 0.000000 2.204380 0.000000 
#    z 0.000000 0.000000 1.965280 
# 
# From -- ./inp_files/5669.got.cif
#   From: 2010.05.17/outbox.cif.g08.bks.cpg/sg34_3_cif.got.tgz:5669.got - 2010.06.03 17:23:11.
