data_PCOD9347920
_publ_section_title
;
Structure prediction by ZEFSAII (Michael W. Deem and Ramdas Pophale) SiO2 
 PCOD9347920
Probable space group: P N N 2
;
_chemical_formula_sum "Si O2"
_cell_formula_units_Z 30
_cell_length_a 13.485504
_cell_length_b 6.244012
_cell_length_c 17.484535
_cell_angle_alpha 90.000000
_cell_angle_beta 90.000000
_cell_angle_gamma 90.000000
_cell_volume 1472.261645
_symmetry_space_group_name_H-M "P N N 2"
_symmetry_group_IT_number 34
_symmetry_cell_setting 'orthorhombic'
loop_
_space_group_symop_operation_xyz
x,y,z
-x,-y,z
1/2-x,1/2+y,1/2+z
1/2+x,1/2-y,1/2+z
loop_
_atom_site_type_symbol
_atom_site_label
_atom_site_fract_x
_atom_site_fract_y
_atom_site_fract_z
Si Si1 0.605681 0.590576 0.830030
Si Si2 0.795672 0.469332 0.414339
Si Si3 0.892071 0.400424 0.182322
Si Si4 0.000000 0.500000 0.455541
Si Si5 0.739000 0.235637 0.064660
Si Si6 0.597251 0.618891 0.055743
Si Si7 0.254135 0.782106 0.776568
Si Si8 0.116174 0.544179 0.677137
O O1 0.500000 0.500000 0.860143
O O2 0.591482 0.740068 0.754688
O O3 0.665435 0.389252 0.801885
O O4 0.674192 0.726884 0.889601
O O5 0.906176 0.573507 0.407886
O O6 0.758568 0.553856 0.497366
O O7 0.728998 0.564312 0.347531
O O8 0.841820 0.295020 0.106689
O O9 0.810862 0.571610 0.213762
O O10 0.000000 0.500000 0.165531
O O11 0.953483 0.306888 0.504206
O O12 0.678181 0.441311 0.031561
O O13 0.671760 0.149837 0.135277
O O14 0.500000 0.500000 0.084916
O O15 0.642317 0.755810 0.123063
O O16 0.162555 0.630751 0.754379
O O17 0.000000 0.500000 0.679789
#
# Coordination Sequence:
#
# PCOD9347920 Si02
#       8
#     4   4   4   2   4   4   4   4
#     4  11  22  40  65  94 139 171 217 280 345 405
#     4  11  25  38  57 100 132 171 216 270 351 406
#     4  11  23  41  67  99 125 178 237 269 332 400
#     4  12  22  36  60  98 130 162 210 266 352 404
#     4  12  24  41  64  96 138 169 218 283 330 405
#     4  12  20  36  63  96 131 163 205 266 338 393
#     4  11  24  40  63  94 133 172 213 277 334 399
#     4  12  22  40  64  98 125 172 221 262 334 398
#
# _framework density 20.376812999999999
#
# number of rings (size 3 to 8) (size 9 to 14) (size 15 to 20)
#    0.000    0.533    8.667    0.800    3.733    0.533 
#    0.000    0.667    0.000    0.000    6.933    0.000 
#    0.000    0.000    0.000    0.000    0.000    0.000 
#
# Total GULP energy -167066.271105 kJ/mol
# GULP energy per Si atom -5568.875704 kJ/mol
# Density = 2.033043 g / cm^3
# Si number density = 20.376813 Si / 1000 Ang^3
#
#
#
# Elastic Constant Matrix: (Units=GPa)
#
#
# Indices 1 2 3 4 5 6 
#
# 1 64.5264 28.3820 29.0399 0.0000 0.0000 0.0000
# 2 28.3820 101.0929 35.9079 0.0000 0.0000 0.0000
# 3 29.0399 35.9079 73.0833 0.0000 0.0000 0.0000
# 4 0.0000 0.0000 0.0000 20.4507 0.0000 0.0000
# 5 0.0000 0.0000 0.0000 0.0000 30.6887 0.0000
# 6 0.0000 0.0000 0.0000 0.0000 0.0000 33.3992
#
#
#
# Elastic Compliance Matrix: (Units=1/GPa)
#
#
# Indices 1 2 3 4 5 6 
#
# 1 0.019763 -0.003342 -0.006211 0.000000 0.000000 0.000000
# 2 -0.003342 0.012548 -0.004837 0.000000 0.000000 0.000000
# 3 -0.006211 -0.004837 0.018527 0.000000 0.000000 0.000000
# 4 0.000000 0.000000 0.000000 0.048898 0.000000 0.000000
# 5 0.000000 0.000000 0.000000 0.000000 0.032585 0.000000
# 6 0.000000 0.000000 0.000000 0.000000 0.000000 0.029941
#
#
# Mechanical properties :
#
#
# Convention : Reuss Voigt Hill
#
# Bulk Modulus (GPa) = 45.33476 47.26249 46.29863
# Shear Modulus (GPa) = 25.20210 26.59924 25.90067
#
# Velocity S-wave (km/s) = 3.52064 3.61691 3.56910
# Velocity P-wave (km/s) = 6.23081 6.37866 6.30517
#
# Compressibility (1/GPa) = 0.02205813
#
# Stress axis : x y z
#
# Youngs Moduli (GPa) = 50.60027 79.69085 53.97383
#
# Poissons Ratio (x) = 0.26636 0.33521
# Poissons Ratio (y) = 0.16913 0.26109
# Poissons Ratio (z) = 0.31426 0.38549
#
# Static dielectric constant tensor:
#      x y z
#    x 1.732390 0.000000 0.000000 
#    y 0.000000 1.810230 0.000000 
#    z 0.000000 0.000000 1.860200 
# 
# From -- ./inp_files/8151.got.cif
#   From: 2010.05.17/outbox.cif.g08.bks.cpg/sg34_5_cif.got.tgz:8151.got - 2010.06.03 17:23:11.
