data_PCOD9347681
_publ_section_title
;
Structure prediction by ZEFSAII (Michael W. Deem and Ramdas Pophale) SiO2 
 PCOD9347681
Probable space group: P N N 2
;
_chemical_formula_sum "Si O2"
_cell_formula_units_Z 14
_cell_length_a 6.771160
_cell_length_b 12.072157
_cell_length_c 7.456561
_cell_angle_alpha 90.000000
_cell_angle_beta 90.000000
_cell_angle_gamma 90.000000
_cell_volume 609.517987
_symmetry_space_group_name_H-M "P N N 2"
_symmetry_group_IT_number 34
_symmetry_cell_setting 'orthorhombic'
loop_
_space_group_symop_operation_xyz
x,y,z
-x,-y,z
1/2-x,1/2+y,1/2+z
1/2+x,1/2-y,1/2+z
loop_
_atom_site_type_symbol
_atom_site_label
_atom_site_fract_x
_atom_site_fract_y
_atom_site_fract_z
Si Si1 0.061560 0.716940 0.422810
Si Si2 0.904033 0.881218 0.144525
Si Si3 0.169032 0.091356 0.523525
Si Si4 0.500000 0.000000 0.780607
O O1 0.274604 0.678245 0.493252
O O2 0.935001 0.605266 0.395223
O O3 0.052250 0.793726 0.242627
O O4 0.946974 0.795343 0.561798
O O5 0.240371 0.097513 0.316666
O O6 0.000000 0.000000 0.094164
O O7 0.333545 0.052783 0.657580
O O8 0.000000 0.000000 0.522393
#
# Coordination Sequence:
#
# PCOD9347681 Si02
#       4
#     4   4   4   2
#     4  10  22  42  66 108 139 190 241 307 364 443
#     4   9  21  43  72 102 142 191 249 300 373 441
#     4   9  22  45  64  98 144 181 241 307 365 428
#     4  12  24  40  72 102 140 192 244 306 362 444
#
# _framework density 22.968969999999999
#
# number of rings (size 3 to 8) (size 9 to 14) (size 15 to 20)
#    1.714    0.571    0.000    1.714    0.000    4.571 
#   10.286    0.000    0.000    0.000    0.000    0.000 
#    0.000    0.000    0.000    0.000    0.000    0.000 
#
# Total GULP energy -77979.501039 kJ/mol
# GULP energy per Si atom -5569.964360 kJ/mol
# Density = 2.291669 g / cm^3
# Si number density = 22.968970 Si / 1000 Ang^3
#
#
#
# Elastic Constant Matrix: (Units=GPa)
#
#
# Indices 1 2 3 4 5 6 
#
# 1 80.4794 73.5497 60.4460 0.0000 0.0000 0.0000
# 2 73.5497 232.0584 60.6215 0.0000 0.0000 0.0000
# 3 60.4460 60.6215 84.0374 0.0000 0.0000 0.0000
# 4 0.0000 0.0000 0.0000 28.8231 0.0000 0.0000
# 5 0.0000 0.0000 0.0000 0.0000 34.1432 0.0000
# 6 0.0000 0.0000 0.0000 0.0000 0.0000 36.8891
#
#
#
# Elastic Compliance Matrix: (Units=1/GPa)
#
#
# Indices 1 2 3 4 5 6 
#
# 1 0.031017 -0.004932 -0.018752 0.000000 0.000000 0.000000
# 2 -0.004932 0.006094 -0.000849 0.000000 0.000000 0.000000
# 3 -0.018752 -0.000849 0.025999 0.000000 0.000000 0.000000
# 4 0.000000 0.000000 0.000000 0.034694 0.000000 0.000000
# 5 0.000000 0.000000 0.000000 0.000000 0.029288 0.000000
# 6 0.000000 0.000000 0.000000 0.000000 0.000000 0.027108
#
#
# Mechanical properties :
#
#
# Convention : Reuss Voigt Hill
#
# Bulk Modulus (GPa) = 71.19784 87.31218 79.25501
# Shear Modulus (GPa) = 24.04440 33.43495 28.73967
#
# Velocity S-wave (km/s) = 3.23897 3.81945 3.54112
# Velocity P-wave (km/s) = 6.71212 7.58594 7.16237
#
# Compressibility (1/GPa) = 0.01404537
#
# Stress axis : x y z
#
# Youngs Moduli (GPa) = 32.24037 164.09258 38.46236
#
# Poissons Ratio (x) = 0.80931 0.72125
# Poissons Ratio (y) = 0.15901 0.03264
# Poissons Ratio (z) = 0.60457 0.13925
#
# Static dielectric constant tensor:
#      x y z
#    x 1.849500 0.000000 0.000000 
#    y 0.000000 1.901790 0.000000 
#    z 0.000000 0.000000 2.059600 
# 
# From -- ./inp_files/1941.got.cif
#   From: 2010.05.17/outbox.cif.g08.bks.cpg/sg34_1_cif.got.tgz:1941.got - 2010.06.03 17:23:11.
