data_PCOD9347447
_publ_section_title
;
Structure prediction by ZEFSAII (Michael W. Deem and Ramdas Pophale) SiO2 
 PCOD9347447
Probable space group: P N N 2
;
_chemical_formula_sum "Si O2"
_cell_formula_units_Z 28
_cell_length_a 10.541284
_cell_length_b 9.671466
_cell_length_c 10.381621
_cell_angle_alpha 90.000000
_cell_angle_beta 90.000000
_cell_angle_gamma 90.000000
_cell_volume 1058.402833
_symmetry_space_group_name_H-M "P N N 2"
_symmetry_group_IT_number 34
_symmetry_cell_setting 'orthorhombic'
loop_
_space_group_symop_operation_xyz
x,y,z
-x,-y,z
1/2-x,1/2+y,1/2+z
1/2+x,1/2-y,1/2+z
loop_
_atom_site_type_symbol
_atom_site_label
_atom_site_fract_x
_atom_site_fract_y
_atom_site_fract_z
Si Si1 0.121975 0.812153 0.882430
Si Si2 0.231231 0.547409 0.019918
Si Si3 0.500000 0.000000 0.707110
Si Si4 0.209462 0.651412 0.645954
Si Si5 0.981178 0.801747 0.282584
Si Si6 0.253354 0.882083 0.248015
Si Si7 0.831323 0.867315 0.888375
Si Si8 0.500000 0.500000 0.018061
O O1 0.123180 0.741886 0.740061
O O2 0.975915 0.828275 0.925270
O O3 0.198620 0.704047 0.972817
O O4 0.104530 0.868129 0.214923
O O5 0.301697 0.727332 0.265232
O O6 0.365379 0.507778 0.084885
O O7 0.120525 0.500647 0.113503
O O8 0.501382 0.138812 0.787875
O O9 0.349769 0.667121 0.711407
O O10 0.177311 0.488563 0.655075
O O11 0.233554 0.683298 0.498043
O O12 0.677012 0.532798 0.378307
O O13 0.984833 0.870135 0.422168
O O14 0.270192 0.958862 0.386704
#
# Coordination Sequence:
#
# PCOD9347447 Si02
#       8
#     4   4   2   4   4   4   4   2
#     4  10  23  42  75 106 147 183 253 310 364 466
#     4  10  20  41  63 102 135 184 225 304 364 438
#     4  12  26  34  74 104 130 174 264 290 362 456
#     4  11  22  43  74 100 145 190 241 307 377 440
#     4  11  21  39  67  96 129 181 234 296 351 439
#     4  10  22  40  68  99 143 179 238 301 363 446
#     4  11  25  43  73 108 143 196 245 312 388 448
#     4  10  20  42  72  82 144 188 214 286 390 412
#
# _framework density 26.454957
#
# number of rings (size 3 to 8) (size 9 to 14) (size 15 to 20)
#    0.000    1.429    4.286    2.571    8.000    1.714 
#    0.000    0.000   22.000    0.000    0.000    0.000 
#    0.000    0.000    0.000    0.000    0.000    0.000 
#
# Total GULP energy -156932.045635 kJ/mol
# GULP energy per Si atom -5604.715916 kJ/mol
# Density = 2.639474 g / cm^3
# Si number density = 26.454957 Si / 1000 Ang^3
#
#
#
# Elastic Constant Matrix: (Units=GPa)
#
#
# Indices 1 2 3 4 5 6 
#
# 1 123.9695 19.9676 22.9538 0.0000 0.0000 0.0000
# 2 19.9676 188.5301 43.8858 0.0000 0.0000 0.0000
# 3 22.9538 43.8858 91.6970 0.0000 0.0000 0.0000
# 4 0.0000 0.0000 0.0000 24.4074 0.0000 0.0000
# 5 0.0000 0.0000 0.0000 0.0000 25.0258 0.0000
# 6 0.0000 0.0000 0.0000 0.0000 0.0000 37.5336
#
#
#
# Elastic Compliance Matrix: (Units=1/GPa)
#
#
# Indices 1 2 3 4 5 6 
#
# 1 0.008493 -0.000455 -0.001908 0.000000 0.000000 0.000000
# 2 -0.000455 0.005994 -0.002755 0.000000 0.000000 0.000000
# 3 -0.001908 -0.002755 0.012701 0.000000 0.000000 0.000000
# 4 0.000000 0.000000 0.000000 0.040971 0.000000 0.000000
# 5 0.000000 0.000000 0.000000 0.000000 0.039959 0.000000
# 6 0.000000 0.000000 0.000000 0.000000 0.000000 0.026643
#
#
# Mechanical properties :
#
#
# Convention : Reuss Voigt Hill
#
# Bulk Modulus (GPa) = 58.98935 64.20124 61.59529
# Shear Modulus (GPa) = 33.19006 38.55267 35.87137
#
# Velocity S-wave (km/s) = 3.54586 3.82159 3.68631
# Velocity P-wave (km/s) = 6.25385 6.61767 6.43833
#
# Compressibility (1/GPa) = 0.01695221
#
# Stress axis : x y z
#
# Youngs Moduli (GPa) = 117.74211 166.84414 78.73133
#
# Poissons Ratio (x) = 0.07597 0.15023
# Poissons Ratio (y) = 0.05362 0.21687
# Poissons Ratio (z) = 0.22466 0.45958
#
# Static dielectric constant tensor:
#      x y z
#    x 2.083540 0.000000 0.000000 
#    y 0.000000 2.078660 0.000000 
#    z 0.000000 0.000000 2.066130 
# 
# From -- ./inp_files/3441.got.cif
#   From: 2010.05.17/outbox.cif.g08.bks.cpg/sg34_2_cif.got.tgz:3441.got - 2010.06.03 17:23:11.
