data_PCOD9347953
_publ_section_title
;
Structure prediction by ZEFSAII (Michael W. Deem and Ramdas Pophale) SiO2 
 PCOD9347953
Probable space group: P N N 2
;
_chemical_formula_sum "Si O2"
_cell_formula_units_Z 24
_cell_length_a 11.419237
_cell_length_b 11.264309
_cell_length_c 7.314630
_cell_angle_alpha 90.000000
_cell_angle_beta 90.000000
_cell_angle_gamma 90.000000
_cell_volume 940.879497
_symmetry_space_group_name_H-M "P N N 2"
_symmetry_group_IT_number 34
_symmetry_cell_setting 'orthorhombic'
loop_
_space_group_symop_operation_xyz
x,y,z
-x,-y,z
1/2-x,1/2+y,1/2+z
1/2+x,1/2-y,1/2+z
loop_
_atom_site_type_symbol
_atom_site_label
_atom_site_fract_x
_atom_site_fract_y
_atom_site_fract_z
Si Si1 0.500000 0.500000 0.286580
Si Si2 0.827351 0.324155 0.440648
Si Si3 0.344500 0.794636 0.871983
Si Si4 0.000000 0.500000 0.557100
Si Si5 0.297289 0.426511 0.055496
Si Si6 0.444073 0.709489 0.524029
Si Si7 0.353780 0.127466 0.524643
O O1 0.391653 0.511155 0.149449
O O2 0.518537 0.609053 0.423260
O O3 0.887966 0.407467 0.593825
O O4 0.857941 0.184499 0.457321
O O5 0.686574 0.315888 0.452154
O O6 0.861722 0.379236 0.245865
O O7 0.272590 0.865806 0.719801
O O8 0.424829 0.710425 0.742483
O O9 0.246815 0.724172 0.983893
O O10 0.420692 0.890272 0.979260
O O11 0.200762 0.504793 0.952946
O O12 0.516229 0.828715 0.472088
#
# Coordination Sequence:
#
# PCOD9347953 Si02
#       7
#     2   4   4   2   4   4   4
#     4  12  22  44  72 100 160 196 258 332 384 466
#     4  11  26  45  75 108 142 202 255 311 397 452
#     4  11  23  44  74 101 145 194 249 309 392 450
#     4  12  22  48  70 104 142 196 244 322 370 468
#     4  11  25  45  71 107 146 198 256 316 387 463
#     4  11  24  44  73 108 148 201 251 312 392 462
#     4  12  24  47  73 109 150 201 251 325 382 470
#
# _framework density 25.508050999999998
#
# number of rings (size 3 to 8) (size 9 to 14) (size 15 to 20)
#    0.000    0.667    6.667    0.000    2.333    3.333 
#    3.000    0.000    0.000    1.000    0.000    0.000 
#    0.000    0.000    0.000    0.000    0.000    0.000 
#
# Total GULP energy -133737.307862 kJ/mol
# GULP energy per Si atom -5572.387828 kJ/mol
# Density = 2.544999 g / cm^3
# Si number density = 25.508051 Si / 1000 Ang^3
#
#
#
# Elastic Constant Matrix: (Units=GPa)
#
#
# Indices 1 2 3 4 5 6 
#
# 1 150.6055 46.9687 25.7480 0.0000 0.0000 0.0000
# 2 46.9687 119.3349 11.9227 0.0000 0.0000 0.0000
# 3 25.7480 11.9227 36.9030 0.0000 0.0000 0.0000
# 4 0.0000 0.0000 0.0000 39.9667 0.0000 0.0000
# 5 0.0000 0.0000 0.0000 0.0000 -0.2922 0.0000
# 6 0.0000 0.0000 0.0000 0.0000 0.0000 60.1281
#
#
#
# Elastic Compliance Matrix: (Units=1/GPa)
#
#
# Indices 1 2 3 4 5 6 
#
# 1 0.008354 -0.002796 -0.004925 0.000000 0.000000 0.000000
# 2 -0.002796 0.009595 -0.001149 0.000000 0.000000 0.000000
# 3 -0.004925 -0.001149 0.030906 0.000000 0.000000 0.000000
# 4 0.000000 0.000000 0.000000 0.025021 0.000000 0.000000
# 5 0.000000 0.000000 0.000000 0.000000 -3.422644 0.000000
# 6 0.000000 0.000000 0.000000 0.000000 0.000000 0.016631
#
#
# Mechanical properties :
#
#
# Convention : Reuss Voigt Hill
#
# Bulk Modulus (GPa) = 32.14007 52.90246 42.52126
# Shear Modulus (GPa) = -1.51331 34.77412 16.63041
#
# Velocity S-wave (km/s) = -0.77107 3.69624 2.55613
# Velocity P-wave (km/s) = 3.44014 6.24506 5.04160
#
# Compressibility (1/GPa) = 0.03111381
#
# Stress axis : x y z
#
# Youngs Moduli (GPa) = 119.70515 104.22067 32.35629
#
# Poissons Ratio (x) = 0.29139 0.15937
# Poissons Ratio (y) = 0.33468 0.03719
# Poissons Ratio (z) = 0.58959 0.11977
#
# Static dielectric constant tensor:
#      x y z
#    x 2.124910 0.000000 0.000000 
#    y 0.000000 2.122600 0.000000 
#    z 0.000000 0.000000 2.051390 
# 
# From -- ./inp_files/3184.got.cif
#   From: 2010.05.17/outbox.cif.g08.bks.cpg/sg34_2_cif.got.tgz:3184.got - 2010.06.03 17:23:11.
