data_PCOD9347031
_publ_section_title
;
Structure prediction by ZEFSAII (Michael W. Deem and Ramdas Pophale) SiO2 
 PCOD9347031
Probable space group: P N A 21
;
_chemical_formula_sum "Si O2"
_cell_formula_units_Z 20
_cell_length_a 11.741418
_cell_length_b 13.374000
_cell_length_c 4.965356
_cell_angle_alpha 90.000000
_cell_angle_beta 90.000000
_cell_angle_gamma 90.000000
_cell_volume 779.708484
_symmetry_space_group_name_H-M "P N A 21"
_symmetry_group_IT_number 33
_symmetry_cell_setting 'orthorhombic'
loop_
_space_group_symop_operation_xyz
x,y,z
-x,-y,1/2+z
1/2-x,1/2+y,1/2+z
1/2+x,1/2-y,z
loop_
_atom_site_type_symbol
_atom_site_label
_atom_site_fract_x
_atom_site_fract_y
_atom_site_fract_z
Si Si1 0.453162 0.279024 0.059490
Si Si2 0.286689 0.207390 0.665646
Si Si3 0.460299 0.941384 0.633013
Si Si4 0.318185 0.598130 0.660192
Si Si5 0.233972 0.893345 0.919839
O O1 0.491230 0.170081 0.161593
O O2 0.558704 0.353012 0.108384
O O3 0.351141 0.330621 0.227869
O O4 0.409325 0.256156 0.753100
O O5 0.214272 0.307735 0.612670
O O6 0.244562 0.132717 0.432143
O O7 0.257693 0.148646 0.932125
O O8 0.473820 0.983854 0.333831
O O9 0.331664 0.938368 0.735012
O O10 0.321319 0.480513 0.598158
#
# Coordination Sequence:
#
# PCOD9347031 Si02
#       5
#     4   4   4   4   4
#     4  12  29  54  86 125 168 227 284 357 426 523
#     4  12  28  53  79 120 168 218 280 353 415 525
#     4  12  31  52  85 120 166 222 276 344 431 508
#     4  12  31  52  85 121 173 221 286 352 436 503
#     4  12  31  53  85 122 167 216 286 346 428 509
#
# _framework density 25.650608999999999
#
# number of rings (size 3 to 8) (size 9 to 14) (size 15 to 20)
#    0.000    0.000    4.000    1.200   19.600    0.000 
#    0.000    0.000    0.000    0.000    0.000    0.000 
#    0.000    0.000    0.000    0.000    0.000    0.000 
#
# Total GULP energy -112019.266315 kJ/mol
# GULP energy per Si atom -5600.963316 kJ/mol
# Density = 2.559223 g / cm^3
# Si number density = 25.650609 Si / 1000 Ang^3
#
#
#
# Elastic Constant Matrix: (Units=GPa)
#
#
# Indices 1 2 3 4 5 6 
#
# 1 103.1389 35.9809 23.8142 0.0000 0.0000 0.0000
# 2 35.9809 194.7962 37.6321 0.0000 0.0000 0.0000
# 3 23.8142 37.6321 151.6577 0.0000 0.0000 0.0000
# 4 0.0000 0.0000 0.0000 51.8971 0.0000 0.0000
# 5 0.0000 0.0000 0.0000 0.0000 28.6240 0.0000
# 6 0.0000 0.0000 0.0000 0.0000 0.0000 44.5362
#
#
#
# Elastic Compliance Matrix: (Units=1/GPa)
#
#
# Indices 1 2 3 4 5 6 
#
# 1 0.010579 -0.001715 -0.001236 0.000000 0.000000 0.000000
# 2 -0.001715 0.005670 -0.001138 0.000000 0.000000 0.000000
# 3 -0.001236 -0.001138 0.007070 0.000000 0.000000 0.000000
# 4 0.000000 0.000000 0.000000 0.019269 0.000000 0.000000
# 5 0.000000 0.000000 0.000000 0.000000 0.034936 0.000000
# 6 0.000000 0.000000 0.000000 0.000000 0.000000 0.022454
#
#
# Mechanical properties :
#
#
# Convention : Reuss Voigt Hill
#
# Bulk Modulus (GPa) = 66.03961 71.60527 68.82244
# Shear Modulus (GPa) = 44.16855 48.48915 46.32885
#
# Velocity S-wave (km/s) = 4.15412 4.35256 4.25449
# Velocity P-wave (km/s) = 6.98646 7.29629 7.14306
#
# Compressibility (1/GPa) = 0.01514243
#
# Stress axis : x y z
#
# Youngs Moduli (GPa) = 94.52341 176.36050 141.44063
#
# Poissons Ratio (x) = 0.30253 0.17476
# Poissons Ratio (y) = 0.16215 0.16091
# Poissons Ratio (z) = 0.11679 0.20063
#
# Static dielectric constant tensor:
#      x y z
#    x 2.088740 0.000000 0.000000 
#    y 0.000000 2.063490 0.000000 
#    z 0.000000 0.000000 2.061750 
# 
# From -- ./inp_files/1299.got.cif
#   From: 2010.05.17/outbox.cif.g08.bks.cpg/sg33_1_cif.got.tgz:1299.got - 2010.06.03 17:15:25.
