data_PCOD9347037
_publ_section_title
;
Structure prediction by ZEFSAII (Michael W. Deem and Ramdas Pophale) SiO2 
 PCOD9347037
Probable space group: P N A 21
;
_chemical_formula_sum "Si O2"
_cell_formula_units_Z 20
_cell_length_a 7.485293
_cell_length_b 11.415324
_cell_length_c 8.090741
_cell_angle_alpha 90.000000
_cell_angle_beta 90.000000
_cell_angle_gamma 90.000000
_cell_volume 691.329909
_symmetry_space_group_name_H-M "P N A 21"
_symmetry_group_IT_number 33
_symmetry_cell_setting 'orthorhombic'
loop_
_space_group_symop_operation_xyz
x,y,z
-x,-y,1/2+z
1/2-x,1/2+y,1/2+z
1/2+x,1/2-y,z
loop_
_atom_site_type_symbol
_atom_site_label
_atom_site_fract_x
_atom_site_fract_y
_atom_site_fract_z
Si Si1 0.282945 0.835084 0.557780
Si Si2 0.575432 0.023754 0.498452
Si Si3 0.071836 0.005437 0.785192
Si Si4 0.659747 0.238324 0.701057
Si Si5 0.259927 0.156011 0.355269
O O1 0.468115 0.905245 0.534147
O O2 0.145538 0.929873 0.630828
O O3 0.247972 0.779199 0.378816
O O4 0.275934 0.737033 0.698522
O O5 0.770817 0.002514 0.422922
O O6 0.577847 0.111585 0.655882
O O7 0.451561 0.095840 0.370988
O O8 0.892411 0.942061 0.841339
O O9 0.053747 0.139616 0.729073
O O10 0.750912 0.268865 0.524589
#
# Coordination Sequence:
#
# PCOD9347037 Si02
#       5
#     4   4   4   4   4
#     4  12  29  54  91 125 171 233 289 359 449 515
#     4  12  29  61  88 128 182 229 293 369 441 525
#     4  12  30  57  87 132 174 233 297 366 439 528
#     4  12  30  53  88 130 170 233 293 357 442 525
#     4  12  30  59  84 131 179 222 300 369 425 539
#
# _framework density 28.929749000000001
#
# number of rings (size 3 to 8) (size 9 to 14) (size 15 to 20)
#    0.000    0.000    4.000    2.400    5.600    3.200 
#    0.000    0.000    0.000    0.000    0.000    0.000 
#    0.000    0.000    0.000    0.000    0.000    0.000 
#
# Total GULP energy -112338.246505 kJ/mol
# GULP energy per Si atom -5616.912325 kJ/mol
# Density = 2.886390 g / cm^3
# Si number density = 28.929749 Si / 1000 Ang^3
#
#
#
# Elastic Constant Matrix: (Units=GPa)
#
#
# Indices 1 2 3 4 5 6 
#
# 1 128.1977 54.3292 52.8032 0.0000 0.0000 0.0000
# 2 54.3292 191.3047 101.8889 0.0000 0.0000 0.0000
# 3 52.8032 101.8889 263.1056 0.0000 0.0000 0.0000
# 4 0.0000 0.0000 0.0000 91.2522 0.0000 0.0000
# 5 0.0000 0.0000 0.0000 0.0000 44.8456 0.0000
# 6 0.0000 0.0000 0.0000 0.0000 0.0000 35.7230
#
#
#
# Elastic Compliance Matrix: (Units=1/GPa)
#
#
# Indices 1 2 3 4 5 6 
#
# 1 0.009088 -0.002028 -0.001039 0.000000 0.000000 0.000000
# 2 -0.002028 0.007038 -0.002319 0.000000 0.000000 0.000000
# 3 -0.001039 -0.002319 0.004907 0.000000 0.000000 0.000000
# 4 0.000000 0.000000 0.000000 0.010959 0.000000 0.000000
# 5 0.000000 0.000000 0.000000 0.000000 0.022299 0.000000
# 6 0.000000 0.000000 0.000000 0.000000 0.000000 0.027993
#
#
# Mechanical properties :
#
#
# Convention : Reuss Voigt Hill
#
# Bulk Modulus (GPa) = 97.43742 111.18339 104.31041
# Shear Modulus (GPa) = 51.82765 59.26996 55.54881
#
# Velocity S-wave (km/s) = 4.23720 4.53123 4.38668
# Velocity P-wave (km/s) = 7.59555 8.11737 7.86079
#
# Compressibility (1/GPa) = 0.01026300
#
# Stress axis : x y z
#
# Youngs Moduli (GPa) = 110.04093 142.08662 203.78808
#
# Poissons Ratio (x) = 0.28810 0.21165
# Poissons Ratio (y) = 0.22312 0.47249
# Poissons Ratio (z) = 0.11429 0.32944
#
# Static dielectric constant tensor:
#      x y z
#    x 2.302980 0.000000 0.000000 
#    y 0.000000 2.206170 0.000000 
#    z 0.000000 0.000000 2.243510 
# 
# From -- ./inp_files/3045.got.cif
#   From: 2010.05.17/outbox.cif.g08.bks.cpg/sg33_2_cif.got.tgz:3045.got - 2010.06.03 17:15:25.
