data_PCOD9347928
_publ_section_title
;
Structure prediction by ZEFSAII (Michael W. Deem and Ramdas Pophale) SiO2 
 PCOD9347928
Probable space group: P N N 2
;
_chemical_formula_sum "Si O2"
_cell_formula_units_Z 18
_cell_length_a 11.607414
_cell_length_b 5.013592
_cell_length_c 11.745241
_cell_angle_alpha 90.000000
_cell_angle_beta 90.000000
_cell_angle_gamma 90.000000
_cell_volume 683.512397
_symmetry_space_group_name_H-M "P N N 2"
_symmetry_group_IT_number 34
_symmetry_cell_setting 'orthorhombic'
loop_
_space_group_symop_operation_xyz
x,y,z
-x,-y,z
1/2-x,1/2+y,1/2+z
1/2+x,1/2-y,1/2+z
loop_
_atom_site_type_symbol
_atom_site_label
_atom_site_fract_x
_atom_site_fract_y
_atom_site_fract_z
Si Si1 0.815608 0.996191 0.492890
Si Si2 0.575554 0.248943 0.518133
Si Si3 0.161753 0.292307 0.269545
Si Si4 0.500000 0.500000 0.159710
Si Si5 0.708563 0.198943 0.213967
O O1 0.704960 0.184642 0.474531
O O2 0.911627 0.138635 0.570682
O O3 0.873422 0.840289 0.388056
O O4 0.770103 0.764776 0.579996
O O5 0.500000 0.500000 0.483384
O O6 0.585913 0.252068 0.657323
O O7 0.500000 0.000000 0.484129
O O8 0.199424 0.599377 0.272287
O O9 0.272346 0.103973 0.244801
O O10 0.579919 0.305007 0.231187
#
# Coordination Sequence:
#
# PCOD9347928 Si02
#       5
#     4   4   4   2   4
#     4   9  22  45  65  99 127 174 220 270 324 389
#     4  11  24  44  66  95 137 174 213 272 326 393
#     4  11  22  43  69  92 132 168 223 260 330 388
#     4   8  20  48  64  96 130 174 214 294 302 396
#     4   9  22  41  65  95 129 164 213 274 317 379
#
# _framework density 26.334565000000001
#
# number of rings (size 3 to 8) (size 9 to 14) (size 15 to 20)
#    1.333    0.889    0.000    2.667    1.556    6.222 
#    6.000    0.000    0.000    0.000    0.000    0.000 
#    0.000    0.000    0.000    0.000    0.000    0.000 
#
# Total GULP energy -100511.527199 kJ/mol
# GULP energy per Si atom -5583.973733 kJ/mol
# Density = 2.627463 g / cm^3
# Si number density = 26.334565 Si / 1000 Ang^3
#
#
#
# Elastic Constant Matrix: (Units=GPa)
#
#
# Indices 1 2 3 4 5 6 
#
# 1 103.5127 24.8618 -16.4862 0.0000 0.0000 0.0000
# 2 24.8618 100.2293 9.8790 0.0000 0.0000 0.0000
# 3 -16.4862 9.8790 89.0200 0.0000 0.0000 0.0000
# 4 0.0000 0.0000 0.0000 94.7017 0.0000 0.0000
# 5 0.0000 0.0000 0.0000 0.0000 26.6366 0.0000
# 6 0.0000 0.0000 0.0000 0.0000 0.0000 25.7736
#
#
#
# Elastic Compliance Matrix: (Units=1/GPa)
#
#
# Indices 1 2 3 4 5 6 
#
# 1 0.010721 -0.002887 0.002306 0.000000 0.000000 0.000000
# 2 -0.002887 0.010865 -0.001740 0.000000 0.000000 0.000000
# 3 0.002306 -0.001740 0.011854 0.000000 0.000000 0.000000
# 4 0.000000 0.000000 0.000000 0.010559 0.000000 0.000000
# 5 0.000000 0.000000 0.000000 0.000000 0.037542 0.000000
# 6 0.000000 0.000000 0.000000 0.000000 0.000000 0.038799
#
#
# Mechanical properties :
#
#
# Convention : Reuss Voigt Hill
#
# Bulk Modulus (GPa) = 34.72546 36.58570 35.65558
# Shear Modulus (GPa) = 37.15207 47.72287 42.43747
#
# Velocity S-wave (km/s) = 3.76010 4.26158 4.01867
# Velocity P-wave (km/s) = 5.66269 6.17557 5.92468
#
# Compressibility (1/GPa) = 0.02879732
#
# Stress axis : x y z
#
# Youngs Moduli (GPa) = 93.27294 92.04124 84.36255
#
# Poissons Ratio (x) = 0.26569 -0.19453
# Poissons Ratio (y) = 0.26925 0.14682
# Poissons Ratio (z) = -0.21508 0.16018
#
# Static dielectric constant tensor:
#      x y z
#    x 2.013040 0.000000 0.000000 
#    y 0.000000 1.869490 0.000000 
#    z 0.000000 0.000000 2.203840 
# 
# From -- ./inp_files/6665.got.cif
#   From: 2010.05.17/outbox.cif.g08.bks.cpg/sg34_4_cif.got.tgz:6665.got - 2010.06.03 17:23:11.
