data_PCOD9347107
_publ_section_title
;
Structure prediction by ZEFSAII (Michael W. Deem and Ramdas Pophale) SiO2 
 PCOD9347107
Probable space group: P N N 2
;
_chemical_formula_sum "Si O2"
_cell_formula_units_Z 32
_cell_length_a 5.600317
_cell_length_b 13.094549
_cell_length_c 16.291526
_cell_angle_alpha 90.000000
_cell_angle_beta 90.000000
_cell_angle_gamma 90.000000
_cell_volume 1194.716664
_symmetry_space_group_name_H-M "P N N 2"
_symmetry_group_IT_number 34
_symmetry_cell_setting 'orthorhombic'
loop_
_space_group_symop_operation_xyz
x,y,z
-x,-y,z
1/2-x,1/2+y,1/2+z
1/2+x,1/2-y,1/2+z
loop_
_atom_site_type_symbol
_atom_site_label
_atom_site_fract_x
_atom_site_fract_y
_atom_site_fract_z
Si Si1 0.750000 0.099608 0.694940
Si Si2 0.250000 0.402940 0.552859
Si Si3 0.250000 0.146643 0.689016
Si Si4 0.250000 0.634619 0.613517
Si Si5 0.750000 0.514253 0.945265
Si Si6 0.250000 0.056952 0.274500
Si Si7 0.250000 0.839544 0.884898
Si Si8 0.250000 0.763003 0.363133
O O1 0.516661 0.148594 0.652984
O O2 0.750000 0.126946 0.791198
O O3 0.983339 0.148594 0.652984
O O4 0.750000 0.976929 0.703781
O O5 0.250000 0.509920 0.600186
O O6 0.490905 0.342491 0.575883
O O7 0.250000 0.424726 0.455809
O O8 0.009095 0.342491 0.575883
O O9 0.250000 0.226016 0.766735
O O10 0.250000 0.650314 0.711831
O O11 0.500000 0.500000 0.991217
O O12 0.750000 0.429441 0.872255
O O13 0.750000 0.619162 0.892310
O O14 0.000000 0.500000 0.991217
O O15 0.500000 0.000000 0.258208
O O16 0.000000 0.000000 0.258208
O O17 0.501726 0.782089 0.896348
O O18 0.998274 0.782089 0.896348
#
# Coordination Sequence:
#
# PCOD9347107 Si02
#       8
#     4   4   4   4   4   4   4   4
#     4   8  14  23  34  52  73 111 148 168 187 245
#     4  10  18  25  39  61  87 126 148 178 216 265
#     4   8  14  22  36  50  74 102 137 175 211 239
#     4  10  17  27  40  61  93 116 158 192 208 263
#     4  10  21  33  52  67  80 111 170 209 250 281
#     4  10  16  30  46  64  84 113 147 211 240 265
#     4  10  19  28  41  59  91 123 155 178 215 269
#     4  10  19  32  42  60  86 114 153 203 231 257
#
# _framework density 26.784594999999999
#
# number of rings (size 3 to 8) (size 9 to 14) (size 15 to 20)
#    0.000    2.500    2.500    1.500    0.000    8.000 
#    0.000    0.000    0.000    0.000    0.000    0.000 
#    0.000    0.000    0.000    0.000   57.000   14.000 
#
# Total GULP energy -178396.715652 kJ/mol
# GULP energy per Si atom -5574.897364 kJ/mol
# Density = 2.672363 g / cm^3
# Si number density = 26.784595 Si / 1000 Ang^3
#
#
#
# Elastic Constant Matrix: (Units=GPa)
#
#
# Indices 1 2 3 4 5 6 
#
# 1 322.1767 25.8681 0.4818 0.0000 0.0000 0.0000
# 2 25.8681 110.6308 21.4390 0.0000 0.0000 0.0000
# 3 0.4818 21.4390 67.5048 0.0000 0.0000 0.0000
# 4 0.0000 0.0000 0.0000 4.5175 0.0000 0.0000
# 5 0.0000 0.0000 0.0000 0.0000 -12.8274 0.0000
# 6 0.0000 0.0000 0.0000 0.0000 0.0000 12.5616
#
#
#
# Elastic Compliance Matrix: (Units=1/GPa)
#
#
# Indices 1 2 3 4 5 6 
#
# 1 0.003167 -0.000784 0.000226 0.000000 0.000000 0.000000
# 2 -0.000784 0.009826 -0.003115 0.000000 0.000000 0.000000
# 3 0.000226 -0.003115 0.015801 0.000000 0.000000 0.000000
# 4 0.000000 0.000000 0.000000 0.221360 0.000000 0.000000
# 5 0.000000 0.000000 0.000000 0.000000 -0.077958 0.000000
# 6 0.000000 0.000000 0.000000 0.000000 0.000000 0.079607
#
#
# Mechanical properties :
#
#
# Convention : Reuss Voigt Hill
#
# Bulk Modulus (GPa) = 46.62372 66.21000 56.41686
# Shear Modulus (GPa) = 18.77591 31.01857 24.89724
#
# Velocity S-wave (km/s) = 2.65051 3.40674 3.05214
# Velocity P-wave (km/s) = 5.17799 6.34410 5.79048
#
# Compressibility (1/GPa) = 0.02144831
#
# Stress axis : x y z
#
# Youngs Moduli (GPa) = 315.80401 101.76941 63.28519
#
# Poissons Ratio (x) = 0.07982 -0.01433
# Poissons Ratio (y) = 0.24768 0.19714
# Poissons Ratio (z) = -0.07153 0.31702
#
# Static dielectric constant tensor:
#      x y z
#    x 2.204250 0.000000 0.000000 
#    y 0.000000 2.144060 0.000000 
#    z 0.000000 0.000000 2.026160 
# 
# From -- ./inp_files/8363.got.cif
#   From: 2010.05.17/outbox.cif.g08.bks.cpg/sg34_5_cif.got.tgz:8363.got - 2010.06.03 17:23:11.
