data_PCOD9347852
_publ_section_title
;
Structure prediction by ZEFSAII (Michael W. Deem and Ramdas Pophale) SiO2 
 PCOD9347852
Probable space group: P N N 2
;
_chemical_formula_sum "Si O2"
_cell_formula_units_Z 24
_cell_length_a 11.366309
_cell_length_b 12.388324
_cell_length_c 7.317062
_cell_angle_alpha 90.000000
_cell_angle_beta 90.000000
_cell_angle_gamma 90.000000
_cell_volume 1030.311978
_symmetry_space_group_name_H-M "P N N 2"
_symmetry_group_IT_number 34
_symmetry_cell_setting 'orthorhombic'
loop_
_space_group_symop_operation_xyz
x,y,z
-x,-y,z
1/2-x,1/2+y,1/2+z
1/2+x,1/2-y,1/2+z
loop_
_atom_site_type_symbol
_atom_site_label
_atom_site_fract_x
_atom_site_fract_y
_atom_site_fract_z
Si Si1 0.206667 0.294814 0.367230
Si Si2 0.255951 0.061532 0.334304
Si Si3 0.059238 0.653954 0.277973
Si Si4 0.000000 0.500000 0.947360
Si Si5 0.351943 0.348214 0.999328
Si Si6 0.000000 0.000000 0.697939
Si Si7 0.272450 0.519841 0.444046
O O1 0.242441 0.176026 0.433038
O O2 0.267376 0.308968 0.164914
O O3 0.259393 0.392674 0.482885
O O4 0.067928 0.318227 0.364437
O O5 0.204653 0.078556 0.133686
O O6 0.388389 0.017924 0.319533
O O7 0.194688 0.962995 0.432019
O O8 0.130070 0.762318 0.338186
O O9 0.150920 0.563338 0.354457
O O10 0.016755 0.603110 0.083534
O O11 0.473265 0.389862 0.088195
O O12 0.114841 0.027058 0.816367
#
# Coordination Sequence:
#
# PCOD9347852 Si02
#       7
#     4   4   4   2   4   2   4
#     4  11  24  47  73 109 148 200 251 318 383 458
#     4  12  27  48  73 117 148 200 261 313 393 468
#     4  12  23  48  76 103 159 198 251 324 370 465
#     4  12  26  46  76 108 160 200 260 314 382 462
#     4  11  24  48  73 109 147 195 258 311 391 449
#     4  10  24  50  74 108 154 200 250 324 374 462
#     4  11  25  47  76 113 152 201 255 316 393 453
#
# _framework density 23.293915999999999
#
# number of rings (size 3 to 8) (size 9 to 14) (size 15 to 20)
#    0.000    0.667    5.000    2.000    4.667    2.000 
#    9.000    0.000    0.000    0.000    0.000    0.000 
#    0.000    0.000    0.000    0.000    0.000    0.000 
#
# Total GULP energy -133858.248751 kJ/mol
# GULP energy per Si atom -5577.427031 kJ/mol
# Density = 2.324090 g / cm^3
# Si number density = 23.293916 Si / 1000 Ang^3
#
#
#
# Elastic Constant Matrix: (Units=GPa)
#
#
# Indices 1 2 3 4 5 6 
#
# 1 108.2061 48.5698 2.0427 0.0000 0.0000 0.0000
# 2 48.5698 180.2114 29.5738 0.0000 0.0000 0.0000
# 3 2.0427 29.5738 42.4322 0.0000 0.0000 0.0000
# 4 0.0000 0.0000 0.0000 27.3889 0.0000 0.0000
# 5 0.0000 0.0000 0.0000 0.0000 -57.4685 0.0000
# 6 0.0000 0.0000 0.0000 0.0000 0.0000 27.8025
#
#
#
# Elastic Compliance Matrix: (Units=1/GPa)
#
#
# Indices 1 2 3 4 5 6 
#
# 1 0.010618 -0.003137 0.001675 0.000000 0.000000 0.000000
# 2 -0.003137 0.007192 -0.004862 0.000000 0.000000 0.000000
# 3 0.001675 -0.004862 0.026875 0.000000 0.000000 0.000000
# 4 0.000000 0.000000 0.000000 0.036511 0.000000 0.000000
# 5 0.000000 0.000000 0.000000 0.000000 -0.017401 0.000000
# 6 0.000000 0.000000 0.000000 0.000000 0.000000 0.035968
#
#
# Mechanical properties :
#
#
# Convention : Reuss Voigt Hill
#
# Bulk Modulus (GPa) = 31.21271 54.58026 42.89649
# Shear Modulus (GPa) = 40.62085 16.25546 28.43816
#
# Velocity S-wave (km/s) = 4.18046 2.64454 3.49784
# Velocity P-wave (km/s) = 6.06055 5.72772 5.89648
#
# Compressibility (1/GPa) = 0.03203823
#
# Stress axis : x y z
#
# Youngs Moduli (GPa) = 94.18065 139.03888 37.20950
#
# Poissons Ratio (x) = 0.43610 -0.06232
# Poissons Ratio (y) = 0.29540 0.18090
# Poissons Ratio (z) = -0.15775 0.67597
#
# Static dielectric constant tensor:
#      x y z
#    x 2.112690 0.000000 0.000000 
#    y 0.000000 1.852830 0.000000 
#    z 0.000000 0.000000 1.905390 
# 
# From -- ./inp_files/3187.got.cif
#   From: 2010.05.17/outbox.cif.g08.bks.cpg/sg34_2_cif.got.tgz:3187.got - 2010.06.03 17:23:11.
