data_PCOD9347232
_publ_section_title
;
Structure prediction by ZEFSAII (Michael W. Deem and Ramdas Pophale) SiO2 
 PCOD9347232
Probable space group: P N N 2
;
_chemical_formula_sum "Si O2"
_cell_formula_units_Z 30
_cell_length_a 5.449665
_cell_length_b 11.672533
_cell_length_c 22.906848
_cell_angle_alpha 90.000000
_cell_angle_beta 90.000000
_cell_angle_gamma 90.000000
_cell_volume 1457.136546
_symmetry_space_group_name_H-M "P N N 2"
_symmetry_group_IT_number 34
_symmetry_cell_setting 'orthorhombic'
loop_
_space_group_symop_operation_xyz
x,y,z
-x,-y,z
1/2-x,1/2+y,1/2+z
1/2+x,1/2-y,1/2+z
loop_
_atom_site_type_symbol
_atom_site_label
_atom_site_fract_x
_atom_site_fract_y
_atom_site_fract_z
Si Si1 0.082865 0.807131 0.143940
Si Si2 0.970976 0.364473 0.368094
Si Si3 0.028471 0.861722 0.925586
Si Si4 0.500000 0.500000 0.155654
Si Si5 0.367004 0.122141 0.733087
Si Si6 0.862549 0.135008 0.545669
Si Si7 0.868570 0.314822 0.021262
Si Si8 0.417454 0.116937 0.100411
O O1 0.024138 0.730513 0.199789
O O2 0.110592 0.719023 0.089483
O O3 0.353591 0.863128 0.144602
O O4 0.850347 0.886751 0.129687
O O5 0.744585 0.320382 0.407302
O O6 0.877507 0.353901 0.301623
O O7 0.000000 0.500000 0.379466
O O8 0.250777 0.325839 0.381003
O O9 0.117435 0.802238 0.984876
O O10 0.000000 0.000000 0.929756
O O11 0.384756 0.594070 0.198867
O O12 0.660405 0.570374 0.108069
O O13 0.500000 0.000000 0.724503
O O14 0.619949 0.120347 0.508821
O O15 0.894336 0.271647 0.559583
O O16 0.122418 0.112861 0.515163
O O17 0.500000 0.000000 0.068790
#
# Coordination Sequence:
#
# PCOD9347232 Si02
#       8
#     4   4   4   2   4   4   4   4
#     4  10  21  35  50  85 110 147 197 223 288 358
#     4   9  21  34  52  81 112 151 198 227 289 356
#     4  10  20  36  53  78 113 155 193 238 282 349
#     4  12  22  36  58  84 132 158 186 242 302 362
#     4  11  22  34  59  82 125 161 188 244 296 365
#     4  10  22  34  52  85 112 153 191 228 287 365
#     4  10  19  35  51  74 113 142 191 232 276 334
#     4  10  19  34  50  73 115 144 187 229 273 342
#
# _framework density 20.588322000000002
#
# number of rings (size 3 to 8) (size 9 to 14) (size 15 to 20)
#    0.000    1.867    2.667    2.800    4.667    4.267 
#    0.000    1.333    0.000    0.000    0.000    0.000 
#   40.000    0.000    0.000    0.000    0.000    0.000 
#
# Total GULP energy -167067.269891 kJ/mol
# GULP energy per Si atom -5568.908996 kJ/mol
# Density = 2.054146 g / cm^3
# Si number density = 20.588322 Si / 1000 Ang^3
#
#
#
# Elastic Constant Matrix: (Units=GPa)
#
#
# Indices 1 2 3 4 5 6 
#
# 1 164.4446 21.3490 25.4821 0.0000 0.0000 0.0000
# 2 21.3490 60.1966 8.1240 0.0000 0.0000 0.0000
# 3 25.4821 8.1240 54.3193 0.0000 0.0000 0.0000
# 4 0.0000 0.0000 0.0000 21.7929 0.0000 0.0000
# 5 0.0000 0.0000 0.0000 0.0000 20.3153 0.0000
# 6 0.0000 0.0000 0.0000 0.0000 0.0000 29.1959
#
#
#
# Elastic Compliance Matrix: (Units=1/GPa)
#
#
# Indices 1 2 3 4 5 6 
#
# 1 0.006790 -0.002019 -0.002883 0.000000 0.000000 0.000000
# 2 -0.002019 0.017555 -0.001678 0.000000 0.000000 0.000000
# 3 -0.002883 -0.001678 0.020013 0.000000 0.000000 0.000000
# 4 0.000000 0.000000 0.000000 0.045886 0.000000 0.000000
# 5 0.000000 0.000000 0.000000 0.000000 0.049224 0.000000
# 6 0.000000 0.000000 0.000000 0.000000 0.000000 0.034251
#
#
# Mechanical properties :
#
#
# Convention : Reuss Voigt Hill
#
# Bulk Modulus (GPa) = 32.05464 43.20787 37.63126
# Shear Modulus (GPa) = 25.34466 29.19451 27.26959
#
# Velocity S-wave (km/s) = 3.51240 3.76974 3.64334
# Velocity P-wave (km/s) = 5.66148 6.32298 6.00135
#
# Compressibility (1/GPa) = 0.03119673
#
# Stress axis : x y z
#
# Youngs Moduli (GPa) = 147.27561 56.96457 49.96675
#
# Poissons Ratio (x) = 0.11501 0.14407
# Poissons Ratio (y) = 0.29735 0.08386
# Poissons Ratio (z) = 0.42465 0.09561
#
# Static dielectric constant tensor:
#      x y z
#    x 1.944120 0.000000 0.000000 
#    y 0.000000 1.826120 0.000000 
#    z 0.000000 0.000000 1.686080 
# 
# From -- ./inp_files/7976.got.cif
#   From: 2010.05.17/outbox.cif.g08.bks.cpg/sg34_4_cif.got.tgz:7976.got - 2010.06.03 17:23:11.
