data_PCOD9347060
_publ_section_title
;
Structure prediction by ZEFSAII (Michael W. Deem and Ramdas Pophale) SiO2 
 PCOD9347060
Probable space group: P N A 21
;
_chemical_formula_sum "Si O2"
_cell_formula_units_Z 28
_cell_length_a 24.000000
_cell_length_b 9.000000
_cell_length_c 6.000000
_cell_angle_alpha 90.000000
_cell_angle_beta 90.000000
_cell_angle_gamma 90.000000
_cell_volume 1296.000000
_symmetry_space_group_name_H-M "P N A 21"
_symmetry_group_IT_number 33
_symmetry_cell_setting 'orthorhombic'
loop_
_space_group_symop_operation_xyz
x,y,z
-x,-y,1/2+z
1/2-x,1/2+y,1/2+z
1/2+x,1/2-y,z
loop_
_atom_site_type_symbol
_atom_site_label
_atom_site_fract_x
_atom_site_fract_y
_atom_site_fract_z
Si Si1 0.472999 0.500000 0.746170
Si Si2 0.363926 0.500000 0.246170
Si Si3 0.815807 0.249465 0.532026
Si Si4 0.899592 0.749315 0.569723
Si Si5 0.600408 0.750684 0.422617
Si Si6 0.119562 0.500000 0.746170
Si Si7 0.684193 0.250534 0.460315
O O1 0.500000 0.494245 0.496170
O O2 0.440127 0.659426 0.735123
O O3 0.440126 0.340574 0.757217
O O4 0.331841 0.413089 0.439167
O O5 0.395419 0.630930 0.371051
O O6 0.395419 0.369071 0.121289
O O7 0.331841 0.586912 0.053173
O O8 0.842344 0.269092 0.779263
O O9 0.843161 0.378808 0.378776
O O10 0.750000 0.250000 0.496170
O O11 0.912272 0.595127 0.439723
O O12 0.842344 0.730908 0.713078
O O13 0.587728 0.904872 0.552617
O O14 0.156839 0.378809 0.613565
#
# Coordination Sequence:
#
# PCOD9347060 Si02
#       7
#     4   4   4   4   4   4   4
#     4  12  27  47  88 112 136 190 261 319 392 458
#     4  10  21  38  68  96 146 186 238 291 358 420
#     4  11  24  38  67 100 146 196 242 291 364 443
#     4  11  23  47  69 105 144 187 241 312 364 451
#     4  11  23  47  69 105 144 187 241 312 364 451
#     4  10  26  39  70  98 148 188 229 294 378 422
#     4  11  24  38  67 100 146 196 242 291 364 443
#
# _framework density 21.604938000000001
#
# number of rings (size 3 to 8) (size 9 to 14) (size 15 to 20)
#    0.000    1.143    2.857    1.714   12.000    2.286 
#    0.000    0.000    6.286    0.000    0.000    0.000 
#    0.000    0.000    0.000    0.000    0.000    0.000 
#
# Total GULP energy -155919.825860 kJ/mol
# GULP energy per Si atom -5568.565209 kJ/mol
# Density = 2.155576 g / cm^3
# Si number density = 21.604938 Si / 1000 Ang^3
#
#
#
# Elastic Constant Matrix: (Units=GPa)
#
#
# Indices 1 2 3 4 5 6 
#
# 1 64.2181 29.1734 40.6569 0.0000 0.0000 0.0000
# 2 29.1734 142.2724 24.2622 0.0000 0.0000 0.0000
# 3 40.6569 24.2622 120.7429 0.0000 0.0000 0.0000
# 4 0.0000 0.0000 0.0000 65.9125 0.0000 0.0000
# 5 0.0000 0.0000 0.0000 0.0000 14.3933 0.0000
# 6 0.0000 0.0000 0.0000 0.0000 0.0000 6.6716
#
#
#
# Elastic Compliance Matrix: (Units=1/GPa)
#
#
# Indices 1 2 3 4 5 6 
#
# 1 0.021134 -0.003231 -0.006467 0.000000 0.000000 0.000000
# 2 -0.003231 0.007772 -0.000474 0.000000 0.000000 0.000000
# 3 -0.006467 -0.000474 0.010555 0.000000 0.000000 0.000000
# 4 0.000000 0.000000 0.000000 0.015172 0.000000 0.000000
# 5 0.000000 0.000000 0.000000 0.000000 0.069477 0.000000
# 6 0.000000 0.000000 0.000000 0.000000 0.000000 0.149888
#
#
# Mechanical properties :
#
#
# Convention : Reuss Voigt Hill
#
# Bulk Modulus (GPa) = 52.30802 57.26871 54.78836
# Shear Modulus (GPa) = 16.62713 32.93822 24.78268
#
# Velocity S-wave (km/s) = 2.77717 3.90881 3.39054
# Velocity P-wave (km/s) = 5.87769 6.85102 6.38294
#
# Compressibility (1/GPa) = 0.01911753
#
# Stress axis : x y z
#
# Youngs Moduli (GPa) = 47.31717 128.66618 94.74273
#
# Poissons Ratio (x) = 0.41569 0.61271
# Poissons Ratio (y) = 0.15287 0.04489
# Poissons Ratio (z) = 0.30601 0.06097
#
# Static dielectric constant tensor:
#      x y z
#    x 1.902010 0.000000 0.000000 
#    y 0.000000 1.825540 0.000000 
#    z 0.000000 0.000000 1.818130 
# 
# From -- ./inp_files/2240.got.cif
#   From: 2010.05.17/outbox.ucp.g08.bks.cvg/sg33_2_cif.got.tgz:2240.got - 2010.06.11 10:35:07.
