data_PCOD9347356
_publ_section_title
;
Structure prediction by ZEFSAII (Michael W. Deem and Ramdas Pophale) SiO2 
 PCOD9347356
Probable space group: P N N 2
;
_chemical_formula_sum "Si O2"
_cell_formula_units_Z 30
_cell_length_a 5.230392
_cell_length_b 9.663017
_cell_length_c 30.643108
_cell_angle_alpha 90.000000
_cell_angle_beta 90.000000
_cell_angle_gamma 90.000000
_cell_volume 1548.744562
_symmetry_space_group_name_H-M "P N N 2"
_symmetry_group_IT_number 34
_symmetry_cell_setting 'orthorhombic'
loop_
_space_group_symop_operation_xyz
x,y,z
-x,-y,z
1/2-x,1/2+y,1/2+z
1/2+x,1/2-y,1/2+z
loop_
_atom_site_type_symbol
_atom_site_label
_atom_site_fract_x
_atom_site_fract_y
_atom_site_fract_z
Si Si1 0.000000 0.500000 0.664790
Si Si2 0.001284 0.335391 0.309440
Si Si3 0.004382 0.664041 0.953093
Si Si4 0.896793 0.851111 0.226294
Si Si5 0.510654 0.151709 0.651983
Si Si6 0.503303 0.664834 0.364919
Si Si7 0.459550 0.746331 0.106732
Si Si8 0.506517 0.665047 0.010328
O O1 0.151836 0.599421 0.698255
O O2 0.114684 0.391160 0.629871
O O3 0.092772 0.248174 0.267700
O O4 0.217951 0.306216 0.345268
O O5 0.000000 0.500000 0.299478
O O6 0.722307 0.302545 0.329865
O O7 0.768322 0.692750 0.985079
O O8 0.000000 0.500000 0.942793
O O9 0.971347 0.750600 0.909137
O O10 0.267606 0.694265 0.978595
O O11 0.045989 0.764325 0.189384
O O12 0.000000 0.000000 0.240440
O O13 0.283783 0.150995 0.616984
O O14 0.780281 0.189110 0.629187
O O15 0.500000 0.000000 0.672803
O O16 0.500000 0.500000 0.373323
O O17 0.495301 0.749441 0.055146
O O18 0.500000 0.500000 0.021091
#
# Coordination Sequence:
#
# PCOD9347356 Si02
#       8
#     2   4   4   4   4   4   4   4
#     4  10  24  42  58  88 134 170 196 272 306 368
#     4  10  23  40  64  89 118 158 204 254 292 370
#     4  10  21  38  61  87 123 153 195 247 310 363
#     4  11  23  40  60  86 126 160 203 250 314 356
#     4  11  22  37  61  86 116 163 207 253 298 360
#     4  10  22  42  62  89 121 153 196 249 312 364
#     4  11  22  39  60  86 125 162 210 249 313 349
#     4  10  20  36  59  89 117 157 203 253 289 360
#
# _framework density 19.370526000000002
#
# number of rings (size 3 to 8) (size 9 to 14) (size 15 to 20)
#    0.000    1.600    1.333    3.200    1.867    2.133 
#    2.400    2.667    0.000    0.000    0.000    0.000 
#    0.000    0.000    0.000    0.000    0.000    0.000 
#
# Total GULP energy -167192.223805 kJ/mol
# GULP energy per Si atom -5573.074127 kJ/mol
# Density = 1.932644 g / cm^3
# Si number density = 19.370526 Si / 1000 Ang^3
#
#
#
# Elastic Constant Matrix: (Units=GPa)
#
#
# Indices 1 2 3 4 5 6 
#
# 1 79.7496 16.4068 38.1844 0.0000 0.0000 0.0000
# 2 16.4068 66.6574 55.1021 0.0000 0.0000 0.0000
# 3 38.1844 55.1021 67.8210 0.0000 0.0000 0.0000
# 4 0.0000 0.0000 0.0000 152.0803 0.0000 0.0000
# 5 0.0000 0.0000 0.0000 0.0000 21.4702 0.0000
# 6 0.0000 0.0000 0.0000 0.0000 0.0000 -469.3719
#
#
#
# Elastic Compliance Matrix: (Units=1/GPa)
#
#
# Indices 1 2 3 4 5 6 
#
# 1 0.020623 0.013771 -0.022799 0.000000 0.000000 0.000000
# 2 0.013771 0.054881 -0.052342 0.000000 0.000000 0.000000
# 3 -0.022799 -0.052342 0.070107 0.000000 0.000000 0.000000
# 4 0.000000 0.000000 0.000000 0.006575 0.000000 0.000000
# 5 0.000000 0.000000 0.000000 0.000000 0.046576 0.000000
# 6 0.000000 0.000000 0.000000 0.000000 0.000000 -0.002131
#
#
# Mechanical properties :
#
#
# Convention : Reuss Voigt Hill
#
# Bulk Modulus (GPa) = 43.72562 48.17940 45.95251
# Shear Modulus (GPa) = 15.29072 -52.19529 -18.45229
#
# Velocity S-wave (km/s) = 2.81264 -5.19656 -3.08976
# Velocity P-wave (km/s) = 5.75936 3.32853 3.32348
#
# Compressibility (1/GPa) = 0.02286989
#
# Stress axis : x y z
#
# Youngs Moduli (GPa) = 48.49058 18.22126 14.26389
#
# Poissons Ratio (x) = -0.25093 0.32521
# Poissons Ratio (y) = -0.66777 0.74660
# Poissons Ratio (z) = 1.10555 0.95374
#
# Static dielectric constant tensor:
#      x y z
#    x 1.717750 0.000000 0.000000 
#    y 0.000000 1.691030 0.000000 
#    z 0.000000 0.000000 1.916090 
# 
# From -- ./inp_files/8649.got.cif
#   From: 2010.05.17/outbox.cif.g08.bks.cpg/sg34_5_cif.got.tgz:8649.got - 2010.06.03 17:23:11.
