data_PCOD9347003
_publ_section_title
;
Structure prediction by ZEFSAII (Michael W. Deem and Ramdas Pophale) SiO2 
 PCOD9347003
Probable space group: P N A 21
;
_chemical_formula_sum "Si O2"
_cell_formula_units_Z 16
_cell_length_a 12.664603
_cell_length_b 10.524888
_cell_length_c 4.708428
_cell_angle_alpha 90.000000
_cell_angle_beta 90.000000
_cell_angle_gamma 90.000000
_cell_volume 627.602980
_symmetry_space_group_name_H-M "P N A 21"
_symmetry_group_IT_number 33
_symmetry_cell_setting 'orthorhombic'
loop_
_space_group_symop_operation_xyz
x,y,z
-x,-y,1/2+z
1/2-x,1/2+y,1/2+z
1/2+x,1/2-y,z
loop_
_atom_site_type_symbol
_atom_site_label
_atom_site_fract_x
_atom_site_fract_y
_atom_site_fract_z
Si Si1 0.167079 0.265910 0.046910
Si Si2 0.310197 0.245613 0.515590
Si Si3 0.483588 0.414627 0.216236
Si Si4 0.070883 0.514399 0.286722
O O1 0.248230 0.189405 0.246438
O O2 0.057286 0.190435 0.066405
O O3 0.147545 0.401245 0.194396
O O4 0.220779 0.282877 0.743681
O O5 0.384738 0.353019 0.378038
O O6 0.383525 0.146501 0.679442
O O7 0.546169 0.489221 0.464208
O O8 0.037894 0.509527 0.612880
#
# Coordination Sequence:
#
# PCOD9347003 Si02
#       4
#     4   4   4   4
#     4  12  28  48  76 110 147 202 254 309 381 454
#     4  12  28  48  76 110 147 202 254 309 381 454
#     4  12  28  50  76 112 160 200 250 322 386 452
#     4  12  26  50  74 104 150 198 254 312 370 448
#
# _framework density 25.493822999999999
#
# number of rings (size 3 to 8) (size 9 to 14) (size 15 to 20)
#    0.000    0.000    2.500    6.000   14.000    0.000 
#    0.000    0.000    0.000    0.000    0.000    0.000 
#    0.000    0.000    0.000    0.000    0.000    0.000 
#
# Total GULP energy -89725.442527 kJ/mol
# GULP energy per Si atom -5607.840158 kJ/mol
# Density = 2.543580 g / cm^3
# Si number density = 25.493823 Si / 1000 Ang^3
#
#
#
# Elastic Constant Matrix: (Units=GPa)
#
#
# Indices 1 2 3 4 5 6 
#
# 1 120.2728 49.0789 65.9312 0.0000 0.0000 0.0000
# 2 49.0789 74.7367 21.1931 0.0000 0.0000 0.0000
# 3 65.9312 21.1931 140.5689 0.0000 0.0000 0.0000
# 4 0.0000 0.0000 0.0000 34.4167 0.0000 0.0000
# 5 0.0000 0.0000 0.0000 0.0000 65.7214 0.0000
# 6 0.0000 0.0000 0.0000 0.0000 0.0000 31.5650
#
#
#
# Elastic Compliance Matrix: (Units=1/GPa)
#
#
# Indices 1 2 3 4 5 6 
#
# 1 0.014719 -0.008053 -0.005690 0.000000 0.000000 0.000000
# 2 -0.008053 0.018383 0.001005 0.000000 0.000000 0.000000
# 3 -0.005690 0.001005 0.009631 0.000000 0.000000 0.000000
# 4 0.000000 0.000000 0.000000 0.029056 0.000000 0.000000
# 5 0.000000 0.000000 0.000000 0.000000 0.015216 0.000000
# 6 0.000000 0.000000 0.000000 0.000000 0.000000 0.031681
#
#
# Mechanical properties :
#
#
# Convention : Reuss Voigt Hill
#
# Bulk Modulus (GPa) = 57.93869 67.55385 62.74627
# Shear Modulus (GPa) = 33.35259 39.63231 36.49245
#
# Velocity S-wave (km/s) = 3.62091 3.94710 3.78752
# Velocity P-wave (km/s) = 6.34486 6.87957 6.61762
#
# Compressibility (1/GPa) = 0.01725962
#
# Stress axis : x y z
#
# Youngs Moduli (GPa) = 67.93713 54.39713 103.83044
#
# Poissons Ratio (x) = 0.43804 0.59078
# Poissons Ratio (y) = 0.54708 -0.10439
# Poissons Ratio (z) = 0.38655 -0.05469
#
# Static dielectric constant tensor:
#      x y z
#    x 2.080110 0.000000 0.000000 
#    y 0.000000 2.000510 0.000000 
#    z 0.000000 0.000000 1.936440 
# 
# From -- ./inp_files/643.got.cif
#   From: 2010.05.17/outbox.cif.g08.bks.cpg/sg33_1_cif.got.tgz:643.got - 2010.06.03 17:15:25.
