data_PCOD9347746
_publ_section_title
;
Structure prediction by ZEFSAII (Michael W. Deem and Ramdas Pophale) SiO2 
 PCOD9347746
Probable space group: P N N 2
;
_chemical_formula_sum "Si O2"
_cell_formula_units_Z 24
_cell_length_a 10.698074
_cell_length_b 10.918605
_cell_length_c 9.010306
_cell_angle_alpha 90.000000
_cell_angle_beta 90.000000
_cell_angle_gamma 90.000000
_cell_volume 1052.476222
_symmetry_space_group_name_H-M "P N N 2"
_symmetry_group_IT_number 34
_symmetry_cell_setting 'orthorhombic'
loop_
_space_group_symop_operation_xyz
x,y,z
-x,-y,z
1/2-x,1/2+y,1/2+z
1/2+x,1/2-y,1/2+z
loop_
_atom_site_type_symbol
_atom_site_label
_atom_site_fract_x
_atom_site_fract_y
_atom_site_fract_z
Si Si1 0.644548 0.545797 0.555120
Si Si2 0.623842 0.436170 0.109567
Si Si3 0.787866 0.365848 0.338347
Si Si4 0.275125 0.817316 0.578324
Si Si5 0.733249 0.387084 0.822866
Si Si6 0.431444 0.173614 0.553683
O O1 0.500000 0.500000 0.540271
O O2 0.736071 0.481880 0.433511
O O3 0.700164 0.497127 0.711326
O O4 0.630118 0.691027 0.548549
O O5 0.500000 0.500000 0.159665
O O6 0.671838 0.339647 0.227618
O O7 0.719874 0.549685 0.102328
O O8 0.623671 0.381546 0.945723
O O9 0.801946 0.255424 0.452468
O O10 0.899652 0.377401 0.219493
O O11 0.263920 0.734030 0.724077
O O12 0.420749 0.820398 0.535658
O O13 0.860234 0.395166 0.919485
#
# Coordination Sequence:
#
# PCOD9347746 Si02
#       6
#     4   4   4   4   4   4
#     4  11  19  41  68  93 130 183 227 274 341 399
#     4  11  24  41  69  98 132 171 225 273 325 410
#     4  10  23  38  64 104 126 181 220 271 341 386
#     4  11  24  42  70  98 135 178 224 275 337 391
#     4  10  23  38  64 104 126 181 220 271 341 386
#     4  11  23  42  67  95 139 171 227 286 325 406
#
# _framework density 22.803363999999998
#
# number of rings (size 3 to 8) (size 9 to 14) (size 15 to 20)
#    0.000    1.333    3.333    3.000    4.667    2.667 
#    0.000    0.000    0.000    6.000    0.000    0.000 
#    0.000    0.000    0.000    0.000    0.000    0.000 
#
# Total GULP energy -134046.143854 kJ/mol
# GULP energy per Si atom -5585.255994 kJ/mol
# Density = 2.275146 g / cm^3
# Si number density = 22.803364 Si / 1000 Ang^3
#
#
#
# Elastic Constant Matrix: (Units=GPa)
#
#
# Indices 1 2 3 4 5 6 
#
# 1 69.1214 12.2130 0.9589 0.0000 0.0000 0.0000
# 2 12.2130 86.4636 31.2752 0.0000 0.0000 0.0000
# 3 0.9589 31.2752 102.7241 0.0000 0.0000 0.0000
# 4 0.0000 0.0000 0.0000 34.9259 0.0000 0.0000
# 5 0.0000 0.0000 0.0000 0.0000 14.6470 0.0000
# 6 0.0000 0.0000 0.0000 0.0000 0.0000 35.0535
#
#
#
# Elastic Compliance Matrix: (Units=1/GPa)
#
#
# Indices 1 2 3 4 5 6 
#
# 1 0.014866 -0.002303 0.000563 0.000000 0.000000 0.000000
# 2 -0.002303 0.013354 -0.004044 0.000000 0.000000 0.000000
# 3 0.000563 -0.004044 0.010961 0.000000 0.000000 0.000000
# 4 0.000000 0.000000 0.000000 0.028632 0.000000 0.000000
# 5 0.000000 0.000000 0.000000 0.000000 0.068273 0.000000
# 6 0.000000 0.000000 0.000000 0.000000 0.000000 0.028528
#
#
# Mechanical properties :
#
#
# Convention : Reuss Voigt Hill
#
# Bulk Modulus (GPa) = 36.21740 38.57814 37.39777
# Shear Modulus (GPa) = 26.97046 31.18276 29.07661
#
# Velocity S-wave (km/s) = 3.44283 3.70193 3.57473
# Velocity P-wave (km/s) = 5.63215 5.93522 5.78567
#
# Compressibility (1/GPa) = 0.02761104
#
# Stress axis : x y z
#
# Youngs Moduli (GPa) = 67.26539 74.88539 91.23392
#
# Poissons Ratio (x) = 0.17249 -0.05132
# Poissons Ratio (y) = 0.15494 0.36896
# Poissons Ratio (z) = -0.03784 0.30285
#
# Static dielectric constant tensor:
#      x y z
#    x 1.859890 0.000000 0.000000 
#    y 0.000000 1.878380 0.000000 
#    z 0.000000 0.000000 1.887190 
# 
# From -- ./inp_files/3159.got.cif
#   From: 2010.05.17/outbox.cif.g08.bks.cpg/sg34_2_cif.got.tgz:3159.got - 2010.06.03 17:23:11.
