data_PCOD9347433
_publ_section_title
;
Structure prediction by ZEFSAII (Michael W. Deem and Ramdas Pophale) SiO2 
 PCOD9347433
Probable space group: P N N 2
;
_chemical_formula_sum "Si O2"
_cell_formula_units_Z 24
_cell_length_a 7.469040
_cell_length_b 10.318559
_cell_length_c 12.467510
_cell_angle_alpha 90.000000
_cell_angle_beta 90.000000
_cell_angle_gamma 90.000000
_cell_volume 960.867628
_symmetry_space_group_name_H-M "P N N 2"
_symmetry_group_IT_number 34
_symmetry_cell_setting 'orthorhombic'
loop_
_space_group_symop_operation_xyz
x,y,z
-x,-y,z
1/2-x,1/2+y,1/2+z
1/2+x,1/2-y,1/2+z
loop_
_atom_site_type_symbol
_atom_site_label
_atom_site_fract_x
_atom_site_fract_y
_atom_site_fract_z
Si Si1 0.187792 0.074207 0.543170
Si Si2 0.270215 0.726947 0.682958
Si Si3 0.219252 0.980805 0.320683
Si Si4 0.184423 0.818016 0.128715
Si Si5 0.787767 0.500994 0.276054
Si Si6 0.698023 0.939127 0.004668
O O1 0.280010 0.000133 0.443607
O O2 0.215482 0.229280 0.538587
O O3 0.255477 0.068475 0.664723
O O4 0.000000 0.000000 0.548303
O O5 0.215542 0.606353 0.756392
O O6 0.482320 0.727358 0.655039
O O7 0.222290 0.854695 0.748442
O O8 0.187866 0.697741 0.566233
O O9 0.261967 0.854859 0.248248
O O10 0.000000 0.000000 0.322700
O O11 0.186538 0.959743 0.073852
O O12 0.722231 0.437341 0.385457
O O13 0.000000 0.500000 0.289231
O O14 0.500000 0.000000 0.005743
#
# Coordination Sequence:
#
# PCOD9347433 Si02
#       6
#     4   4   4   4   4   4
#     4  11  23  37  61  93 128 161 212 265 322 387
#     4  10  20  41  67  87 124 168 215 263 324 393
#     4   8  18  37  61  86 113 164 209 259 319 379
#     4  10  20  40  65  88 124 168 216 262 328 392
#     4  11  23  41  59  92 132 168 209 261 332 398
#     4  10  23  39  67  93 123 168 219 271 325 384
#
# _framework density 24.977426999999999
#
# number of rings (size 3 to 8) (size 9 to 14) (size 15 to 20)
#    0.000    2.000    1.667    2.500    2.333    2.667 
#    0.000    3.333    0.000    0.000    0.000    0.000 
#    0.000    0.000    0.000    0.000    0.000    0.000 
#
# Total GULP energy -133760.810792 kJ/mol
# GULP energy per Si atom -5573.367116 kJ/mol
# Density = 2.492058 g / cm^3
# Si number density = 24.977427 Si / 1000 Ang^3
#
#
#
# Elastic Constant Matrix: (Units=GPa)
#
#
# Indices 1 2 3 4 5 6 
#
# 1 63.0885 -8.7758 4.1392 0.0000 0.0000 0.0000
# 2 -8.7758 47.4878 15.2586 0.0000 0.0000 0.0000
# 3 4.1392 15.2586 190.3735 0.0000 0.0000 0.0000
# 4 0.0000 0.0000 0.0000 21.8607 0.0000 0.0000
# 5 0.0000 0.0000 0.0000 0.0000 74.1129 0.0000
# 6 0.0000 0.0000 0.0000 0.0000 0.0000 21.7350
#
#
#
# Elastic Compliance Matrix: (Units=1/GPa)
#
#
# Indices 1 2 3 4 5 6 
#
# 1 0.016338 0.003216 -0.000613 0.000000 0.000000 0.000000
# 2 0.003216 0.022248 -0.001853 0.000000 0.000000 0.000000
# 3 -0.000613 -0.001853 0.005415 0.000000 0.000000 0.000000
# 4 0.000000 0.000000 0.000000 0.045744 0.000000 0.000000
# 5 0.000000 0.000000 0.000000 0.000000 0.013493 0.000000
# 6 0.000000 0.000000 0.000000 0.000000 0.000000 0.046009
#
#
# Mechanical properties :
#
#
# Convention : Reuss Voigt Hill
#
# Bulk Modulus (GPa) = 21.97740 35.79931 28.88835
# Shear Modulus (GPa) = 30.69113 42.89692 36.79402
#
# Velocity S-wave (km/s) = 3.50916 4.14868 3.84225
# Velocity P-wave (km/s) = 5.02364 6.10840 5.59238
#
# Compressibility (1/GPa) = 0.04550129
#
# Stress axis : x y z
#
# Youngs Moduli (GPa) = 61.20564 44.94814 184.68284
#
# Poissons Ratio (x) = -0.14457 0.11322
# Poissons Ratio (y) = -0.19686 0.34224
# Poissons Ratio (z) = 0.03752 0.08329
#
# Static dielectric constant tensor:
#      x y z
#    x 2.046130 0.000000 0.000000 
#    y 0.000000 4.449810 0.000000 
#    z 0.000000 0.000000 2.076290 
# 
# From -- ./inp_files/4910.got.cif
#   From: 2010.05.17/outbox.cif.g08.bks.cpg/sg34_3_cif.got.tgz:4910.got - 2010.06.03 17:23:11.
