data_PCOD9347379
_publ_section_title
;
Structure prediction by ZEFSAII (Michael W. Deem and Ramdas Pophale) SiO2 
 PCOD9347379
Probable space group: P N N 2
;
_chemical_formula_sum "Si O2"
_cell_formula_units_Z 26
_cell_length_a 9.628341
_cell_length_b 14.834474
_cell_length_c 9.608167
_cell_angle_alpha 90.000000
_cell_angle_beta 90.000000
_cell_angle_gamma 90.000000
_cell_volume 1372.347696
_symmetry_space_group_name_H-M "P N N 2"
_symmetry_group_IT_number 34
_symmetry_cell_setting 'orthorhombic'
loop_
_space_group_symop_operation_xyz
x,y,z
-x,-y,z
1/2-x,1/2+y,1/2+z
1/2+x,1/2-y,1/2+z
loop_
_atom_site_type_symbol
_atom_site_label
_atom_site_fract_x
_atom_site_fract_y
_atom_site_fract_z
Si Si1 0.099245 0.666331 0.629700
Si Si2 0.923412 0.811633 0.790491
Si Si3 0.208316 0.938600 0.429014
Si Si4 0.000000 0.000000 0.201600
Si Si5 0.878598 0.264297 0.338969
Si Si6 0.074845 0.191339 0.108179
Si Si7 0.500000 0.000000 0.318929
Si Si8 0.500000 0.500000 0.167547
O O1 0.076550 0.669137 0.463074
O O2 0.262764 0.686246 0.643395
O O3 0.009316 0.747413 0.690808
O O4 0.056313 0.578512 0.716461
O O5 0.759458 0.801228 0.766421
O O6 0.965960 0.913601 0.760335
O O7 0.946178 0.779829 0.949413
O O8 0.166308 0.833326 0.405397
O O9 0.371532 0.960285 0.410443
O O10 0.130614 0.974531 0.566997
O O11 0.132257 0.990032 0.302042
O O12 0.015307 0.090230 0.115549
O O13 0.995533 0.247635 0.224689
#
# Coordination Sequence:
#
# PCOD9347379 Si02
#       8
#     4   4   4   2   4   4   2   2
#     4  11  23  40  62  92 129 162 214 265 317 383
#     4  11  23  40  65  92 128 166 216 264 315 386
#     4  10  20  37  65  90 128 165 211 253 321 380
#     4   9  17  36  58  88 114 164 200 250 304 382
#     4  10  22  43  63  90 124 171 213 263 321 383
#     4  10  22  39  62  89 126 162 209 262 322 374
#     4  12  22  38  64 100 126 176 212 266 320 390
#     4  11  23  42  64  98 130 172 210 270 322 382
#
# _framework density 18.945636
#
# number of rings (size 3 to 8) (size 9 to 14) (size 15 to 20)
#    0.000    1.538    4.615    0.462    0.000    2.462 
#    0.000    0.000    0.000    0.000    0.000    0.000 
#    0.000    0.000    0.000    0.000    0.000    0.000 
#
# Total GULP energy -145095.788916 kJ/mol
# GULP energy per Si atom -5580.607266 kJ/mol
# Density = 1.890252 g / cm^3
# Si number density = 18.945636 Si / 1000 Ang^3
#
#
#
# Elastic Constant Matrix: (Units=GPa)
#
#
# Indices 1 2 3 4 5 6 
#
# 1 117.9186 20.0782 71.8268 0.0000 0.0000 0.0000
# 2 20.0782 61.4383 19.5304 0.0000 0.0000 0.0000
# 3 71.8268 19.5304 81.8177 0.0000 0.0000 0.0000
# 4 0.0000 0.0000 0.0000 16.1601 0.0000 0.0000
# 5 0.0000 0.0000 0.0000 0.0000 25.5546 0.0000
# 6 0.0000 0.0000 0.0000 0.0000 0.0000 6.3439
#
#
#
# Elastic Compliance Matrix: (Units=1/GPa)
#
#
# Indices 1 2 3 4 5 6 
#
# 1 0.018278 -0.000944 -0.015821 0.000000 0.000000 0.000000
# 2 -0.000944 0.017662 -0.003387 0.000000 0.000000 0.000000
# 3 -0.015821 -0.003387 0.026919 0.000000 0.000000 0.000000
# 4 0.000000 0.000000 0.000000 0.061881 0.000000 0.000000
# 5 0.000000 0.000000 0.000000 0.000000 0.039132 0.000000
# 6 0.000000 0.000000 0.000000 0.000000 0.000000 0.157633
#
#
# Mechanical properties :
#
#
# Convention : Reuss Voigt Hill
#
# Bulk Modulus (GPa) = 44.33508 53.78282 49.05895
# Shear Modulus (GPa) = 13.53817 19.59434 16.56625
#
# Velocity S-wave (km/s) = 2.67606 3.21945 2.96025
# Velocity P-wave (km/s) = 5.74460 6.50149 6.13473
#
# Compressibility (1/GPa) = 0.02255550
#
# Stress axis : x y z
#
# Youngs Moduli (GPa) = 54.71116 56.61952 37.14786
#
# Poissons Ratio (x) = 0.05346 0.58770
# Poissons Ratio (y) = 0.05165 0.12582
# Poissons Ratio (z) = 0.86556 0.19178
#
# Static dielectric constant tensor:
#      x y z
#    x 1.649950 0.000000 0.000000 
#    y 0.000000 1.676480 0.000000 
#    z 0.000000 0.000000 1.635700 
# 
# From -- ./inp_files/2744.got.cif
#   From: 2010.05.17/outbox.cif.g08.bks.cpg/sg34_2_cif.got.tgz:2744.got - 2010.06.03 17:23:11.
