data_PCOD9347337
_publ_section_title
;
Structure prediction by ZEFSAII (Michael W. Deem and Ramdas Pophale) SiO2 
 PCOD9347337
Probable space group: P N N 2
;
_chemical_formula_sum "Si O2"
_cell_formula_units_Z 26
_cell_length_a 18.521231
_cell_length_b 7.571030
_cell_length_c 7.247795
_cell_angle_alpha 90.000000
_cell_angle_beta 90.000000
_cell_angle_gamma 90.000000
_cell_volume 1016.320572
_symmetry_space_group_name_H-M "P N N 2"
_symmetry_group_IT_number 34
_symmetry_cell_setting 'orthorhombic'
loop_
_space_group_symop_operation_xyz
x,y,z
-x,-y,z
1/2-x,1/2+y,1/2+z
1/2+x,1/2-y,1/2+z
loop_
_atom_site_type_symbol
_atom_site_label
_atom_site_fract_x
_atom_site_fract_y
_atom_site_fract_z
Si Si1 0.699696 0.758295 0.100290
Si Si2 0.298461 0.237090 0.653270
Si Si3 0.418621 0.971244 0.147178
Si Si4 0.441054 0.123635 0.733486
Si Si5 0.352441 0.615407 0.642003
Si Si6 0.500000 0.500000 0.646639
Si Si7 0.143186 0.108183 0.567493
O O1 0.654947 0.919258 0.192599
O O2 0.785736 0.746320 0.142976
O O3 0.649240 0.588937 0.144575
O O4 0.702696 0.766070 0.876594
O O5 0.370002 0.128444 0.610722
O O6 0.309672 0.437377 0.591610
O O7 0.226517 0.164332 0.571446
O O8 0.500000 0.000000 0.221843
O O9 0.400381 0.764680 0.162118
O O10 0.425895 0.033944 0.931337
O O11 0.467202 0.326231 0.749014
O O12 0.500000 0.000000 0.644013
O O13 0.430389 0.589536 0.543773
O O14 0.378344 0.609212 0.854045
#
# Coordination Sequence:
#
# PCOD9347337 Si02
#       7
#     4   4   4   4   4   2   4
#     4  10  22  35  58  86 113 153 190 232 287 342
#     4   9  20  36  52  85 118 144 191 236 275 350
#     4  10  20  35  55  81 116 146 187 234 282 333
#     4   9  18  31  54  81 112 148 186 236 286 330
#     4  10  20  37  58  85 116 147 191 240 287 332
#     4  10  20  34  56  86 118 140 196 248 282 334
#     4  11  22  34  59  86 114 151 190 237 282 340
#
# _framework density 25.58248
#
# number of rings (size 3 to 8) (size 9 to 14) (size 15 to 20)
#    0.000    2.154    1.538    2.769    6.462    0.615 
#    0.000    0.000    0.000    7.385    0.000    0.000 
#    0.000    0.000    0.000    0.000    0.000    0.000 
#
# Total GULP energy -144978.103434 kJ/mol
# GULP energy per Si atom -5576.080901 kJ/mol
# Density = 2.552425 g / cm^3
# Si number density = 25.582480 Si / 1000 Ang^3
#
#
#
# Elastic Constant Matrix: (Units=GPa)
#
#
# Indices 1 2 3 4 5 6 
#
# 1 185.0796 49.9216 10.9571 0.0000 0.0000 0.0000
# 2 49.9216 132.0545 20.8685 0.0000 0.0000 0.0000
# 3 10.9571 20.8685 73.3850 0.0000 0.0000 0.0000
# 4 0.0000 0.0000 0.0000 8.7816 0.0000 0.0000
# 5 0.0000 0.0000 0.0000 0.0000 11.9115 0.0000
# 6 0.0000 0.0000 0.0000 0.0000 0.0000 25.8195
#
#
#
# Elastic Compliance Matrix: (Units=1/GPa)
#
#
# Indices 1 2 3 4 5 6 
#
# 1 0.006021 -0.002235 -0.000264 0.000000 0.000000 0.000000
# 2 -0.002235 0.008758 -0.002157 0.000000 0.000000 0.000000
# 3 -0.000264 -0.002157 0.014279 0.000000 0.000000 0.000000
# 4 0.000000 0.000000 0.000000 0.113874 0.000000 0.000000
# 5 0.000000 0.000000 0.000000 0.000000 0.083953 0.000000
# 6 0.000000 0.000000 0.000000 0.000000 0.000000 0.038730
#
#
# Mechanical properties :
#
#
# Convention : Reuss Voigt Hill
#
# Bulk Modulus (GPa) = 50.63593 61.55705 56.09649
# Shear Modulus (GPa) = 17.76139 29.88731 23.82435
#
# Velocity S-wave (km/s) = 2.63778 3.42171 3.05499
# Velocity P-wave (km/s) = 5.39568 6.30279 5.86679
#
# Compressibility (1/GPa) = 0.01974882
#
# Stress axis : x y z
#
# Youngs Moduli (GPa) = 166.07303 114.17755 70.03048
#
# Poissons Ratio (x) = 0.25515 0.01846
# Poissons Ratio (y) = 0.37112 0.15105
# Poissons Ratio (z) = 0.04377 0.24627
#
# Static dielectric constant tensor:
#      x y z
#    x 2.115250 0.000000 0.000000 
#    y 0.000000 2.058960 0.000000 
#    z 0.000000 0.000000 2.050290 
# 
# From -- ./inp_files/3884.got.cif
#   From: 2010.05.17/outbox.cif.g08.bks.cpg/sg34_2_cif.got.tgz:3884.got - 2010.06.03 17:23:11.
