data_PCOD9347722
_publ_section_title
;
Structure prediction by ZEFSAII (Michael W. Deem and Ramdas Pophale) SiO2 
 PCOD9347722
Probable space group: P N N 2
;
_chemical_formula_sum "Si O2"
_cell_formula_units_Z 20
_cell_length_a 14.402622
_cell_length_b 5.122725
_cell_length_c 11.050805
_cell_angle_alpha 90.000000
_cell_angle_beta 90.000000
_cell_angle_gamma 90.000000
_cell_volume 815.335817
_symmetry_space_group_name_H-M "P N N 2"
_symmetry_group_IT_number 34
_symmetry_cell_setting 'orthorhombic'
loop_
_space_group_symop_operation_xyz
x,y,z
-x,-y,z
1/2-x,1/2+y,1/2+z
1/2+x,1/2-y,1/2+z
loop_
_atom_site_type_symbol
_atom_site_label
_atom_site_fract_x
_atom_site_fract_y
_atom_site_fract_z
Si Si1 0.778451 0.648198 0.564730
Si Si2 0.091958 0.129394 0.096484
Si Si3 0.000000 0.000000 0.874556
Si Si4 0.000000 0.000000 0.471368
Si Si5 0.624816 0.675444 0.160849
Si Si6 0.396751 0.871876 0.834212
O O1 0.669655 0.588354 0.571389
O O2 0.820080 0.441585 0.659793
O O3 0.818440 0.551516 0.432344
O O4 0.815803 0.930988 0.607165
O O5 0.125918 0.342939 0.193013
O O6 0.000000 0.000000 0.153698
O O7 0.050863 0.203831 0.965397
O O8 0.921183 0.113296 0.788132
O O9 0.083262 0.083135 0.386490
O O10 0.960771 0.208943 0.566175
O O11 0.500000 0.000000 0.843479
#
# Coordination Sequence:
#
# PCOD9347722 Si02
#       6
#     4   4   2   2   4   4
#     4  11  25  45  74 106 135 191 247 291 352 429
#     4  10  25  46  64 107 145 191 231 297 369 417
#     4   9  23  48  68 102 153 189 232 304 368 427
#     4   9  17  38  66 100 129 173 236 286 342 405
#     4  10  22  44  75 100 138 184 246 290 351 426
#     4  11  21  42  73  99 140 181 241 294 351 424
#
# _framework density 24.529771
#
# number of rings (size 3 to 8) (size 9 to 14) (size 15 to 20)
#    0.600    1.200    3.000    0.000    2.800    1.600 
#   10.800    0.000    0.000    0.000    0.000    0.000 
#    0.000    0.000    0.000    0.000    0.000    0.000 
#
# Total GULP energy -111389.913644 kJ/mol
# GULP energy per Si atom -5569.495682 kJ/mol
# Density = 2.447394 g / cm^3
# Si number density = 24.529771 Si / 1000 Ang^3
#
#
#
# Elastic Constant Matrix: (Units=GPa)
#
#
# Indices 1 2 3 4 5 6 
#
# 1 123.5818 24.3892 50.9548 0.0000 0.0000 0.0000
# 2 24.3892 73.2061 23.2413 0.0000 0.0000 0.0000
# 3 50.9548 23.2413 179.8570 0.0000 0.0000 0.0000
# 4 0.0000 0.0000 0.0000 20.3141 0.0000 0.0000
# 5 0.0000 0.0000 0.0000 0.0000 8.2455 0.0000
# 6 0.0000 0.0000 0.0000 0.0000 0.0000 27.3774
#
#
#
# Elastic Compliance Matrix: (Units=1/GPa)
#
#
# Indices 1 2 3 4 5 6 
#
# 1 0.009557 -0.002424 -0.002394 0.000000 0.000000 0.000000
# 2 -0.002424 0.014859 -0.001233 0.000000 0.000000 0.000000
# 3 -0.002394 -0.001233 0.006398 0.000000 0.000000 0.000000
# 4 0.000000 0.000000 0.000000 0.049227 0.000000 0.000000
# 5 0.000000 0.000000 0.000000 0.000000 0.121279 0.000000
# 6 0.000000 0.000000 0.000000 0.000000 0.000000 0.036526
#
#
# Mechanical properties :
#
#
# Convention : Reuss Voigt Hill
#
# Bulk Modulus (GPa) = 53.44524 63.75728 58.60126
# Shear Modulus (GPa) = 19.51701 29.72471 24.62086
#
# Velocity S-wave (km/s) = 2.82378 3.48484 3.17158
# Velocity P-wave (km/s) = 5.69797 6.49926 6.11176
#
# Compressibility (1/GPa) = 0.01871074
#
# Stress axis : x y z
#
# Youngs Moduli (GPa) = 104.63033 67.29838 156.30558
#
# Poissons Ratio (x) = 0.16313 0.37427
# Poissons Ratio (y) = 0.25362 0.19279
# Poissons Ratio (z) = 0.25053 0.08301
#
# Static dielectric constant tensor:
#      x y z
#    x 2.052790 0.000000 0.000000 
#    y 0.000000 2.098400 0.000000 
#    z 0.000000 0.000000 1.981730 
# 
# From -- ./inp_files/5553.got.cif
#   From: 2010.05.17/outbox.cif.g08.bks.cpg/sg34_3_cif.got.tgz:5553.got - 2010.06.03 17:23:11.
