data_PCOD9347464
_publ_section_title
;
Structure prediction by ZEFSAII (Michael W. Deem and Ramdas Pophale) SiO2 
 PCOD9347464
Probable space group: P N N 2
;
_chemical_formula_sum "Si O2"
_cell_formula_units_Z 24
_cell_length_a 5.067241
_cell_length_b 16.245639
_cell_length_c 12.067072
_cell_angle_alpha 90.000000
_cell_angle_beta 90.000000
_cell_angle_gamma 90.000000
_cell_volume 993.368221
_symmetry_space_group_name_H-M "P N N 2"
_symmetry_group_IT_number 34
_symmetry_cell_setting 'orthorhombic'
loop_
_space_group_symop_operation_xyz
x,y,z
-x,-y,z
1/2-x,1/2+y,1/2+z
1/2+x,1/2-y,1/2+z
loop_
_atom_site_type_symbol
_atom_site_label
_atom_site_fract_x
_atom_site_fract_y
_atom_site_fract_z
Si Si1 0.744600 0.133862 0.849590
Si Si2 0.747411 0.361190 0.056707
Si Si3 0.472867 0.725128 0.714872
Si Si4 0.000000 0.000000 0.951806
Si Si5 0.269500 0.812182 0.424586
Si Si6 0.000000 0.500000 0.186655
Si Si7 0.818163 0.363266 0.523165
O O1 0.721408 0.219798 0.791103
O O2 0.592110 0.072003 0.768142
O O3 0.995094 0.077875 0.869411
O O4 0.613429 0.136598 0.972304
O O5 0.849272 0.288413 0.140618
O O6 0.957969 0.354434 0.956688
O O7 0.789172 0.450664 0.111536
O O8 0.455471 0.342894 0.011809
O O9 0.284504 0.670256 0.639802
O O10 0.660762 0.678001 0.800866
O O11 0.225890 0.041367 0.024049
O O12 0.294804 0.713771 0.447013
#
# Coordination Sequence:
#
# PCOD9347464 Si02
#       7
#     4   4   4   2   4   2   4
#     4  10  21  40  61 100 132 167 228 285 347 406
#     4  10  23  41  65  99 128 173 228 285 330 413
#     4   9  22  41  66  93 128 180 217 273 346 409
#     4  12  22  38  68  94 140 176 222 306 340 402
#     4  10  23  42  64  95 133 173 229 278 336 411
#     4  10  20  42  64 100 126 174 224 286 354 394
#     4  10  22  40  60  97 134 174 226 283 343 413
#
# _framework density 24.160226000000002
#
# number of rings (size 3 to 8) (size 9 to 14) (size 15 to 20)
#    0.000    2.000    1.667    0.000    9.333    7.333 
#    0.000    1.667    0.000    0.000    0.000    0.000 
#    0.000    0.000    0.000    0.000    0.000    0.000 
#
# Total GULP energy -133763.323551 kJ/mol
# GULP energy per Si atom -5573.471815 kJ/mol
# Density = 2.410524 g / cm^3
# Si number density = 24.160226 Si / 1000 Ang^3
#
#
#
# Elastic Constant Matrix: (Units=GPa)
#
#
# Indices 1 2 3 4 5 6 
#
# 1 56.6146 45.8742 25.6350 0.0000 0.0000 0.0000
# 2 45.8742 65.7485 23.8032 0.0000 0.0000 0.0000
# 3 25.6350 23.8032 108.9755 0.0000 0.0000 0.0000
# 4 0.0000 0.0000 0.0000 6.3155 0.0000 0.0000
# 5 0.0000 0.0000 0.0000 0.0000 4.6265 0.0000
# 6 0.0000 0.0000 0.0000 0.0000 0.0000 31.9267
#
#
#
# Elastic Compliance Matrix: (Units=1/GPa)
#
#
# Indices 1 2 3 4 5 6 
#
# 1 0.042025 -0.027954 -0.003780 0.000000 0.000000 0.000000
# 2 -0.027954 0.035109 -0.001093 0.000000 0.000000 0.000000
# 3 -0.003780 -0.001093 0.010304 0.000000 0.000000 0.000000
# 4 0.000000 0.000000 0.000000 0.158341 0.000000 0.000000
# 5 0.000000 0.000000 0.000000 0.000000 0.216147 0.000000
# 6 0.000000 0.000000 0.000000 0.000000 0.000000 0.031322
#
#
# Mechanical properties :
#
#
# Convention : Reuss Voigt Hill
#
# Bulk Modulus (GPa) = 45.90245 46.88486 46.39365
# Shear Modulus (GPa) = 8.83136 17.64214 13.23675
#
# Velocity S-wave (km/s) = 1.91397 2.70518 2.34321
# Velocity P-wave (km/s) = 4.89130 5.40419 5.15413
#
# Compressibility (1/GPa) = 0.02178533
#
# Stress axis : x y z
#
# Youngs Moduli (GPa) = 23.79515 28.48271 97.04642
#
# Poissons Ratio (x) = 0.79619 0.36684
# Poissons Ratio (y) = 0.66516 0.10608
# Poissons Ratio (z) = 0.08995 0.03113
#
# Static dielectric constant tensor:
#      x y z
#    x 2.156430 0.000000 0.000000 
#    y 0.000000 2.513680 0.000000 
#    z 0.000000 0.000000 2.101730 
# 
# From -- ./inp_files/4446.got.cif
#   From: 2010.05.17/outbox.cif.g08.bks.cpg/sg34_3_cif.got.tgz:4446.got - 2010.06.03 17:23:11.
