data_PCOD9347074
_publ_section_title
;
Structure prediction by ZEFSAII (Michael W. Deem and Ramdas Pophale) SiO2 
 PCOD9347074
Probable space group: P N A 21
;
_chemical_formula_sum "Si O2"
_cell_formula_units_Z 24
_cell_length_a 12.000000
_cell_length_b 6.000000
_cell_length_c 15.000000
_cell_angle_alpha 90.000000
_cell_angle_beta 90.000000
_cell_angle_gamma 90.000000
_cell_volume 1080.000000
_symmetry_space_group_name_H-M "P N A 21"
_symmetry_group_IT_number 33
_symmetry_cell_setting 'orthorhombic'
loop_
_space_group_symop_operation_xyz
x,y,z
-x,-y,1/2+z
1/2-x,1/2+y,1/2+z
1/2+x,1/2-y,z
loop_
_atom_site_type_symbol
_atom_site_label
_atom_site_fract_x
_atom_site_fract_y
_atom_site_fract_z
Si Si1 0.744069 0.640341 0.298570
Si Si2 0.452642 0.776632 0.053408
Si Si3 0.634997 0.102411 0.979151
Si Si4 0.782002 0.368466 0.124881
Si Si5 0.461619 0.444954 0.897399
Si Si6 0.083614 0.001423 0.723822
O O1 0.808572 0.533538 0.384354
O O2 0.724643 0.482381 0.212226
O O3 0.630569 0.706169 0.348330
O O4 0.815332 0.846236 0.261602
O O5 0.474237 0.651305 0.147201
O O6 0.350256 0.943769 0.071509
O O7 0.419011 0.611944 0.973082
O O8 0.563583 0.904777 0.022497
O O9 0.549416 0.292428 0.947713
O O10 0.711226 0.219785 0.055238
O O11 0.872117 0.209027 0.170927
O O12 0.515773 0.565127 0.811759
#
# Coordination Sequence:
#
# PCOD9347074 Si02
#       6
#     4   4   4   4   4   4
#     4  10  24  43  66 102 135 179 226 284 347 404
#     4  11  24  42  70  97 137 179 229 280 341 408
#     4  11  24  43  68 100 139 176 230 281 347 408
#     4  11  25  43  69 100 136 182 230 284 345 413
#     4  11  25  43  68  99 139 179 229 280 342 412
#     4  10  24  44  69 100 136 177 232 279 344 407
#
# _framework density 22.222221999999999
#
# number of rings (size 3 to 8) (size 9 to 14) (size 15 to 20)
#    0.000    1.333    0.000    4.000    7.000    6.667 
#    0.000    0.000    0.000    0.000    0.000    0.000 
#    0.000    0.000    0.000    0.000    0.000    0.000 
#
# Total GULP energy -134110.030256 kJ/mol
# GULP energy per Si atom -5587.917927 kJ/mol
# Density = 2.217164 g / cm^3
# Si number density = 22.222222 Si / 1000 Ang^3
#
#
#
# Elastic Constant Matrix: (Units=GPa)
#
#
# Indices 1 2 3 4 5 6 
#
# 1 47.8549 3.1781 38.9761 0.0000 0.0000 0.0000
# 2 3.1781 35.5595 34.4033 0.0000 0.0000 0.0000
# 3 38.9761 34.4033 166.6179 0.0000 0.0000 0.0000
# 4 0.0000 0.0000 0.0000 34.4100 0.0000 0.0000
# 5 0.0000 0.0000 0.0000 0.0000 51.8906 0.0000
# 6 0.0000 0.0000 0.0000 0.0000 0.0000 16.7284
#
#
#
# Elastic Compliance Matrix: (Units=1/GPa)
#
#
# Indices 1 2 3 4 5 6 
#
# 1 0.026382 0.004515 -0.007104 0.000000 0.000000 0.000000
# 2 0.004515 0.035915 -0.008472 0.000000 0.000000 0.000000
# 3 -0.007104 -0.008472 0.009413 0.000000 0.000000 0.000000
# 4 0.000000 0.000000 0.000000 0.029061 0.000000 0.000000
# 5 0.000000 0.000000 0.000000 0.000000 0.019271 0.000000
# 6 0.000000 0.000000 0.000000 0.000000 0.000000 0.059779
#
#
# Mechanical properties :
#
#
# Convention : Reuss Voigt Hill
#
# Bulk Modulus (GPa) = 20.16596 44.79416 32.48006
# Shear Modulus (GPa) = 22.88624 32.17081 27.52852
#
# Velocity S-wave (km/s) = 3.21266 3.80898 3.52345
# Velocity P-wave (km/s) = 4.78079 6.28852 5.58576
#
# Compressibility (1/GPa) = 0.04958852
#
# Stress axis : x y z
#
# Youngs Moduli (GPa) = 37.90407 27.84374 106.23871
#
# Poissons Ratio (x) = -0.12571 0.75469
# Poissons Ratio (y) = -0.17113 0.90004
# Poissons Ratio (z) = 0.26926 0.23589
#
# Static dielectric constant tensor:
#      x y z
#    x 1.911310 0.000000 0.000000 
#    y 0.000000 1.796840 0.000000 
#    z 0.000000 0.000000 1.771170 
# 
# From -- ./inp_files/7834.got.cif
#   From: 2010.05.17/outbox.ucp.g08.bks.cvg/sg33_4_cif.got.tgz:7834.got - 2010.06.11 10:35:07.
