data_PCOD9347024
_publ_section_title
;
Structure prediction by ZEFSAII (Michael W. Deem and Ramdas Pophale) SiO2 
 PCOD9347024
Probable space group: P N A 21
;
_chemical_formula_sum "Si O2"
_cell_formula_units_Z 20
_cell_length_a 10.606293
_cell_length_b 14.849450
_cell_length_c 4.977480
_cell_angle_alpha 90.000000
_cell_angle_beta 90.000000
_cell_angle_gamma 90.000000
_cell_volume 783.941242
_symmetry_space_group_name_H-M "P N A 21"
_symmetry_group_IT_number 33
_symmetry_cell_setting 'orthorhombic'
loop_
_space_group_symop_operation_xyz
x,y,z
-x,-y,1/2+z
1/2-x,1/2+y,1/2+z
1/2+x,1/2-y,z
loop_
_atom_site_type_symbol
_atom_site_label
_atom_site_fract_x
_atom_site_fract_y
_atom_site_fract_z
Si Si1 0.370777 0.274346 0.205380
Si Si2 0.077683 0.977169 0.669510
Si Si3 0.251833 0.130852 0.597401
Si Si4 0.884338 0.725925 0.366648
Si Si5 0.979963 0.443739 0.871205
O O1 0.383109 0.379548 0.282793
O O2 0.339389 0.195864 0.418251
O O3 0.249972 0.275538 0.010259
O O4 0.501148 0.250222 0.061056
O O5 0.188869 0.035274 0.526164
O O6 0.975001 0.969902 0.430482
O O7 0.133509 0.196116 0.650629
O O8 0.342577 0.100324 0.841505
O O9 0.918839 0.627837 0.261962
O O10 0.988125 0.527755 0.670989
#
# Coordination Sequence:
#
# PCOD9347024 Si02
#       5
#     4   4   4   4   4
#     4  12  28  51  84 116 168 218 276 344 424 496
#     4  12  29  51  81 123 167 218 280 343 416 506
#     4  12  29  49  82 120 168 217 284 346 419 506
#     4  12  27  51  80 118 160 218 274 344 419 504
#     4  12  29  52  79 117 161 215 276 341 414 500
#
# _framework density 25.512115000000001
#
# number of rings (size 3 to 8) (size 9 to 14) (size 15 to 20)
#    0.000    0.000    4.000    3.600   14.000    0.000 
#    0.000    0.000    0.000    0.000    0.000    0.000 
#    0.000    0.000    0.000    0.000    0.000    0.000 
#
# Total GULP energy -111905.699764 kJ/mol
# GULP energy per Si atom -5595.284988 kJ/mol
# Density = 2.545405 g / cm^3
# Si number density = 25.512115 Si / 1000 Ang^3
#
#
#
# Elastic Constant Matrix: (Units=GPa)
#
#
# Indices 1 2 3 4 5 6 
#
# 1 109.0485 41.2319 25.6885 0.0000 0.0000 0.0000
# 2 41.2319 151.2072 29.3567 0.0000 0.0000 0.0000
# 3 25.6885 29.3567 71.3574 0.0000 0.0000 0.0000
# 4 0.0000 0.0000 0.0000 34.7841 0.0000 0.0000
# 5 0.0000 0.0000 0.0000 0.0000 54.4505 0.0000
# 6 0.0000 0.0000 0.0000 0.0000 0.0000 55.7888
#
#
#
# Elastic Compliance Matrix: (Units=1/GPa)
#
#
# Indices 1 2 3 4 5 6 
#
# 1 0.010748 -0.002369 -0.002895 0.000000 0.000000 0.000000
# 2 -0.002369 0.007710 -0.002319 0.000000 0.000000 0.000000
# 3 -0.002895 -0.002319 0.016010 0.000000 0.000000 0.000000
# 4 0.000000 0.000000 0.000000 0.028749 0.000000 0.000000
# 5 0.000000 0.000000 0.000000 0.000000 0.018365 0.000000
# 6 0.000000 0.000000 0.000000 0.000000 0.000000 0.017925
#
#
# Mechanical properties :
#
#
# Convention : Reuss Voigt Hill
#
# Bulk Modulus (GPa) = 51.80650 58.24083 55.02366
# Shear Modulus (GPa) = 41.28637 44.69375 42.99006
#
# Velocity S-wave (km/s) = 4.02718 4.19007 4.10943
# Velocity P-wave (km/s) = 6.47881 6.80347 6.64312
#
# Compressibility (1/GPa) = 0.01930260
#
# Stress axis : x y z
#
# Youngs Moduli (GPa) = 93.04258 129.70838 62.46058
#
# Poissons Ratio (x) = 0.30725 0.18080
# Poissons Ratio (y) = 0.22040 0.14485
# Poissons Ratio (z) = 0.26933 0.30080
#
# Static dielectric constant tensor:
#      x y z
#    x 2.012970 0.000000 0.000000 
#    y 0.000000 2.077190 0.000000 
#    z 0.000000 0.000000 2.070020 
# 
# From -- ./inp_files/738.got.cif
#   From: 2010.05.17/outbox.cif.g08.bks.cpg/sg33_1_cif.got.tgz:738.got - 2010.06.03 17:15:25.
