data_PCOD9347808
_publ_section_title
;
Structure prediction by ZEFSAII (Michael W. Deem and Ramdas Pophale) SiO2 
 PCOD9347808
Probable space group: P N N 2
;
_chemical_formula_sum "Si O2"
_cell_formula_units_Z 14
_cell_length_a 10.964394
_cell_length_b 7.188514
_cell_length_c 7.183248
_cell_angle_alpha 90.000000
_cell_angle_beta 90.000000
_cell_angle_gamma 90.000000
_cell_volume 566.167084
_symmetry_space_group_name_H-M "P N N 2"
_symmetry_group_IT_number 34
_symmetry_cell_setting 'orthorhombic'
loop_
_space_group_symop_operation_xyz
x,y,z
-x,-y,z
1/2-x,1/2+y,1/2+z
1/2+x,1/2-y,1/2+z
loop_
_atom_site_type_symbol
_atom_site_label
_atom_site_fract_x
_atom_site_fract_y
_atom_site_fract_z
Si Si1 0.362341 0.569896 0.474530
Si Si2 0.631210 0.019590 0.420150
Si Si3 0.676665 0.262536 0.886835
Si Si4 0.500000 0.000000 0.071426
O O1 0.500000 0.500000 0.445521
O O2 0.343714 0.767571 0.375644
O O3 0.349785 0.636922 0.690401
O O4 0.268389 0.414104 0.405904
O O5 0.500000 0.000000 0.524163
O O6 0.747832 0.918489 0.501203
O O7 0.599886 0.927216 0.220262
O O8 0.551919 0.172409 0.958587
#
# Coordination Sequence:
#
# PCOD9347808 Si02
#       4
#     4   4   4   2
#     4  12  26  46  78 111 151 207 257 324 394 471
#     4  10  23  47  72 102 158 192 255 318 390 453
#     4  12  26  47  75 114 153 201 260 322 396 472
#     4  10  24  46  72 114 142 200 256 316 392 468
#
# _framework density 24.727681
#
# number of rings (size 3 to 8) (size 9 to 14) (size 15 to 20)
#    0.857    0.000    5.714    0.000    6.000    2.286 
#    0.000    1.429    0.000    0.000    0.000    0.000 
#    0.000    0.000    0.000    0.000    0.000    0.000 
#
# Total GULP energy -78084.984647 kJ/mol
# GULP energy per Si atom -5577.498903 kJ/mol
# Density = 2.467140 g / cm^3
# Si number density = 24.727681 Si / 1000 Ang^3
#
#
#
# Elastic Constant Matrix: (Units=GPa)
#
#
# Indices 1 2 3 4 5 6 
#
# 1 69.8818 51.3747 8.8984 0.0000 0.0000 0.0000
# 2 51.3747 182.1339 19.0187 0.0000 0.0000 0.0000
# 3 8.8984 19.0187 74.5794 0.0000 0.0000 0.0000
# 4 0.0000 0.0000 0.0000 31.4445 0.0000 0.0000
# 5 0.0000 0.0000 0.0000 0.0000 -24.0406 0.0000
# 6 0.0000 0.0000 0.0000 0.0000 0.0000 65.2389
#
#
#
# Elastic Compliance Matrix: (Units=1/GPa)
#
#
# Indices 1 2 3 4 5 6 
#
# 1 0.018110 -0.005016 -0.000882 0.000000 0.000000 0.000000
# 2 -0.005016 0.007030 -0.001194 0.000000 0.000000 0.000000
# 3 -0.000882 -0.001194 0.013818 0.000000 0.000000 0.000000
# 4 0.000000 0.000000 0.000000 0.031802 0.000000 0.000000
# 5 0.000000 0.000000 0.000000 0.000000 -0.041596 0.000000
# 6 0.000000 0.000000 0.000000 0.000000 0.000000 0.015328
#
#
# Mechanical properties :
#
#
# Convention : Reuss Voigt Hill
#
# Bulk Modulus (GPa) = 40.36463 53.90874 47.13669
# Shear Modulus (GPa) = 74.69994 31.01544 52.85769
#
# Velocity S-wave (km/s) = 5.50224 3.54542 4.62843
# Velocity P-wave (km/s) = 7.53162 6.21356 6.90411
#
# Compressibility (1/GPa) = 0.02477416
#
# Stress axis : x y z
#
# Youngs Moduli (GPa) = 55.21852 142.24552 72.36794
#
# Poissons Ratio (x) = 0.71353 0.06380
# Poissons Ratio (y) = 0.27699 0.08643
# Poissons Ratio (z) = 0.04868 0.16988
#
# Static dielectric constant tensor:
#      x y z
#    x 2.100450 0.000000 0.000000 
#    y 0.000000 1.952860 0.000000 
#    z 0.000000 0.000000 2.140490 
# 
# From -- ./inp_files/2949.got.cif
#   From: 2010.05.17/outbox.cif.g08.bks.cpg/sg34_2_cif.got.tgz:2949.got - 2010.06.03 17:23:11.
