data_PCOD9347335
_publ_section_title
;
Structure prediction by ZEFSAII (Michael W. Deem and Ramdas Pophale) SiO2 
 PCOD9347335
Probable space group: P N N 2
;
_chemical_formula_sum "Si O2"
_cell_formula_units_Z 32
_cell_length_a 7.719680
_cell_length_b 9.388075
_cell_length_c 24.569413
_cell_angle_alpha 90.000000
_cell_angle_beta 90.000000
_cell_angle_gamma 90.000000
_cell_volume 1780.617467
_symmetry_space_group_name_H-M "P N N 2"
_symmetry_group_IT_number 34
_symmetry_cell_setting 'orthorhombic'
loop_
_space_group_symop_operation_xyz
x,y,z
-x,-y,z
1/2-x,1/2+y,1/2+z
1/2+x,1/2-y,1/2+z
loop_
_atom_site_type_symbol
_atom_site_label
_atom_site_fract_x
_atom_site_fract_y
_atom_site_fract_z
Si Si1 0.500001 0.671077 0.210910
Si Si2 0.803296 0.667150 0.293541
Si Si3 0.796791 0.169820 0.011001
Si Si4 0.500000 0.170509 0.096638
Si Si5 0.209495 0.664289 0.901432
Si Si6 0.290505 0.835712 0.401433
Si Si7 0.696708 0.832852 0.793542
Si Si8 0.703208 0.330179 0.511002
O O1 0.500000 0.500000 0.203046
O O2 0.666655 0.709394 0.247478
O O3 0.499999 0.748724 0.153486
O O4 0.333352 0.709394 0.247480
O O5 0.778942 0.756980 0.348207
O O6 0.771498 0.500001 0.306444
O O7 0.000002 0.681561 0.273941
O O8 0.669285 0.205701 0.060461
O O9 0.999999 0.200533 0.022450
O O10 0.781915 0.999999 0.000909
O O11 0.743310 0.253668 0.956693
O O12 0.330713 0.205702 0.060462
O O13 0.500000 0.000000 0.105662
O O14 0.264618 0.500000 0.903226
O O15 0.000000 0.668259 0.898077
O O16 0.221057 0.756977 0.348208
O O17 0.243311 0.753670 0.456694
#
# Coordination Sequence:
#
# PCOD9347335 Si02
#       8
#     4   4   4   4   4   4   4   4
#     4  10  22  40  58  80 112 148 187 234 283 330
#     4  10  21  37  58  82 109 148 192 229 275 337
#     4   9  19  36  56  79 110 148 186 226 275 332
#     4  10  22  38  58  82 108 146 193 232 273 332
#     4  10  20  34  55  85 119 148 180 229 285 333
#     4  10  20  34  55  85 119 148 180 229 285 333
#     4  10  21  37  58  82 109 148 192 229 275 337
#     4   9  19  36  56  79 110 148 186 226 275 332
#
# _framework density 17.971292999999999
#
# number of rings (size 3 to 8) (size 9 to 14) (size 15 to 20)
#    0.000    2.250    1.250    0.750    1.750    4.500 
#    0.000    0.000    0.000    0.000    0.000    0.000 
#    0.000    0.000    0.000    0.000    0.000    0.000 
#
# Total GULP energy -178662.345501 kJ/mol
# GULP energy per Si atom -5583.198297 kJ/mol
# Density = 1.793039 g / cm^3
# Si number density = 17.971293 Si / 1000 Ang^3
#
#
#
# Elastic Constant Matrix: (Units=GPa)
#
#
# Indices 1 2 3 4 5 6 
#
# 1 103.4580 58.3122 93.2219 0.0000 0.0000 0.0000
# 2 58.3122 61.9139 83.0318 0.0000 0.0000 0.0000
# 3 93.2219 83.0318 184.6402 0.0000 0.0000 0.0000
# 4 0.0000 0.0000 0.0000 42.2909 0.0000 0.0000
# 5 0.0000 0.0000 0.0000 0.0000 4.2607 0.0000
# 6 0.0000 0.0000 0.0000 0.0000 0.0000 11.0566
#
#
#
# Elastic Compliance Matrix: (Units=1/GPa)
#
#
# Indices 1 2 3 4 5 6 
#
# 1 0.021998 -0.014672 -0.004508 0.000000 0.000000 0.000000
# 2 -0.014672 0.050477 -0.015292 0.000000 0.000000 0.000000
# 3 -0.004508 -0.015292 0.014569 0.000000 0.000000 0.000000
# 4 0.000000 0.000000 0.000000 0.023646 0.000000 0.000000
# 5 0.000000 0.000000 0.000000 0.000000 0.234702 0.000000
# 6 0.000000 0.000000 0.000000 0.000000 0.000000 0.090444
#
#
# Mechanical properties :
#
#
# Convention : Reuss Voigt Hill
#
# Bulk Modulus (GPa) = 55.24949 91.01598 73.13274
# Shear Modulus (GPa) = 9.78831 19.21806 14.50319
#
# Velocity S-wave (km/s) = 2.33634 3.27368 2.84389
# Velocity P-wave (km/s) = 6.17154 8.06501 7.18096
#
# Compressibility (1/GPa) = 0.01809971
#
# Stress axis : x y z
#
# Youngs Moduli (GPa) = 45.45952 19.81082 68.63950
#
# Poissons Ratio (x) = 0.29066 0.30946
# Poissons Ratio (y) = 0.66697 1.04963
# Poissons Ratio (z) = 0.20495 0.30295
#
# Static dielectric constant tensor:
#      x y z
#    x 1.642300 0.000000 0.000000 
#    y 0.000000 1.604270 0.000000 
#    z 0.000000 0.000000 1.555950 
# 
# From -- ./inp_files/8436.got.cif
#   From: 2010.05.17/outbox.cif.g08.bks.cpg/sg34_5_cif.got.tgz:8436.got - 2010.06.03 17:23:11.
