data_PCOD9347122
_publ_section_title
;
Structure prediction by ZEFSAII (Michael W. Deem and Ramdas Pophale) SiO2 
 PCOD9347122
Probable space group: P N N 2
;
_chemical_formula_sum "Si O2"
_cell_formula_units_Z 26
_cell_length_a 9.076312
_cell_length_b 7.871142
_cell_length_c 18.467110
_cell_angle_alpha 90.000000
_cell_angle_beta 90.000000
_cell_angle_gamma 90.000000
_cell_volume 1319.307708
_symmetry_space_group_name_H-M "P N N 2"
_symmetry_group_IT_number 34
_symmetry_cell_setting 'orthorhombic'
loop_
_space_group_symop_operation_xyz
x,y,z
-x,-y,z
1/2-x,1/2+y,1/2+z
1/2+x,1/2-y,1/2+z
loop_
_atom_site_type_symbol
_atom_site_label
_atom_site_fract_x
_atom_site_fract_y
_atom_site_fract_z
Si Si1 0.377326 0.268391 0.182700
Si Si2 0.410961 0.817279 0.298386
Si Si3 0.661973 0.537123 0.705456
Si Si4 0.000000 0.500000 0.568116
Si Si5 0.826487 0.530835 0.088274
Si Si6 0.054479 0.300062 0.960870
Si Si7 0.792316 0.161621 0.042035
O O1 0.483991 0.298852 0.249641
O O2 0.288387 0.423377 0.149820
O O3 0.249834 0.138247 0.205586
O O4 0.465825 0.159487 0.121613
O O5 0.258752 0.840960 0.255671
O O6 0.389507 0.762854 0.381027
O O7 0.500000 0.000000 0.298307
O O8 0.500000 0.500000 0.732554
O O9 0.656602 0.601500 0.622198
O O10 0.146269 0.445301 0.525174
O O11 0.763410 0.362095 0.051673
O O12 0.000000 0.500000 0.110650
O O13 0.836233 0.684555 0.029634
O O14 0.000000 0.500000 0.958029
O O15 0.924348 0.172691 0.984427
#
# Coordination Sequence:
#
# PCOD9347122 Si02
#       7
#     4   4   4   2   4   4   4
#     4  10  17  32  53  78 104 138 180 230 267 322
#     4   9  16  31  53  78 106 139 186 221 273 325
#     4  10  17  29  53  80 104 137 184 230 264 315
#     4  10  18  32  50  82 104 136 188 226 268 314
#     4   9  18  31  52  79 104 140 180 225 273 322
#     4   8  16  31  53  76 103 141 180 219 271 327
#     4   9  17  31  50  79 105 139 182 225 267 323
#
# _framework density 19.707305000000002
#
# number of rings (size 3 to 8) (size 9 to 14) (size 15 to 20)
#    0.000    3.077    3.846    1.846    0.000    0.615 
#    0.000    0.000   15.231    9.231    0.000    0.000 
#    0.000    0.000    0.000    0.000    0.000    0.000 
#
# Total GULP energy -144806.706258 kJ/mol
# GULP energy per Si atom -5569.488702 kJ/mol
# Density = 1.966245 g / cm^3
# Si number density = 19.707305 Si / 1000 Ang^3
#
#
#
# Elastic Constant Matrix: (Units=GPa)
#
#
# Indices 1 2 3 4 5 6 
#
# 1 101.0988 28.9553 53.4024 0.0000 0.0000 0.0000
# 2 28.9553 46.0228 15.4376 0.0000 0.0000 0.0000
# 3 53.4024 15.4376 94.1604 0.0000 0.0000 0.0000
# 4 0.0000 0.0000 0.0000 13.2125 0.0000 0.0000
# 5 0.0000 0.0000 0.0000 0.0000 3.4295 0.0000
# 6 0.0000 0.0000 0.0000 0.0000 0.0000 31.0299
#
#
#
# Elastic Compliance Matrix: (Units=1/GPa)
#
#
# Indices 1 2 3 4 5 6 
#
# 1 0.016279 -0.007561 -0.007993 0.000000 0.000000 0.000000
# 2 -0.007561 0.026504 -0.000057 0.000000 0.000000 0.000000
# 3 -0.007993 -0.000057 0.015163 0.000000 0.000000 0.000000
# 4 0.000000 0.000000 0.000000 0.075686 0.000000 0.000000
# 5 0.000000 0.000000 0.000000 0.000000 0.291585 0.000000
# 6 0.000000 0.000000 0.000000 0.000000 0.000000 0.032227
#
#
# Mechanical properties :
#
#
# Convention : Reuss Voigt Hill
#
# Bulk Modulus (GPa) = 37.41952 48.54140 42.98046
# Shear Modulus (GPa) = 10.04877 19.10018 14.57448
#
# Velocity S-wave (km/s) = 2.26055 3.11656 2.72241
# Velocity P-wave (km/s) = 5.08353 6.13476 5.63372
#
# Compressibility (1/GPa) = 0.02672402
#
# Stress axis : x y z
#
# Youngs Moduli (GPa) = 61.43004 37.72953 65.95160
#
# Poissons Ratio (x) = 0.28526 0.52714
# Poissons Ratio (y) = 0.46445 0.00379
# Poissons Ratio (z) = 0.49100 0.00217
#
# Static dielectric constant tensor:
#      x y z
#    x 1.734660 0.000000 0.000000 
#    y 0.000000 1.801760 0.000000 
#    z 0.000000 0.000000 1.711670 
# 
# From -- ./inp_files/7477.got.cif
#   From: 2010.05.17/outbox.cif.g08.bks.cpg/sg34_4_cif.got.tgz:7477.got - 2010.06.03 17:23:11.
