data_PCOD9347133
_publ_section_title
;
Structure prediction by ZEFSAII (Michael W. Deem and Ramdas Pophale) SiO2 
 PCOD9347133
Probable space group: P N N 2
;
_chemical_formula_sum "Si O2"
_cell_formula_units_Z 30
_cell_length_a 5.957106
_cell_length_b 12.375114
_cell_length_c 16.885938
_cell_angle_alpha 90.000000
_cell_angle_beta 90.000000
_cell_angle_gamma 90.000000
_cell_volume 1244.829084
_symmetry_space_group_name_H-M "P N N 2"
_symmetry_group_IT_number 34
_symmetry_cell_setting 'orthorhombic'
loop_
_space_group_symop_operation_xyz
x,y,z
-x,-y,z
1/2-x,1/2+y,1/2+z
1/2+x,1/2-y,1/2+z
loop_
_atom_site_type_symbol
_atom_site_label
_atom_site_fract_x
_atom_site_fract_y
_atom_site_fract_z
Si Si1 0.809280 0.229864 0.064350
Si Si2 0.279884 0.201598 0.317899
Si Si3 0.740810 0.982627 0.594044
Si Si4 0.998511 0.329931 0.420222
Si Si5 0.674356 0.124626 0.433386
Si Si6 0.014783 0.383213 0.680556
Si Si7 0.000000 0.000000 0.324828
Si Si8 0.311864 0.590591 0.531500
O O1 0.758915 0.355474 0.072289
O O2 0.741997 0.161801 0.142107
O O3 0.062098 0.205185 0.040107
O O4 0.664039 0.178621 0.994345
O O5 0.149757 0.310440 0.343340
O O6 0.438505 0.164298 0.392943
O O7 0.437310 0.207491 0.241831
O O8 0.097469 0.111016 0.289260
O O9 0.500000 0.000000 0.640101
O O10 0.701467 0.062794 0.518011
O O11 0.000000 0.000000 0.623608
O O12 0.849909 0.221778 0.424546
O O13 0.818708 0.419127 0.448044
O O14 0.787336 0.037302 0.375531
O O15 0.850939 0.406664 0.606492
O O16 0.000000 0.500000 0.722729
O O17 0.500000 0.500000 0.537885
#
# Coordination Sequence:
#
# PCOD9347133 Si02
#       8
#     4   4   4   4   4   4   2   4
#     4  11  23  40  62  90 134 174 228 282 342 425
#     4  11  23  35  59  92 135 179 213 283 359 435
#     4  12  22  36  63  98 138 169 219 290 363 419
#     4  10  21  37  61  96 128 164 227 277 348 416
#     4  11  19  35  55  91 135 162 203 276 354 422
#     4  11  24  41  59  91 136 182 232 274 353 435
#     4  10  18  28  48  80 122 168 206 240 334 422
#     4  11  23  40  64  89 134 183 231 288 338 413
#
# _framework density 24.099695000000001
#
# number of rings (size 3 to 8) (size 9 to 14) (size 15 to 20)
#    0.000    1.067    3.333    5.200    2.800    3.200 
#    0.000    0.000    0.000    0.000    0.000   14.000 
#    0.000    0.000    0.000    0.000    0.000    0.000 
#
# Total GULP energy -167160.300531 kJ/mol
# GULP energy per Si atom -5572.010018 kJ/mol
# Density = 2.404484 g / cm^3
# Si number density = 24.099695 Si / 1000 Ang^3
#
#
#
# Elastic Constant Matrix: (Units=GPa)
#
#
# Indices 1 2 3 4 5 6 
#
# 1 121.6319 17.6998 28.8669 0.0000 0.0000 0.0000
# 2 17.6998 59.2002 5.8285 0.0000 0.0000 0.0000
# 3 28.8669 5.8285 67.3148 0.0000 0.0000 0.0000
# 4 0.0000 0.0000 0.0000 12.7549 0.0000 0.0000
# 5 0.0000 0.0000 0.0000 0.0000 15.7264 0.0000
# 6 0.0000 0.0000 0.0000 0.0000 0.0000 52.3198
#
#
#
# Elastic Compliance Matrix: (Units=1/GPa)
#
#
# Indices 1 2 3 4 5 6 
#
# 1 0.009495 -0.002459 -0.003859 0.000000 0.000000 0.000000
# 2 -0.002459 0.017674 -0.000476 0.000000 0.000000 0.000000
# 3 -0.003859 -0.000476 0.016552 0.000000 0.000000 0.000000
# 4 0.000000 0.000000 0.000000 0.078401 0.000000 0.000000
# 5 0.000000 0.000000 0.000000 0.000000 0.063587 0.000000
# 6 0.000000 0.000000 0.000000 0.000000 0.000000 0.019113
#
#
# Mechanical properties :
#
#
# Convention : Reuss Voigt Hill
#
# Bulk Modulus (GPa) = 33.18598 39.21527 36.20063
# Shear Modulus (GPa) = 21.88621 29.21033 25.54827
#
# Velocity S-wave (km/s) = 3.01683 3.48525 3.25946
# Velocity P-wave (km/s) = 5.09266 5.70117 5.40548
#
# Compressibility (1/GPa) = 0.03013321
#
# Stress axis : x y z
#
# Youngs Moduli (GPa) = 105.31636 56.58071 60.41699
#
# Poissons Ratio (x) = 0.13913 0.23315
# Poissons Ratio (y) = 0.25897 0.02875
# Poissons Ratio (z) = 0.40641 0.02692
#
# Static dielectric constant tensor:
#      x y z
#    x 2.010400 0.000000 0.000000 
#    y 0.000000 2.023150 0.000000 
#    z 0.000000 0.000000 1.941240 
# 
# From -- ./inp_files/7975.got.cif
#   From: 2010.05.17/outbox.cif.g08.bks.cpg/sg34_4_cif.got.tgz:7975.got - 2010.06.03 17:23:11.
