data_PCOD9347108
_publ_section_title
;
Structure prediction by ZEFSAII (Michael W. Deem and Ramdas Pophale) SiO2 
 PCOD9347108
Probable space group: P N N 2
;
_chemical_formula_sum "Si O2"
_cell_formula_units_Z 30
_cell_length_a 8.276280
_cell_length_b 11.939459
_cell_length_c 16.957931
_cell_angle_alpha 90.000000
_cell_angle_beta 90.000000
_cell_angle_gamma 90.000000
_cell_volume 1675.686178
_symmetry_space_group_name_H-M "P N N 2"
_symmetry_group_IT_number 34
_symmetry_cell_setting 'orthorhombic'
loop_
_space_group_symop_operation_xyz
x,y,z
-x,-y,z
1/2-x,1/2+y,1/2+z
1/2+x,1/2-y,1/2+z
loop_
_atom_site_type_symbol
_atom_site_label
_atom_site_fract_x
_atom_site_fract_y
_atom_site_fract_z
Si Si1 0.258911 0.318442 0.323490
Si Si2 0.967551 0.368207 0.430766
Si Si3 0.000000 0.000000 0.821485
Si Si4 0.791192 0.612802 0.141175
Si Si5 0.144093 0.650182 0.133552
Si Si6 0.512565 0.242199 0.098331
Si Si7 0.763632 0.812981 0.798203
Si Si8 0.993784 0.368296 0.768102
O O1 0.104538 0.308892 0.377989
O O2 0.374938 0.414565 0.362166
O O3 0.219306 0.365625 0.235854
O O4 0.350255 0.201202 0.310087
O O5 0.974854 0.322760 0.518475
O O6 0.000000 0.500000 0.428873
O O7 0.804324 0.345162 0.382623
O O8 0.896303 0.907633 0.774490
O O9 0.814883 0.481209 0.126166
O O10 0.623751 0.661183 0.107362
O O11 0.957688 0.668463 0.107471
O O12 0.300475 0.715406 0.099553
O O13 0.139976 0.680230 0.226710
O O14 0.488724 0.164032 0.175407
O O15 0.845902 0.692939 0.799538
O O16 0.000000 0.500000 0.780210
#
# Coordination Sequence:
#
# PCOD9347108 Si02
#       8
#     4   4   2   4   4   4   4   4
#     4  10  19  32  62  88 112 143 199 245 295 333
#     4  12  21  38  58  88 119 144 187 252 305 346
#     4  10  16  30  52  98 108 138 178 256 298 330
#     4  10  18  34  59  86 113 150 197 247 285 338
#     4  10  18  34  59  86 113 150 197 247 285 338
#     4  10  23  35  56  83 122 157 189 230 298 361
#     4  10  19  32  62  88 112 143 199 245 295 333
#     4   9  20  40  58  79 114 160 193 229 284 357
#
# _framework density 17.903113000000001
#
# number of rings (size 3 to 8) (size 9 to 14) (size 15 to 20)
#    0.000    1.867    4.000    1.600    0.000    0.000 
#    4.800    3.333    0.000    1.600    0.000    0.000 
#    0.000    0.000    0.000    0.000    0.000    0.000 
#
# Total GULP energy -167044.684151 kJ/mol
# GULP energy per Si atom -5568.156138 kJ/mol
# Density = 1.786236 g / cm^3
# Si number density = 17.903113 Si / 1000 Ang^3
#
#
#
# Elastic Constant Matrix: (Units=GPa)
#
#
# Indices 1 2 3 4 5 6 
#
# 1 92.3703 37.0772 24.8111 0.0000 0.0000 0.0000
# 2 37.0772 126.9762 28.0102 0.0000 0.0000 0.0000
# 3 24.8111 28.0102 76.7767 0.0000 0.0000 0.0000
# 4 0.0000 0.0000 0.0000 14.9199 0.0000 0.0000
# 5 0.0000 0.0000 0.0000 0.0000 18.3928 0.0000
# 6 0.0000 0.0000 0.0000 0.0000 0.0000 15.1376
#
#
#
# Elastic Compliance Matrix: (Units=1/GPa)
#
#
# Indices 1 2 3 4 5 6 
#
# 1 0.012882 -0.003092 -0.003035 0.000000 0.000000 0.000000
# 2 -0.003092 0.009307 -0.002396 0.000000 0.000000 0.000000
# 3 -0.003035 -0.002396 0.014880 0.000000 0.000000 0.000000
# 4 0.000000 0.000000 0.000000 0.067024 0.000000 0.000000
# 5 0.000000 0.000000 0.000000 0.000000 0.054369 0.000000
# 6 0.000000 0.000000 0.000000 0.000000 0.000000 0.066061
#
#
# Mechanical properties :
#
#
# Convention : Reuss Voigt Hill
#
# Bulk Modulus (GPa) = 49.94377 52.88002 51.41190
# Shear Modulus (GPa) = 20.14144 23.43836 21.78990
#
# Velocity S-wave (km/s) = 3.35778 3.62218 3.49248
# Velocity P-wave (km/s) = 6.55669 6.86254 6.71136
#
# Compressibility (1/GPa) = 0.02002252
#
# Stress axis : x y z
#
# Youngs Moduli (GPa) = 77.62536 107.44609 67.20538
#
# Poissons Ratio (x) = 0.33224 0.20397
# Poissons Ratio (y) = 0.24003 0.16104
# Poissons Ratio (z) = 0.23559 0.25746
#
# Static dielectric constant tensor:
#      x y z
#    x 1.698020 0.000000 0.000000 
#    y 0.000000 1.592590 0.000000 
#    z 0.000000 0.000000 1.604710 
# 
# From -- ./inp_files/6538.got.cif
#   From: 2010.05.17/outbox.cif.g08.bks.cpg/sg34_4_cif.got.tgz:6538.got - 2010.06.03 17:23:11.
