data_PCOD9347509
_publ_section_title
;
Structure prediction by ZEFSAII (Michael W. Deem and Ramdas Pophale) SiO2 
 PCOD9347509
Probable space group: P N N 2
;
_chemical_formula_sum "Si O2"
_cell_formula_units_Z 24
_cell_length_a 13.714781
_cell_length_b 9.124411
_cell_length_c 7.760693
_cell_angle_alpha 90.000000
_cell_angle_beta 90.000000
_cell_angle_gamma 90.000000
_cell_volume 971.167679
_symmetry_space_group_name_H-M "P N N 2"
_symmetry_group_IT_number 34
_symmetry_cell_setting 'orthorhombic'
loop_
_space_group_symop_operation_xyz
x,y,z
-x,-y,z
1/2-x,1/2+y,1/2+z
1/2+x,1/2-y,1/2+z
loop_
_atom_site_type_symbol
_atom_site_label
_atom_site_fract_x
_atom_site_fract_y
_atom_site_fract_z
Si Si1 0.694945 0.038727 0.093450
Si Si2 0.441532 0.152304 0.929301
Si Si3 0.905970 0.418603 0.941482
Si Si4 0.400540 0.438484 0.759580
Si Si5 0.479255 0.670157 0.259995
Si Si6 0.191143 0.139922 0.554103
O O1 0.625925 0.009251 0.264771
O O2 0.805442 0.036098 0.150105
O O3 0.665213 0.901391 0.981312
O O4 0.684909 0.191241 0.988745
O O5 0.425377 0.268489 0.781960
O O6 0.500000 0.000000 0.909757
O O7 0.488187 0.249785 0.081696
O O8 0.803617 0.408654 0.041795
O O9 0.000000 0.500000 0.020200
O O10 0.953856 0.263021 0.889507
O O11 0.500000 0.500000 0.687056
O O12 0.371569 0.525709 0.938025
O O13 0.500000 0.500000 0.271078
O O14 0.361016 0.665078 0.238996
#
# Coordination Sequence:
#
# PCOD9347509 Si02
#       6
#     4   4   4   4   4   4
#     4  10  21  37  59  88 120 157 203 256 308 368
#     4  11  18  36  62  84 114 158 202 251 302 374
#     4  10  21  37  63  89 123 164 204 255 314 367
#     4  11  21  38  61  86 118 162 204 249 311 375
#     4  11  18  36  63  87 115 160 204 256 305 376
#     4  11  19  39  61  85 119 163 204 249 310 374
#
# _framework density 24.712522
#
# number of rings (size 3 to 8) (size 9 to 14) (size 15 to 20)
#    0.000    1.333    6.667    1.000    0.000    0.000 
#    3.000    6.667    0.000    0.000    0.000    0.000 
#    0.000    0.000    0.000    0.000    0.000    0.000 
#
# Total GULP energy -133889.448066 kJ/mol
# GULP energy per Si atom -5578.727003 kJ/mol
# Density = 2.465628 g / cm^3
# Si number density = 24.712522 Si / 1000 Ang^3
#
#
#
# Elastic Constant Matrix: (Units=GPa)
#
#
# Indices 1 2 3 4 5 6 
#
# 1 186.8853 80.3726 38.2979 0.0000 0.0000 0.0000
# 2 80.3726 197.2794 34.6735 0.0000 0.0000 0.0000
# 3 38.2979 34.6735 68.4425 0.0000 0.0000 0.0000
# 4 0.0000 0.0000 0.0000 12.7273 0.0000 0.0000
# 5 0.0000 0.0000 0.0000 0.0000 47.3900 0.0000
# 6 0.0000 0.0000 0.0000 0.0000 0.0000 45.8087
#
#
#
# Elastic Compliance Matrix: (Units=1/GPa)
#
#
# Indices 1 2 3 4 5 6 
#
# 1 0.006908 -0.002343 -0.002678 0.000000 0.000000 0.000000
# 2 -0.002343 0.006359 -0.001910 0.000000 0.000000 0.000000
# 3 -0.002678 -0.001910 0.017077 0.000000 0.000000 0.000000
# 4 0.000000 0.000000 0.000000 0.078571 0.000000 0.000000
# 5 0.000000 0.000000 0.000000 0.000000 0.021101 0.000000
# 6 0.000000 0.000000 0.000000 0.000000 0.000000 0.021830
#
#
# Mechanical properties :
#
#
# Convention : Reuss Voigt Hill
#
# Bulk Modulus (GPa) = 60.67826 84.36611 72.52219
# Shear Modulus (GPa) = 29.20493 41.13607 35.17050
#
# Velocity S-wave (km/s) = 3.44144 4.08436 3.77661
# Velocity P-wave (km/s) = 6.35597 7.51371 6.95895
#
# Compressibility (1/GPa) = 0.01648037
#
# Stress axis : x y z
#
# Youngs Moduli (GPa) = 144.76994 157.24574 58.55784
#
# Poissons Ratio (x) = 0.36850 0.15682
# Poissons Ratio (y) = 0.33927 0.11187
# Poissons Ratio (z) = 0.38769 0.30041
#
# Static dielectric constant tensor:
#      x y z
#    x 1.977990 0.000000 0.000000 
#    y 0.000000 1.969550 0.000000 
#    z 0.000000 0.000000 2.065680 
# 
# From -- ./inp_files/5327.got.cif
#   From: 2010.05.17/outbox.cif.g08.bks.cpg/sg34_3_cif.got.tgz:5327.got - 2010.06.03 17:23:11.
