data_PCOD9347226
_publ_section_title
;
Structure prediction by ZEFSAII (Michael W. Deem and Ramdas Pophale) SiO2 
 PCOD9347226
Probable space group: P N N 2
;
_chemical_formula_sum "Si O2"
_cell_formula_units_Z 24
_cell_length_a 16.933607
_cell_length_b 7.460845
_cell_length_c 7.326810
_cell_angle_alpha 90.000000
_cell_angle_beta 90.000000
_cell_angle_gamma 90.000000
_cell_volume 925.661974
_symmetry_space_group_name_H-M "P N N 2"
_symmetry_group_IT_number 34
_symmetry_cell_setting 'orthorhombic'
loop_
_space_group_symop_operation_xyz
x,y,z
-x,-y,z
1/2-x,1/2+y,1/2+z
1/2+x,1/2-y,1/2+z
loop_
_atom_site_type_symbol
_atom_site_label
_atom_site_fract_x
_atom_site_fract_y
_atom_site_fract_z
Si Si1 0.582110 0.518258 0.204110
Si Si2 0.084920 0.067823 0.107788
Si Si3 0.746198 0.911928 0.144334
Si Si4 0.751558 0.494121 0.059707
Si Si5 0.410952 0.959247 0.661590
Si Si6 0.915396 0.445089 0.732088
O O1 0.500000 0.500000 0.096392
O O2 0.571127 0.410734 0.391837
O O3 0.664053 0.452456 0.125560
O O4 0.589504 0.729670 0.243061
O O5 0.172272 0.979402 0.111643
O O6 0.099145 0.252751 0.208658
O O7 0.000000 0.000000 0.174037
O O8 0.752413 0.715013 0.051316
O O9 0.660260 0.000019 0.110312
O O10 0.740257 0.901450 0.364386
O O11 0.825745 0.447249 0.191885
O O12 0.500000 0.000000 0.724341
O O13 0.413902 0.981190 0.439221
O O14 0.000000 0.500000 0.653386
#
# Coordination Sequence:
#
# PCOD9347226 Si02
#       6
#     4   4   4   4   4   4
#     4  10  19  32  52  81 107 139 187 238 288 350
#     4  10  19  32  52  81 107 139 187 238 288 350
#     4   9  19  35  54  77 109 148 189 235 297 360
#     4   9  19  35  54  77 109 148 189 235 297 360
#     4   9  16  31  51  72 101 140 179 223 282 350
#     4   9  16  31  51  72 101 140 179 223 282 350
#
# _framework density 25.927391
#
# number of rings (size 3 to 8) (size 9 to 14) (size 15 to 20)
#    0.000    2.667    0.000    4.000    0.000    0.667 
#    0.000   26.667    0.000    5.000    0.000    9.333 
#    0.000    0.000    0.000    0.000    0.000    0.000 
#
# Total GULP energy -133722.486781 kJ/mol
# GULP energy per Si atom -5571.770283 kJ/mol
# Density = 2.586838 g / cm^3
# Si number density = 25.927391 Si / 1000 Ang^3
#
#
#
# Elastic Constant Matrix: (Units=GPa)
#
#
# Indices 1 2 3 4 5 6 
#
# 1 293.0747 -1.6620 4.4376 0.0000 0.0000 0.0000
# 2 -1.6620 88.8355 2.5288 0.0000 0.0000 0.0000
# 3 4.4376 2.5288 71.9290 0.0000 0.0000 0.0000
# 4 0.0000 0.0000 0.0000 -14.2739 0.0000 0.0000
# 5 0.0000 0.0000 0.0000 0.0000 49.6158 0.0000
# 6 0.0000 0.0000 0.0000 0.0000 0.0000 32.7919
#
#
#
# Elastic Compliance Matrix: (Units=1/GPa)
#
#
# Indices 1 2 3 4 5 6 
#
# 1 0.003416 0.000070 -0.000213 0.000000 0.000000 0.000000
# 2 0.000070 0.011269 -0.000401 0.000000 0.000000 0.000000
# 3 -0.000213 -0.000401 0.013930 0.000000 0.000000 0.000000
# 4 0.000000 0.000000 0.000000 -0.070058 0.000000 0.000000
# 5 0.000000 0.000000 0.000000 0.000000 0.020155 0.000000
# 6 0.000000 0.000000 0.000000 0.000000 0.000000 0.030495
#
#
# Mechanical properties :
#
#
# Convention : Reuss Voigt Hill
#
# Bulk Modulus (GPa) = 36.32722 51.60533 43.96627
# Shear Modulus (GPa) = 256.79490 43.52907 150.16198
#
# Velocity S-wave (km/s) = 9.96288 4.10186 7.61854
# Velocity P-wave (km/s) = 12.09904 6.51005 9.71513
#
# Compressibility (1/GPa) = 0.02752756
#
# Stress axis : x y z
#
# Youngs Moduli (GPa) = 292.76366 88.73529 71.78838
#
# Poissons Ratio (x) = -0.00621 0.01530
# Poissons Ratio (y) = -0.02049 0.02875
# Poissons Ratio (z) = 0.06241 0.03554
#
# Static dielectric constant tensor:
#      x y z
#    x 2.311000 0.000000 0.000000 
#    y 0.000000 2.042100 0.000000 
#    z 0.000000 0.000000 2.026570 
# 
# From -- ./inp_files/3840.got.cif
#   From: 2010.05.17/outbox.cif.g08.bks.cpg/sg34_2_cif.got.tgz:3840.got - 2010.06.03 17:23:11.
