data_PCOD9347401
_publ_section_title
;
Structure prediction by ZEFSAII (Michael W. Deem and Ramdas Pophale) SiO2 
 PCOD9347401
Probable space group: P N N 2
;
_chemical_formula_sum "Si O2"
_cell_formula_units_Z 30
_cell_length_a 8.180083
_cell_length_b 19.724940
_cell_length_c 8.924394
_cell_angle_alpha 90.000000
_cell_angle_beta 90.000000
_cell_angle_gamma 90.000000
_cell_volume 1439.965665
_symmetry_space_group_name_H-M "P N N 2"
_symmetry_group_IT_number 34
_symmetry_cell_setting 'orthorhombic'
loop_
_space_group_symop_operation_xyz
x,y,z
-x,-y,z
1/2-x,1/2+y,1/2+z
1/2+x,1/2-y,1/2+z
loop_
_atom_site_type_symbol
_atom_site_label
_atom_site_fract_x
_atom_site_fract_y
_atom_site_fract_z
Si Si1 0.421314 0.639009 0.046130
Si Si2 0.931415 0.657214 0.925309
Si Si3 0.357411 0.055482 0.572133
Si Si4 0.882383 0.134145 0.243294
Si Si5 0.759719 0.136607 0.736745
Si Si6 0.500000 0.500000 0.577665
Si Si7 0.179402 0.509385 0.383856
Si Si8 0.677630 0.738823 0.487707
O O1 0.335377 0.564469 0.042475
O O2 0.554147 0.639489 0.177835
O O3 0.291676 0.701299 0.055778
O O4 0.511324 0.649697 0.888966
O O5 0.847054 0.653263 0.089654
O O6 0.078304 0.605280 0.943856
O O7 0.021629 0.727982 0.904920
O O8 0.803749 0.634796 0.802017
O O9 0.500000 0.000000 0.559270
O O10 0.351412 0.065199 0.753196
O O11 0.937014 0.063188 0.174008
O O12 0.890964 0.191924 0.119017
O O13 0.721722 0.061171 0.796962
O O14 0.732070 0.190505 0.868742
O O15 0.340118 0.522855 0.481757
O O16 0.000000 0.500000 0.459888
#
# Coordination Sequence:
#
# PCOD9347401 Si02
#       8
#     4   4   4   4   4   2   4   4
#     4  10  24  39  66  97 127 179 224 281 350 398
#     4  10  22  41  66  94 131 169 225 278 331 402
#     4  10  20  38  65  94 123 170 232 272 327 402
#     4  11  25  43  63 101 138 173 219 289 355 411
#     4  11  20  41  67  91 130 174 223 278 320 418
#     4  12  26  44  66 104 152 176 224 288 372 414
#     4  11  22  43  68 104 129 182 233 275 341 406
#     4  11  22  43  65  94 132 176 228 273 347 410
#
# _framework density 20.833832000000001
#
# number of rings (size 3 to 8) (size 9 to 14) (size 15 to 20)
#    0.000    1.333    4.000    2.400    1.867    0.000 
#    4.800    1.333    0.000    0.000    0.000    0.000 
#    0.000    0.000    0.000    0.000    0.000    0.000 
#
# Total GULP energy -167014.217696 kJ/mol
# GULP energy per Si atom -5567.140590 kJ/mol
# Density = 2.078641 g / cm^3
# Si number density = 20.833832 Si / 1000 Ang^3
#
#
#
# Elastic Constant Matrix: (Units=GPa)
#
#
# Indices 1 2 3 4 5 6 
#
# 1 91.4846 25.7059 11.6515 0.0000 0.0000 0.0000
# 2 25.7059 65.4581 21.8158 0.0000 0.0000 0.0000
# 3 11.6515 21.8158 44.0324 0.0000 0.0000 0.0000
# 4 0.0000 0.0000 0.0000 28.9380 0.0000 0.0000
# 5 0.0000 0.0000 0.0000 0.0000 28.4688 0.0000
# 6 0.0000 0.0000 0.0000 0.0000 0.0000 28.9009
#
#
#
# Elastic Compliance Matrix: (Units=1/GPa)
#
#
# Indices 1 2 3 4 5 6 
#
# 1 0.012326 -0.004496 -0.001034 0.000000 0.000000 0.000000
# 2 -0.004496 0.019938 -0.008689 0.000000 0.000000 0.000000
# 3 -0.001034 -0.008689 0.027289 0.000000 0.000000 0.000000
# 4 0.000000 0.000000 0.000000 0.034557 0.000000 0.000000
# 5 0.000000 0.000000 0.000000 0.000000 0.035126 0.000000
# 6 0.000000 0.000000 0.000000 0.000000 0.000000 0.034601
#
#
# Mechanical properties :
#
#
# Convention : Reuss Voigt Hill
#
# Bulk Modulus (GPa) = 32.13809 35.48018 33.80913
# Shear Modulus (GPa) = 24.67355 26.71498 25.69427
#
# Velocity S-wave (km/s) = 3.44510 3.58479 3.51564
# Velocity P-wave (km/s) = 5.59324 5.84819 5.72214
#
# Compressibility (1/GPa) = 0.03111573
#
# Stress axis : x y z
#
# Youngs Moduli (GPa) = 81.13096 50.15481 36.64477
#
# Poissons Ratio (x) = 0.22548 0.03790
# Poissons Ratio (y) = 0.36475 0.31840
# Poissons Ratio (z) = 0.08390 0.43578
#
# Static dielectric constant tensor:
#      x y z
#    x 1.808160 0.000000 0.000000 
#    y 0.000000 1.832060 0.000000 
#    z 0.000000 0.000000 1.724800 
# 
# From -- ./inp_files/2887.got.cif
#   From: 2010.05.17/outbox.cif.g08.bks.cpg/sg34_2_cif.got.tgz:2887.got - 2010.06.03 17:23:11.
