data_PCOD9347483
_publ_section_title
;
Structure prediction by ZEFSAII (Michael W. Deem and Ramdas Pophale) SiO2 
 PCOD9347483
Probable space group: P N N 2
;
_chemical_formula_sum "Si O2"
_cell_formula_units_Z 24
_cell_length_a 16.128992
_cell_length_b 5.102062
_cell_length_c 11.603284
_cell_angle_alpha 90.000000
_cell_angle_beta 90.000000
_cell_angle_gamma 90.000000
_cell_volume 954.847203
_symmetry_space_group_name_H-M "P N N 2"
_symmetry_group_IT_number 34
_symmetry_cell_setting 'orthorhombic'
loop_
_space_group_symop_operation_xyz
x,y,z
-x,-y,z
1/2-x,1/2+y,1/2+z
1/2+x,1/2-y,1/2+z
loop_
_atom_site_type_symbol
_atom_site_label
_atom_site_fract_x
_atom_site_fract_y
_atom_site_fract_z
Si Si1 0.553203 0.239311 0.586980
Si Si2 0.138950 0.699898 0.549994
Si Si3 0.718593 0.870621 0.268236
Si Si4 0.500000 0.500000 0.962151
Si Si5 0.000000 0.500000 0.719898
Si Si6 0.113800 0.361372 0.332021
Si Si7 0.379706 0.635438 0.347884
O O1 0.500000 0.500000 0.620835
O O2 0.594797 0.099542 0.697608
O O3 0.611659 0.338580 0.484720
O O4 0.500000 0.000000 0.535660
O O5 0.218929 0.692327 0.630662
O O6 0.143095 0.578814 0.423317
O O7 0.075080 0.543969 0.631499
O O8 0.083467 0.959408 0.535333
O O9 0.807480 0.831521 0.325380
O O10 0.652936 0.653337 0.315619
O O11 0.687835 0.159367 0.299257
O O12 0.470572 0.734844 0.881432
O O13 0.965404 0.742727 0.795248
#
# Coordination Sequence:
#
# PCOD9347483 Si02
#       7
#     4   4   4   2   2   4   4
#     4  12  26  46  73 108 147 193 253 318 384 467
#     4  11  24  46  72 110 142 196 254 318 379 461
#     4  11  29  46  74 109 153 199 251 322 399 460
#     4  12  22  46  76 108 140 194 260 310 374 464
#     4  10  20  44  74 104 138 186 258 310 366 454
#     4  12  28  46  72 108 154 200 258 319 393 472
#     4  11  25  49  72 111 147 196 252 319 394 465
#
# _framework density 25.134912
#
# number of rings (size 3 to 8) (size 9 to 14) (size 15 to 20)
#    0.000    0.667    3.333    3.000    9.333    0.000 
#    0.000    0.000    0.000    0.000    0.000    0.000 
#    0.000    0.000    0.000    0.000    0.000    0.000 
#
# Total GULP energy -134022.405383 kJ/mol
# GULP energy per Si atom -5584.266891 kJ/mol
# Density = 2.507770 g / cm^3
# Si number density = 25.134912 Si / 1000 Ang^3
#
#
#
# Elastic Constant Matrix: (Units=GPa)
#
#
# Indices 1 2 3 4 5 6 
#
# 1 77.6110 3.8854 9.9012 0.0000 0.0000 0.0000
# 2 3.8854 85.5716 21.9238 0.0000 0.0000 0.0000
# 3 9.9012 21.9238 160.7478 0.0000 0.0000 0.0000
# 4 0.0000 0.0000 0.0000 28.5622 0.0000 0.0000
# 5 0.0000 0.0000 0.0000 0.0000 12.9915 0.0000
# 6 0.0000 0.0000 0.0000 0.0000 0.0000 28.2399
#
#
#
# Elastic Compliance Matrix: (Units=1/GPa)
#
#
# Indices 1 2 3 4 5 6 
#
# 1 0.013000 -0.000399 -0.000746 0.000000 0.000000 0.000000
# 2 -0.000399 0.012122 -0.001629 0.000000 0.000000 0.000000
# 3 -0.000746 -0.001629 0.006489 0.000000 0.000000 0.000000
# 4 0.000000 0.000000 0.000000 0.035011 0.000000 0.000000
# 5 0.000000 0.000000 0.000000 0.000000 0.076973 0.000000
# 6 0.000000 0.000000 0.000000 0.000000 0.000000 0.035411
#
#
# Mechanical properties :
#
#
# Convention : Reuss Voigt Hill
#
# Bulk Modulus (GPa) = 38.36934 43.92794 41.14864
# Shear Modulus (GPa) = 25.87434 33.17338 29.52386
#
# Velocity S-wave (km/s) = 3.21194 3.63686 3.43098
# Velocity P-wave (km/s) = 5.39016 5.92879 5.66588
#
# Compressibility (1/GPa) = 0.02606248
#
# Stress axis : x y z
#
# Youngs Moduli (GPa) = 76.92336 82.49801 154.10659
#
# Poissons Ratio (x) = 0.03292 0.11501
# Poissons Ratio (y) = 0.03070 0.25098
# Poissons Ratio (z) = 0.05741 0.13436
#
# Static dielectric constant tensor:
#      x y z
#    x 2.148480 0.000000 0.000000 
#    y 0.000000 2.102140 0.000000 
#    z 0.000000 0.000000 2.034570 
# 
# From -- ./inp_files/5742.got.cif
#   From: 2010.05.17/outbox.cif.g08.bks.cpg/sg34_3_cif.got.tgz:5742.got - 2010.06.03 17:23:11.
