data_PCOD9347222
_publ_section_title
;
Structure prediction by ZEFSAII (Michael W. Deem and Ramdas Pophale) SiO2 
 PCOD9347222
Probable space group: P N N 2
;
_chemical_formula_sum "Si O2"
_cell_formula_units_Z 24
_cell_length_a 9.665366
_cell_length_b 9.414813
_cell_length_c 12.377196
_cell_angle_alpha 90.000000
_cell_angle_beta 90.000000
_cell_angle_gamma 90.000000
_cell_volume 1126.295297
_symmetry_space_group_name_H-M "P N N 2"
_symmetry_group_IT_number 34
_symmetry_cell_setting 'orthorhombic'
loop_
_space_group_symop_operation_xyz
x,y,z
-x,-y,z
1/2-x,1/2+y,1/2+z
1/2+x,1/2-y,1/2+z
loop_
_atom_site_type_symbol
_atom_site_label
_atom_site_fract_x
_atom_site_fract_y
_atom_site_fract_z
Si Si1 0.300886 0.708684 0.354480
Si Si2 0.664757 0.020548 0.991233
Si Si3 0.305490 0.211653 0.164834
Si Si4 0.248404 0.441449 0.018457
Si Si5 0.576163 0.867161 0.370987
Si Si6 0.376758 0.704818 0.110733
O O1 0.248980 0.556484 0.396083
O O2 0.217825 0.832656 0.419643
O O3 0.459537 0.748353 0.387924
O O4 0.298180 0.717119 0.225538
O O5 0.500000 0.000000 0.972832
O O6 0.712114 0.931452 0.097016
O O7 0.681502 0.183369 0.023744
O O8 0.210217 0.334259 0.115230
O O9 0.304743 0.187677 0.291932
O O10 0.463806 0.258227 0.136789
O O11 0.360432 0.548683 0.064075
O O12 0.135406 0.550994 0.973424
O O13 0.500000 0.000000 0.308682
#
# Coordination Sequence:
#
# PCOD9347222 Si02
#       6
#     4   4   4   4   4   4
#     4   9  19  35  54  77 107 144 183 223 275 339
#     4   9  17  32  54  77 104 139 183 230 275 326
#     4   9  17  32  55  79 102 138 184 228 276 335
#     4  10  19  31  54  82 107 135 180 235 277 320
#     4   9  17  33  55  79 109 145 186 230 280 343
#     4  10  19  33  53  78 106 139 183 228 274 335
#
# _framework density 21.308800000000002
#
# number of rings (size 3 to 8) (size 9 to 14) (size 15 to 20)
#    0.000    2.667    0.000    4.000    0.000    1.333 
#    0.000    5.000    0.000   28.000    0.000    0.000 
#    0.000    0.000    0.000    0.000    0.000    0.000 
#
# Total GULP energy -133703.120121 kJ/mol
# GULP energy per Si atom -5570.963338 kJ/mol
# Density = 2.126030 g / cm^3
# Si number density = 21.308800 Si / 1000 Ang^3
#
#
#
# Elastic Constant Matrix: (Units=GPa)
#
#
# Indices 1 2 3 4 5 6 
#
# 1 23.9593 20.0961 32.5228 0.0000 0.0000 0.0000
# 2 20.0961 104.6333 37.4871 0.0000 0.0000 0.0000
# 3 32.5228 37.4871 92.0494 0.0000 0.0000 0.0000
# 4 0.0000 0.0000 0.0000 -0.8903 0.0000 0.0000
# 5 0.0000 0.0000 0.0000 0.0000 17.6151 0.0000
# 6 0.0000 0.0000 0.0000 0.0000 0.0000 34.8831
#
#
#
# Elastic Compliance Matrix: (Units=1/GPa)
#
#
# Indices 1 2 3 4 5 6 
#
# 1 0.083730 -0.006419 -0.026969 0.000000 0.000000 0.000000
# 2 -0.006419 0.011682 -0.002489 0.000000 0.000000 0.000000
# 3 -0.026969 -0.002489 0.021406 0.000000 0.000000 0.000000
# 4 0.000000 0.000000 0.000000 -1.123258 0.000000 0.000000
# 5 0.000000 0.000000 0.000000 0.000000 0.056769 0.000000
# 6 0.000000 0.000000 0.000000 0.000000 0.000000 0.028667
#
#
# Mechanical properties :
#
#
# Convention : Reuss Voigt Hill
#
# Bulk Modulus (GPa) = 22.19125 44.53935 33.36530
# Shear Modulus (GPa) = -5.99358 19.02399 6.51520
#
# Velocity S-wave (km/s) = -1.67894 2.99118 1.75047
# Velocity P-wave (km/s) = 2.58424 5.73383 4.44719
#
# Compressibility (1/GPa) = 0.04506280
#
# Stress axis : x y z
#
# Youngs Moduli (GPa) = 11.94309 85.60200 46.71504
#
# Poissons Ratio (x) = 0.54949 1.25988
# Poissons Ratio (y) = 0.07666 0.11630
# Poissons Ratio (z) = 0.32210 0.21310
#
# Static dielectric constant tensor:
#      x y z
#    x 1.840740 0.000000 0.000000 
#    y 0.000000 1.825640 0.000000 
#    z 0.000000 0.000000 1.796410 
# 
# From -- ./inp_files/4912.got.cif
#   From: 2010.05.17/outbox.cif.g08.bks.cpg/sg34_3_cif.got.tgz:4912.got - 2010.06.03 17:23:11.
