data_PCOD9347419
_publ_section_title
;
Structure prediction by ZEFSAII (Michael W. Deem and Ramdas Pophale) SiO2 
 PCOD9347419
Probable space group: P N N 2
;
_chemical_formula_sum "Si O2"
_cell_formula_units_Z 32
_cell_length_a 27.888828
_cell_length_b 5.904514
_cell_length_c 8.610894
_cell_angle_alpha 90.000000
_cell_angle_beta 90.000000
_cell_angle_gamma 90.000000
_cell_volume 1417.955703
_symmetry_space_group_name_H-M "P N N 2"
_symmetry_group_IT_number 34
_symmetry_cell_setting 'orthorhombic'
loop_
_space_group_symop_operation_xyz
x,y,z
-x,-y,z
1/2-x,1/2+y,1/2+z
1/2+x,1/2-y,1/2+z
loop_
_atom_site_type_symbol
_atom_site_label
_atom_site_fract_x
_atom_site_fract_y
_atom_site_fract_z
Si Si1 0.046325 0.622174 0.466260
Si Si2 0.787926 0.363981 0.357532
Si Si3 0.419736 0.520604 0.130853
Si Si4 0.871336 0.671776 0.382404
Si Si5 0.640780 0.786353 0.347573
Si Si6 0.050980 0.419984 0.815871
Si Si7 0.766029 0.225369 0.681069
Si Si8 0.333050 0.494470 0.644570
O O1 0.091739 0.536348 0.370158
O O2 0.048878 0.524763 0.642087
O O3 0.000000 0.500000 0.396542
O O4 0.047793 0.886732 0.505892
O O5 0.819136 0.574311 0.417926
O O6 0.781126 0.197767 0.502074
O O7 0.744603 0.488213 0.268156
O O8 0.820332 0.234120 0.235233
O O9 0.382822 0.345504 0.204261
O O10 0.445632 0.654011 0.271662
O O11 0.389173 0.693048 0.030709
O O12 0.868838 0.839275 0.236020
O O13 0.693589 0.854680 0.284009
O O14 0.648420 0.599888 0.481624
O O15 0.600773 0.979494 0.387091
O O16 0.000000 0.500000 0.889371
O O17 0.717393 0.369228 0.653416
#
# Coordination Sequence:
#
# PCOD9347419 Si02
#       8
#     4   4   4   4   4   4   4   4
#     4   9  18  33  60  97 125 160 215 272 332 395
#     4  11  24  40  63  87 128 166 220 267 333 401
#     4  10  20  39  68  92 132 166 217 276 334 391
#     4  10  21  39  60  90 126 170 214 270 330 399
#     4  11  23  40  63  97 127 175 227 271 347 403
#     4   9  20  36  63  98 132 166 219 279 339 407
#     4  11  23  41  59  96 122 172 224 272 338 406
#     4  11  25  41  62  89 133 173 216 283 328 410
#
# _framework density 22.567702000000001
#
# number of rings (size 3 to 8) (size 9 to 14) (size 15 to 20)
#    0.000    1.750    1.250    3.750    1.750   12.000 
#    0.000    0.000    0.000   11.250    0.000    0.000 
#    0.000    0.000    0.000    0.000    0.000    0.000 
#
# Total GULP energy -178322.470071 kJ/mol
# GULP energy per Si atom -5572.577190 kJ/mol
# Density = 2.251634 g / cm^3
# Si number density = 22.567702 Si / 1000 Ang^3
#
#
#
# Elastic Constant Matrix: (Units=GPa)
#
#
# Indices 1 2 3 4 5 6 
#
# 1 99.6162 27.3802 33.6180 0.0000 0.0000 0.0000
# 2 27.3802 65.0279 9.9274 0.0000 0.0000 0.0000
# 3 33.6180 9.9274 62.1013 0.0000 0.0000 0.0000
# 4 0.0000 0.0000 0.0000 12.6331 0.0000 0.0000
# 5 0.0000 0.0000 0.0000 0.0000 -3.9965 0.0000
# 6 0.0000 0.0000 0.0000 0.0000 0.0000 23.2682
#
#
#
# Elastic Compliance Matrix: (Units=1/GPa)
#
#
# Indices 1 2 3 4 5 6 
#
# 1 0.013553 -0.004701 -0.006585 0.000000 0.000000 0.000000
# 2 -0.004701 0.017393 -0.000236 0.000000 0.000000 0.000000
# 3 -0.006585 -0.000236 0.019705 0.000000 0.000000 0.000000
# 4 0.000000 0.000000 0.000000 0.079157 0.000000 0.000000
# 5 0.000000 0.000000 0.000000 0.000000 -0.250217 0.000000
# 6 0.000000 0.000000 0.000000 0.000000 0.000000 0.042977
#
#
# Mechanical properties :
#
#
# Convention : Reuss Voigt Hill
#
# Bulk Modulus (GPa) = 36.22181 40.95517 38.58849
# Shear Modulus (GPa) = -110.65778 16.76893 -46.94442
#
# Velocity S-wave (km/s) = -7.01000 2.72885 -4.56582
# Velocity P-wave (km/s) = 7.03101 5.30245 3.26490
#
# Compressibility (1/GPa) = 0.02760767
#
# Stress axis : x y z
#
# Youngs Moduli (GPa) = 73.78405 57.49299 50.74787
#
# Poissons Ratio (x) = 0.27029 0.33419
# Poissons Ratio (y) = 0.34687 0.01195
# Poissons Ratio (z) = 0.48589 0.01354
#
# Static dielectric constant tensor:
#      x y z
#    x 1.942040 0.000000 0.000000 
#    y 0.000000 1.958840 0.000000 
#    z 0.000000 0.000000 1.826570 
# 
# From -- ./inp_files/4164.got.cif
#   From: 2010.05.17/outbox.cif.g08.bks.cpg/sg34_3_cif.got.tgz:4164.got - 2010.06.03 17:23:11.
