data_PCOD9347691
_publ_section_title
;
Structure prediction by ZEFSAII (Michael W. Deem and Ramdas Pophale) SiO2 
 PCOD9347691
Probable space group: P N N 2
;
_chemical_formula_sum "Si O2"
_cell_formula_units_Z 32
_cell_length_a 12.045635
_cell_length_b 8.739069
_cell_length_c 14.570392
_cell_angle_alpha 90.000000
_cell_angle_beta 90.000000
_cell_angle_gamma 90.000000
_cell_volume 1533.790713
_symmetry_space_group_name_H-M "P N N 2"
_symmetry_group_IT_number 34
_symmetry_cell_setting 'orthorhombic'
loop_
_space_group_symop_operation_xyz
x,y,z
-x,-y,z
1/2-x,1/2+y,1/2+z
1/2+x,1/2-y,1/2+z
loop_
_atom_site_type_symbol
_atom_site_label
_atom_site_fract_x
_atom_site_fract_y
_atom_site_fract_z
Si Si1 0.992518 0.678896 0.644830
Si Si2 0.029095 0.831292 0.828949
Si Si3 0.055704 0.332062 0.369141
Si Si4 0.711514 0.385514 0.092798
Si Si5 0.216569 0.854630 0.970016
Si Si6 0.381794 0.343300 0.980960
Si Si7 0.650763 0.306249 0.490046
Si Si8 0.890204 0.604975 0.167861
O O1 0.873614 0.765052 0.637157
O O2 0.000000 0.500000 0.625048
O O3 0.029099 0.710602 0.748345
O O4 0.072779 0.758936 0.571745
O O5 0.146672 0.836504 0.878078
O O6 0.000000 0.000000 0.789755
O O7 0.941060 0.801385 0.910394
O O8 0.155262 0.345648 0.441623
O O9 0.101134 0.311853 0.266102
O O10 0.000000 0.500000 0.370200
O O11 0.968996 0.202804 0.402140
O O12 0.643327 0.486464 0.017968
O O13 0.779187 0.499200 0.159295
O O14 0.802194 0.284509 0.039087
O O15 0.180953 0.017516 0.010158
O O16 0.262947 0.273549 0.954596
O O17 0.614940 0.219223 0.581861
O O18 0.000000 0.500000 0.160035
#
# Coordination Sequence:
#
# PCOD9347691 Si02
#       8
#     4   4   4   4   4   4   4   4
#     4  12  25  41  65  99 132 170 223 284 334 400
#     4  10  24  40  65  93 134 171 220 273 333 398
#     4  11  22  40  67  99 134 179 225 278 340 411
#     4  11  24  41  71  96 135 175 228 281 341 408
#     4  11  22  40  66  95 133 175 222 275 343 399
#     4  11  22  41  69  95 128 173 222 276 337 403
#     4  10  22  42  70  92 132 180 222 276 342 400
#     4  10  24  42  70  97 140 182 230 281 344 417
#
# _framework density 20.863343
#
# number of rings (size 3 to 8) (size 9 to 14) (size 15 to 20)
#    0.000    1.250    2.500    3.000    7.000    2.500 
#    0.000    0.000   13.750    0.000    0.000    0.000 
#    0.000    0.000    0.000    0.000    0.000    0.000 
#
# Total GULP energy -178856.993238 kJ/mol
# GULP energy per Si atom -5589.281039 kJ/mol
# Density = 2.081586 g / cm^3
# Si number density = 20.863343 Si / 1000 Ang^3
#
#
#
# Elastic Constant Matrix: (Units=GPa)
#
#
# Indices 1 2 3 4 5 6 
#
# 1 81.1832 27.1947 19.2732 0.0000 0.0000 0.0000
# 2 27.1947 112.8928 36.6110 0.0000 0.0000 0.0000
# 3 19.2732 36.6110 80.3556 0.0000 0.0000 0.0000
# 4 0.0000 0.0000 0.0000 32.3444 0.0000 0.0000
# 5 0.0000 0.0000 0.0000 0.0000 20.9475 0.0000
# 6 0.0000 0.0000 0.0000 0.0000 0.0000 29.6674
#
#
#
# Elastic Compliance Matrix: (Units=1/GPa)
#
#
# Indices 1 2 3 4 5 6 
#
# 1 0.013692 -0.002620 -0.002090 0.000000 0.000000 0.000000
# 2 -0.002620 0.010895 -0.004335 0.000000 0.000000 0.000000
# 3 -0.002090 -0.004335 0.014921 0.000000 0.000000 0.000000
# 4 0.000000 0.000000 0.000000 0.030917 0.000000 0.000000
# 5 0.000000 0.000000 0.000000 0.000000 0.047739 0.000000
# 6 0.000000 0.000000 0.000000 0.000000 0.000000 0.033707
#
#
# Mechanical properties :
#
#
# Convention : Reuss Voigt Hill
#
# Bulk Modulus (GPa) = 46.69330 48.95437 47.82384
# Shear Modulus (GPa) = 28.23235 29.34868 28.79051
#
# Velocity S-wave (km/s) = 3.68258 3.75468 3.71881
# Velocity P-wave (km/s) = 6.36483 6.50477 6.43518
#
# Compressibility (1/GPa) = 0.02141635
#
# Stress axis : x y z
#
# Youngs Moduli (GPa) = 73.03647 91.78369 67.01837
#
# Poissons Ratio (x) = 0.24051 0.14007
# Poissons Ratio (y) = 0.19139 0.29056
# Poissons Ratio (z) = 0.15265 0.39793
#
# Static dielectric constant tensor:
#      x y z
#    x 1.772650 0.000000 0.000000 
#    y 0.000000 1.751590 0.000000 
#    z 0.000000 0.000000 1.730930 
# 
# From -- ./inp_files/6840.got.cif
#   From: 2010.05.17/outbox.cif.g08.bks.cpg/sg34_4_cif.got.tgz:6840.got - 2010.06.03 17:23:11.
