data_PCOD9347612
_publ_section_title
;
Structure prediction by ZEFSAII (Michael W. Deem and Ramdas Pophale) SiO2 
 PCOD9347612
Probable space group: P N N 2
;
_chemical_formula_sum "Si O2"
_cell_formula_units_Z 20
_cell_length_a 9.032270
_cell_length_b 7.158629
_cell_length_c 12.025155
_cell_angle_alpha 90.000000
_cell_angle_beta 90.000000
_cell_angle_gamma 90.000000
_cell_volume 777.530528
_symmetry_space_group_name_H-M "P N N 2"
_symmetry_group_IT_number 34
_symmetry_cell_setting 'orthorhombic'
loop_
_space_group_symop_operation_xyz
x,y,z
-x,-y,z
1/2-x,1/2+y,1/2+z
1/2+x,1/2-y,1/2+z
loop_
_atom_site_type_symbol
_atom_site_label
_atom_site_fract_x
_atom_site_fract_y
_atom_site_fract_z
Si Si1 0.704608 0.407922 0.143120
Si Si2 0.129781 0.145928 0.394108
Si Si3 0.500000 0.000000 0.905938
Si Si4 0.833455 0.549951 0.741007
Si Si5 0.500000 0.000000 0.558160
Si Si6 0.746142 0.792583 0.059096
O O1 0.642766 0.326085 0.026495
O O2 0.667733 0.273301 0.243505
O O3 0.667866 0.626740 0.133092
O O4 0.879663 0.392995 0.129510
O O5 0.873867 0.377880 0.472486
O O6 0.092635 0.344140 0.341984
O O7 0.000000 0.000000 0.371052
O O8 0.228406 0.037709 0.144691
O O9 0.000000 0.500000 0.712091
O O10 0.779894 0.442904 0.849847
O O11 0.608951 0.175772 0.515431
#
# Coordination Sequence:
#
# PCOD9347612 Si02
#       6
#     4   4   2   4   2   4
#     4  10  23  46  72 100 150 194 247 308 394 450
#     4  12  26  43  76 107 149 196 260 318 378 478
#     4  12  22  47  75 106 144 218 248 310 403 471
#     4  12  27  43  74 109 148 196 251 316 386 458
#     4   8  22  39  73 104 140 194 252 314 369 461
#     4  10  21  44  73 102 145 199 253 304 395 453
#
# _framework density 25.722462
#
# number of rings (size 3 to 8) (size 9 to 14) (size 15 to 20)
#    1.200    0.000    5.000    0.000    4.200    2.400 
#    0.000    0.000    0.000    0.000    0.000    0.000 
#    0.000    0.000    0.000    0.000    0.000    0.000 
#
# Total GULP energy -111452.533704 kJ/mol
# GULP energy per Si atom -5572.626685 kJ/mol
# Density = 2.566392 g / cm^3
# Si number density = 25.722462 Si / 1000 Ang^3
#
#
#
# Elastic Constant Matrix: (Units=GPa)
#
#
# Indices 1 2 3 4 5 6 
#
# 1 120.4136 50.0959 21.1483 0.0000 0.0000 0.0000
# 2 50.0959 194.1992 23.0948 0.0000 0.0000 0.0000
# 3 21.1483 23.0948 53.1321 0.0000 0.0000 0.0000
# 4 0.0000 0.0000 0.0000 -274.5714 0.0000 0.0000
# 5 0.0000 0.0000 0.0000 0.0000 9.9960 0.0000
# 6 0.0000 0.0000 0.0000 0.0000 0.0000 52.8924
#
#
#
# Elastic Compliance Matrix: (Units=1/GPa)
#
#
# Indices 1 2 3 4 5 6 
#
# 1 0.009717 -0.002158 -0.002930 0.000000 0.000000 0.000000
# 2 -0.002158 0.005909 -0.001710 0.000000 0.000000 0.000000
# 3 -0.002930 -0.001710 0.020730 0.000000 0.000000 0.000000
# 4 0.000000 0.000000 0.000000 -0.003642 0.000000 0.000000
# 5 0.000000 0.000000 0.000000 0.000000 0.100040 0.000000
# 6 0.000000 0.000000 0.000000 0.000000 0.000000 0.018906
#
#
# Mechanical properties :
#
#
# Convention : Reuss Voigt Hill
#
# Bulk Modulus (GPa) = 43.93317 61.82479 52.87898
# Shear Modulus (GPa) = 28.92801 -24.10953 2.40924
#
# Velocity S-wave (km/s) = 3.35717 -3.06485 0.96885
# Velocity P-wave (km/s) = 5.66959 3.40046 4.67479
#
# Compressibility (1/GPa) = 0.02276184
#
# Stress axis : x y z
#
# Youngs Moduli (GPa) = 102.91096 169.22177 48.23882
#
# Poissons Ratio (x) = 0.36522 0.14132
# Poissons Ratio (y) = 0.22211 0.08247
# Poissons Ratio (z) = 0.30149 0.28930
#
# Static dielectric constant tensor:
#      x y z
#    x 2.064540 0.000000 0.000000 
#    y 0.000000 2.034220 0.000000 
#    z 0.000000 0.000000 2.094800 
# 
# From -- ./inp_files/6709.got.cif
#   From: 2010.05.17/outbox.cif.g08.bks.cpg/sg34_4_cif.got.tgz:6709.got - 2010.06.03 17:23:11.
