data_PCOD9347991
_publ_section_title
;
Structure prediction by ZEFSAII (Michael W. Deem and Ramdas Pophale) SiO2 
 PCOD9347991
Probable space group: P N N 2
;
_chemical_formula_sum "Si O2"
_cell_formula_units_Z 26
_cell_length_a 11.071706
_cell_length_b 11.057051
_cell_length_c 7.943485
_cell_angle_alpha 90.000000
_cell_angle_beta 90.000000
_cell_angle_gamma 90.000000
_cell_volume 972.444753
_symmetry_space_group_name_H-M "P N N 2"
_symmetry_group_IT_number 34
_symmetry_cell_setting 'orthorhombic'
loop_
_space_group_symop_operation_xyz
x,y,z
-x,-y,z
1/2-x,1/2+y,1/2+z
1/2+x,1/2-y,1/2+z
loop_
_atom_site_type_symbol
_atom_site_label
_atom_site_fract_x
_atom_site_fract_y
_atom_site_fract_z
Si Si1 0.653033 0.181925 0.548600
Si Si2 0.729299 0.412937 0.358707
Si Si3 0.959969 0.270556 0.337821
Si Si4 0.171778 0.702851 0.790990
Si Si5 0.890636 0.099231 0.064788
Si Si6 0.107493 0.095860 0.503527
Si Si7 0.500000 0.000000 0.338463
O O1 0.656803 0.295831 0.423841
O O2 0.558698 0.198898 0.698340
O O3 0.779834 0.207484 0.645373
O O4 0.603726 0.065767 0.451548
O O5 0.867758 0.378262 0.348020
O O6 0.716950 0.518128 0.494615
O O7 0.672114 0.438051 0.177062
O O8 0.885602 0.159660 0.247665
O O9 0.032303 0.221161 0.497299
O O10 0.072602 0.603930 0.742972
O O11 0.114832 0.787045 0.936935
O O12 0.287361 0.627029 0.866840
O O13 0.000000 0.000000 0.056838
O O14 0.000000 0.000000 0.471483
#
# Coordination Sequence:
#
# PCOD9347991 Si02
#       7
#     4   4   4   4   4   4   2
#     4  11  27  47  76 110 155 203 254 325 390 462
#     4  12  26  45  78 111 149 206 259 325 392 469
#     4  11  25  50  72 114 152 203 261 319 394 471
#     4  11  27  48  77 116 151 201 263 315 393 473
#     4  12  23  47  77 107 154 198 259 326 388 465
#     4  11  26  47  79 110 152 204 258 315 393 476
#     4  12  24  50  78 112 158 200 262 326 388 462
#
# _framework density 26.736737999999999
#
# number of rings (size 3 to 8) (size 9 to 14) (size 15 to 20)
#    0.000    0.615    4.615    0.923    8.615    2.462 
#    0.000    0.000    0.000    0.000    0.000    0.000 
#    0.000    0.000    0.000    0.000    0.000    0.000 
#
# Total GULP energy -145475.520009 kJ/mol
# GULP energy per Si atom -5595.212308 kJ/mol
# Density = 2.667588 g / cm^3
# Si number density = 26.736738 Si / 1000 Ang^3
#
#
#
# Elastic Constant Matrix: (Units=GPa)
#
#
# Indices 1 2 3 4 5 6 
#
# 1 142.5172 45.3349 20.7164 0.0000 0.0000 0.0000
# 2 45.3349 111.8481 29.3101 0.0000 0.0000 0.0000
# 3 20.7164 29.3101 83.6271 0.0000 0.0000 0.0000
# 4 0.0000 0.0000 0.0000 3.4017 0.0000 0.0000
# 5 0.0000 0.0000 0.0000 0.0000 47.1807 0.0000
# 6 0.0000 0.0000 0.0000 0.0000 0.0000 61.6252
#
#
#
# Elastic Compliance Matrix: (Units=1/GPa)
#
#
# Indices 1 2 3 4 5 6 
#
# 1 0.008123 -0.003045 -0.000945 0.000000 0.000000 0.000000
# 2 -0.003045 0.010986 -0.003096 0.000000 0.000000 0.000000
# 3 -0.000945 -0.003096 0.013277 0.000000 0.000000 0.000000
# 4 0.000000 0.000000 0.000000 0.293971 0.000000 0.000000
# 5 0.000000 0.000000 0.000000 0.000000 0.021195 0.000000
# 6 0.000000 0.000000 0.000000 0.000000 0.000000 0.016227
#
#
# Mechanical properties :
#
#
# Convention : Reuss Voigt Hill
#
# Bulk Modulus (GPa) = 54.90287 58.74613 56.82450
# Shear Modulus (GPa) = 13.02009 38.61694 25.81851
#
# Velocity S-wave (km/s) = 2.20914 3.80457 3.11087
# Velocity P-wave (km/s) = 5.20445 6.42802 5.84832
#
# Compressibility (1/GPa) = 0.01821398
#
# Stress axis : x y z
#
# Youngs Moduli (GPa) = 123.11371 91.02376 75.31733
#
# Poissons Ratio (x) = 0.27713 0.07118
# Poissons Ratio (y) = 0.37484 0.23320
# Poissons Ratio (z) = 0.11635 0.28183
#
# Static dielectric constant tensor:
#      x y z
#    x 2.109680 0.000000 0.000000 
#    y 0.000000 2.133910 0.000000 
#    z 0.000000 0.000000 2.097890 
# 
# From -- ./inp_files/3193.got.cif
#   From: 2010.05.17/outbox.cif.g08.bks.cpg/sg34_2_cif.got.tgz:3193.got - 2010.06.03 17:23:11.
