data_PCOD9347985
_publ_section_title
;
Structure prediction by ZEFSAII (Michael W. Deem and Ramdas Pophale) SiO2 
 PCOD9347985
Probable space group: P N N 2
;
_chemical_formula_sum "Si O2"
_cell_formula_units_Z 14
_cell_length_a 7.206976
_cell_length_b 13.022736
_cell_length_c 6.697183
_cell_angle_alpha 90.000000
_cell_angle_beta 90.000000
_cell_angle_gamma 90.000000
_cell_volume 628.561069
_symmetry_space_group_name_H-M "P N N 2"
_symmetry_group_IT_number 34
_symmetry_cell_setting 'orthorhombic'
loop_
_space_group_symop_operation_xyz
x,y,z
-x,-y,z
1/2-x,1/2+y,1/2+z
1/2+x,1/2-y,1/2+z
loop_
_atom_site_type_symbol
_atom_site_label
_atom_site_fract_x
_atom_site_fract_y
_atom_site_fract_z
Si Si1 0.109123 0.337600 0.802420
Si Si2 0.445832 0.335359 0.056683
Si Si3 0.000000 0.000000 0.880676
Si Si4 0.277016 0.564466 0.748085
O O1 0.201140 0.447999 0.761064
O O2 0.085172 0.253617 0.629805
O O3 0.893737 0.366943 0.827683
O O4 0.247261 0.296464 0.974147
O O5 0.409221 0.414792 0.237232
O O6 0.555921 0.396729 0.885947
O O7 0.142815 0.061300 0.022847
#
# Coordination Sequence:
#
# PCOD9347985 Si02
#       4
#     4   4   2   4
#     4  11  25  47  71 108 146 197 246 307 373 435
#     4  12  25  48  73 107 151 195 251 306 373 447
#     4  12  22  48  74 100 150 194 242 316 360 448
#     4  11  25  49  70 109 152 188 257 310 362 449
#
# _framework density 22.273094
#
# number of rings (size 3 to 8) (size 9 to 14) (size 15 to 20)
#    0.000    0.571    5.714    1.714    4.000    2.286 
#   10.286    0.000    0.000    0.000    0.000    0.000 
#    0.000    0.000    0.000    0.000    0.000    0.000 
#
# Total GULP energy -77966.065040 kJ/mol
# GULP energy per Si atom -5569.004646 kJ/mol
# Density = 2.222240 g / cm^3
# Si number density = 22.273094 Si / 1000 Ang^3
#
#
#
# Elastic Constant Matrix: (Units=GPa)
#
#
# Indices 1 2 3 4 5 6 
#
# 1 181.1922 32.6546 73.5384 0.0000 0.0000 0.0000
# 2 32.6546 97.6317 32.8126 0.0000 0.0000 0.0000
# 3 73.5384 32.8126 105.9627 0.0000 0.0000 0.0000
# 4 0.0000 0.0000 0.0000 31.4398 0.0000 0.0000
# 5 0.0000 0.0000 0.0000 0.0000 45.7118 0.0000
# 6 0.0000 0.0000 0.0000 0.0000 0.0000 21.4340
#
#
#
# Elastic Compliance Matrix: (Units=1/GPa)
#
#
# Indices 1 2 3 4 5 6 
#
# 1 0.007750 -0.000876 -0.005107 0.000000 0.000000 0.000000
# 2 -0.000876 0.011531 -0.002963 0.000000 0.000000 0.000000
# 3 -0.005107 -0.002963 0.013899 0.000000 0.000000 0.000000
# 4 0.000000 0.000000 0.000000 0.031807 0.000000 0.000000
# 5 0.000000 0.000000 0.000000 0.000000 0.021876 0.000000
# 6 0.000000 0.000000 0.000000 0.000000 0.000000 0.046655
#
#
# Mechanical properties :
#
#
# Convention : Reuss Voigt Hill
#
# Bulk Modulus (GPa) = 65.40890 73.64419 69.52655
# Shear Modulus (GPa) = 31.94771 36.10250 34.02511
#
# Velocity S-wave (km/s) = 3.79141 4.03041 3.91273
# Velocity P-wave (km/s) = 6.97115 7.40236 7.18999
#
# Compressibility (1/GPa) = 0.01528844
#
# Stress axis : x y z
#
# Youngs Moduli (GPa) = 129.03979 86.72048 71.94659
#
# Poissons Ratio (x) = 0.07593 0.36744
# Poissons Ratio (y) = 0.11298 0.21319
# Poissons Ratio (z) = 0.65902 0.25697
#
# Static dielectric constant tensor:
#      x y z
#    x 1.822260 0.000000 0.000000 
#    y 0.000000 1.899240 0.000000 
#    z 0.000000 0.000000 1.839650 
# 
# From -- ./inp_files/294.got.cif
#   From: 2010.05.17/outbox.cif.g08.bks.cpg/sg34_1_cif.got.tgz:294.got - 2010.06.03 17:23:11.
