data_PCOD9347968
_publ_section_title
;
Structure prediction by ZEFSAII (Michael W. Deem and Ramdas Pophale) SiO2 
 PCOD9347968
Probable space group: P N N 2
;
_chemical_formula_sum "Si O2"
_cell_formula_units_Z 20
_cell_length_a 7.720648
_cell_length_b 9.541403
_cell_length_c 11.778582
_cell_angle_alpha 90.000000
_cell_angle_beta 90.000000
_cell_angle_gamma 90.000000
_cell_volume 867.678831
_symmetry_space_group_name_H-M "P N N 2"
_symmetry_group_IT_number 34
_symmetry_cell_setting 'orthorhombic'
loop_
_space_group_symop_operation_xyz
x,y,z
-x,-y,z
1/2-x,1/2+y,1/2+z
1/2+x,1/2-y,1/2+z
loop_
_atom_site_type_symbol
_atom_site_label
_atom_site_fract_x
_atom_site_fract_y
_atom_site_fract_z
Si Si1 0.820902 0.927158 0.520820
Si Si2 0.632308 0.106006 0.720218
Si Si3 0.910770 0.284727 0.852239
Si Si4 0.423644 0.655219 0.569024
Si Si5 0.014759 0.656776 0.604369
O O1 0.686297 0.909120 0.418866
O O2 0.884241 0.770830 0.554710
O O3 0.735982 0.016501 0.623457
O O4 0.000000 0.000000 0.485707
O O5 0.766381 0.177085 0.804786
O O6 0.517625 0.228136 0.660382
O O7 0.500000 0.000000 0.778083
O O8 0.008969 0.334843 0.740400
O O9 0.022971 0.203571 0.944364
O O10 0.500000 0.500000 0.591503
O O11 0.218122 0.679483 0.581207
O O12 0.000000 0.500000 0.562065
#
# Coordination Sequence:
#
# PCOD9347968 Si02
#       5
#     4   4   4   4   4
#     4  12  24  49  71 104 148 184 246 305 350 438
#     4  11  25  49  73 105 142 191 244 298 358 438
#     4  11  26  43  75 102 140 194 233 291 377 407
#     4  11  24  44  72 101 143 189 237 299 357 428
#     4  11  27  46  68 106 145 187 245 300 356 440
#
# _framework density 23.050001000000002
#
# number of rings (size 3 to 8) (size 9 to 14) (size 15 to 20)
#    0.000    0.800    6.000    1.200    5.600    5.600 
#    0.000    0.000    0.000    0.000    0.000    0.000 
#    0.000    0.000    0.000    0.000    0.000    0.000 
#
# Total GULP energy -111824.760524 kJ/mol
# GULP energy per Si atom -5591.238026 kJ/mol
# Density = 2.299754 g / cm^3
# Si number density = 23.050001 Si / 1000 Ang^3
#
#
#
# Elastic Constant Matrix: (Units=GPa)
#
#
# Indices 1 2 3 4 5 6 
#
# 1 45.6059 20.6332 13.8478 0.0000 0.0000 0.0000
# 2 20.6332 132.7810 25.1217 0.0000 0.0000 0.0000
# 3 13.8478 25.1217 99.9450 0.0000 0.0000 0.0000
# 4 0.0000 0.0000 0.0000 20.6504 0.0000 0.0000
# 5 0.0000 0.0000 0.0000 0.0000 37.8342 0.0000
# 6 0.0000 0.0000 0.0000 0.0000 0.0000 33.8672
#
#
#
# Elastic Compliance Matrix: (Units=1/GPa)
#
#
# Indices 1 2 3 4 5 6 
#
# 1 0.024177 -0.003279 -0.002526 0.000000 0.000000 0.000000
# 2 -0.003279 0.008352 -0.001645 0.000000 0.000000 0.000000
# 3 -0.002526 -0.001645 0.010769 0.000000 0.000000 0.000000
# 4 0.000000 0.000000 0.000000 0.048425 0.000000 0.000000
# 5 0.000000 0.000000 0.000000 0.000000 0.026431 0.000000
# 6 0.000000 0.000000 0.000000 0.000000 0.000000 0.029527
#
#
# Mechanical properties :
#
#
# Convention : Reuss Voigt Hill
#
# Bulk Modulus (GPa) = 35.21280 44.17083 39.69182
# Shear Modulus (GPa) = 29.06173 33.05231 31.05702
#
# Velocity S-wave (km/s) = 3.55464 3.79085 3.67464
# Velocity P-wave (km/s) = 5.67073 6.19398 5.93812
#
# Compressibility (1/GPa) = 0.02839876
#
# Stress axis : x y z
#
# Youngs Moduli (GPa) = 41.36089 119.73214 92.85987
#
# Poissons Ratio (x) = 0.39262 0.23453
# Poissons Ratio (y) = 0.13563 0.15275
# Poissons Ratio (z) = 0.10446 0.19696
#
# Static dielectric constant tensor:
#      x y z
#    x 1.991980 0.000000 0.000000 
#    y 0.000000 1.980110 0.000000 
#    z 0.000000 0.000000 1.833920 
# 
# From -- ./inp_files/4790.got.cif
#   From: 2010.05.17/outbox.cif.g08.bks.cpg/sg34_3_cif.got.tgz:4790.got - 2010.06.03 17:23:11.
