data_PCOD9347095
_publ_section_title
;
Structure prediction by ZEFSAII (Michael W. Deem and Ramdas Pophale) SiO2 
 PCOD9347095
Probable space group: P N N 2
;
_chemical_formula_sum "Si O2"
_cell_formula_units_Z 24
_cell_length_a 16.081629
_cell_length_b 9.846778
_cell_length_c 8.262958
_cell_angle_alpha 90.000000
_cell_angle_beta 90.000000
_cell_angle_gamma 90.000000
_cell_volume 1308.457831
_symmetry_space_group_name_H-M "P N N 2"
_symmetry_group_IT_number 34
_symmetry_cell_setting 'orthorhombic'
loop_
_space_group_symop_operation_xyz
x,y,z
-x,-y,z
1/2-x,1/2+y,1/2+z
1/2+x,1/2-y,1/2+z
loop_
_atom_site_type_symbol
_atom_site_label
_atom_site_fract_x
_atom_site_fract_y
_atom_site_fract_z
Si Si1 0.849112 0.148767 0.352210
Si Si2 0.476951 0.751357 0.254904
Si Si3 0.606386 0.914563 0.039651
Si Si4 0.914746 0.296352 0.049079
Si Si5 0.166591 0.456244 0.849271
Si Si6 0.500000 0.500000 0.026892
Si Si7 0.000000 0.500000 0.270092
O O1 0.853164 0.284499 0.458717
O O2 0.862774 0.198856 0.166986
O O3 0.760399 0.082976 0.384827
O O4 0.926053 0.058312 0.415322
O O5 0.526666 0.858465 0.140793
O O6 0.540144 0.720831 0.401931
O O7 0.397644 0.829253 0.331505
O O8 0.464813 0.619841 0.143211
O O9 0.664676 0.982901 0.168996
O O10 0.577760 0.008940 0.891542
O O11 0.984110 0.368439 0.162405
O O12 0.866728 0.426203 0.970495
#
# Coordination Sequence:
#
# PCOD9347095 Si02
#       7
#     4   4   4   4   4   2   2
#     4  10  24  39  59  91 126 153 204 256 297 367
#     4  10  19  39  65  84 115 166 194 245 304 374
#     4   9  18  37  60  85 114 157 200 243 300 359
#     4  10  20  37  61  92 115 150 214 255 283 364
#     4  11  20  39  63  89 119 158 206 252 306 350
#     4  10  24  44  60  82 134 168 192 234 338 370
#     4  10  14  32  60  86 110 142 196 250 282 340
#
# _framework density 18.342203000000001
#
# number of rings (size 3 to 8) (size 9 to 14) (size 15 to 20)
#    0.000    2.000    3.333    1.000    2.333    0.667 
#    6.000    5.000    0.000    0.000    0.000    0.000 
#    0.000    0.000    0.000    0.000    0.000    0.000 
#
# Total GULP energy -133709.290521 kJ/mol
# GULP energy per Si atom -5571.220438 kJ/mol
# Density = 1.830046 g / cm^3
# Si number density = 18.342203 Si / 1000 Ang^3
#
#
#
# Elastic Constant Matrix: (Units=GPa)
#
#
# Indices 1 2 3 4 5 6 
#
# 1 110.8866 45.1247 40.4709 0.0000 0.0000 0.0000
# 2 45.1247 65.6680 38.7991 0.0000 0.0000 0.0000
# 3 40.4709 38.7991 105.6623 0.0000 0.0000 0.0000
# 4 0.0000 0.0000 0.0000 22.2461 0.0000 0.0000
# 5 0.0000 0.0000 0.0000 0.0000 16.5595 0.0000
# 6 0.0000 0.0000 0.0000 0.0000 0.0000 19.3931
#
#
#
# Elastic Compliance Matrix: (Units=1/GPa)
#
#
# Indices 1 2 3 4 5 6 
#
# 1 0.012891 -0.007587 -0.002152 0.000000 0.000000 0.000000
# 2 -0.007587 0.023913 -0.005875 0.000000 0.000000 0.000000
# 3 -0.002152 -0.005875 0.012445 0.000000 0.000000 0.000000
# 4 0.000000 0.000000 0.000000 0.044952 0.000000 0.000000
# 5 0.000000 0.000000 0.000000 0.000000 0.060388 0.000000
# 6 0.000000 0.000000 0.000000 0.000000 0.000000 0.051565
#
#
# Mechanical properties :
#
#
# Convention : Reuss Voigt Hill
#
# Bulk Modulus (GPa) = 55.48640 59.00069 57.24355
# Shear Modulus (GPa) = 20.54335 22.16123 21.35229
#
# Velocity S-wave (km/s) = 3.35028 3.47970 3.41560
# Velocity P-wave (km/s) = 6.72920 6.95564 6.84336
#
# Compressibility (1/GPa) = 0.01802243
#
# Stress axis : x y z
#
# Youngs Moduli (GPa) = 77.57366 41.81896 80.35092
#
# Poissons Ratio (x) = 0.31728 0.17288
# Poissons Ratio (y) = 0.58855 0.47204
# Poissons Ratio (z) = 0.16691 0.24567
#
# Static dielectric constant tensor:
#      x y z
#    x 1.618970 0.000000 0.000000 
#    y 0.000000 1.640790 0.000000 
#    z 0.000000 0.000000 1.655930 
# 
# From -- ./inp_files/2738.got.cif
#   From: 2010.05.17/outbox.cif.g08.bks.cpg/sg34_2_cif.got.tgz:2738.got - 2010.06.03 17:23:11.
