data_PCOD9347429
_publ_section_title
;
Structure prediction by ZEFSAII (Michael W. Deem and Ramdas Pophale) SiO2 
 PCOD9347429
Probable space group: P N N 2
;
_chemical_formula_sum "Si O2"
_cell_formula_units_Z 28
_cell_length_a 14.417147
_cell_length_b 10.683124
_cell_length_c 8.467060
_cell_angle_alpha 90.000000
_cell_angle_beta 90.000000
_cell_angle_gamma 90.000000
_cell_volume 1304.098013
_symmetry_space_group_name_H-M "P N N 2"
_symmetry_group_IT_number 34
_symmetry_cell_setting 'orthorhombic'
loop_
_space_group_symop_operation_xyz
x,y,z
-x,-y,z
1/2-x,1/2+y,1/2+z
1/2+x,1/2-y,1/2+z
loop_
_atom_site_type_symbol
_atom_site_label
_atom_site_fract_x
_atom_site_fract_y
_atom_site_fract_z
Si Si1 0.000000 0.000000 0.152750
Si Si2 0.500000 0.000000 0.388555
Si Si3 0.182340 0.461366 0.675295
Si Si4 0.922664 0.211790 0.386341
Si Si5 0.625388 0.936245 0.670334
Si Si6 0.325751 0.656505 0.609011
Si Si7 0.886459 0.678604 0.391171
Si Si8 0.742781 0.600798 0.993329
O O1 0.087007 0.067970 0.065644
O O2 0.958082 0.106465 0.265733
O O3 0.415372 0.967623 0.269340
O O4 0.444730 0.084461 0.521109
O O5 0.227256 0.586142 0.601395
O O6 0.175857 0.362074 0.536412
O O7 0.256011 0.431316 0.810168
O O8 0.871120 0.316241 0.280526
O O9 0.859283 0.152110 0.521703
O O10 0.013740 0.278884 0.452219
O O11 0.598471 0.056399 0.779497
O O12 0.721520 0.984722 0.594292
O O13 0.343689 0.711366 0.785000
O O14 0.315498 0.785157 0.512510
#
# Coordination Sequence:
#
# PCOD9347429 Si02
#       8
#     2   2   4   4   4   4   4   4
#     4  10  22  40  62  94 116 178 216 254 320 394
#     4  10  22  34  58  96 130 154 228 268 316 376
#     4  11  23  39  60 101 127 162 221 276 316 381
#     4  11  20  40  69  87 129 172 214 267 314 391
#     4  10  20  40  63  93 124 175 218 258 327 393
#     4  10  22  43  62  89 133 167 219 263 324 396
#     4  10  22  38  67  94 123 172 222 257 326 396
#     4  10  23  39  64  95 126 169 215 270 322 382
#
# _framework density 21.470779
#
# number of rings (size 3 to 8) (size 9 to 14) (size 15 to 20)
#    0.000    1.714    2.857    0.857    6.000    2.286 
#    0.000    0.000    3.143    0.000    0.000    0.000 
#    0.000    0.000    0.000    0.000    0.000    0.000 
#
# Total GULP energy -156027.754339 kJ/mol
# GULP energy per Si atom -5572.419798 kJ/mol
# Density = 2.142191 g / cm^3
# Si number density = 21.470779 Si / 1000 Ang^3
#
#
#
# Elastic Constant Matrix: (Units=GPa)
#
#
# Indices 1 2 3 4 5 6 
#
# 1 85.6485 22.6515 8.4685 0.0000 0.0000 0.0000
# 2 22.6515 84.9899 5.6799 0.0000 0.0000 0.0000
# 3 8.4685 5.6799 32.0234 0.0000 0.0000 0.0000
# 4 0.0000 0.0000 0.0000 18.7807 0.0000 0.0000
# 5 0.0000 0.0000 0.0000 0.0000 13.0430 0.0000
# 6 0.0000 0.0000 0.0000 0.0000 0.0000 32.8493
#
#
#
# Elastic Compliance Matrix: (Units=1/GPa)
#
#
# Indices 1 2 3 4 5 6 
#
# 1 0.012807 -0.003225 -0.002815 0.000000 0.000000 0.000000
# 2 -0.003225 0.012719 -0.001403 0.000000 0.000000 0.000000
# 3 -0.002815 -0.001403 0.032220 0.000000 0.000000 0.000000
# 4 0.000000 0.000000 0.000000 0.053246 0.000000 0.000000
# 5 0.000000 0.000000 0.000000 0.000000 0.076669 0.000000
# 6 0.000000 0.000000 0.000000 0.000000 0.000000 0.030442
#
#
# Mechanical properties :
#
#
# Convention : Reuss Voigt Hill
#
# Bulk Modulus (GPa) = 23.33141 30.69573 27.01357
# Shear Modulus (GPa) = 20.22025 23.99209 22.10617
#
# Velocity S-wave (km/s) = 3.07213 3.34642 3.21221
# Velocity P-wave (km/s) = 4.84502 5.40916 5.13484
#
# Compressibility (1/GPa) = 0.04286067
#
# Stress axis : x y z
#
# Youngs Moduli (GPa) = 78.08294 78.61980 31.03630
#
# Poissons Ratio (x) = 0.25356 0.08736
# Poissons Ratio (y) = 0.25183 0.04355
# Poissons Ratio (z) = 0.21978 0.11031
#
# Static dielectric constant tensor:
#      x y z
#    x 1.848240 0.000000 0.000000 
#    y 0.000000 1.791690 0.000000 
#    z 0.000000 0.000000 1.748150 
# 
# From -- ./inp_files/3620.got.cif
#   From: 2010.05.17/outbox.cif.g08.bks.cpg/sg34_2_cif.got.tgz:3620.got - 2010.06.03 17:23:11.
