data_PCOD9347161
_publ_section_title
;
Structure prediction by ZEFSAII (Michael W. Deem and Ramdas Pophale) SiO2 
 PCOD9347161
Probable space group: P N N 2
;
_chemical_formula_sum "Si O2"
_cell_formula_units_Z 32
_cell_length_a 27.213461
_cell_length_b 5.264355
_cell_length_c 12.395898
_cell_angle_alpha 90.000000
_cell_angle_beta 90.000000
_cell_angle_gamma 90.000000
_cell_volume 1775.852704
_symmetry_space_group_name_H-M "P N N 2"
_symmetry_group_IT_number 34
_symmetry_cell_setting 'orthorhombic'
loop_
_space_group_symop_operation_xyz
x,y,z
-x,-y,z
1/2-x,1/2+y,1/2+z
1/2+x,1/2-y,1/2+z
loop_
_atom_site_type_symbol
_atom_site_label
_atom_site_fract_x
_atom_site_fract_y
_atom_site_fract_z
Si Si1 0.825702 0.327093 0.372960
Si Si2 0.385598 0.064008 0.215565
Si Si3 0.307215 0.698171 0.126922
Si Si4 0.264204 0.551383 0.531048
Si Si5 0.468359 0.745046 0.125544
Si Si6 0.393582 0.431824 0.019361
Si Si7 0.289066 0.670926 0.765407
Si Si8 0.313206 0.341227 0.336443
O O1 0.782477 0.339264 0.464600
O O2 0.878471 0.265540 0.427073
O O3 0.813636 0.096457 0.293006
O O4 0.819885 0.594532 0.312661
O O5 0.335920 0.948415 0.165466
O O6 0.427025 0.846692 0.210636
O O7 0.401837 0.275091 0.129667
O O8 0.364550 0.193498 0.322953
O O9 0.255974 0.784217 0.079158
O O10 0.343022 0.584884 0.036892
O O11 0.307298 0.521584 0.231524
O O12 0.279794 0.700188 0.637728
O O13 0.306690 0.501319 0.444779
O O14 0.500000 0.500000 0.163059
O O15 0.562158 0.366325 0.022601
O O16 0.500000 0.000000 0.101843
O O17 0.236064 0.672082 0.826030
#
# Coordination Sequence:
#
# PCOD9347161 Si02
#       8
#     4   4   4   4   4   4   4   4
#     4  11  23  35  52  73 104 154 192 227 276 311
#     4  10  19  34  52  77 108 145 184 219 279 346
#     4  10  18  34  48  75 102 145 198 223 270 315
#     4  11  19  34  50  72 109 149 204 246 253 299
#     4  11  22  35  56  83 108 141 174 223 282 357
#     4  10  19  34  57  74 108 146 176 219 278 344
#     4  11  23  34  48  76 105 143 206 237 258 308
#     4  10  21  32  51  72 104 154 196 232 274 314
#
# _framework density 18.019513
#
# number of rings (size 3 to 8) (size 9 to 14) (size 15 to 20)
#    0.000    1.500    3.750    3.750    1.750    2.000 
#    0.000    0.000    0.000    0.000    0.000    0.000 
#    0.000    0.000   17.000    4.375    1.750    0.625 
#
# Total GULP energy -178325.375095 kJ/mol
# GULP energy per Si atom -5572.667972 kJ/mol
# Density = 1.797850 g / cm^3
# Si number density = 18.019513 Si / 1000 Ang^3
#
#
#
# Elastic Constant Matrix: (Units=GPa)
#
#
# Indices 1 2 3 4 5 6 
#
# 1 67.9320 37.9436 26.4995 0.0000 0.0000 0.0000
# 2 37.9436 104.0516 26.0651 0.0000 0.0000 0.0000
# 3 26.4995 26.0651 77.3994 0.0000 0.0000 0.0000
# 4 0.0000 0.0000 0.0000 22.0652 0.0000 0.0000
# 5 0.0000 0.0000 0.0000 0.0000 6.8874 0.0000
# 6 0.0000 0.0000 0.0000 0.0000 0.0000 33.4985
#
#
#
# Elastic Compliance Matrix: (Units=1/GPa)
#
#
# Indices 1 2 3 4 5 6 
#
# 1 0.019992 -0.006089 -0.004794 0.000000 0.000000 0.000000
# 2 -0.006089 0.012351 -0.002074 0.000000 0.000000 0.000000
# 3 -0.004794 -0.002074 0.015260 0.000000 0.000000 0.000000
# 4 0.000000 0.000000 0.000000 0.045320 0.000000 0.000000
# 5 0.000000 0.000000 0.000000 0.000000 0.145192 0.000000
# 6 0.000000 0.000000 0.000000 0.000000 0.000000 0.029852
#
#
# Mechanical properties :
#
#
# Convention : Reuss Voigt Hill
#
# Bulk Modulus (GPa) = 46.11060 47.82218 46.96639
# Shear Modulus (GPa) = 16.60513 23.08187 19.84350
#
# Velocity S-wave (km/s) = 3.03893 3.58290 3.32207
# Velocity P-wave (km/s) = 6.16103 6.61158 6.39027
#
# Compressibility (1/GPa) = 0.02168699
#
# Stress axis : x y z
#
# Youngs Moduli (GPa) = 50.02008 80.96619 65.53097
#
# Poissons Ratio (x) = 0.49303 0.31416
# Poissons Ratio (y) = 0.30459 0.13594
# Poissons Ratio (z) = 0.23980 0.16796
#
# Static dielectric constant tensor:
#      x y z
#    x 1.667990 0.000000 0.000000 
#    y 0.000000 1.729830 0.000000 
#    z 0.000000 0.000000 1.655890 
# 
# From -- ./inp_files/4573.got.cif
#   From: 2010.05.17/outbox.cif.g08.bks.cpg/sg34_3_cif.got.tgz:4573.got - 2010.06.03 17:23:11.
