data_PCOD9347877
_publ_section_title
;
Structure prediction by ZEFSAII (Michael W. Deem and Ramdas Pophale) SiO2 
 PCOD9347877
Probable space group: P N N 2
;
_chemical_formula_sum "Si O2"
_cell_formula_units_Z 26
_cell_length_a 16.248752
_cell_length_b 13.145609
_cell_length_c 5.073414
_cell_angle_alpha 90.000000
_cell_angle_beta 90.000000
_cell_angle_gamma 90.000000
_cell_volume 1083.679914
_symmetry_space_group_name_H-M "P N N 2"
_symmetry_group_IT_number 34
_symmetry_cell_setting 'orthorhombic'
loop_
_space_group_symop_operation_xyz
x,y,z
-x,-y,z
1/2-x,1/2+y,1/2+z
1/2+x,1/2-y,1/2+z
loop_
_atom_site_type_symbol
_atom_site_label
_atom_site_fract_x
_atom_site_fract_y
_atom_site_fract_z
Si Si1 0.953894 0.164548 0.098040
Si Si2 0.125879 0.046484 0.200009
Si Si3 0.678486 0.175640 0.036251
Si Si4 0.500000 0.000000 0.340652
Si Si5 0.277642 0.610167 0.202612
Si Si6 0.335195 0.942719 0.535568
Si Si7 0.018987 0.703994 0.583646
O O1 0.042204 0.110323 0.153591
O O2 0.943758 0.251472 0.317372
O O3 0.890845 0.071133 0.128799
O O4 0.956410 0.218476 0.815959
O O5 0.155325 0.061019 0.499845
O O6 0.191447 0.093684 0.997800
O O7 0.694972 0.141001 0.741310
O O8 0.728043 0.273020 0.126565
O O9 0.693381 0.085462 0.243393
O O10 0.581039 0.202470 0.059372
O O11 0.566653 0.055491 0.520274
O O12 0.459079 0.088315 0.164094
O O13 0.195945 0.549367 0.138523
#
# Coordination Sequence:
#
# PCOD9347877 Si02
#       7
#     4   4   4   2   4   4   4
#     4  11  21  38  65 101 136 173 216 275 331 397
#     4  11  22  39  67 102 134 170 219 269 338 418
#     4  11  22  43  70  94 126 182 221 267 339 406
#     4  10  26  46  70 100 130 186 244 278 330 402
#     4  12  23  44  69  97 134 182 219 274 345 412
#     4  11  26  45  69  97 135 174 228 283 327 396
#     4  11  21  40  68  95 131 179 222 279 325 394
#
# _framework density 23.992325999999998
#
# number of rings (size 3 to 8) (size 9 to 14) (size 15 to 20)
#    0.000    0.923    3.077    4.615    0.000    8.000 
#    8.308    0.000    0.000    0.000    0.000    0.000 
#    0.000    0.000    0.000    0.000    0.000    0.000 
#
# Total GULP energy -145731.089794 kJ/mol
# GULP energy per Si atom -5605.041915 kJ/mol
# Density = 2.393772 g / cm^3
# Si number density = 23.992326 Si / 1000 Ang^3
#
#
#
# Elastic Constant Matrix: (Units=GPa)
#
#
# Indices 1 2 3 4 5 6 
#
# 1 25.9757 6.5179 10.3491 0.0000 0.0000 0.0000
# 2 6.5179 113.7075 8.3395 0.0000 0.0000 0.0000
# 3 10.3491 8.3395 80.0387 0.0000 0.0000 0.0000
# 4 0.0000 0.0000 0.0000 32.2769 0.0000 0.0000
# 5 0.0000 0.0000 0.0000 0.0000 19.0052 0.0000
# 6 0.0000 0.0000 0.0000 0.0000 0.0000 30.7473
#
#
#
# Elastic Compliance Matrix: (Units=1/GPa)
#
#
# Indices 1 2 3 4 5 6 
#
# 1 0.041025 -0.001978 -0.005099 0.000000 0.000000 0.000000
# 2 -0.001978 0.008958 -0.000678 0.000000 0.000000 0.000000
# 3 -0.005099 -0.000678 0.013224 0.000000 0.000000 0.000000
# 4 0.000000 0.000000 0.000000 0.030982 0.000000 0.000000
# 5 0.000000 0.000000 0.000000 0.000000 0.052617 0.000000
# 6 0.000000 0.000000 0.000000 0.000000 0.000000 0.032523
#
#
# Mechanical properties :
#
#
# Convention : Reuss Voigt Hill
#
# Bulk Modulus (GPa) = 20.96486 30.01498 25.48992
# Shear Modulus (GPa) = 23.72635 29.37357 26.54996
#
# Velocity S-wave (km/s) = 3.14811 3.50278 3.33017
# Velocity P-wave (km/s) = 4.68735 5.37557 5.04321
#
# Compressibility (1/GPa) = 0.04769886
#
# Stress axis : x y z
#
# Youngs Moduli (GPa) = 24.37528 111.63766 75.62122
#
# Poissons Ratio (x) = 0.22078 0.38556
# Poissons Ratio (y) = 0.04821 0.05124
# Poissons Ratio (z) = 0.12428 0.07565
#
# Static dielectric constant tensor:
#      x y z
#    x 1.943680 0.000000 0.000000 
#    y 0.000000 1.898810 0.000000 
#    z 0.000000 0.000000 1.849010 
# 
# From -- ./inp_files/933.got.cif
#   From: 2010.05.17/outbox.cif.g08.bks.cpg/sg34_1_cif.got.tgz:933.got - 2010.06.03 17:23:11.
