data_PCOD9347403
_publ_section_title
;
Structure prediction by ZEFSAII (Michael W. Deem and Ramdas Pophale) SiO2 
 PCOD9347403
Probable space group: P N N 2
;
_chemical_formula_sum "Si O2"
_cell_formula_units_Z 30
_cell_length_a 9.665874
_cell_length_b 23.694913
_cell_length_c 5.395974
_cell_angle_alpha 90.000000
_cell_angle_beta 90.000000
_cell_angle_gamma 90.000000
_cell_volume 1235.850952
_symmetry_space_group_name_H-M "P N N 2"
_symmetry_group_IT_number 34
_symmetry_cell_setting 'orthorhombic'
loop_
_space_group_symop_operation_xyz
x,y,z
-x,-y,z
1/2-x,1/2+y,1/2+z
1/2+x,1/2-y,1/2+z
loop_
_atom_site_type_symbol
_atom_site_label
_atom_site_fract_x
_atom_site_fract_y
_atom_site_fract_z
Si Si1 0.749244 0.954011 0.574710
Si Si2 0.777787 0.135156 0.734936
Si Si3 0.500000 0.500000 0.814649
Si Si4 0.795506 0.355072 0.682236
Si Si5 0.970074 0.282187 0.983520
Si Si6 0.500397 0.901926 0.771818
Si Si7 0.444251 0.598065 0.456873
Si Si8 0.255102 0.293780 0.737549
O O1 0.850373 0.998389 0.448069
O O2 0.749233 0.898267 0.398451
O O3 0.589951 0.951617 0.651221
O O4 0.833670 0.941194 0.821855
O O5 0.662439 0.086434 0.771858
O O6 0.932357 0.115891 0.784692
O O7 0.779913 0.162794 0.463276
O O8 0.737654 0.176279 0.968184
O O9 0.505093 0.558399 0.666860
O O10 0.851372 0.296374 0.782101
O O11 0.919404 0.384092 0.523666
O O12 0.652092 0.350084 0.536015
O O13 0.109418 0.266599 0.832607
O O14 0.994445 0.343840 0.109414
O O15 0.892045 0.244010 0.186771
#
# Coordination Sequence:
#
# PCOD9347403 Si02
#       8
#     4   4   2   4   4   4   4   4
#     4   9  19  36  64  95 125 167 218 271 343 411
#     4  11  25  44  65 101 136 186 226 286 349 416
#     4  10  20  38  68  98 134 166 224 292 346 416
#     4   9  18  37  64  89 125 174 217 269 345 407
#     4  10  22  42  63  96 131 185 233 298 338 417
#     4   9  19  40  63  89 130 176 221 272 347 412
#     4  10  22  39  65 101 133 172 224 285 345 430
#     4  11  26  42  68  95 143 179 242 292 349 405
#
# _framework density 24.274773
#
# number of rings (size 3 to 8) (size 9 to 14) (size 15 to 20)
#    0.000    2.133    1.333    0.400    5.600    3.200 
#    2.400    0.000    0.000   19.200    0.000    0.000 
#    0.000    0.000    0.000    0.000    0.000    0.000 
#
# Total GULP energy -167257.925038 kJ/mol
# GULP energy per Si atom -5575.264168 kJ/mol
# Density = 2.421952 g / cm^3
# Si number density = 24.274773 Si / 1000 Ang^3
#
#
#
# Elastic Constant Matrix: (Units=GPa)
#
#
# Indices 1 2 3 4 5 6 
#
# 1 120.1678 17.4806 -4.8019 0.0000 0.0000 0.0000
# 2 17.4806 37.3270 14.3033 0.0000 0.0000 0.0000
# 3 -4.8019 14.3033 65.1322 0.0000 0.0000 0.0000
# 4 0.0000 0.0000 0.0000 18.4894 0.0000 0.0000
# 5 0.0000 0.0000 0.0000 0.0000 25.3269 0.0000
# 6 0.0000 0.0000 0.0000 0.0000 0.0000 33.7712
#
#
#
# Elastic Compliance Matrix: (Units=1/GPa)
#
#
# Indices 1 2 3 4 5 6 
#
# 1 0.009110 -0.004940 0.001756 0.000000 0.000000 0.000000
# 2 -0.004940 0.031930 -0.007376 0.000000 0.000000 0.000000
# 3 0.001756 -0.007376 0.017103 0.000000 0.000000 0.000000
# 4 0.000000 0.000000 0.000000 0.054085 0.000000 0.000000
# 5 0.000000 0.000000 0.000000 0.000000 0.039484 0.000000
# 6 0.000000 0.000000 0.000000 0.000000 0.000000 0.029611
#
#
# Mechanical properties :
#
#
# Convention : Reuss Voigt Hill
#
# Bulk Modulus (GPa) = 27.00906 30.73233 28.87069
# Shear Modulus (GPa) = 23.27932 28.56050 25.91991
#
# Velocity S-wave (km/s) = 3.10012 3.43381 3.27122
# Velocity P-wave (km/s) = 4.89539 5.33002 5.11732
#
# Compressibility (1/GPa) = 0.03702462
#
# Stress axis : x y z
#
# Youngs Moduli (GPa) = 109.76434 31.31854 58.47034
#
# Poissons Ratio (x) = 0.15470 -0.10270
# Poissons Ratio (y) = 0.54219 0.43128
# Poissons Ratio (z) = -0.19279 0.23101
#
# Static dielectric constant tensor:
#      x y z
#    x 2.062030 0.000000 0.000000 
#    y 0.000000 2.087230 0.000000 
#    z 0.000000 0.000000 2.000410 
# 
# From -- ./inp_files/645.got.cif
#   From: 2010.05.17/outbox.cif.g08.bks.cpg/sg34_1_cif.got.tgz:645.got - 2010.06.03 17:23:11.
