data_PCOD9347647
_publ_section_title
;
Structure prediction by ZEFSAII (Michael W. Deem and Ramdas Pophale) SiO2 
 PCOD9347647
Probable space group: P N N 2
;
_chemical_formula_sum "Si O2"
_cell_formula_units_Z 30
_cell_length_a 14.053405
_cell_length_b 9.058888
_cell_length_c 10.057416
_cell_angle_alpha 90.000000
_cell_angle_beta 90.000000
_cell_angle_gamma 90.000000
_cell_volume 1280.391748
_symmetry_space_group_name_H-M "P N N 2"
_symmetry_group_IT_number 34
_symmetry_cell_setting 'orthorhombic'
loop_
_space_group_symop_operation_xyz
x,y,z
-x,-y,z
1/2-x,1/2+y,1/2+z
1/2+x,1/2-y,1/2+z
loop_
_atom_site_type_symbol
_atom_site_label
_atom_site_fract_x
_atom_site_fract_y
_atom_site_fract_z
Si Si1 0.500000 0.500000 0.702540
Si Si2 0.890648 0.999361 0.459321
Si Si3 0.738754 0.054640 0.043735
Si Si4 0.584791 0.767101 0.566789
Si Si5 0.961199 0.342395 0.778595
Si Si6 0.722179 0.738114 0.113954
Si Si7 0.648241 0.292111 0.190244
Si Si8 0.681972 0.985173 0.769697
O O1 0.590888 0.490422 0.802617
O O2 0.510130 0.647823 0.619392
O O3 0.830082 0.142865 0.498443
O O4 0.847906 0.863555 0.541692
O O5 0.000000 0.000000 0.510752
O O6 0.664946 0.036046 0.920492
O O7 0.826042 0.165070 0.020040
O O8 0.690021 0.128990 0.171741
O O9 0.770106 0.888532 0.069877
O O10 0.553596 0.851985 0.436095
O O11 0.612912 0.876840 0.687804
O O12 0.864725 0.287704 0.709409
O O13 0.000000 0.500000 0.727998
O O14 0.043588 0.223637 0.747193
O O15 0.795688 0.629649 0.184209
O O16 0.717646 0.396146 0.272992
#
# Coordination Sequence:
#
# PCOD9347647 Si02
#       8
#     2   4   4   4   4   4   4   4
#     4  10  22  42  66  92 132 170 220 272 328 400
#     4   9  19  37  63  95 121 164 215 269 319 385
#     4  11  23  42  67  95 127 177 220 268 333 406
#     4  11  26  44  63 100 134 175 222 272 345 397
#     4  12  23  42  67 102 135 170 227 285 330 404
#     4  11  21  41  70  94 127 175 220 271 334 390
#     4  10  22  39  69  96 129 173 224 276 330 400
#     4  10  24  43  64  97 135 172 224 274 333 407
#
# _framework density 23.430329
#
# number of rings (size 3 to 8) (size 9 to 14) (size 15 to 20)
#    0.400    1.067    4.000    0.800    1.867    2.133 
#    4.800    0.000    0.000    0.000    0.000    0.000 
#    0.000    0.000    0.000    0.000    0.000    0.000 
#
# Total GULP energy -167599.441989 kJ/mol
# GULP energy per Si atom -5586.648066 kJ/mol
# Density = 2.337700 g / cm^3
# Si number density = 23.430329 Si / 1000 Ang^3
#
#
#
# Elastic Constant Matrix: (Units=GPa)
#
#
# Indices 1 2 3 4 5 6 
#
# 1 34.6009 20.1095 7.7286 0.0000 0.0000 0.0000
# 2 20.1095 113.2987 7.8245 0.0000 0.0000 0.0000
# 3 7.7286 7.8245 67.5953 0.0000 0.0000 0.0000
# 4 0.0000 0.0000 0.0000 23.8572 0.0000 0.0000
# 5 0.0000 0.0000 0.0000 0.0000 17.7006 0.0000
# 6 0.0000 0.0000 0.0000 0.0000 0.0000 29.6418
#
#
#
# Elastic Compliance Matrix: (Units=1/GPa)
#
#
# Indices 1 2 3 4 5 6 
#
# 1 0.032860 -0.005618 -0.003107 0.000000 0.000000 0.000000
# 2 -0.005618 0.009858 -0.000499 0.000000 0.000000 0.000000
# 3 -0.003107 -0.000499 0.015207 0.000000 0.000000 0.000000
# 4 0.000000 0.000000 0.000000 0.041916 0.000000 0.000000
# 5 0.000000 0.000000 0.000000 0.000000 0.056495 0.000000
# 6 0.000000 0.000000 0.000000 0.000000 0.000000 0.033736
#
#
# Mechanical properties :
#
#
# Convention : Reuss Voigt Hill
#
# Bulk Modulus (GPa) = 25.33065 31.86891 28.59978
# Shear Modulus (GPa) = 22.55524 26.22874 24.39199
#
# Velocity S-wave (km/s) = 3.10603 3.34943 3.23002
# Velocity P-wave (km/s) = 4.86803 5.34690 5.11307
#
# Compressibility (1/GPa) = 0.03947786
#
# Stress axis : x y z
#
# Youngs Moduli (GPa) = 30.43224 101.44274 65.75968
#
# Poissons Ratio (x) = 0.56988 0.20430
# Poissons Ratio (y) = 0.17096 0.03280
# Poissons Ratio (z) = 0.09455 0.05060
#
# Static dielectric constant tensor:
#      x y z
#    x 1.917990 0.000000 0.000000 
#    y 0.000000 1.877850 0.000000 
#    z 0.000000 0.000000 1.891310 
# 
# From -- ./inp_files/5656.got.cif
#   From: 2010.05.17/outbox.cif.g08.bks.cpg/sg34_3_cif.got.tgz:5656.got - 2010.06.03 17:23:11.
