data_PCOD9347270
_publ_section_title
;
Structure prediction by ZEFSAII (Michael W. Deem and Ramdas Pophale) SiO2 
 PCOD9347270
Probable space group: P N N 2
;
_chemical_formula_sum "Si O2"
_cell_formula_units_Z 32
_cell_length_a 12.636084
_cell_length_b 9.270189
_cell_length_c 13.027262
_cell_angle_alpha 90.000000
_cell_angle_beta 90.000000
_cell_angle_gamma 90.000000
_cell_volume 1525.998970
_symmetry_space_group_name_H-M "P N N 2"
_symmetry_group_IT_number 34
_symmetry_cell_setting 'orthorhombic'
loop_
_space_group_symop_operation_xyz
x,y,z
-x,-y,z
1/2-x,1/2+y,1/2+z
1/2+x,1/2-y,1/2+z
loop_
_atom_site_type_symbol
_atom_site_label
_atom_site_fract_x
_atom_site_fract_y
_atom_site_fract_z
Si Si1 0.703779 0.924770 0.615080
Si Si2 0.265477 0.091903 0.840950
Si Si3 0.121368 0.253783 0.143561
Si Si4 0.402385 0.763256 0.076472
Si Si5 0.753257 0.973962 0.055732
Si Si6 0.472717 0.661756 0.276491
Si Si7 0.574495 0.141458 0.856058
Si Si8 0.929127 0.206655 0.991577
O O1 0.680885 0.866558 0.731842
O O2 0.822546 0.872594 0.590024
O O3 0.632226 0.846275 0.531847
O O4 0.675741 0.092872 0.617588
O O5 0.146717 0.144495 0.819955
O O6 0.305083 0.923764 0.849877
O O7 0.285028 0.127597 0.960518
O O8 0.062760 0.271455 0.251843
O O9 0.037186 0.209616 0.056720
O O10 0.208392 0.129148 0.145530
O O11 0.334172 0.909971 0.085794
O O12 0.478748 0.755786 0.173892
O O13 0.443910 0.771854 0.960464
O O14 0.854136 0.070392 0.018168
O O15 0.500000 0.500000 0.245246
O O16 0.544512 0.707454 0.371730
O O17 0.500000 0.000000 0.857358
#
# Coordination Sequence:
#
# PCOD9347270 Si02
#       8
#     4   4   4   4   4   4   4   4
#     4   9  20  35  58  88 123 158 203 256 310 364
#     4   9  17  36  60  85 113 164 199 241 306 387
#     4  11  19  34  60  93 119 159 207 258 308 371
#     4   9  22  41  59  85 119 170 212 252 303 382
#     4  10  19  36  62  91 126 161 209 251 320 372
#     4  11  19  36  64  89 125 164 207 255 319 373
#     4  10  21  40  61  79 123 172 208 241 318 385
#     4  11  19  34  60  95 124 160 205 258 314 371
#
# _framework density 20.96987
#
# number of rings (size 3 to 8) (size 9 to 14) (size 15 to 20)
#    0.000    2.000    2.500    2.250    0.000    0.000 
#    2.250   10.000    2.750    0.000    0.000    0.000 
#    0.000    0.000    0.000    0.000    0.000    0.000 
#
# Total GULP energy -178232.312446 kJ/mol
# GULP energy per Si atom -5569.759764 kJ/mol
# Density = 2.092214 g / cm^3
# Si number density = 20.969870 Si / 1000 Ang^3
#
#
#
# Elastic Constant Matrix: (Units=GPa)
#
#
# Indices 1 2 3 4 5 6 
#
# 1 33.3344 22.8316 24.8140 0.0000 0.0000 0.0000
# 2 22.8316 70.4445 66.4118 0.0000 0.0000 0.0000
# 3 24.8140 66.4118 177.7200 0.0000 0.0000 0.0000
# 4 0.0000 0.0000 0.0000 30.1439 0.0000 0.0000
# 5 0.0000 0.0000 0.0000 0.0000 10.0888 0.0000
# 6 0.0000 0.0000 0.0000 0.0000 0.0000 16.7926
#
#
#
# Elastic Compliance Matrix: (Units=1/GPa)
#
#
# Indices 1 2 3 4 5 6 
#
# 1 0.038699 -0.011500 -0.001106 0.000000 0.000000 0.000000
# 2 -0.011500 0.025334 -0.007861 0.000000 0.000000 0.000000
# 3 -0.001106 -0.007861 0.008719 0.000000 0.000000 0.000000
# 4 0.000000 0.000000 0.000000 0.033174 0.000000 0.000000
# 5 0.000000 0.000000 0.000000 0.000000 0.099120 0.000000
# 6 0.000000 0.000000 0.000000 0.000000 0.000000 0.059550
#
#
# Mechanical properties :
#
#
# Convention : Reuss Voigt Hill
#
# Bulk Modulus (GPa) = 31.42932 56.62374 44.02653
# Shear Modulus (GPa) = 15.81595 22.56783 19.19189
#
# Velocity S-wave (km/s) = 2.74929 3.28411 3.02853
# Velocity P-wave (km/s) = 5.00984 6.43751 5.76802
#
# Compressibility (1/GPa) = 0.03181743
#
# Stress axis : x y z
#
# Youngs Moduli (GPa) = 25.84052 39.47236 114.69276
#
# Poissons Ratio (x) = 0.45393 0.12684
# Poissons Ratio (y) = 0.29717 0.90165
# Poissons Ratio (z) = 0.02858 0.31031
#
# Static dielectric constant tensor:
#      x y z
#    x 1.872330 0.000000 0.000000 
#    y 0.000000 1.731030 0.000000 
#    z 0.000000 0.000000 1.803430 
# 
# From -- ./inp_files/5675.got.cif
#   From: 2010.05.17/outbox.cif.g08.bks.cpg/sg34_3_cif.got.tgz:5675.got - 2010.06.03 17:23:11.
