data_PCOD9347152
_publ_section_title
;
Structure prediction by ZEFSAII (Michael W. Deem and Ramdas Pophale) SiO2 
 PCOD9347152
Probable space group: P N N 2
;
_chemical_formula_sum "Si O2"
_cell_formula_units_Z 20
_cell_length_a 6.847397
_cell_length_b 18.838325
_cell_length_c 5.449230
_cell_angle_alpha 90.000000
_cell_angle_beta 90.000000
_cell_angle_gamma 90.000000
_cell_volume 702.915196
_symmetry_space_group_name_H-M "P N N 2"
_symmetry_group_IT_number 34
_symmetry_cell_setting 'orthorhombic'
loop_
_space_group_symop_operation_xyz
x,y,z
-x,-y,z
1/2-x,1/2+y,1/2+z
1/2+x,1/2-y,1/2+z
loop_
_atom_site_type_symbol
_atom_site_label
_atom_site_fract_x
_atom_site_fract_y
_atom_site_fract_z
Si Si1 0.695934 0.953179 0.335860
Si Si2 0.529492 0.809749 0.556912
Si Si3 0.065730 0.793076 0.440803
Si Si4 0.419348 0.340007 0.430699
Si Si5 0.230633 0.489156 0.337566
O O1 0.610817 0.879564 0.435353
O O2 0.500000 0.000000 0.295994
O O3 0.802965 0.987661 0.569774
O O4 0.795481 0.962297 0.067690
O O5 0.000216 0.839394 0.206108
O O6 0.543291 0.788586 0.847097
O O7 0.299783 0.804875 0.481646
O O8 0.965239 0.828485 0.677607
O O9 0.149737 0.756695 0.943270
O O10 0.284032 0.407838 0.394308
O O11 0.000000 0.500000 0.311849
#
# Coordination Sequence:
#
# PCOD9347152 Si02
#       5
#     4   4   4   4   4
#     4  10  20  32  57  85 124 148 206 260 323 372
#     4  10  24  37  62  93 128 167 214 270 333 403
#     4  10  22  35  60  85 130 158 216 256 328 391
#     4  10  22  36  60  89 126 162 213 264 335 388
#     4  10  18  32  55  84 118 151 199 261 318 376
#
# _framework density 28.452933999999999
#
# number of rings (size 3 to 8) (size 9 to 14) (size 15 to 20)
#    1.200    0.800    0.000    6.000    5.600    0.000 
#    0.000    0.000    0.000    1.200    0.000    0.000 
#    0.000    0.000    0.000    0.000    0.000    0.000 
#
# Total GULP energy -111643.020954 kJ/mol
# GULP energy per Si atom -5582.151048 kJ/mol
# Density = 2.838817 g / cm^3
# Si number density = 28.452934 Si / 1000 Ang^3
#
#
#
# Elastic Constant Matrix: (Units=GPa)
#
#
# Indices 1 2 3 4 5 6 
#
# 1 126.0747 11.2061 7.1465 0.0000 0.0000 0.0000
# 2 11.2061 68.4608 -26.1659 0.0000 0.0000 0.0000
# 3 7.1465 -26.1659 247.6159 0.0000 0.0000 0.0000
# 4 0.0000 0.0000 0.0000 38.1863 0.0000 0.0000
# 5 0.0000 0.0000 0.0000 0.0000 -16.7354 0.0000
# 6 0.0000 0.0000 0.0000 0.0000 0.0000 45.3848
#
#
#
# Elastic Compliance Matrix: (Units=1/GPa)
#
#
# Indices 1 2 3 4 5 6 
#
# 1 0.008085 -0.001472 -0.000389 0.000000 0.000000 0.000000
# 2 -0.001472 0.015490 0.001679 0.000000 0.000000 0.000000
# 3 -0.000389 0.001679 0.004227 0.000000 0.000000 0.000000
# 4 0.000000 0.000000 0.000000 0.026187 0.000000 0.000000
# 5 0.000000 0.000000 0.000000 0.000000 -0.059754 0.000000
# 6 0.000000 0.000000 0.000000 0.000000 0.000000 0.022034
#
#
# Mechanical properties :
#
#
# Convention : Reuss Voigt Hill
#
# Bulk Modulus (GPa) = 36.44524 47.39164 41.91844
# Shear Modulus (GPa) = 193.96121 43.36477 118.66299
#
# Velocity S-wave (km/s) = 8.26542 3.90819 6.46495
# Velocity P-wave (km/s) = 10.19442 6.08750 8.39595
#
# Compressibility (1/GPa) = 0.02743843
#
# Stress axis : x y z
#
# Youngs Moduli (GPa) = 123.69066 64.55911 236.56375
#
# Poissons Ratio (x) = 0.09503 0.09199
# Poissons Ratio (y) = 0.18207 -0.39726
# Poissons Ratio (z) = 0.04810 -0.10841
#
# Static dielectric constant tensor:
#      x y z
#    x 2.800840 0.000000 0.000000 
#    y 0.000000 2.298920 0.000000 
#    z 0.000000 0.000000 2.425270 
# 
# From -- ./inp_files/805.got.cif
#   From: 2010.05.17/outbox.cif.g08.bks.cpg/sg34_1_cif.got.tgz:805.got - 2010.06.03 17:23:11.
