data_PCOD9347959
_publ_section_title
;
Structure prediction by ZEFSAII (Michael W. Deem and Ramdas Pophale) SiO2 
 PCOD9347959
Probable space group: P N N 2
;
_chemical_formula_sum "Si O2"
_cell_formula_units_Z 20
_cell_length_a 8.122696
_cell_length_b 12.736412
_cell_length_c 6.823769
_cell_angle_alpha 90.000000
_cell_angle_beta 90.000000
_cell_angle_gamma 90.000000
_cell_volume 705.946217
_symmetry_space_group_name_H-M "P N N 2"
_symmetry_group_IT_number 34
_symmetry_cell_setting 'orthorhombic'
loop_
_space_group_symop_operation_xyz
x,y,z
-x,-y,z
1/2-x,1/2+y,1/2+z
1/2+x,1/2-y,1/2+z
loop_
_atom_site_type_symbol
_atom_site_label
_atom_site_fract_x
_atom_site_fract_y
_atom_site_fract_z
Si Si1 0.739630 0.034521 0.253700
Si Si2 0.260370 0.034521 0.685919
Si Si3 0.557944 0.668610 0.257464
Si Si4 0.499999 0.839637 0.969809
Si Si5 0.442058 0.668610 0.682155
O O1 0.685460 0.999999 0.469809
O O2 0.395654 0.908188 0.122518
O O3 0.817885 0.929041 0.160870
O O4 0.892429 0.114399 0.269925
O O5 0.107569 0.114398 0.669695
O O6 0.817882 0.070960 0.778749
O O7 0.395655 0.091814 0.817099
O O8 0.603416 0.760616 0.108629
O O9 0.500001 0.709259 0.469810
O O10 0.396583 0.760615 0.830991
#
# Coordination Sequence:
#
# PCOD9347959 Si02
#       5
#     4   4   4   4   4
#     4  11  23  49  88 123 173 223 284 357 424 507
#     4  11  23  49  88 123 173 223 284 357 424 507
#     4  11  24  50  86 121 173 225 277 355 434 506
#     4  12  26  49  89 132 164 228 289 344 439 516
#     4  11  24  50  86 121 173 225 277 355 434 506
#
# _framework density 28.330769
#
# number of rings (size 3 to 8) (size 9 to 14) (size 15 to 20)
#    0.000    0.800    4.000    4.800    0.000    1.600 
#    7.200    4.000   17.600    0.000    0.000    0.000 
#    0.000    0.000    0.000    0.000    0.000    0.000 
#
# Total GULP energy -112444.941812 kJ/mol
# GULP energy per Si atom -5622.247091 kJ/mol
# Density = 2.826629 g / cm^3
# Si number density = 28.330769 Si / 1000 Ang^3
#
#
#
# Elastic Constant Matrix: (Units=GPa)
#
#
# Indices 1 2 3 4 5 6 
#
# 1 75.0861 76.6073 45.3539 0.0000 0.0000 0.0000
# 2 76.6073 183.2190 104.8328 0.0000 0.0000 0.0000
# 3 45.3539 104.8328 246.0641 0.0000 0.0000 0.0000
# 4 0.0000 0.0000 0.0000 76.5015 0.0000 0.0000
# 5 0.0000 0.0000 0.0000 0.0000 53.9563 0.0000
# 6 0.0000 0.0000 0.0000 0.0000 0.0000 33.4282
#
#
#
# Elastic Compliance Matrix: (Units=1/GPa)
#
#
# Indices 1 2 3 4 5 6 
#
# 1 0.023233 -0.009605 -0.000190 0.000000 0.000000 0.000000
# 2 -0.009605 0.011189 -0.002996 0.000000 0.000000 0.000000
# 3 -0.000190 -0.002996 0.005376 0.000000 0.000000 0.000000
# 4 0.000000 0.000000 0.000000 0.013072 0.000000 0.000000
# 5 0.000000 0.000000 0.000000 0.000000 0.018534 0.000000
# 6 0.000000 0.000000 0.000000 0.000000 0.000000 0.029915
#
#
# Mechanical properties :
#
#
# Convention : Reuss Voigt Hill
#
# Bulk Modulus (GPa) = 70.35531 106.43969 88.39750
# Shear Modulus (GPa) = 37.98298 51.28221 44.63260
#
# Velocity S-wave (km/s) = 3.66553 4.25917 3.97345
# Velocity P-wave (km/s) = 6.54234 7.86380 7.23331
#
# Compressibility (1/GPa) = 0.01421357
#
# Stress axis : x y z
#
# Youngs Moduli (GPa) = 43.04274 89.37714 186.02796
#
# Poissons Ratio (x) = 0.85850 0.03533
# Poissons Ratio (y) = 0.41344 0.55740
# Poissons Ratio (z) = 0.00818 0.26780
#
# Static dielectric constant tensor:
#      x y z
#    x 2.287340 0.000000 0.000000 
#    y 0.000000 2.125850 0.000000 
#    z 0.000000 0.000000 2.184640 
# 
# From -- ./inp_files/852.got.cif
#   From: 2010.05.17/outbox.cif.g08.bks.cpg/sg34_1_cif.got.tgz:852.got - 2010.06.03 17:23:11.
