data_PCOD9347210
_publ_section_title
;
Structure prediction by ZEFSAII (Michael W. Deem and Ramdas Pophale) SiO2 
 PCOD9347210
Probable space group: P N N 2
;
_chemical_formula_sum "Si O2"
_cell_formula_units_Z 28
_cell_length_a 13.856696
_cell_length_b 11.196461
_cell_length_c 7.832460
_cell_angle_alpha 90.000000
_cell_angle_beta 90.000000
_cell_angle_gamma 90.000000
_cell_volume 1215.174497
_symmetry_space_group_name_H-M "P N N 2"
_symmetry_group_IT_number 34
_symmetry_cell_setting 'orthorhombic'
loop_
_space_group_symop_operation_xyz
x,y,z
-x,-y,z
1/2-x,1/2+y,1/2+z
1/2+x,1/2-y,1/2+z
loop_
_atom_site_type_symbol
_atom_site_label
_atom_site_fract_x
_atom_site_fract_y
_atom_site_fract_z
Si Si1 0.888123 0.700495 0.188220
Si Si2 0.500000 0.500000 0.849799
Si Si3 0.685710 0.691297 0.281885
Si Si4 0.797812 0.716942 0.812919
Si Si5 0.337045 0.055944 0.321939
Si Si6 0.341839 0.560292 0.085879
Si Si7 0.000000 0.500000 0.060854
Si Si8 0.902582 0.178542 0.155791
O O1 0.800837 0.701019 0.320302
O O2 0.924776 0.566013 0.177644
O O3 0.989948 0.769720 0.189737
O O4 0.834169 0.723811 0.007647
O O5 0.439634 0.580189 0.980069
O O6 0.583238 0.545859 0.725848
O O7 0.664989 0.824695 0.206922
O O8 0.662530 0.573207 0.170526
O O9 0.629991 0.679863 0.460927
O O10 0.830414 0.581311 0.755064
O O11 0.839211 0.832391 0.719108
O O12 0.683538 0.727996 0.773343
O O13 0.249199 0.063835 0.457637
O O14 0.434354 0.074131 0.431801
#
# Coordination Sequence:
#
# PCOD9347210 Si02
#       8
#     4   2   4   4   4   4   2   4
#     4  11  24  44  74 104 143 194 251 305 377 451
#     4  12  28  46  70 104 162 196 248 318 382 450
#     4  12  25  43  79 111 143 196 255 307 377 457
#     4  11  25  47  71 105 151 196 243 313 382 446
#     4  11  22  46  67 106 146 193 242 311 367 440
#     4  12  25  46  71 108 149 199 245 309 384 449
#     4  10  18  42  70  92 142 192 230 300 374 424
#     4  12  26  45  72 111 148 197 251 309 383 449
#
# _framework density 23.041958999999999
#
# number of rings (size 3 to 8) (size 9 to 14) (size 15 to 20)
#    0.000    0.571    7.143    0.857    4.000    0.000 
#    0.000    0.000    0.000    0.857    0.000    0.000 
#    0.000    0.000    0.000    0.000    0.000    0.000 
#
# Total GULP energy -156021.913273 kJ/mol
# GULP energy per Si atom -5572.211188 kJ/mol
# Density = 2.298951 g / cm^3
# Si number density = 23.041959 Si / 1000 Ang^3
#
#
#
# Elastic Constant Matrix: (Units=GPa)
#
#
# Indices 1 2 3 4 5 6 
#
# 1 104.3812 17.1848 36.7838 0.0000 0.0000 0.0000
# 2 17.1848 154.4404 45.7761 0.0000 0.0000 0.0000
# 3 36.7838 45.7761 61.6050 0.0000 0.0000 0.0000
# 4 0.0000 0.0000 0.0000 22.2995 0.0000 0.0000
# 5 0.0000 0.0000 0.0000 0.0000 33.8907 0.0000
# 6 0.0000 0.0000 0.0000 0.0000 0.0000 32.8202
#
#
#
# Elastic Compliance Matrix: (Units=1/GPa)
#
#
# Indices 1 2 3 4 5 6 
#
# 1 0.012260 0.001033 -0.008088 0.000000 0.000000 0.000000
# 2 0.001033 0.008391 -0.006852 0.000000 0.000000 0.000000
# 3 -0.008088 -0.006852 0.026153 0.000000 0.000000 0.000000
# 4 0.000000 0.000000 0.000000 0.044844 0.000000 0.000000
# 5 0.000000 0.000000 0.000000 0.000000 0.029507 0.000000
# 6 0.000000 0.000000 0.000000 0.000000 0.000000 0.030469
#
#
# Mechanical properties :
#
#
# Convention : Reuss Voigt Hill
#
# Bulk Modulus (GPa) = 52.65754 57.76843 55.21299
# Shear Modulus (GPa) = 26.91522 32.51421 29.71471
#
# Velocity S-wave (km/s) = 3.42145 3.76052 3.59498
# Velocity P-wave (km/s) = 6.20572 6.63180 6.42229
#
# Compressibility (1/GPa) = 0.01899063
#
# Stress axis : x y z
#
# Youngs Moduli (GPa) = 81.56278 119.17662 38.23620
#
# Poissons Ratio (x) = -0.12313 0.30927
# Poissons Ratio (y) = -0.08427 0.26199
# Poissons Ratio (z) = 0.65971 0.81658
#
# Static dielectric constant tensor:
#      x y z
#    x 1.974510 0.000000 0.000000 
#    y 0.000000 2.115410 0.000000 
#    z 0.000000 0.000000 1.868890 
# 
# From -- ./inp_files/3619.got.cif
#   From: 2010.05.17/outbox.cif.g08.bks.cpg/sg34_2_cif.got.tgz:3619.got - 2010.06.03 17:23:11.
