data_PCOD9347952
_publ_section_title
;
Structure prediction by ZEFSAII (Michael W. Deem and Ramdas Pophale) SiO2 
 PCOD9347952
Probable space group: P N N 2
;
_chemical_formula_sum "Si O2"
_cell_formula_units_Z 26
_cell_length_a 12.402146
_cell_length_b 12.402170
_cell_length_c 6.970427
_cell_angle_alpha 90.000000
_cell_angle_beta 90.000000
_cell_angle_gamma 90.000000
_cell_volume 1072.145934
_symmetry_space_group_name_H-M "P N N 2"
_symmetry_group_IT_number 34
_symmetry_cell_setting 'orthorhombic'
loop_
_space_group_symop_operation_xyz
x,y,z
-x,-y,z
1/2-x,1/2+y,1/2+z
1/2+x,1/2-y,1/2+z
loop_
_atom_site_type_symbol
_atom_site_label
_atom_site_fract_x
_atom_site_fract_y
_atom_site_fract_z
Si Si1 0.360496 0.430719 0.724210
Si Si2 0.430718 0.639504 0.906214
Si Si3 0.268669 0.006050 0.859253
Si Si4 0.006049 0.731331 0.771174
Si Si5 0.274437 0.733367 0.360262
Si Si6 0.000000 0.500000 0.565216
Si Si7 0.766634 0.225561 0.770162
O O1 0.372947 0.523231 0.887424
O O2 0.476769 0.372948 0.743002
O O3 0.319200 0.490075 0.532056
O O4 0.273163 0.338272 0.761500
O O5 0.338271 0.726836 0.868920
O O6 0.490072 0.680801 0.098369
O O7 0.251642 0.900020 0.734490
O O8 0.246358 0.119716 0.758630
O O9 0.390130 0.001247 0.941240
O O10 0.900018 0.748359 0.895938
O O11 0.001247 0.609870 0.689191
O O12 0.119715 0.753645 0.871796
O O13 0.218573 0.718577 0.565211
#
# Coordination Sequence:
#
# PCOD9347952 Si02
#       7
#     4   4   4   4   4   2   4
#     4  11  23  44  72 101 141 188 234 298 364 429
#     4  11  23  44  72 101 141 188 234 298 364 429
#     4  12  26  45  73 102 148 187 244 298 372 432
#     4  12  26  45  73 102 148 187 244 298 372 432
#     4  12  26  46  70 110 140 188 243 294 363 442
#     4  12  20  48  70  96 144 204 222 312 360 428
#     4  12  26  46  70 110 140 188 243 294 363 442
#
# _framework density 24.250430000000001
#
# number of rings (size 3 to 8) (size 9 to 14) (size 15 to 20)
#    0.000    0.308    7.692    0.000    4.308    0.615 
#    0.000    0.769    0.000    0.000    0.000    0.000 
#    0.000    0.000    0.000    0.000    0.000    0.000 
#
# Total GULP energy -145445.173707 kJ/mol
# GULP energy per Si atom -5594.045143 kJ/mol
# Density = 2.419524 g / cm^3
# Si number density = 24.250430 Si / 1000 Ang^3
#
#
#
# Elastic Constant Matrix: (Units=GPa)
#
#
# Indices 1 2 3 4 5 6 
#
# 1 149.0043 37.5432 13.7731 0.0000 0.0000 0.0000
# 2 37.5432 149.0063 13.7724 0.0000 0.0000 0.0000
# 3 13.7731 13.7724 46.7853 0.0000 0.0000 0.0000
# 4 0.0000 0.0000 0.0000 34.8005 0.0000 0.0000
# 5 0.0000 0.0000 0.0000 0.0000 34.8005 0.0000
# 6 0.0000 0.0000 0.0000 0.0000 0.0000 46.6428
#
#
#
# Elastic Compliance Matrix: (Units=1/GPa)
#
#
# Indices 1 2 3 4 5 6 
#
# 1 0.007288 -0.001684 -0.001650 0.000000 0.000000 0.000000
# 2 -0.001684 0.007288 -0.001650 0.000000 0.000000 0.000000
# 3 -0.001650 -0.001650 0.022346 0.000000 0.000000 0.000000
# 4 0.000000 0.000000 0.000000 0.028735 0.000000 0.000000
# 5 0.000000 0.000000 0.000000 0.000000 0.028735 0.000000
# 6 0.000000 0.000000 0.000000 0.000000 0.000000 0.021440
#
#
# Mechanical properties :
#
#
# Convention : Reuss Voigt Hill
#
# Bulk Modulus (GPa) = 37.09916 52.77480 44.93698
# Shear Modulus (GPa) = 37.09674 41.89592 39.49633
#
# Velocity S-wave (km/s) = 3.91543 4.16099 4.04008
# Velocity P-wave (km/s) = 5.98100 6.70036 6.35087
#
# Compressibility (1/GPa) = 0.02695479
#
# Stress axis : x y z
#
# Youngs Moduli (GPa) = 137.21261 137.21484 44.75166
#
# Poissons Ratio (x) = 0.23104 0.07383
# Poissons Ratio (y) = 0.23103 0.07383
# Poissons Ratio (z) = 0.22638 0.22636
#
# Static dielectric constant tensor:
#      x y z
#    x 1.899460 0.000000 0.000000 
#    y 0.000000 1.899460 0.000000 
#    z 0.000000 0.000000 1.924860 
# 
# From -- ./inp_files/3179.got.cif
#   From: 2010.05.17/outbox.cif.g08.bks.cpg/sg34_2_cif.got.tgz:3179.got - 2010.06.03 17:23:11.
