data_PCOD9347704
_publ_section_title
;
Structure prediction by ZEFSAII (Michael W. Deem and Ramdas Pophale) SiO2 
 PCOD9347704
Probable space group: P N N 2
;
_chemical_formula_sum "Si O2"
_cell_formula_units_Z 20
_cell_length_a 7.781855
_cell_length_b 16.912691
_cell_length_c 6.607241
_cell_angle_alpha 90.000000
_cell_angle_beta 90.000000
_cell_angle_gamma 90.000000
_cell_volume 869.592923
_symmetry_space_group_name_H-M "P N N 2"
_symmetry_group_IT_number 34
_symmetry_cell_setting 'orthorhombic'
loop_
_space_group_symop_operation_xyz
x,y,z
-x,-y,z
1/2-x,1/2+y,1/2+z
1/2+x,1/2-y,1/2+z
loop_
_atom_site_type_symbol
_atom_site_label
_atom_site_fract_x
_atom_site_fract_y
_atom_site_fract_z
Si Si1 0.306508 0.500372 0.989060
Si Si2 0.580036 0.772164 0.051495
Si Si3 0.914469 0.574987 0.639690
Si Si4 0.153020 0.865530 0.818368
Si Si5 0.204098 0.164594 0.699312
O O1 0.500000 0.500000 0.896075
O O2 0.172254 0.463179 0.834838
O O3 0.324939 0.440888 0.175358
O O4 0.253630 0.585628 0.076649
O O5 0.649141 0.794071 0.830098
O O6 0.550910 0.854769 0.167828
O O7 0.696435 0.711027 0.179400
O O8 0.400372 0.724029 0.054407
O O9 0.767219 0.616692 0.509563
O O10 0.000000 0.500000 0.527329
O O11 0.949184 0.856962 0.859523
#
# Coordination Sequence:
#
# PCOD9347704 Si02
#       5
#     4   4   4   4   4
#     4  10  22  43  69 100 141 190 241 295 366 449
#     4  10  22  43  70 108 141 187 246 308 372 445
#     4  12  26  42  69 107 139 190 243 303 373 443
#     4   9  23  45  67  99 143 181 240 298 366 442
#     4   9  21  44  74 102 144 193 246 303 379 446
#
# _framework density 22.999265000000001
#
# number of rings (size 3 to 8) (size 9 to 14) (size 15 to 20)
#    1.200    0.800    0.000    2.400    0.000    8.000 
#    7.200    0.000    0.000    0.000    0.000    0.000 
#    0.000    0.000    0.000    0.000    0.000    0.000 
#
# Total GULP energy -111603.881274 kJ/mol
# GULP energy per Si atom -5580.194064 kJ/mol
# Density = 2.294692 g / cm^3
# Si number density = 22.999265 Si / 1000 Ang^3
#
#
#
# Elastic Constant Matrix: (Units=GPa)
#
#
# Indices 1 2 3 4 5 6 
#
# 1 74.0588 46.8393 51.5913 0.0000 0.0000 0.0000
# 2 46.8393 198.5905 54.9718 0.0000 0.0000 0.0000
# 3 51.5913 54.9718 57.8391 0.0000 0.0000 0.0000
# 4 0.0000 0.0000 0.0000 36.5619 0.0000 0.0000
# 5 0.0000 0.0000 0.0000 0.0000 36.1467 0.0000
# 6 0.0000 0.0000 0.0000 0.0000 0.0000 32.5688
#
#
#
# Elastic Compliance Matrix: (Units=1/GPa)
#
#
# Indices 1 2 3 4 5 6 
#
# 1 0.035705 0.000535 -0.032357 0.000000 0.000000 0.000000
# 2 0.000535 0.006841 -0.006980 0.000000 0.000000 0.000000
# 3 -0.032357 -0.006980 0.052785 0.000000 0.000000 0.000000
# 4 0.000000 0.000000 0.000000 0.027351 0.000000 0.000000
# 5 0.000000 0.000000 0.000000 0.000000 0.027665 0.000000
# 6 0.000000 0.000000 0.000000 0.000000 0.000000 0.030704
#
#
# Mechanical properties :
#
#
# Convention : Reuss Voigt Hill
#
# Bulk Modulus (GPa) = 56.40634 70.81037 63.60836
# Shear Modulus (GPa) = 18.89912 32.86121 25.88016
#
# Velocity S-wave (km/s) = 2.86969 3.78404 3.35813
# Velocity P-wave (km/s) = 5.96311 7.06731 6.53856
#
# Compressibility (1/GPa) = 0.01772850
#
# Stress axis : x y z
#
# Youngs Moduli (GPa) = 28.00744 146.17214 18.94489
#
# Poissons Ratio (x) = -0.07826 0.61300
# Poissons Ratio (y) = -0.01499 0.13223
# Poissons Ratio (z) = 0.90623 1.02023
#
# Static dielectric constant tensor:
#      x y z
#    x 2.028200 0.000000 0.000000 
#    y 0.000000 1.874390 0.000000 
#    z 0.000000 0.000000 1.837090 
# 
# From -- ./inp_files/406.got.cif
#   From: 2010.05.17/outbox.cif.g08.bks.cpg/sg34_1_cif.got.tgz:406.got - 2010.06.03 17:23:11.
