data_PCOD9347279
_publ_section_title
;
Structure prediction by ZEFSAII (Michael W. Deem and Ramdas Pophale) SiO2 
 PCOD9347279
Probable space group: P N N 2
;
_chemical_formula_sum "Si O2"
_cell_formula_units_Z 24
_cell_length_a 22.590015
_cell_length_b 7.463710
_cell_length_c 5.491897
_cell_angle_alpha 90.000000
_cell_angle_beta 90.000000
_cell_angle_gamma 90.000000
_cell_volume 925.963056
_symmetry_space_group_name_H-M "P N N 2"
_symmetry_group_IT_number 34
_symmetry_cell_setting 'orthorhombic'
loop_
_space_group_symop_operation_xyz
x,y,z
-x,-y,z
1/2-x,1/2+y,1/2+z
1/2+x,1/2-y,1/2+z
loop_
_atom_site_type_symbol
_atom_site_label
_atom_site_fract_x
_atom_site_fract_y
_atom_site_fract_z
Si Si1 0.183515 0.000481 0.656050
Si Si2 0.986734 0.291699 0.078724
Si Si3 0.885481 0.690171 0.162586
Si Si4 0.224598 0.034503 0.155302
Si Si5 0.154869 0.416483 0.664014
Si Si6 0.946875 0.140171 0.572638
O O1 0.219824 0.943884 0.419566
O O2 0.115709 0.951653 0.617570
O O3 0.185633 0.218502 0.672396
O O4 0.207626 0.928161 0.911002
O O5 0.947856 0.228963 0.306368
O O6 0.000000 0.500000 0.110105
O O7 0.053091 0.206262 0.110974
O O8 0.961463 0.257079 0.811434
O O9 0.886580 0.596375 0.426625
O O10 0.827715 0.818024 0.170341
O O11 0.875724 0.566387 0.925777
O O12 0.294682 0.064259 0.125667
O O13 0.000000 0.000000 0.569778
#
# Coordination Sequence:
#
# PCOD9347279 Si02
#       6
#     4   4   4   4   4   4
#     4  10  21  37  58  93 124 160 216 272 328 397
#     4  12  26  46  69 103 143 183 228 288 350 410
#     4  10  21  40  62  89 126 170 217 270 330 401
#     4  10  19  37  60  87 124 169 215 270 332 394
#     4  10  20  37  61  88 123 165 213 278 332 387
#     4  12  23  43  74 102 134 181 230 282 343 415
#
# _framework density 25.918959000000001
#
# number of rings (size 3 to 8) (size 9 to 14) (size 15 to 20)
#    0.000    1.333    0.000    8.000    0.000    0.000 
#    0.000   20.000    0.000    0.000    0.000    0.000 
#    0.000    0.000    0.000    0.000    0.000    0.000 
#
# Total GULP energy -134314.999309 kJ/mol
# GULP energy per Si atom -5596.458305 kJ/mol
# Density = 2.585997 g / cm^3
# Si number density = 25.918959 Si / 1000 Ang^3
#
#
#
# Elastic Constant Matrix: (Units=GPa)
#
#
# Indices 1 2 3 4 5 6 
#
# 1 56.7115 -8.5274 -22.8221 0.0000 0.0000 0.0000
# 2 -8.5274 72.5239 5.5939 0.0000 0.0000 0.0000
# 3 -22.8221 5.5939 192.1545 0.0000 0.0000 0.0000
# 4 0.0000 0.0000 0.0000 -44.4630 0.0000 0.0000
# 5 0.0000 0.0000 0.0000 0.0000 118.6447 0.0000
# 6 0.0000 0.0000 0.0000 0.0000 0.0000 -27.1068
#
#
#
# Elastic Compliance Matrix: (Units=1/GPa)
#
#
# Indices 1 2 3 4 5 6 
#
# 1 0.018816 0.002045 0.002175 0.000000 0.000000 0.000000
# 2 0.002045 0.014042 -0.000166 0.000000 0.000000 0.000000
# 3 0.002175 -0.000166 0.005467 0.000000 0.000000 0.000000
# 4 0.000000 0.000000 0.000000 -0.022491 0.000000 0.000000
# 5 0.000000 0.000000 0.000000 0.000000 0.008429 0.000000
# 6 0.000000 0.000000 0.000000 0.000000 0.000000 -0.036891
#
#
# Mechanical properties :
#
#
# Convention : Reuss Voigt Hill
#
# Bulk Modulus (GPa) = 21.53649 29.98653 25.76151
# Shear Modulus (GPa) = -950.86602 32.55800 -459.15401
#
# Velocity S-wave (km/s) = -19.17440 3.54806 -13.32421
# Velocity P-wave (km/s) = 21.95183 5.32724 15.05828
#
# Compressibility (1/GPa) = 0.04643281
#
# Stress axis : x y z
#
# Youngs Moduli (GPa) = 53.14648 71.21614 182.90476
#
# Poissons Ratio (x) = -0.14561 -0.39786
# Poissons Ratio (y) = -0.10866 0.03035
# Poissons Ratio (z) = -0.11561 0.01182
#
# Static dielectric constant tensor:
#      x y z
#    x 1.900480 0.000000 0.000000 
#    y 0.000000 2.092480 0.000000 
#    z 0.000000 0.000000 2.058190 
# 
# From -- ./inp_files/481.got.cif
#   From: 2010.05.17/outbox.cif.g08.bks.cpg/sg34_1_cif.got.tgz:481.got - 2010.06.03 17:23:11.
