data_PCOD9347986
_publ_section_title
;
Structure prediction by ZEFSAII (Michael W. Deem and Ramdas Pophale) SiO2 
 PCOD9347986
Probable space group: P N N 2
;
_chemical_formula_sum "Si O2"
_cell_formula_units_Z 24
_cell_length_a 8.615398
_cell_length_b 11.285068
_cell_length_c 10.676176
_cell_angle_alpha 90.000000
_cell_angle_beta 90.000000
_cell_angle_gamma 90.000000
_cell_volume 1037.994973
_symmetry_space_group_name_H-M "P N N 2"
_symmetry_group_IT_number 34
_symmetry_cell_setting 'orthorhombic'
loop_
_space_group_symop_operation_xyz
x,y,z
-x,-y,z
1/2-x,1/2+y,1/2+z
1/2+x,1/2-y,1/2+z
loop_
_atom_site_type_symbol
_atom_site_label
_atom_site_fract_x
_atom_site_fract_y
_atom_site_fract_z
Si Si1 0.625769 0.211791 0.336380
Si Si2 0.546569 0.765844 0.080640
Si Si3 0.301048 0.911186 0.701548
Si Si4 0.500000 0.500000 0.648361
Si Si5 0.500000 0.000000 0.500071
Si Si6 0.997306 0.211357 0.318357
Si Si7 0.776535 0.947025 0.951716
O O1 0.559686 0.207390 0.197699
O O2 0.311481 0.304628 0.826738
O O3 0.612792 0.338222 0.406807
O O4 0.535855 0.113477 0.415956
O O5 0.674287 0.674643 0.137265
O O6 0.453181 0.711964 0.963093
O O7 0.632148 0.879780 0.017957
O O8 0.354762 0.002258 0.594926
O O9 0.443270 0.827963 0.747591
O O10 0.253840 0.979892 0.826517
O O11 0.441521 0.603964 0.736620
O O12 0.641521 0.527053 0.555600
#
# Coordination Sequence:
#
# PCOD9347986 Si02
#       7
#     4   4   4   2   2   4   4
#     4  11  26  45  72 107 149 189 255 306 380 456
#     4  11  25  48  68 112 144 191 259 300 386 455
#     4  12  25  48  79 102 152 195 251 319 382 443
#     4  12  24  46  72 106 150 190 250 316 370 448
#     4  12  22  44  74 106 146 196 238 316 368 458
#     4  11  26  48  69 110 144 195 250 314 367 463
#     4  11  25  47  74 108 145 198 251 312 383 450
#
# _framework density 23.121500000000001
#
# number of rings (size 3 to 8) (size 9 to 14) (size 15 to 20)
#    0.000    0.667    5.000    3.000    4.667    1.333 
#    6.000    0.000    0.000    0.000    0.000    0.000 
#    0.000    0.000    0.000    0.000    0.000    0.000 
#
# Total GULP energy -134207.227604 kJ/mol
# GULP energy per Si atom -5591.967817 kJ/mol
# Density = 2.306887 g / cm^3
# Si number density = 23.121500 Si / 1000 Ang^3
#
#
#
# Elastic Constant Matrix: (Units=GPa)
#
#
# Indices 1 2 3 4 5 6 
#
# 1 31.4183 22.9567 34.6094 0.0000 0.0000 0.0000
# 2 22.9567 102.4685 55.7716 0.0000 0.0000 0.0000
# 3 34.6094 55.7716 201.6312 0.0000 0.0000 0.0000
# 4 0.0000 0.0000 0.0000 50.9295 0.0000 0.0000
# 5 0.0000 0.0000 0.0000 0.0000 38.1834 0.0000
# 6 0.0000 0.0000 0.0000 0.0000 0.0000 19.5033
#
#
#
# Elastic Compliance Matrix: (Units=1/GPa)
#
#
# Indices 1 2 3 4 5 6 
#
# 1 0.042699 -0.006565 -0.005513 0.000000 0.000000 0.000000
# 2 -0.006565 0.012498 -0.002330 0.000000 0.000000 0.000000
# 3 -0.005513 -0.002330 0.006550 0.000000 0.000000 0.000000
# 4 0.000000 0.000000 0.000000 0.019635 0.000000 0.000000
# 5 0.000000 0.000000 0.000000 0.000000 0.026189 0.000000
# 6 0.000000 0.000000 0.000000 0.000000 0.000000 0.051273
#
#
# Mechanical properties :
#
#
# Convention : Reuss Voigt Hill
#
# Bulk Modulus (GPa) = 30.36726 62.46594 46.41660
# Shear Modulus (GPa) = 25.17124 36.53525 30.85325
#
# Velocity S-wave (km/s) = 3.30305 3.97941 3.65690
# Velocity P-wave (km/s) = 5.26395 6.94185 6.16030
#
# Compressibility (1/GPa) = 0.03293020
#
# Stress axis : x y z
#
# Youngs Moduli (GPa) = 23.41977 80.01140 152.66305
#
# Poissons Ratio (x) = 0.52531 0.84165
# Poissons Ratio (y) = 0.15376 0.35572
# Poissons Ratio (z) = 0.12912 0.18643
#
# Static dielectric constant tensor:
#      x y z
#    x 1.916660 0.000000 0.000000 
#    y 0.000000 1.900600 0.000000 
#    z 0.000000 0.000000 1.851340 
# 
# From -- ./inp_files/3186.got.cif
#   From: 2010.05.17/outbox.cif.g08.bks.cpg/sg34_2_cif.got.tgz:3186.got - 2010.06.03 17:23:11.
