data_PCOD9347873
_publ_section_title
;
Structure prediction by ZEFSAII (Michael W. Deem and Ramdas Pophale) SiO2 
 PCOD9347873
Probable space group: P N N 2
;
_chemical_formula_sum "Si O2"
_cell_formula_units_Z 16
_cell_length_a 12.755953
_cell_length_b 10.842479
_cell_length_c 4.714494
_cell_angle_alpha 90.000000
_cell_angle_beta 90.000000
_cell_angle_gamma 90.000000
_cell_volume 652.043526
_symmetry_space_group_name_H-M "P N N 2"
_symmetry_group_IT_number 34
_symmetry_cell_setting 'orthorhombic'
loop_
_space_group_symop_operation_xyz
x,y,z
-x,-y,z
1/2-x,1/2+y,1/2+z
1/2+x,1/2-y,1/2+z
loop_
_atom_site_type_symbol
_atom_site_label
_atom_site_fract_x
_atom_site_fract_y
_atom_site_fract_z
Si Si1 0.000000 0.000000 0.831010
Si Si2 0.835633 0.366887 0.551707
Si Si3 0.507386 0.262115 0.729926
Si Si4 0.687062 0.375252 0.058953
Si Si5 0.000000 0.500000 0.219890
O O1 0.896795 0.981215 0.638162
O O2 0.009850 0.879726 0.031672
O O3 0.917807 0.259216 0.469767
O O4 0.735875 0.337135 0.355666
O O5 0.898742 0.482843 0.422126
O O6 0.786538 0.396763 0.855061
O O7 0.508239 0.130981 0.564209
O O8 0.614801 0.278080 0.898702
#
# Coordination Sequence:
#
# PCOD9347873 Si02
#       5
#     2   4   4   4   2
#     4  12  26  50  80 128 168 204 284 342 414 506
#     4  10  26  49  80 113 159 216 266 333 408 481
#     4  10  25  53  76 122 163 209 280 342 395 508
#     4  12  25  49  79 121 156 217 259 341 413 479
#     4   8  24  54  80 114 162 206 280 328 396 500
#
# _framework density 24.538240999999999
#
# number of rings (size 3 to 8) (size 9 to 14) (size 15 to 20)
#    1.500    0.000    2.500    0.750    3.500    3.000 
#    9.000    0.000    0.000    0.000    0.000    0.000 
#    0.000    0.000    0.000    0.000    0.000    0.000 
#
# Total GULP energy -89265.252951 kJ/mol
# GULP energy per Si atom -5579.078309 kJ/mol
# Density = 2.448239 g / cm^3
# Si number density = 24.538241 Si / 1000 Ang^3
#
#
#
# Elastic Constant Matrix: (Units=GPa)
#
#
# Indices 1 2 3 4 5 6 
#
# 1 144.6543 28.1593 39.8040 0.0000 0.0000 0.0000
# 2 28.1593 193.3444 48.2927 0.0000 0.0000 0.0000
# 3 39.8040 48.2927 123.8945 0.0000 0.0000 0.0000
# 4 0.0000 0.0000 0.0000 127.6301 0.0000 0.0000
# 5 0.0000 0.0000 0.0000 0.0000 68.9619 0.0000
# 6 0.0000 0.0000 0.0000 0.0000 0.0000 40.1983
#
#
#
# Elastic Compliance Matrix: (Units=1/GPa)
#
#
# Indices 1 2 3 4 5 6 
#
# 1 0.007636 -0.000553 -0.002238 0.000000 0.000000 0.000000
# 2 -0.000553 0.005770 -0.002071 0.000000 0.000000 0.000000
# 3 -0.002238 -0.002071 0.009598 0.000000 0.000000 0.000000
# 4 0.000000 0.000000 0.000000 0.007835 0.000000 0.000000
# 5 0.000000 0.000000 0.000000 0.000000 0.014501 0.000000
# 6 0.000000 0.000000 0.000000 0.000000 0.000000 0.024877
#
#
# Mechanical properties :
#
#
# Convention : Reuss Voigt Hill
#
# Bulk Modulus (GPa) = 75.30391 77.15613 76.23002
# Shear Modulus (GPa) = 59.26411 70.40053 64.83232
#
# Velocity S-wave (km/s) = 4.91977 5.36213 5.14571
# Velocity P-wave (km/s) = 7.93897 8.35751 8.15093
#
# Compressibility (1/GPa) = 0.01327952
#
# Stress axis : x y z
#
# Youngs Moduli (GPa) = 130.95019 173.30804 104.19157
#
# Poissons Ratio (x) = 0.09589 0.23315
# Poissons Ratio (y) = 0.07245 0.21582
# Poissons Ratio (z) = 0.29303 0.35898
#
# Static dielectric constant tensor:
#      x y z
#    x 1.950490 0.000000 0.000000 
#    y 0.000000 1.924160 0.000000 
#    z 0.000000 0.000000 1.955300 
# 
# From -- ./inp_files/729.got.cif
#   From: 2010.05.17/outbox.cif.g08.bks.cpg/sg34_1_cif.got.tgz:729.got - 2010.06.03 17:23:11.
