data_PCOD9347601
_publ_section_title
;
Structure prediction by ZEFSAII (Michael W. Deem and Ramdas Pophale) SiO2 
 PCOD9347601
Probable space group: P N N 2
;
_chemical_formula_sum "Si O2"
_cell_formula_units_Z 24
_cell_length_a 7.449256
_cell_length_b 6.162458
_cell_length_c 22.919610
_cell_angle_alpha 90.000000
_cell_angle_beta 90.000000
_cell_angle_gamma 90.000000
_cell_volume 1052.141365
_symmetry_space_group_name_H-M "P N N 2"
_symmetry_group_IT_number 34
_symmetry_cell_setting 'orthorhombic'
loop_
_space_group_symop_operation_xyz
x,y,z
-x,-y,z
1/2-x,1/2+y,1/2+z
1/2+x,1/2-y,1/2+z
loop_
_atom_site_type_symbol
_atom_site_label
_atom_site_fract_x
_atom_site_fract_y
_atom_site_fract_z
Si Si1 0.189493 0.873193 0.412700
Si Si2 0.768138 0.204312 0.067409
Si Si3 0.000000 0.500000 0.219890
Si Si4 0.000000 0.500000 0.474046
Si Si5 0.257847 0.138926 0.172060
Si Si6 0.500000 0.000000 0.500803
Si Si7 0.000000 0.000000 0.629324
Si Si8 0.188034 0.868680 0.282364
O O1 0.329911 0.961527 0.459355
O O2 0.266514 0.873559 0.347135
O O3 0.130473 0.636310 0.433009
O O4 0.000000 0.000000 0.414694
O O5 0.670398 0.417659 0.093194
O O6 0.775250 0.020101 0.117272
O O7 0.953045 0.290154 0.040021
O O8 0.631695 0.128472 0.017235
O O9 0.094474 0.309224 0.183105
O O10 0.143337 0.626161 0.260165
O O11 0.429736 0.290523 0.162885
O O12 0.280540 0.996482 0.230038
O O13 0.000000 0.000000 0.287968
#
# Coordination Sequence:
#
# PCOD9347601 Si02
#       8
#     4   4   2   2   4   2   2   4
#     4  11  24  50  77 106 150 194 251 311 368 439
#     4  12  26  46  73 108 148 197 250 305 372 447
#     4  10  21  43  70 110 140 190 238 298 376 448
#     4  12  23  48  76 100 152 201 246 302 378 440
#     4  11  24  44  71 108 146 192 244 302 381 440
#     4  12  28  49  76 112 146 199 258 308 368 438
#     4  12  24  46  68 102 150 200 234 306 382 442
#     4   9  21  43  74 103 142 191 241 304 374 442
#
# _framework density 22.810625000000002
#
# number of rings (size 3 to 8) (size 9 to 14) (size 15 to 20)
#    0.000    1.000    3.333    2.500    0.000    6.000 
#    9.000    0.000    0.000    0.000    0.000    0.000 
#    0.000    0.000    0.000    0.000    0.000    0.000 
#
# Total GULP energy -134303.854634 kJ/mol
# GULP energy per Si atom -5595.993943 kJ/mol
# Density = 2.275871 g / cm^3
# Si number density = 22.810625 Si / 1000 Ang^3
#
#
#
# Elastic Constant Matrix: (Units=GPa)
#
#
# Indices 1 2 3 4 5 6 
#
# 1 81.4010 31.9342 52.3845 0.0000 0.0000 0.0000
# 2 31.9342 122.7482 84.2888 0.0000 0.0000 0.0000
# 3 52.3845 84.2888 182.8720 0.0000 0.0000 0.0000
# 4 0.0000 0.0000 0.0000 -17.5747 0.0000 0.0000
# 5 0.0000 0.0000 0.0000 0.0000 30.5162 0.0000
# 6 0.0000 0.0000 0.0000 0.0000 0.0000 54.1013
#
#
#
# Elastic Compliance Matrix: (Units=1/GPa)
#
#
# Indices 1 2 3 4 5 6 
#
# 1 0.015227 -0.001414 -0.003710 0.000000 0.000000 0.000000
# 2 -0.001414 0.012050 -0.005149 0.000000 0.000000 0.000000
# 3 -0.003710 -0.005149 0.008905 0.000000 0.000000 0.000000
# 4 0.000000 0.000000 0.000000 -0.056900 0.000000 0.000000
# 5 0.000000 0.000000 0.000000 0.000000 0.032769 0.000000
# 6 0.000000 0.000000 0.000000 0.000000 0.000000 0.018484
#
#
# Mechanical properties :
#
#
# Convention : Reuss Voigt Hill
#
# Bulk Modulus (GPa) = 63.95672 80.47066 72.21369
# Shear Modulus (GPa) = 88.81971 27.96950 58.39460
#
# Velocity S-wave (km/s) = 6.24679 3.50546 5.06511
# Velocity P-wave (km/s) = 8.95147 7.19295 8.11996
#
# Compressibility (1/GPa) = 0.01563557
#
# Stress axis : x y z
#
# Youngs Moduli (GPa) = 65.67208 82.98425 112.30235
#
# Poissons Ratio (x) = 0.11732 0.41667
# Poissons Ratio (y) = 0.09284 0.57828
# Poissons Ratio (z) = 0.24366 0.42731
#
# Static dielectric constant tensor:
#      x y z
#    x 1.863280 0.000000 0.000000 
#    y 0.000000 1.872480 0.000000 
#    z 0.000000 0.000000 1.848960 
# 
# From -- ./inp_files/8411.got.cif
#   From: 2010.05.17/outbox.cif.g08.bks.cpg/sg34_5_cif.got.tgz:8411.got - 2010.06.03 17:23:11.
