data_PCOD9347368
_publ_section_title
;
Structure prediction by ZEFSAII (Michael W. Deem and Ramdas Pophale) SiO2 
 PCOD9347368
Probable space group: P N N 2
;
_chemical_formula_sum "Si O2"
_cell_formula_units_Z 32
_cell_length_a 15.108328
_cell_length_b 8.889264
_cell_length_c 11.784401
_cell_angle_alpha 90.000000
_cell_angle_beta 90.000000
_cell_angle_gamma 90.000000
_cell_volume 1582.667635
_symmetry_space_group_name_H-M "P N N 2"
_symmetry_group_IT_number 34
_symmetry_cell_setting 'orthorhombic'
loop_
_space_group_symop_operation_xyz
x,y,z
-x,-y,z
1/2-x,1/2+y,1/2+z
1/2+x,1/2-y,1/2+z
loop_
_atom_site_type_symbol
_atom_site_label
_atom_site_fract_x
_atom_site_fract_y
_atom_site_fract_z
Si Si1 0.636007 0.885185 0.240620
Si Si2 0.584780 0.919002 0.484861
Si Si3 0.001104 0.182397 0.341095
Si Si4 0.567788 0.637451 0.082571
Si Si5 0.753771 0.967970 0.635081
Si Si6 0.699695 0.188882 0.829841
Si Si7 0.226969 0.373501 0.595126
Si Si8 0.574290 0.626511 0.611840
O O1 0.593548 0.951834 0.352978
O O2 0.575172 0.758700 0.182465
O O3 0.727587 0.808867 0.285632
O O4 0.658859 0.011327 0.149029
O O5 0.673137 0.968741 0.547537
O O6 0.573587 0.741918 0.507824
O O7 0.500000 0.000000 0.535010
O O8 0.099887 0.246183 0.325153
O O9 0.959104 0.217602 0.463876
O O10 0.945619 0.218687 0.227965
O O11 0.000000 0.000000 0.342424
O O12 0.500000 0.500000 0.103133
O O13 0.664451 0.559734 0.081645
O O14 0.780107 0.793301 0.648951
O O15 0.719010 0.046429 0.749271
O O16 0.716028 0.148289 0.960825
O O17 0.326175 0.433958 0.618979
O O18 0.500000 0.500000 0.599151
#
# Coordination Sequence:
#
# PCOD9347368 Si02
#       8
#     4   4   4   4   4   4   4   4
#     4  11  24  42  63  94 138 173 221 271 336 400
#     4  11  24  41  60  92 132 171 213 270 330 393
#     4  10  20  36  70  97 125 166 229 279 328 388
#     4  10  23  41  69  99 130 177 223 272 341 398
#     4  10  23  44  66  93 136 176 220 282 337 393
#     4  11  22  45  66  97 130 177 221 283 328 407
#     4  11  23  42  66  94 135 172 227 273 337 395
#     4  10  21  39  64  92 123 169 218 272 323 387
#
# _framework density 20.219028000000002
#
# number of rings (size 3 to 8) (size 9 to 14) (size 15 to 20)
#    0.000    1.500    2.500    3.750    1.750    5.500 
#    4.500    2.500    0.000    0.000    0.000    0.000 
#    0.000    0.000    0.000    0.000    0.000    0.000 
#
# Total GULP energy -178693.736335 kJ/mol
# GULP energy per Si atom -5584.179260 kJ/mol
# Density = 2.017301 g / cm^3
# Si number density = 20.219028 Si / 1000 Ang^3
#
#
#
# Elastic Constant Matrix: (Units=GPa)
#
#
# Indices 1 2 3 4 5 6 
#
# 1 96.2038 27.7850 34.6084 0.0000 0.0000 0.0000
# 2 27.7850 65.0268 40.4728 0.0000 0.0000 0.0000
# 3 34.6084 40.4728 105.4225 0.0000 0.0000 0.0000
# 4 0.0000 0.0000 0.0000 29.3849 0.0000 0.0000
# 5 0.0000 0.0000 0.0000 0.0000 23.7758 0.0000
# 6 0.0000 0.0000 0.0000 0.0000 0.0000 38.7754
#
#
#
# Elastic Compliance Matrix: (Units=1/GPa)
#
#
# Indices 1 2 3 4 5 6 
#
# 1 0.012408 -0.003635 -0.002678 0.000000 0.000000 0.000000
# 2 -0.003635 0.021272 -0.006973 0.000000 0.000000 0.000000
# 3 -0.002678 -0.006973 0.013042 0.000000 0.000000 0.000000
# 4 0.000000 0.000000 0.000000 0.034031 0.000000 0.000000
# 5 0.000000 0.000000 0.000000 0.000000 0.042060 0.000000
# 6 0.000000 0.000000 0.000000 0.000000 0.000000 0.025790
#
#
# Mechanical properties :
#
#
# Convention : Reuss Voigt Hill
#
# Bulk Modulus (GPa) = 49.62931 52.48727 51.05829
# Shear Modulus (GPa) = 27.48926 29.30635 28.39781
#
# Velocity S-wave (km/s) = 3.69124 3.81129 3.75174
# Velocity P-wave (km/s) = 6.53958 6.73673 6.63889
#
# Compressibility (1/GPa) = 0.02014939
#
# Stress axis : x y z
#
# Youngs Moduli (GPa) = 80.59500 47.01123 76.67703
#
# Poissons Ratio (x) = 0.17089 0.20532
# Poissons Ratio (y) = 0.29296 0.53467
# Poissons Ratio (z) = 0.21581 0.32781
#
# Static dielectric constant tensor:
#      x y z
#    x 1.725150 0.000000 0.000000 
#    y 0.000000 1.704450 0.000000 
#    z 0.000000 0.000000 1.724140 
# 
# From -- ./inp_files/5670.got.cif
#   From: 2010.05.17/outbox.cif.g08.bks.cpg/sg34_3_cif.got.tgz:5670.got - 2010.06.03 17:23:11.
