data_PCOD9347057
_publ_section_title
;
Structure prediction by ZEFSAII (Michael W. Deem and Ramdas Pophale) SiO2 
 PCOD9347057
Probable space group: P N A 21
;
_chemical_formula_sum "Si O2"
_cell_formula_units_Z 32
_cell_length_a 15.000000
_cell_length_b 12.000000
_cell_length_c 9.000000
_cell_angle_alpha 90.000000
_cell_angle_beta 90.000000
_cell_angle_gamma 90.000000
_cell_volume 1620.000000
_symmetry_space_group_name_H-M "P N A 21"
_symmetry_group_IT_number 33
_symmetry_cell_setting 'orthorhombic'
loop_
_space_group_symop_operation_xyz
x,y,z
-x,-y,1/2+z
1/2-x,1/2+y,1/2+z
1/2+x,1/2-y,z
loop_
_atom_site_type_symbol
_atom_site_label
_atom_site_fract_x
_atom_site_fract_y
_atom_site_fract_z
Si Si1 0.202020 0.361022 0.010380
Si Si2 0.153140 0.140514 0.619896
Si Si3 0.974318 0.745191 0.360886
Si Si4 0.175103 0.726913 0.287455
Si Si5 0.744286 0.903831 0.847702
Si Si6 0.839051 0.044720 0.602984
Si Si7 0.528258 0.573082 0.599052
Si Si8 0.173641 0.832780 0.791893
O O1 0.243155 0.357564 0.177872
O O2 0.101220 0.317463 0.965534
O O3 0.271866 0.276407 0.929329
O O4 0.212625 0.486060 0.940661
O O5 0.084009 0.218200 0.714501
O O6 0.249301 0.149829 0.706044
O O7 0.178297 0.157117 0.446463
O O8 0.103487 0.022623 0.603027
O O9 0.071843 0.688815 0.320918
O O10 0.008034 0.854922 0.451175
O O11 0.164522 0.836627 0.185252
O O12 0.679046 0.798956 0.830418
O O13 0.774366 0.957688 0.689696
O O14 0.821479 0.080722 0.431700
O O15 0.935564 0.989260 0.626618
O O16 0.575226 0.652607 0.719080
#
# Coordination Sequence:
#
# PCOD9347057 Si02
#       8
#     4   4   4   4   4   4   4   4
#     4  10  23  43  70  99 144 192 244 298 375 440
#     4  11  22  39  71 101 141 188 241 301 375 430
#     4  11  22  42  71 102 141 194 241 309 369 445
#     4  10  20  42  66 100 141 187 238 302 367 430
#     4  11  24  46  66 103 150 188 244 301 363 453
#     4  11  24  40  69 105 145 188 241 304 365 432
#     4  12  23  39  68 107 137 177 249 302 358 436
#     4  12  24  43  71 107 145 188 240 311 370 434
#
# _framework density 19.753086
#
# number of rings (size 3 to 8) (size 9 to 14) (size 15 to 20)
#    0.000    1.000    5.000    2.250    1.750    1.000 
#    0.000    1.250    0.000    0.000    0.000    0.000 
#    0.000    0.000    0.000    0.000    0.000    0.000 
#
# Total GULP energy -178217.863020 kJ/mol
# GULP energy per Si atom -5569.308219 kJ/mol
# Density = 1.970813 g / cm^3
# Si number density = 19.753086 Si / 1000 Ang^3
#
#
#
# Elastic Constant Matrix: (Units=GPa)
#
#
# Indices 1 2 3 4 5 6 
#
# 1 146.2314 40.1536 37.3353 0.0000 0.0000 0.0000
# 2 40.1536 89.7573 30.3899 0.0000 0.0000 0.0000
# 3 37.3353 30.3899 117.1720 0.0000 0.0000 0.0000
# 4 0.0000 0.0000 0.0000 38.1641 0.0000 0.0000
# 5 0.0000 0.0000 0.0000 0.0000 37.1499 0.0000
# 6 0.0000 0.0000 0.0000 0.0000 0.0000 41.8318
#
#
#
# Elastic Compliance Matrix: (Units=1/GPa)
#
#
# Indices 1 2 3 4 5 6 
#
# 1 0.008130 -0.003026 -0.001806 0.000000 0.000000 0.000000
# 2 -0.003026 0.013340 -0.002496 0.000000 0.000000 0.000000
# 3 -0.001806 -0.002496 0.009757 0.000000 0.000000 0.000000
# 4 0.000000 0.000000 0.000000 0.026203 0.000000 0.000000
# 5 0.000000 0.000000 0.000000 0.000000 0.026918 0.000000
# 6 0.000000 0.000000 0.000000 0.000000 0.000000 0.023905
#
#
# Mechanical properties :
#
#
# Convention : Reuss Voigt Hill
#
# Bulk Modulus (GPa) = 60.34041 63.21311 61.77676
# Shear Modulus (GPa) = 38.93112 39.78131 39.35621
#
# Velocity S-wave (km/s) = 4.44428 4.49255 4.46848
# Velocity P-wave (km/s) = 7.54647 7.67996 7.61351
#
# Compressibility (1/GPa) = 0.01657264
#
# Stress axis : x y z
#
# Youngs Moduli (GPa) = 122.99539 74.96399 102.48879
#
# Poissons Ratio (x) = 0.22682 0.18508
# Poissons Ratio (y) = 0.37215 0.25578
# Poissons Ratio (z) = 0.22211 0.18709
#
# Static dielectric constant tensor:
#      x y z
#    x 1.717190 0.000000 0.000000 
#    y 0.000000 1.734960 0.000000 
#    z 0.000000 0.000000 1.793780 
# 
# From -- ./inp_files/4377.got.cif
#   From: 2010.05.17/outbox.ucp.g08.bks.cvg/sg33_3_cif.got.tgz:4377.got - 2010.06.11 10:35:07.
