data_PCOD9347559
_publ_section_title
;
Structure prediction by ZEFSAII (Michael W. Deem and Ramdas Pophale) SiO2 
 PCOD9347559
Probable space group: P N N 2
;
_chemical_formula_sum "Si O2"
_cell_formula_units_Z 20
_cell_length_a 22.449276
_cell_length_b 5.290674
_cell_length_c 7.371894
_cell_angle_alpha 90.000000
_cell_angle_beta 90.000000
_cell_angle_gamma 90.000000
_cell_volume 875.573126
_symmetry_space_group_name_H-M "P N N 2"
_symmetry_group_IT_number 34
_symmetry_cell_setting 'orthorhombic'
loop_
_space_group_symop_operation_xyz
x,y,z
-x,-y,z
1/2-x,1/2+y,1/2+z
1/2+x,1/2-y,1/2+z
loop_
_atom_site_type_symbol
_atom_site_label
_atom_site_fract_x
_atom_site_fract_y
_atom_site_fract_z
Si Si1 0.671543 0.770698 0.906800
Si Si2 0.033922 0.751452 0.855015
Si Si3 0.715748 0.093465 0.230360
Si Si4 0.832976 0.090216 0.776142
Si Si5 0.034614 0.747427 0.292549
O O1 0.717874 0.704153 0.749105
O O2 0.603550 0.774178 0.846165
O O3 0.691309 0.009915 0.031758
O O4 0.677229 0.556342 0.060854
O O5 0.102098 0.791155 0.800842
O O6 0.000000 0.500000 0.792014
O O7 0.032632 0.748392 0.073627
O O8 0.000000 0.000000 0.790518
O O9 0.710586 0.819349 0.328345
O O10 0.677273 0.305143 0.340738
O O11 0.000000 0.500000 0.357689
O O12 0.000000 0.000000 0.353467
#
# Coordination Sequence:
#
# PCOD9347559 Si02
#       5
#     4   4   4   4   4
#     4  10  26  43  69  95 136 173 225 279 336 413
#     4  10  21  40  63  95 130 177 221 275 335 403
#     4  10  25  40  64  99 127 174 218 275 342 388
#     4  10  24  40  63  96 126 178 215 278 329 406
#     4  10  24  41  67  97 131 174 223 277 338 400
#
# _framework density 22.842182000000001
#
# number of rings (size 3 to 8) (size 9 to 14) (size 15 to 20)
#    1.200    0.800    0.000    1.200    8.400    1.600 
#    0.000    0.000    0.000    0.000    0.000    0.000 
#    0.000    0.000    0.000    0.000    0.000    0.000 
#
# Total GULP energy -111427.370796 kJ/mol
# GULP energy per Si atom -5571.368540 kJ/mol
# Density = 2.279019 g / cm^3
# Si number density = 22.842182 Si / 1000 Ang^3
#
#
#
# Elastic Constant Matrix: (Units=GPa)
#
#
# Indices 1 2 3 4 5 6 
#
# 1 202.3243 91.3413 29.3609 0.0000 0.0000 0.0000
# 2 91.3413 208.5547 38.0283 0.0000 0.0000 0.0000
# 3 29.3609 38.0283 72.0491 0.0000 0.0000 0.0000
# 4 0.0000 0.0000 0.0000 260.3090 0.0000 0.0000
# 5 0.0000 0.0000 0.0000 0.0000 90.8969 0.0000
# 6 0.0000 0.0000 0.0000 0.0000 0.0000 30.1915
#
#
#
# Elastic Compliance Matrix: (Units=1/GPa)
#
#
# Indices 1 2 3 4 5 6 
#
# 1 0.006256 -0.002517 -0.001221 0.000000 0.000000 0.000000
# 2 -0.002517 0.006319 -0.002309 0.000000 0.000000 0.000000
# 3 -0.001221 -0.002309 0.015596 0.000000 0.000000 0.000000
# 4 0.000000 0.000000 0.000000 0.003842 0.000000 0.000000
# 5 0.000000 0.000000 0.000000 0.000000 0.011001 0.000000
# 6 0.000000 0.000000 0.000000 0.000000 0.000000 0.033122
#
#
# Mechanical properties :
#
#
# Convention : Reuss Voigt Hill
#
# Bulk Modulus (GPa) = 62.20523 88.93212 75.56867
# Shear Modulus (GPa) = 53.42529 97.89265 75.65897
#
# Velocity S-wave (km/s) = 4.84145 6.55356 5.76146
# Velocity P-wave (km/s) = 7.65144 9.81241 8.79852
#
# Compressibility (1/GPa) = 0.01607582
#
# Stress axis : x y z
#
# Youngs Moduli (GPa) = 159.84006 158.26458 64.12044
#
# Poissons Ratio (x) = 0.39843 0.07827
# Poissons Ratio (y) = 0.40239 0.14806
# Poissons Ratio (z) = 0.19512 0.36545
#
# Static dielectric constant tensor:
#      x y z
#    x 1.351330 0.000000 0.000000 
#    y 0.000000 1.721950 0.000000 
#    z 0.000000 0.000000 1.881160 
# 
# From -- ./inp_files/3795.got.cif
#   From: 2010.05.17/outbox.cif.g08.bks.cpg/sg34_2_cif.got.tgz:3795.got - 2010.06.03 17:23:11.
