data_PCOD9347423
_publ_section_title
;
Structure prediction by ZEFSAII (Michael W. Deem and Ramdas Pophale) SiO2 
 PCOD9347423
Probable space group: P N N 2
;
_chemical_formula_sum "Si O2"
_cell_formula_units_Z 28
_cell_length_a 21.360067
_cell_length_b 7.863110
_cell_length_c 6.999474
_cell_angle_alpha 90.000000
_cell_angle_beta 90.000000
_cell_angle_gamma 90.000000
_cell_volume 1175.607550
_symmetry_space_group_name_H-M "P N N 2"
_symmetry_group_IT_number 34
_symmetry_cell_setting 'orthorhombic'
loop_
_space_group_symop_operation_xyz
x,y,z
-x,-y,z
1/2-x,1/2+y,1/2+z
1/2+x,1/2-y,1/2+z
loop_
_atom_site_type_symbol
_atom_site_label
_atom_site_fract_x
_atom_site_fract_y
_atom_site_fract_z
Si Si1 0.934319 0.569821 0.317580
Si Si2 0.565681 0.430181 0.333538
Si Si3 0.109328 0.431661 0.897932
Si Si4 0.274276 0.749999 0.575561
Si Si5 0.660371 0.776454 0.804214
Si Si6 0.609328 0.431664 0.753187
Si Si7 0.160372 0.776451 0.846906
O O1 0.878239 0.442048 0.361785
O O2 0.916427 0.765098 0.359979
O O3 0.000000 0.500000 0.392813
O O4 0.934330 0.553931 0.084532
O O5 0.500000 0.500000 0.258305
O O6 0.583574 0.234905 0.291139
O O7 0.565670 0.446071 0.566586
O O8 0.621761 0.557955 0.289334
O O9 0.120345 0.607943 0.790795
O O10 0.177681 0.385138 0.986139
O O11 0.227196 0.707381 0.404269
O O12 0.322318 0.614859 0.664982
O O13 0.227197 0.792618 0.746853
O O14 0.620344 0.607946 0.860324
O O15 0.665941 0.750001 0.575560
#
# Coordination Sequence:
#
# PCOD9347423 Si02
#       7
#     4   4   4   4   4   4   4
#     4   9  19  33  55  84 114 147 201 238 280 349
#     4   9  19  33  55  84 114 147 201 238 280 349
#     4   9  21  33  56  91 112 153 193 238 288 343
#     4  10  20  40  56  86 130 136 200 242 276 362
#     4  10  21  36  60  84 113 159 185 237 298 332
#     4   9  21  33  56  91 112 153 193 238 288 343
#     4  10  21  36  60  84 113 159 185 237 298 332
#
# _framework density 23.817471000000001
#
# number of rings (size 3 to 8) (size 9 to 14) (size 15 to 20)
#    0.000    2.857    0.000    0.857   12.000   10.286 
#    0.000    1.429    6.286    0.000    0.000    0.000 
#    0.000    0.000    0.000    0.000    0.000    0.000 
#
# Total GULP energy -156280.658454 kJ/mol
# GULP energy per Si atom -5581.452088 kJ/mol
# Density = 2.376326 g / cm^3
# Si number density = 23.817471 Si / 1000 Ang^3
#
#
#
# Elastic Constant Matrix: (Units=GPa)
#
#
# Indices 1 2 3 4 5 6 
#
# 1 124.1464 12.1026 2.2336 0.0000 0.0000 0.0000
# 2 12.1026 123.8413 -21.4187 0.0000 0.0000 0.0000
# 3 2.2336 -21.4187 97.2485 0.0000 0.0000 0.0000
# 4 0.0000 0.0000 0.0000 -19.1641 0.0000 0.0000
# 5 0.0000 0.0000 0.0000 0.0000 -71.5664 0.0000
# 6 0.0000 0.0000 0.0000 0.0000 0.0000 6.3471
#
#
#
# Elastic Compliance Matrix: (Units=1/GPa)
#
#
# Indices 1 2 3 4 5 6 
#
# 1 0.008146 -0.000861 -0.000377 0.000000 0.000000 0.000000
# 2 -0.000861 0.008486 0.001889 0.000000 0.000000 0.000000
# 3 -0.000377 0.001889 0.010708 0.000000 0.000000 0.000000
# 4 0.000000 0.000000 0.000000 -0.052181 0.000000 0.000000
# 5 0.000000 0.000000 0.000000 0.000000 -0.013973 0.000000
# 6 0.000000 0.000000 0.000000 0.000000 0.000000 0.157553
#
#
# Mechanical properties :
#
#
# Convention : Reuss Voigt Hill
#
# Bulk Modulus (GPa) = 34.91566 36.78570 35.85068
# Shear Modulus (GPa) = 39.37534 6.61122 22.99328
#
# Velocity S-wave (km/s) = 4.07038 1.66788 3.11045
# Velocity P-wave (km/s) = 6.06483 4.38035 5.29007
#
# Compressibility (1/GPa) = 0.02864045
#
# Stress axis : x y z
#
# Youngs Moduli (GPa) = 122.76354 117.84565 93.39185
#
# Poissons Ratio (x) = 0.10149 0.03519
# Poissons Ratio (y) = 0.10573 -0.17639
# Poissons Ratio (z) = 0.04625 -0.22258
#
# Static dielectric constant tensor:
#      x y z
#    x 1.846970 0.000000 0.000000 
#    y 0.000000 1.955380 0.000000 
#    z 0.000000 0.000000 2.028530 
# 
# From -- ./inp_files/3973.got.cif
#   From: 2010.05.17/outbox.cif.g08.bks.cpg/sg34_2_cif.got.tgz:3973.got - 2010.06.03 17:23:11.
