data_PCOD9347336
_publ_section_title
;
Structure prediction by ZEFSAII (Michael W. Deem and Ramdas Pophale) SiO2 
 PCOD9347336
Probable space group: P N N 2
;
_chemical_formula_sum "Si O2"
_cell_formula_units_Z 32
_cell_length_a 20.694875
_cell_length_b 10.558771
_cell_length_c 8.251379
_cell_angle_alpha 90.000000
_cell_angle_beta 90.000000
_cell_angle_gamma 90.000000
_cell_volume 1803.029008
_symmetry_space_group_name_H-M "P N N 2"
_symmetry_group_IT_number 34
_symmetry_cell_setting 'orthorhombic'
loop_
_space_group_symop_operation_xyz
x,y,z
-x,-y,z
1/2-x,1/2+y,1/2+z
1/2+x,1/2-y,1/2+z
loop_
_atom_site_type_symbol
_atom_site_label
_atom_site_fract_x
_atom_site_fract_y
_atom_site_fract_z
Si Si1 0.267716 0.531015 0.322960
Si Si2 0.346833 0.117855 0.027812
Si Si3 0.506809 0.857213 0.949873
Si Si4 0.249934 0.763415 0.746955
Si Si5 0.448101 0.611167 0.778902
Si Si6 0.326813 0.618064 0.995236
Si Si7 0.359884 0.724878 0.509718
Si Si8 0.611439 0.143024 0.179953
O O1 0.196985 0.582764 0.371591
O O2 0.268286 0.382126 0.357101
O O3 0.292446 0.542006 0.138408
O O4 0.316309 0.615227 0.428420
O O5 0.307486 0.219067 0.132254
O O6 0.356618 0.990584 0.134328
O O7 0.418052 0.163169 0.983535
O O8 0.479575 0.740495 0.847322
O O9 0.500000 0.000000 0.877326
O O10 0.461506 0.860439 0.110286
O O11 0.312434 0.796126 0.635801
O O12 0.274688 0.649333 0.858109
O O13 0.500000 0.500000 0.762096
O O14 0.414797 0.654515 0.611977
O O15 0.390838 0.568158 0.903396
O O16 0.350877 0.748963 0.078222
O O17 0.384248 0.815652 0.366579
#
# Coordination Sequence:
#
# PCOD9347336 Si02
#       8
#     4   4   4   4   4   4   4   4
#     4  10  20  37  56  84 114 146 186 236 285 339
#     4  10  20  35  56  87 111 141 192 243 275 339
#     4   9  20  38  60  81 110 151 191 238 286 341
#     4  10  20  34  56  85 113 144 186 233 282 338
#     4  10  21  40  60  84 115 153 192 237 286 346
#     4   9  19  36  58  79 110 153 179 221 295 342
#     4   9  21  38  56  80 113 156 183 228 292 343
#     4   9  17  38  58  74 113 151 182 225 288 337
#
# _framework density 17.747913
#
# number of rings (size 3 to 8) (size 9 to 14) (size 15 to 20)
#    0.000    2.500    1.250    0.000    5.250    0.000 
#    4.500    3.125    0.000    0.000    0.000    0.000 
#    0.000    0.000    0.000    0.000    0.000    0.000 
#
# Total GULP energy -178279.032596 kJ/mol
# GULP energy per Si atom -5571.219769 kJ/mol
# Density = 1.770752 g / cm^3
# Si number density = 17.747913 Si / 1000 Ang^3
#
#
#
# Elastic Constant Matrix: (Units=GPa)
#
#
# Indices 1 2 3 4 5 6 
#
# 1 114.6202 35.1472 37.8259 0.0000 0.0000 0.0000
# 2 35.1472 53.7609 15.2432 0.0000 0.0000 0.0000
# 3 37.8259 15.2432 77.9175 0.0000 0.0000 0.0000
# 4 0.0000 0.0000 0.0000 21.0116 0.0000 0.0000
# 5 0.0000 0.0000 0.0000 0.0000 9.9707 0.0000
# 6 0.0000 0.0000 0.0000 0.0000 0.0000 19.9715
#
#
#
# Elastic Compliance Matrix: (Units=1/GPa)
#
#
# Indices 1 2 3 4 5 6 
#
# 1 0.012331 -0.006738 -0.004668 0.000000 0.000000 0.000000
# 2 -0.006738 0.023375 -0.001302 0.000000 0.000000 0.000000
# 3 -0.004668 -0.001302 0.015355 0.000000 0.000000 0.000000
# 4 0.000000 0.000000 0.000000 0.047593 0.000000 0.000000
# 5 0.000000 0.000000 0.000000 0.000000 0.100293 0.000000
# 6 0.000000 0.000000 0.000000 0.000000 0.000000 0.050071
#
#
# Mechanical properties :
#
#
# Convention : Reuss Voigt Hill
#
# Bulk Modulus (GPa) = 38.99379 46.97016 42.98197
# Shear Modulus (GPa) = 17.66887 20.72959 19.19923
#
# Velocity S-wave (km/s) = 3.15865 3.42131 3.29260
# Velocity P-wave (km/s) = 5.94318 6.49075 6.22299
#
# Compressibility (1/GPa) = 0.02564511
#
# Stress axis : x y z
#
# Youngs Moduli (GPa) = 81.09522 42.78040 65.12558
#
# Poissons Ratio (x) = 0.28826 0.30401
# Poissons Ratio (y) = 0.54643 0.08478
# Poissons Ratio (z) = 0.37856 0.05569
#
# Static dielectric constant tensor:
#      x y z
#    x 1.599790 0.000000 0.000000 
#    y 0.000000 1.603980 0.000000 
#    z 0.000000 0.000000 1.603960 
# 
# From -- ./inp_files/3432.got.cif
#   From: 2010.05.17/outbox.cif.g08.bks.cpg/sg34_2_cif.got.tgz:3432.got - 2010.06.03 17:23:11.
