data_PCOD9347194
_publ_section_title
;
Structure prediction by ZEFSAII (Michael W. Deem and Ramdas Pophale) SiO2 
 PCOD9347194
Probable space group: P N N 2
;
_chemical_formula_sum "Si O2"
_cell_formula_units_Z 18
_cell_length_a 7.307875
_cell_length_b 9.322361
_cell_length_c 10.894648
_cell_angle_alpha 90.000000
_cell_angle_beta 90.000000
_cell_angle_gamma 90.000000
_cell_volume 742.215859
_symmetry_space_group_name_H-M "P N N 2"
_symmetry_group_IT_number 34
_symmetry_cell_setting 'orthorhombic'
loop_
_space_group_symop_operation_xyz
x,y,z
-x,-y,z
1/2-x,1/2+y,1/2+z
1/2+x,1/2-y,1/2+z
loop_
_atom_site_type_symbol
_atom_site_label
_atom_site_fract_x
_atom_site_fract_y
_atom_site_fract_z
Si Si1 0.296308 0.200438 0.515610
Si Si2 0.685412 0.184733 0.598371
Si Si3 0.000000 0.000000 0.468732
Si Si4 0.287382 0.545183 0.266809
Si Si5 0.205070 0.527424 0.530850
O O1 0.233794 0.155442 0.654335
O O2 0.289290 0.371443 0.509694
O O3 0.509049 0.158936 0.513659
O O4 0.160297 0.111646 0.426378
O O5 0.703481 0.354248 0.616213
O O6 0.674439 0.095296 0.723826
O O7 0.866386 0.113644 0.538912
O O8 0.500000 0.500000 0.280939
O O9 0.213856 0.599415 0.395909
O O10 0.000000 0.500000 0.572015
#
# Coordination Sequence:
#
# PCOD9347194 Si02
#       5
#     4   4   2   4   4
#     4  11  21  39  64  96 126 167 211 262 314 379
#     4  11  21  39  64  96 126 167 211 262 314 379
#     4  10  18  38  60  86 126 160 206 246 322 348
#     4  11  21  41  65  93 126 172 208 258 320 376
#     4  12  23  41  65  97 129 168 214 261 317 376
#
# _framework density 24.251705000000001
#
# number of rings (size 3 to 8) (size 9 to 14) (size 15 to 20)
#    0.000    0.889    6.667    6.000    0.000    0.000 
#    0.000    4.444    0.000    0.000    0.000    0.000 
#    0.000    0.000    0.000    0.000    0.000    0.000 
#
# Total GULP energy -100370.193420 kJ/mol
# GULP energy per Si atom -5576.121857 kJ/mol
# Density = 2.419651 g / cm^3
# Si number density = 24.251705 Si / 1000 Ang^3
#
#
#
# Elastic Constant Matrix: (Units=GPa)
#
#
# Indices 1 2 3 4 5 6 
#
# 1 165.4994 30.3328 -12.3848 0.0000 0.0000 0.0000
# 2 30.3328 155.1402 23.0505 0.0000 0.0000 0.0000
# 3 -12.3848 23.0505 53.3606 0.0000 0.0000 0.0000
# 4 0.0000 0.0000 0.0000 20.3992 0.0000 0.0000
# 5 0.0000 0.0000 0.0000 0.0000 12.7778 0.0000
# 6 0.0000 0.0000 0.0000 0.0000 0.0000 34.8596
#
#
#
# Elastic Compliance Matrix: (Units=1/GPa)
#
#
# Indices 1 2 3 4 5 6 
#
# 1 0.006500 -0.001597 0.002199 0.000000 0.000000 0.000000
# 2 -0.001597 0.007280 -0.003516 0.000000 0.000000 0.000000
# 3 0.002199 -0.003516 0.020769 0.000000 0.000000 0.000000
# 4 0.000000 0.000000 0.000000 0.049021 0.000000 0.000000
# 5 0.000000 0.000000 0.000000 0.000000 0.078261 0.000000
# 6 0.000000 0.000000 0.000000 0.000000 0.000000 0.028687
#
#
# Mechanical properties :
#
#
# Convention : Reuss Voigt Hill
#
# Bulk Modulus (GPa) = 34.81856 50.66634 42.74245
# Shear Modulus (GPa) = 24.28114 35.80744 30.04429
#
# Velocity S-wave (km/s) = 3.16763 3.84668 3.52355
# Velocity P-wave (km/s) = 5.26942 6.37703 5.84950
#
# Compressibility (1/GPa) = 0.02872032
#
# Stress axis : x y z
#
# Youngs Moduli (GPa) = 153.85496 137.35358 48.14770
#
# Poissons Ratio (x) = 0.21942 -0.10586
# Poissons Ratio (y) = 0.24578 0.16928
# Poissons Ratio (z) = -0.33827 0.48290
#
# Static dielectric constant tensor:
#      x y z
#    x 1.967460 0.000000 0.000000 
#    y 0.000000 1.971720 0.000000 
#    z 0.000000 0.000000 1.948870 
# 
# From -- ./inp_files/4732.got.cif
#   From: 2010.05.17/outbox.cif.g08.bks.cpg/sg34_3_cif.got.tgz:4732.got - 2010.06.03 17:23:11.
