data_PCOD9347021
_publ_section_title
;
Structure prediction by ZEFSAII (Michael W. Deem and Ramdas Pophale) SiO2 
 PCOD9347021
Probable space group: P N A 21
;
_chemical_formula_sum "Si O2"
_cell_formula_units_Z 20
_cell_length_a 12.257491
_cell_length_b 12.476035
_cell_length_c 4.875737
_cell_angle_alpha 90.000000
_cell_angle_beta 90.000000
_cell_angle_gamma 90.000000
_cell_volume 745.621528
_symmetry_space_group_name_H-M "P N A 21"
_symmetry_group_IT_number 33
_symmetry_cell_setting 'orthorhombic'
loop_
_space_group_symop_operation_xyz
x,y,z
-x,-y,1/2+z
1/2-x,1/2+y,1/2+z
1/2+x,1/2-y,z
loop_
_atom_site_type_symbol
_atom_site_label
_atom_site_fract_x
_atom_site_fract_y
_atom_site_fract_z
Si Si1 0.249702 0.917943 0.532780
Si Si2 0.372487 0.598830 0.286573
Si Si3 0.403742 0.292135 0.639376
Si Si4 0.732210 0.288079 0.287926
Si Si5 0.052778 0.549066 0.180715
O O1 0.315831 0.823095 0.680115
O O2 0.195343 0.858354 0.277356
O O3 0.154524 0.977338 0.704270
O O4 0.339173 0.011224 0.515288
O O5 0.316453 0.624261 0.578482
O O6 0.495614 0.630354 0.212364
O O7 0.309573 0.677207 0.080346
O O8 0.357899 0.251303 0.340596
O O9 0.438565 0.174540 0.751877
O O10 0.960097 0.515411 0.964154
#
# Coordination Sequence:
#
# PCOD9347021 Si02
#       5
#     4   4   4   4   4
#     4  12  28  50  82 119 165 211 276 349 417 498
#     4  12  30  50  82 119 170 217 279 346 436 497
#     4  12  30  52  83 123 162 221 281 349 424 522
#     4  12  27  51  76 116 166 215 273 348 409 519
#     4  12  29  51  83 115 163 220 273 334 424 506
#
# _framework density 26.823259
#
# number of rings (size 3 to 8) (size 9 to 14) (size 15 to 20)
#    0.000    0.000    4.000    2.400   16.800    0.000 
#    0.000    0.000    0.000    0.000    0.000    0.000 
#    0.000    0.000    0.000    0.000    0.000    0.000 
#
# Total GULP energy -111692.789497 kJ/mol
# GULP energy per Si atom -5584.639475 kJ/mol
# Density = 2.676221 g / cm^3
# Si number density = 26.823259 Si / 1000 Ang^3
#
#
#
# Elastic Constant Matrix: (Units=GPa)
#
#
# Indices 1 2 3 4 5 6 
#
# 1 81.7192 4.9112 32.8772 0.0000 0.0000 0.0000
# 2 4.9112 113.5708 1.1207 0.0000 0.0000 0.0000
# 3 32.8772 1.1207 116.1664 0.0000 0.0000 0.0000
# 4 0.0000 0.0000 0.0000 40.7361 0.0000 0.0000
# 5 0.0000 0.0000 0.0000 0.0000 43.8615 0.0000
# 6 0.0000 0.0000 0.0000 0.0000 0.0000 48.1785
#
#
#
# Elastic Compliance Matrix: (Units=1/GPa)
#
#
# Indices 1 2 3 4 5 6 
#
# 1 0.013845 -0.000560 -0.003913 0.000000 0.000000 0.000000
# 2 -0.000560 0.008829 0.000073 0.000000 0.000000 0.000000
# 3 -0.003913 0.000073 0.009715 0.000000 0.000000 0.000000
# 4 0.000000 0.000000 0.000000 0.024548 0.000000 0.000000
# 5 0.000000 0.000000 0.000000 0.000000 0.022799 0.000000
# 6 0.000000 0.000000 0.000000 0.000000 0.000000 0.020756
#
#
# Mechanical properties :
#
#
# Convention : Reuss Voigt Hill
#
# Bulk Modulus (GPa) = 42.39234 43.25274 42.82254
# Shear Modulus (GPa) = 42.67870 44.72506 43.70188
#
# Velocity S-wave (km/s) = 3.99320 4.08781 4.04078
# Velocity P-wave (km/s) = 6.09093 6.20003 6.14572
#
# Compressibility (1/GPa) = 0.02358917
#
# Stress axis : x y z
#
# Youngs Moduli (GPa) = 72.22857 113.26858 102.93288
#
# Poissons Ratio (x) = 0.06344 0.40277
# Poissons Ratio (y) = 0.04045 -0.00755
# Poissons Ratio (z) = 0.28263 -0.00831
#
# Static dielectric constant tensor:
#      x y z
#    x 2.346320 0.000000 0.000000 
#    y 0.000000 2.086510 0.000000 
#    z 0.000000 0.000000 2.130000 
# 
# From -- ./inp_files/1285.got.cif
#   From: 2010.05.17/outbox.cif.g08.bks.cpg/sg33_1_cif.got.tgz:1285.got - 2010.06.03 17:15:25.
