data_PCOD9347455
_publ_section_title
;
Structure prediction by ZEFSAII (Michael W. Deem and Ramdas Pophale) SiO2 
 PCOD9347455
Probable space group: P N N 2
;
_chemical_formula_sum "Si O2"
_cell_formula_units_Z 24
_cell_length_a 22.655968
_cell_length_b 5.419457
_cell_length_c 8.699352
_cell_angle_alpha 90.000000
_cell_angle_beta 90.000000
_cell_angle_gamma 90.000000
_cell_volume 1068.132923
_symmetry_space_group_name_H-M "P N N 2"
_symmetry_group_IT_number 34
_symmetry_cell_setting 'orthorhombic'
loop_
_space_group_symop_operation_xyz
x,y,z
-x,-y,z
1/2-x,1/2+y,1/2+z
1/2+x,1/2-y,1/2+z
loop_
_atom_site_type_symbol
_atom_site_label
_atom_site_fract_x
_atom_site_fract_y
_atom_site_fract_z
Si Si1 0.447997 0.850199 0.573410
Si Si2 0.442184 0.598172 0.275760
Si Si3 0.836205 0.736941 0.581492
Si Si4 0.151246 0.102242 0.231863
Si Si5 0.146263 0.738060 0.971021
Si Si6 0.222949 0.764235 0.689102
O O1 0.473319 0.736829 0.417953
O O2 0.415612 0.663547 0.684393
O O3 0.500000 0.000000 0.651202
O O4 0.393487 0.006037 0.508502
O O5 0.500000 0.500000 0.186663
O O6 0.399157 0.761157 0.170171
O O7 0.396622 0.413140 0.364866
O O8 0.845145 0.845101 0.411369
O O9 0.807662 0.462327 0.593285
O O10 0.798243 0.957244 0.658771
O O11 0.207153 0.255495 0.167694
O O12 0.161314 0.850535 0.137648
O O13 0.203105 0.699055 0.864158
#
# Coordination Sequence:
#
# PCOD9347455 Si02
#       6
#     4   4   4   4   4   4
#     4  11  22  42  69  95 134 181 239 281 343 420
#     4  10  20  41  67  96 129 182 234 283 333 422
#     4  11  26  45  68 104 139 179 232 294 359 412
#     4  11  27  40  67 103 139 178 228 299 361 415
#     4  10  22  42  68  94 131 181 229 279 341 415
#     4  11  25  45  70  98 140 183 231 284 353 437
#
# _framework density 22.469113
#
# number of rings (size 3 to 8) (size 9 to 14) (size 15 to 20)
#    0.000    1.333    3.333    1.000    7.000    0.000 
#    3.000    0.833    0.000    0.000    0.000    0.000 
#    0.000    0.000    0.000    0.000    0.000    0.000 
#
# Total GULP energy -133732.494906 kJ/mol
# GULP energy per Si atom -5572.187288 kJ/mol
# Density = 2.241797 g / cm^3
# Si number density = 22.469113 Si / 1000 Ang^3
#
#
#
# Elastic Constant Matrix: (Units=GPa)
#
#
# Indices 1 2 3 4 5 6 
#
# 1 111.7292 8.0366 2.9581 0.0000 0.0000 0.0000
# 2 8.0366 53.2507 -1.7188 0.0000 0.0000 0.0000
# 3 2.9581 -1.7188 78.0943 0.0000 0.0000 0.0000
# 4 0.0000 0.0000 0.0000 -8.1464 0.0000 0.0000
# 5 0.0000 0.0000 0.0000 0.0000 12.7556 0.0000
# 6 0.0000 0.0000 0.0000 0.0000 0.0000 39.2536
#
#
#
# Elastic Compliance Matrix: (Units=1/GPa)
#
#
# Indices 1 2 3 4 5 6 
#
# 1 0.009059 -0.001379 -0.000374 0.000000 0.000000 0.000000
# 2 -0.001379 0.019002 0.000470 0.000000 0.000000 0.000000
# 3 -0.000374 0.000470 0.012830 0.000000 0.000000 0.000000
# 4 0.000000 0.000000 0.000000 -0.122753 0.000000 0.000000
# 5 0.000000 0.000000 0.000000 0.000000 0.078397 0.000000
# 6 0.000000 0.000000 0.000000 0.000000 0.000000 0.025475
#
#
# Mechanical properties :
#
#
# Convention : Reuss Voigt Hill
#
# Bulk Modulus (GPa) = 26.09151 29.06955 27.58053
# Shear Modulus (GPa) = 133.86608 24.35912 79.11260
#
# Velocity S-wave (km/s) = 7.72704 3.29616 5.94020
# Velocity P-wave (km/s) = 9.55233 5.23946 7.70386
#
# Compressibility (1/GPa) = 0.03832665
#
# Stress axis : x y z
#
# Youngs Moduli (GPa) = 110.38369 52.62482 77.94519
#
# Poissons Ratio (x) = 0.07258 0.02911
# Poissons Ratio (y) = 0.15225 -0.03667
# Poissons Ratio (z) = 0.04123 -0.02476
#
# Static dielectric constant tensor:
#      x y z
#    x 1.902990 0.000000 0.000000 
#    y 0.000000 1.972780 0.000000 
#    z 0.000000 0.000000 1.852200 
# 
# From -- ./inp_files/2090.got.cif
#   From: 2010.05.17/outbox.cif.g08.bks.cpg/sg34_2_cif.got.tgz:2090.got - 2010.06.03 17:23:11.
