data_PCOD9347890
_publ_section_title
;
Structure prediction by ZEFSAII (Michael W. Deem and Ramdas Pophale) SiO2 
 PCOD9347890
Probable space group: P N N 2
;
_chemical_formula_sum "Si O2"
_cell_formula_units_Z 30
_cell_length_a 8.193005
_cell_length_b 9.535996
_cell_length_c 18.414434
_cell_angle_alpha 90.000000
_cell_angle_beta 90.000000
_cell_angle_gamma 90.000000
_cell_volume 1438.691424
_symmetry_space_group_name_H-M "P N N 2"
_symmetry_group_IT_number 34
_symmetry_cell_setting 'orthorhombic'
loop_
_space_group_symop_operation_xyz
x,y,z
-x,-y,z
1/2-x,1/2+y,1/2+z
1/2+x,1/2-y,1/2+z
loop_
_atom_site_type_symbol
_atom_site_label
_atom_site_fract_x
_atom_site_fract_y
_atom_site_fract_z
Si Si1 0.637423 0.304961 0.658850
Si Si2 0.500000 0.500000 0.549601
Si Si3 0.320718 0.492389 0.799797
Si Si4 0.164324 0.405814 0.497290
Si Si5 0.667413 0.768802 0.375170
Si Si6 0.632629 0.290942 0.284475
Si Si7 0.161854 0.433636 0.264693
Si Si8 0.005965 0.659933 0.643646
O O1 0.505761 0.365527 0.603370
O O2 0.660001 0.419609 0.724240
O O3 0.612602 0.150628 0.691797
O O4 0.811829 0.305802 0.619181
O O5 0.330290 0.497476 0.506149
O O6 0.500000 0.500000 0.834119
O O7 0.192658 0.570241 0.852193
O O8 0.267206 0.332731 0.787221
O O9 0.236934 0.282413 0.446447
O O10 0.000000 0.500000 0.477012
O O11 0.113212 0.341335 0.575224
O O12 0.482138 0.721081 0.356054
O O13 0.769465 0.686209 0.314843
O O14 0.709029 0.441284 0.268107
O O15 0.529700 0.254830 0.212549
O O16 0.000000 0.500000 0.296681
O O17 0.000000 0.500000 0.671764
#
# Coordination Sequence:
#
# PCOD9347890 Si02
#       8
#     4   2   4   4   4   4   4   4
#     4  11  21  38  66 102 128 163 231 280 344 406
#     4  12  22  40  72 100 128 190 230 278 344 436
#     4  11  21  37  68  97 129 168 222 285 339 409
#     4  11  25  42  68  97 140 182 233 287 348 428
#     4  11  24  42  62  97 130 176 232 278 341 418
#     4  12  21  39  70  95 133 178 227 289 350 418
#     4  11  25  37  60 101 141 170 215 297 351 403
#     4  11  19  39  66  98 123 173 229 285 343 411
#
# _framework density 20.852281999999999
#
# number of rings (size 3 to 8) (size 9 to 14) (size 15 to 20)
#    0.000    0.800    7.333    2.800    3.733    0.000 
#    0.000    0.000    8.800    0.000    0.000    0.000 
#    0.000    0.000    0.000    0.000    0.000    0.000 
#
# Total GULP energy -167183.513501 kJ/mol
# GULP energy per Si atom -5572.783783 kJ/mol
# Density = 2.080482 g / cm^3
# Si number density = 20.852282 Si / 1000 Ang^3
#
#
#
# Elastic Constant Matrix: (Units=GPa)
#
#
# Indices 1 2 3 4 5 6 
#
# 1 104.4070 14.7168 19.2572 0.0000 0.0000 0.0000
# 2 14.7168 59.5921 1.4782 0.0000 0.0000 0.0000
# 3 19.2572 1.4782 30.9999 0.0000 0.0000 0.0000
# 4 0.0000 0.0000 0.0000 14.8109 0.0000 0.0000
# 5 0.0000 0.0000 0.0000 0.0000 19.7698 0.0000
# 6 0.0000 0.0000 0.0000 0.0000 0.0000 29.8994
#
#
#
# Elastic Compliance Matrix: (Units=1/GPa)
#
#
# Indices 1 2 3 4 5 6 
#
# 1 0.011205 -0.002598 -0.006837 0.000000 0.000000 0.000000
# 2 -0.002598 0.017403 0.000784 0.000000 0.000000 0.000000
# 3 -0.006837 0.000784 0.036468 0.000000 0.000000 0.000000
# 4 0.000000 0.000000 0.000000 0.067518 0.000000 0.000000
# 5 0.000000 0.000000 0.000000 0.000000 0.050582 0.000000
# 6 0.000000 0.000000 0.000000 0.000000 0.000000 0.033446
#
#
# Mechanical properties :
#
#
# Convention : Reuss Voigt Hill
#
# Bulk Modulus (GPa) = 20.93161 29.54481 25.23821
# Shear Modulus (GPa) = 20.01221 23.53245 21.77233
#
# Velocity S-wave (km/s) = 3.10128 3.36301 3.23479
# Velocity P-wave (km/s) = 4.78370 5.41102 5.10700
#
# Compressibility (1/GPa) = 0.04777463
#
# Stress axis : x y z
#
# Youngs Moduli (GPa) = 89.24552 57.46199 27.42143
#
# Poissons Ratio (x) = 0.14926 0.18747
# Poissons Ratio (y) = 0.23182 -0.02149
# Poissons Ratio (z) = 0.61015 -0.04504
#
# Static dielectric constant tensor:
#      x y z
#    x 1.870670 0.000000 0.000000 
#    y 0.000000 1.812520 0.000000 
#    z 0.000000 0.000000 1.793730 
# 
# From -- ./inp_files/8080.got.cif
#   From: 2010.05.17/outbox.cif.g08.bks.cpg/sg34_5_cif.got.tgz:8080.got - 2010.06.03 17:23:11.
