data_PCOD9347474
_publ_section_title
;
Structure prediction by ZEFSAII (Michael W. Deem and Ramdas Pophale) SiO2 
 PCOD9347474
Probable space group: P N N 2
;
_chemical_formula_sum "Si O2"
_cell_formula_units_Z 24
_cell_length_a 10.394837
_cell_length_b 9.140603
_cell_length_c 11.249451
_cell_angle_alpha 90.000000
_cell_angle_beta 90.000000
_cell_angle_gamma 90.000000
_cell_volume 1068.867467
_symmetry_space_group_name_H-M "P N N 2"
_symmetry_group_IT_number 34
_symmetry_cell_setting 'orthorhombic'
loop_
_space_group_symop_operation_xyz
x,y,z
-x,-y,z
1/2-x,1/2+y,1/2+z
1/2+x,1/2-y,1/2+z
loop_
_atom_site_type_symbol
_atom_site_label
_atom_site_fract_x
_atom_site_fract_y
_atom_site_fract_z
Si Si1 0.670673 0.345837 0.959660
Si Si2 0.296415 0.665202 0.685210
Si Si3 0.136465 0.425653 0.050119
Si Si4 0.839989 0.066045 0.975793
Si Si5 0.104611 0.197586 0.860829
Si Si6 0.974383 0.170742 0.637664
O O1 0.690387 0.381582 0.821429
O O2 0.735750 0.190159 0.980818
O O3 0.747890 0.458377 0.045640
O O4 0.524820 0.331273 0.003748
O O5 0.380084 0.810765 0.657485
O O6 0.335433 0.533507 0.595580
O O7 0.156908 0.739927 0.656534
O O8 0.000000 0.500000 0.029847
O O9 0.165434 0.323844 0.937222
O O10 0.971705 0.148094 0.931394
O O11 0.811282 0.948056 0.872457
O O12 0.071185 0.247957 0.730029
O O13 0.000000 0.000000 0.676487
#
# Coordination Sequence:
#
# PCOD9347474 Si02
#       6
#     4   4   4   4   4   4
#     4  12  25  43  70 102 135 177 240 284 347 425
#     4  11  25  45  63 102 146 173 233 293 347 422
#     4  11  22  42  68  96 128 181 230 285 348 417
#     4  10  21  41  68  95 132 185 224 282 351 408
#     4  10  20  42  72  90 130 182 229 281 355 409
#     4  12  22  44  69  97 137 185 231 292 350 415
#
# _framework density 22.453672000000001
#
# number of rings (size 3 to 8) (size 9 to 14) (size 15 to 20)
#    0.000    1.000    6.667    0.000    2.333    0.667 
#    9.000    0.000    0.000    0.000    0.000    0.000 
#    0.000    0.000    0.000    0.000    0.000    0.000 
#
# Total GULP energy -133733.314798 kJ/mol
# GULP energy per Si atom -5572.221450 kJ/mol
# Density = 2.240257 g / cm^3
# Si number density = 22.453672 Si / 1000 Ang^3
#
#
#
# Elastic Constant Matrix: (Units=GPa)
#
#
# Indices 1 2 3 4 5 6 
#
# 1 32.8330 0.0970 20.8650 0.0000 0.0000 0.0000
# 2 0.0970 66.3269 13.8160 0.0000 0.0000 0.0000
# 3 20.8650 13.8160 108.3687 0.0000 0.0000 0.0000
# 4 0.0000 0.0000 0.0000 15.4665 0.0000 0.0000
# 5 0.0000 0.0000 0.0000 0.0000 33.5948 0.0000
# 6 0.0000 0.0000 0.0000 0.0000 0.0000 18.9901
#
#
#
# Elastic Compliance Matrix: (Units=1/GPa)
#
#
# Indices 1 2 3 4 5 6 
#
# 1 0.034826 0.001383 -0.006882 0.000000 0.000000 0.000000
# 2 0.001383 0.015543 -0.002248 0.000000 0.000000 0.000000
# 3 -0.006882 -0.002248 0.010839 0.000000 0.000000 0.000000
# 4 0.000000 0.000000 0.000000 0.064656 0.000000 0.000000
# 5 0.000000 0.000000 0.000000 0.000000 0.029767 0.000000
# 6 0.000000 0.000000 0.000000 0.000000 0.000000 0.052659
#
#
# Mechanical properties :
#
#
# Convention : Reuss Voigt Hill
#
# Bulk Modulus (GPa) = 21.87475 30.78719 26.33097
# Shear Modulus (GPa) = 20.91859 25.12699 23.02279
#
# Velocity S-wave (km/s) = 3.05558 3.34886 3.20558
# Velocity P-wave (km/s) = 4.71297 5.35671 5.04512
#
# Compressibility (1/GPa) = 0.04571481
#
# Stress axis : x y z
#
# Youngs Moduli (GPa) = 28.71401 64.33750 92.25693
#
# Poissons Ratio (x) = -0.08895 0.63488
# Poissons Ratio (y) = -0.03970 0.20737
# Poissons Ratio (z) = 0.19760 0.14462
#
# Static dielectric constant tensor:
#      x y z
#    x 1.907310 0.000000 0.000000 
#    y 0.000000 1.854520 0.000000 
#    z 0.000000 0.000000 1.881130 
# 
# From -- ./inp_files/5341.got.cif
#   From: 2010.05.17/outbox.cif.g08.bks.cpg/sg34_3_cif.got.tgz:5341.got - 2010.06.03 17:23:11.
