data_PCOD9347316
_publ_section_title
;
Structure prediction by ZEFSAII (Michael W. Deem and Ramdas Pophale) SiO2 
 PCOD9347316
Probable space group: P N N 2
;
_chemical_formula_sum "Si O2"
_cell_formula_units_Z 22
_cell_length_a 13.140062
_cell_length_b 8.902136
_cell_length_c 7.175727
_cell_angle_alpha 90.000000
_cell_angle_beta 90.000000
_cell_angle_gamma 90.000000
_cell_volume 839.377932
_symmetry_space_group_name_H-M "P N N 2"
_symmetry_group_IT_number 34
_symmetry_cell_setting 'orthorhombic'
loop_
_space_group_symop_operation_xyz
x,y,z
-x,-y,z
1/2-x,1/2+y,1/2+z
1/2+x,1/2-y,1/2+z
loop_
_atom_site_type_symbol
_atom_site_label
_atom_site_fract_x
_atom_site_fract_y
_atom_site_fract_z
Si Si1 0.716871 0.361974 0.362610
Si Si2 0.801833 0.830972 0.272705
Si Si3 0.000000 0.000000 0.218583
Si Si4 0.391322 0.333567 0.384378
Si Si5 0.442999 0.853243 0.198453
Si Si6 0.604740 0.033494 0.779060
O O1 0.735291 0.401987 0.580775
O O2 0.651006 0.507984 0.307364
O O3 0.658130 0.215416 0.292787
O O4 0.828960 0.385222 0.285577
O O5 0.705335 0.781962 0.396695
O O6 0.838979 0.671629 0.189468
O O7 0.903269 0.925793 0.326643
O O8 0.952127 0.123956 0.074507
O O9 0.470487 0.270215 0.234438
O O10 0.500000 0.000000 0.276349
O O11 0.417921 0.896077 0.985084
O O12 0.500000 0.000000 0.684899
#
# Coordination Sequence:
#
# PCOD9347316 Si02
#       6
#     4   4   2   4   4   4
#     4  10  21  44  66  93 133 180 227 286 346 418
#     4  10  20  39  66  95 129 176 224 282 346 409
#     4  10  20  42  66 100 150 178 230 302 348 416
#     4  10  19  41  70  90 137 178 227 285 354 416
#     4  11  21  40  69  96 129 180 227 280 352 420
#     4  10  23  42  60  94 141 166 222 293 343 414
#
# _framework density 26.209883999999999
#
# number of rings (size 3 to 8) (size 9 to 14) (size 15 to 20)
#    0.000    1.818    3.636    2.182    0.000    0.727 
#   16.364    7.273    0.000    0.000    0.000    0.000 
#    0.000    0.000    0.000    0.000    0.000    0.000 
#
# Total GULP energy -122754.359993 kJ/mol
# GULP energy per Si atom -5579.743636 kJ/mol
# Density = 2.615023 g / cm^3
# Si number density = 26.209884 Si / 1000 Ang^3
#
#
#
# Elastic Constant Matrix: (Units=GPa)
#
#
# Indices 1 2 3 4 5 6 
#
# 1 132.6344 39.8837 22.8877 0.0000 0.0000 0.0000
# 2 39.8837 85.3320 32.9174 0.0000 0.0000 0.0000
# 3 22.8877 32.9174 103.6858 0.0000 0.0000 0.0000
# 4 0.0000 0.0000 0.0000 800.8300 0.0000 0.0000
# 5 0.0000 0.0000 0.0000 0.0000 14.6927 0.0000
# 6 0.0000 0.0000 0.0000 0.0000 0.0000 80.8557
#
#
#
# Elastic Compliance Matrix: (Units=1/GPa)
#
#
# Indices 1 2 3 4 5 6 
#
# 1 0.008820 -0.003842 -0.000727 0.000000 0.000000 0.000000
# 2 -0.003842 0.015028 -0.003923 0.000000 0.000000 0.000000
# 3 -0.000727 -0.003923 0.011050 0.000000 0.000000 0.000000
# 4 0.000000 0.000000 0.000000 0.001249 0.000000 0.000000
# 5 0.000000 0.000000 0.000000 0.000000 0.068061 0.000000
# 6 0.000000 0.000000 0.000000 0.000000 0.000000 0.012368
#
#
# Mechanical properties :
#
#
# Convention : Reuss Voigt Hill
#
# Bulk Modulus (GPa) = 55.82097 57.00331 56.41214
# Shear Modulus (GPa) = 35.83410 194.33992 115.08701
#
# Velocity S-wave (km/s) = 3.70158 8.62024 6.63363
# Velocity P-wave (km/s) = 6.29387 10.99427 8.95787
#
# Compressibility (1/GPa) = 0.01791441
#
# Stress axis : x y z
#
# Youngs Moduli (GPa) = 113.37437 66.54263 90.49391
#
# Poissons Ratio (x) = 0.25566 0.06581
# Poissons Ratio (y) = 0.43559 0.35500
# Poissons Ratio (z) = 0.08245 0.26104
#
# Static dielectric constant tensor:
#      x y z
#    x 2.125220 0.000000 0.000000 
#    y 0.000000 2.087980 0.000000 
#    z 0.000000 0.000000 2.043050 
# 
# From -- ./inp_files/3520.got.cif
#   From: 2010.05.17/outbox.cif.g08.bks.cpg/sg34_2_cif.got.tgz:3520.got - 2010.06.03 17:23:11.
