data_PCOD9347913
_publ_section_title
;
Structure prediction by ZEFSAII (Michael W. Deem and Ramdas Pophale) SiO2 
 PCOD9347913
Probable space group: P N N 2
;
_chemical_formula_sum "Si O2"
_cell_formula_units_Z 30
_cell_length_a 7.658516
_cell_length_b 28.878565
_cell_length_c 5.663603
_cell_angle_alpha 90.000000
_cell_angle_beta 90.000000
_cell_angle_gamma 90.000000
_cell_volume 1252.601813
_symmetry_space_group_name_H-M "P N N 2"
_symmetry_group_IT_number 34
_symmetry_cell_setting 'orthorhombic'
loop_
_space_group_symop_operation_xyz
x,y,z
-x,-y,z
1/2-x,1/2+y,1/2+z
1/2+x,1/2-y,1/2+z
loop_
_atom_site_type_symbol
_atom_site_label
_atom_site_fract_x
_atom_site_fract_y
_atom_site_fract_z
Si Si1 0.901041 0.433450 0.652270
Si Si2 0.864228 0.709007 0.878448
Si Si3 0.500000 0.500000 0.969906
Si Si4 0.543337 0.763381 0.886587
Si Si5 0.568415 0.110339 0.548945
Si Si6 0.957123 0.086960 0.725590
Si Si7 0.737098 0.855422 0.891206
Si Si8 0.756763 0.028624 0.079651
O O1 0.784588 0.388081 0.619193
O O2 0.804974 0.476545 0.530506
O O3 0.093789 0.438101 0.539938
O O4 0.971148 0.432408 0.921010
O O5 0.655317 0.716448 0.882984
O O6 0.931630 0.730968 0.628542
O O7 0.912552 0.654635 0.872874
O O8 0.946119 0.727315 0.132981
O O9 0.667787 0.519593 0.836692
O O10 0.437682 0.548530 0.078360
O O11 0.697954 0.801757 0.917873
O O12 0.767680 0.101524 0.626698
O O13 0.429442 0.127467 0.740365
O O14 0.079439 0.130341 0.779136
O O15 0.911316 0.053814 0.946420
#
# Coordination Sequence:
#
# PCOD9347913 Si02
#       8
#     4   4   2   4   4   4   4   4
#     4  11  21  44  63  91 134 186 228 295 361 426
#     4  11  25  48  77 113 153 190 251 303 379 453
#     4  12  22  40  58  96 132 172 238 296 348 428
#     4  11  25  48  76 112 149 196 239 308 375 451
#     4  11  24  46  70  99 141 189 242 297 373 444
#     4  12  25  43  67 101 135 184 243 302 362 430
#     4  11  24  44  70  97 139 179 240 296 367 435
#     4  11  24  39  65  93 133 182 238 295 358 421
#
# _framework density 23.950147999999999
#
# number of rings (size 3 to 8) (size 9 to 14) (size 15 to 20)
#    0.000    0.800    4.000    3.600    1.867    0.000 
#    2.400    0.000    0.000    0.000    0.000    0.000 
#    0.000    0.000    0.000    0.000    0.000    0.000 
#
# Total GULP energy -167004.626848 kJ/mol
# GULP energy per Si atom -5566.820895 kJ/mol
# Density = 2.389564 g / cm^3
# Si number density = 23.950148 Si / 1000 Ang^3
#
#
#
# Elastic Constant Matrix: (Units=GPa)
#
#
# Indices 1 2 3 4 5 6 
#
# 1 112.1037 7.4749 31.5424 0.0000 0.0000 0.0000
# 2 7.4749 30.0507 10.8881 0.0000 0.0000 0.0000
# 3 31.5424 10.8881 69.3942 0.0000 0.0000 0.0000
# 4 0.0000 0.0000 0.0000 30.2157 0.0000 0.0000
# 5 0.0000 0.0000 0.0000 0.0000 37.3212 0.0000
# 6 0.0000 0.0000 0.0000 0.0000 0.0000 35.8522
#
#
#
# Elastic Compliance Matrix: (Units=1/GPa)
#
#
# Indices 1 2 3 4 5 6 
#
# 1 0.010252 -0.000914 -0.004517 0.000000 0.000000 0.000000
# 2 -0.000914 0.035364 -0.005133 0.000000 0.000000 0.000000
# 3 -0.004517 -0.005133 0.017269 0.000000 0.000000 0.000000
# 4 0.000000 0.000000 0.000000 0.033095 0.000000 0.000000
# 5 0.000000 0.000000 0.000000 0.000000 0.026794 0.000000
# 6 0.000000 0.000000 0.000000 0.000000 0.000000 0.027892
#
#
# Mechanical properties :
#
#
# Convention : Reuss Voigt Hill
#
# Bulk Modulus (GPa) = 23.94762 34.59548 29.27155
# Shear Modulus (GPa) = 26.92312 31.45404 29.18858
#
# Velocity S-wave (km/s) = 3.35644 3.62790 3.49481
# Velocity P-wave (km/s) = 5.00416 5.65906 5.34166
#
# Compressibility (1/GPa) = 0.04175779
#
# Stress axis : x y z
#
# Youngs Moduli (GPa) = 97.54132 28.27710 57.90773
#
# Poissons Ratio (x) = 0.02584 0.26155
# Poissons Ratio (y) = 0.08912 0.29727
# Poissons Ratio (z) = 0.44056 0.14516
#
# Static dielectric constant tensor:
#      x y z
#    x 1.874400 0.000000 0.000000 
#    y 0.000000 1.993160 0.000000 
#    z 0.000000 0.000000 2.103870 
# 
# From -- ./inp_files/627.got.cif
#   From: 2010.05.17/outbox.cif.g08.bks.cpg/sg34_1_cif.got.tgz:627.got - 2010.06.03 17:23:11.
