data_PCOD9347196
_publ_section_title
;
Structure prediction by ZEFSAII (Michael W. Deem and Ramdas Pophale) SiO2 
 PCOD9347196
Probable space group: P N N 2
;
_chemical_formula_sum "Si O2"
_cell_formula_units_Z 30
_cell_length_a 19.528525
_cell_length_b 9.439589
_cell_length_c 9.201142
_cell_angle_alpha 90.000000
_cell_angle_beta 90.000000
_cell_angle_gamma 90.000000
_cell_volume 1696.150016
_symmetry_space_group_name_H-M "P N N 2"
_symmetry_group_IT_number 34
_symmetry_cell_setting 'orthorhombic'
loop_
_space_group_symop_operation_xyz
x,y,z
-x,-y,z
1/2-x,1/2+y,1/2+z
1/2+x,1/2-y,1/2+z
loop_
_atom_site_type_symbol
_atom_site_label
_atom_site_fract_x
_atom_site_fract_y
_atom_site_fract_z
Si Si1 0.668619 0.438780 0.638190
Si Si2 0.650014 0.481602 0.154256
Si Si3 0.263588 0.035220 0.406251
Si Si4 0.145627 0.808367 0.924609
Si Si5 0.002172 0.668976 0.976082
Si Si6 0.500000 0.500000 0.016543
Si Si7 0.025238 0.147834 0.237801
Si Si8 0.647795 0.241212 0.375593
O O1 0.730105 0.455309 0.747803
O O2 0.647950 0.587129 0.563490
O O3 0.606621 0.369511 0.729887
O O4 0.680715 0.334711 0.503936
O O5 0.660416 0.597069 0.281986
O O6 0.570988 0.494926 0.102400
O O7 0.659909 0.326886 0.227490
O O8 0.704203 0.499229 0.023765
O O9 0.319971 0.912471 0.393746
O O10 0.299856 0.183192 0.442937
O O11 0.070891 0.736948 0.912144
O O12 0.933743 0.733049 0.903857
O O13 0.000000 0.500000 0.963670
O O14 0.998651 0.720302 0.144116
O O15 0.500702 0.632090 0.902154
O O16 0.000000 0.000000 0.163834
#
# Coordination Sequence:
#
# PCOD9347196 Si02
#       8
#     4   4   4   4   4   2   4   4
#     4  10  20  37  58  82 112 149 195 225 272 344
#     4  11  23  37  61  86 112 150 194 232 281 335
#     4  12  21  39  57  84 121 150 180 235 287 337
#     4  11  22  37  60  85 112 152 189 231 284 337
#     4  11  20  37  60  87 114 148 188 238 284 333
#     4  10  18  38  62  84 106 142 196 246 272 320
#     4   9  17  33  61  83 106 142 193 229 270 325
#     4  10  23  37  58  87 114 148 191 236 276 337
#
# _framework density 17.687114999999999
#
# number of rings (size 3 to 8) (size 9 to 14) (size 15 to 20)
#    0.400    1.067    4.000    2.400    0.000    0.000 
#    0.000    0.000    2.933    0.000    0.000    0.000 
#    0.000    0.000    0.000    0.000    0.000    0.000 
#
# Total GULP energy -167234.388560 kJ/mol
# GULP energy per Si atom -5574.479619 kJ/mol
# Density = 1.764686 g / cm^3
# Si number density = 17.687115 Si / 1000 Ang^3
#
#
#
# Elastic Constant Matrix: (Units=GPa)
#
#
# Indices 1 2 3 4 5 6 
#
# 1 84.8222 14.7308 32.7031 0.0000 0.0000 0.0000
# 2 14.7308 81.6977 22.5251 0.0000 0.0000 0.0000
# 3 32.7031 22.5251 60.2991 0.0000 0.0000 0.0000
# 4 0.0000 0.0000 0.0000 10.5599 0.0000 0.0000
# 5 0.0000 0.0000 0.0000 0.0000 25.4156 0.0000
# 6 0.0000 0.0000 0.0000 0.0000 0.0000 23.8254
#
#
#
# Elastic Compliance Matrix: (Units=1/GPa)
#
#
# Indices 1 2 3 4 5 6 
#
# 1 0.014926 -0.000512 -0.007904 0.000000 0.000000 0.000000
# 2 -0.000512 0.013663 -0.004826 0.000000 0.000000 0.000000
# 3 -0.007904 -0.004826 0.022673 0.000000 0.000000 0.000000
# 4 0.000000 0.000000 0.000000 0.094697 0.000000 0.000000
# 5 0.000000 0.000000 0.000000 0.000000 0.039346 0.000000
# 6 0.000000 0.000000 0.000000 0.000000 0.000000 0.041972
#
#
# Mechanical properties :
#
#
# Convention : Reuss Voigt Hill
#
# Bulk Modulus (GPa) = 40.35785 40.74857 40.55321
# Shear Modulus (GPa) = 19.08247 22.41753 20.75000
#
# Velocity S-wave (km/s) = 3.28821 3.56399 3.42887
# Velocity P-wave (km/s) = 6.10603 6.32650 6.21724
#
# Compressibility (1/GPa) = 0.02477833
#
# Stress axis : x y z
#
# Youngs Moduli (GPa) = 66.99942 73.18902 44.10466
#
# Poissons Ratio (x) = 0.03748 0.34858
# Poissons Ratio (y) = 0.03431 0.21286
# Poissons Ratio (z) = 0.52953 0.35323
#
# Static dielectric constant tensor:
#      x y z
#    x 1.608470 0.000000 0.000000 
#    y 0.000000 1.593500 0.000000 
#    z 0.000000 0.000000 1.597560 
# 
# From -- ./inp_files/2882.got.cif
#   From: 2010.05.17/outbox.cif.g08.bks.cpg/sg34_2_cif.got.tgz:2882.got - 2010.06.03 17:23:11.
