data_PCOD9347540
_publ_section_title
;
Structure prediction by ZEFSAII (Michael W. Deem and Ramdas Pophale) SiO2 
 PCOD9347540
Probable space group: P N N 2
;
_chemical_formula_sum "Si O2"
_cell_formula_units_Z 32
_cell_length_a 8.472803
_cell_length_b 16.315616
_cell_length_c 10.195934
_cell_angle_alpha 90.000000
_cell_angle_beta 90.000000
_cell_angle_gamma 90.000000
_cell_volume 1409.475722
_symmetry_space_group_name_H-M "P N N 2"
_symmetry_group_IT_number 34
_symmetry_cell_setting 'orthorhombic'
loop_
_space_group_symop_operation_xyz
x,y,z
-x,-y,z
1/2-x,1/2+y,1/2+z
1/2+x,1/2-y,1/2+z
loop_
_atom_site_type_symbol
_atom_site_label
_atom_site_fract_x
_atom_site_fract_y
_atom_site_fract_z
Si Si1 0.806092 0.909494 0.208520
Si Si2 0.100005 0.418168 0.525103
Si Si3 0.840601 0.151230 0.240187
Si Si4 0.927682 0.273470 0.635562
Si Si5 0.755901 0.822110 0.711170
Si Si6 0.321289 0.528322 0.407009
Si Si7 0.703534 0.439446 0.998545
Si Si8 0.668876 0.610389 0.025080
O O1 0.682826 0.834834 0.214615
O O2 0.767542 0.955334 0.344947
O O3 0.987518 0.886080 0.226113
O O4 0.807855 0.945743 0.061110
O O5 0.229089 0.387660 0.630190
O O6 0.197860 0.452392 0.401060
O O7 0.000000 0.500000 0.567562
O O8 0.992728 0.335742 0.520981
O O9 0.862954 0.248867 0.236529
O O10 0.770239 0.130214 0.380807
O O11 0.822281 0.195806 0.597877
O O12 0.079800 0.230149 0.700840
O O13 0.777153 0.894566 0.816277
O O14 0.714072 0.865225 0.573132
O O15 0.500000 0.500000 0.378564
O O16 0.738244 0.524629 0.072580
O O17 0.519008 0.412519 0.014109
#
# Coordination Sequence:
#
# PCOD9347540 Si02
#       8
#     4   4   4   4   4   4   4   4
#     4  11  21  39  68  98 123 170 223 268 318 398
#     4  11  22  39  63  92 127 166 215 272 331 383
#     4  10  21  39  62  91 130 166 215 268 322 385
#     4  10  22  39  64  96 130 170 216 270 330 394
#     4  10  24  42  60  97 133 175 211 273 333 393
#     4  12  24  40  67  97 130 165 228 279 327 389
#     4   9  20  37  65  88 124 167 221 255 321 397
#     4   9  18  36  61  85 122 170 205 256 322 387
#
# _framework density 22.703475999999998
#
# number of rings (size 3 to 8) (size 9 to 14) (size 15 to 20)
#    0.000    1.750    2.500    1.500    5.250    1.000 
#    4.500    0.000    0.000    0.000    0.000    0.000 
#    0.000    0.000    0.000    0.000    0.000    0.000 
#
# Total GULP energy -178256.213487 kJ/mol
# GULP energy per Si atom -5570.506671 kJ/mol
# Density = 2.265180 g / cm^3
# Si number density = 22.703476 Si / 1000 Ang^3
#
#
#
# Elastic Constant Matrix: (Units=GPa)
#
#
# Indices 1 2 3 4 5 6 
#
# 1 35.5140 -0.5679 -3.3495 0.0000 0.0000 0.0000
# 2 -0.5679 136.5558 23.7017 0.0000 0.0000 0.0000
# 3 -3.3495 23.7017 54.2568 0.0000 0.0000 0.0000
# 4 0.0000 0.0000 0.0000 11.5238 0.0000 0.0000
# 5 0.0000 0.0000 0.0000 0.0000 7.9909 0.0000
# 6 0.0000 0.0000 0.0000 0.0000 0.0000 20.8710
#
#
#
# Elastic Compliance Matrix: (Units=1/GPa)
#
#
# Indices 1 2 3 4 5 6 
#
# 1 0.028328 -0.000201 0.001837 0.000000 0.000000 0.000000
# 2 -0.000201 0.007925 -0.003474 0.000000 0.000000 0.000000
# 3 0.001837 -0.003474 0.020062 0.000000 0.000000 0.000000
# 4 0.000000 0.000000 0.000000 0.086777 0.000000 0.000000
# 5 0.000000 0.000000 0.000000 0.000000 0.125143 0.000000
# 6 0.000000 0.000000 0.000000 0.000000 0.000000 0.047913
#
#
# Mechanical properties :
#
#
# Convention : Reuss Voigt Hill
#
# Bulk Modulus (GPa) = 18.99786 29.54390 24.27088
# Shear Modulus (GPa) = 14.82047 21.84664 18.33356
#
# Velocity S-wave (km/s) = 2.55774 3.10540 2.84478
# Velocity P-wave (km/s) = 4.13626 5.08912 4.63723
#
# Compressibility (1/GPa) = 0.05263752
#
# Stress axis : x y z
#
# Youngs Moduli (GPa) = 35.30085 126.17914 49.84537
#
# Poissons Ratio (x) = 0.02536 -0.09155
# Poissons Ratio (y) = 0.00709 0.17319
# Poissons Ratio (z) = -0.06483 0.43841
#
# Static dielectric constant tensor:
#      x y z
#    x 1.905000 0.000000 0.000000 
#    y 0.000000 1.916920 0.000000 
#    z 0.000000 0.000000 1.871900 
# 
# From -- ./inp_files/5115.got.cif
#   From: 2010.05.17/outbox.cif.g08.bks.cpg/sg34_3_cif.got.tgz:5115.got - 2010.06.03 17:23:11.
