data_PCOD9347754
_publ_section_title
;
Structure prediction by ZEFSAII (Michael W. Deem and Ramdas Pophale) SiO2 
 PCOD9347754
Probable space group: P N N 2
;
_chemical_formula_sum "Si O2"
_cell_formula_units_Z 32
_cell_length_a 16.068766
_cell_length_b 17.040831
_cell_length_c 5.251922
_cell_angle_alpha 90.000000
_cell_angle_beta 90.000000
_cell_angle_gamma 90.000000
_cell_volume 1438.108202
_symmetry_space_group_name_H-M "P N N 2"
_symmetry_group_IT_number 34
_symmetry_cell_setting 'orthorhombic'
loop_
_space_group_symop_operation_xyz
x,y,z
-x,-y,z
1/2-x,1/2+y,1/2+z
1/2+x,1/2-y,1/2+z
loop_
_atom_site_type_symbol
_atom_site_label
_atom_site_fract_x
_atom_site_fract_y
_atom_site_fract_z
Si Si1 0.095319 0.523782 0.444790
Si Si2 0.698273 0.995910 0.455732
Si Si3 0.649125 0.574796 0.179993
Si Si4 0.899211 0.289894 0.448312
Si Si5 0.568875 0.440129 0.524194
Si Si6 0.992573 0.833656 0.637229
Si Si7 0.683233 0.356553 0.901874
Si Si8 0.194517 0.771691 0.946647
O O1 0.151498 0.501153 0.687979
O O2 0.096624 0.617718 0.416028
O O3 0.000000 0.500000 0.482043
O O4 0.135085 0.489313 0.187234
O O5 0.740461 0.910091 0.493860
O O6 0.777729 0.052062 0.488729
O O7 0.608661 0.499719 0.316809
O O8 0.686464 0.636521 0.383632
O O9 0.572483 0.617926 0.043207
O O10 0.846668 0.269607 0.700032
O O11 0.987633 0.252057 0.531251
O O12 0.855131 0.252078 0.201180
O O13 0.500000 0.500000 0.651494
O O14 0.650650 0.399630 0.646521
O O15 0.514698 0.364467 0.428531
O O16 0.903590 0.860020 0.545790
O O17 0.714680 0.267616 0.934157
#
# Coordination Sequence:
#
# PCOD9347754 Si02
#       8
#     4   4   4   4   4   4   4   4
#     4  12  26  49  74 104 140 200 253 315 359 433
#     4  12  25  44  77 103 143 192 247 303 372 439
#     4  10  24  47  68 112 149 187 244 300 375 444
#     4  11  24  48  68 101 141 197 243 294 373 427
#     4  10  23  40  66 105 150 191 235 298 368 443
#     4  10  25  41  68 105 150 188 234 301 368 448
#     4  12  24  41  73 104 145 195 245 288 378 441
#     4  11  26  45  73  97 147 192 240 303 358 439
#
# _framework density 22.251453000000001
#
# number of rings (size 3 to 8) (size 9 to 14) (size 15 to 20)
#    0.000    1.000    3.750    1.125    8.750    4.000 
#    2.250    0.000    0.000    0.000    0.000    0.000 
#    0.000    0.000    0.000    0.000    0.000    0.000 
#
# Total GULP energy -178409.951486 kJ/mol
# GULP energy per Si atom -5575.310984 kJ/mol
# Density = 2.220081 g / cm^3
# Si number density = 22.251453 Si / 1000 Ang^3
#
#
#
# Elastic Constant Matrix: (Units=GPa)
#
#
# Indices 1 2 3 4 5 6 
#
# 1 132.2427 34.4810 41.0423 0.0000 0.0000 0.0000
# 2 34.4810 62.7298 38.3200 0.0000 0.0000 0.0000
# 3 41.0423 38.3200 93.0034 0.0000 0.0000 0.0000
# 4 0.0000 0.0000 0.0000 20.4217 0.0000 0.0000
# 5 0.0000 0.0000 0.0000 0.0000 34.6006 0.0000
# 6 0.0000 0.0000 0.0000 0.0000 0.0000 39.8934
#
#
#
# Elastic Compliance Matrix: (Units=1/GPa)
#
#
# Indices 1 2 3 4 5 6 
#
# 1 0.009298 -0.003480 -0.002669 0.000000 0.000000 0.000000
# 2 -0.003480 0.022606 -0.007779 0.000000 0.000000 0.000000
# 3 -0.002669 -0.007779 0.015135 0.000000 0.000000 0.000000
# 4 0.000000 0.000000 0.000000 0.048967 0.000000 0.000000
# 5 0.000000 0.000000 0.000000 0.000000 0.028901 0.000000
# 6 0.000000 0.000000 0.000000 0.000000 0.000000 0.025067
#
#
# Mechanical properties :
#
#
# Convention : Reuss Voigt Hill
#
# Bulk Modulus (GPa) = 52.12895 57.29585 54.71240
# Shear Modulus (GPa) = 27.14079 30.59197 28.86638
#
# Velocity S-wave (km/s) = 3.49625 3.71189 3.60569
# Velocity P-wave (km/s) = 6.30686 6.64650 6.47891
#
# Compressibility (1/GPa) = 0.01918320
#
# Stress axis : x y z
#
# Youngs Moduli (GPa) = 107.55400 44.23585 66.07132
#
# Poissons Ratio (x) = 0.15395 0.17635
# Poissons Ratio (y) = 0.37431 0.51394
# Poissons Ratio (z) = 0.28707 0.34409
#
# Static dielectric constant tensor:
#      x y z
#    x 1.857940 0.000000 0.000000 
#    y 0.000000 1.844990 0.000000 
#    z 0.000000 0.000000 2.084350 
# 
# From -- ./inp_files/1327.got.cif
#   From: 2010.05.17/outbox.cif.g08.bks.cpg/sg34_1_cif.got.tgz:1327.got - 2010.06.03 17:23:11.
