data_PCOD9347030
_publ_section_title
;
Structure prediction by ZEFSAII (Michael W. Deem and Ramdas Pophale) SiO2 
 PCOD9347030
Probable space group: P N A 21
;
_chemical_formula_sum "Si O2"
_cell_formula_units_Z 8
_cell_length_a 4.778077
_cell_length_b 12.305701
_cell_length_c 5.073384
_cell_angle_alpha 90.000000
_cell_angle_beta 90.000000
_cell_angle_gamma 90.000000
_cell_volume 298.302737
_symmetry_space_group_name_H-M "P N A 21"
_symmetry_group_IT_number 33
_symmetry_cell_setting 'orthorhombic'
loop_
_space_group_symop_operation_xyz
x,y,z
-x,-y,1/2+z
1/2-x,1/2+y,1/2+z
1/2+x,1/2-y,z
loop_
_atom_site_type_symbol
_atom_site_label
_atom_site_fract_x
_atom_site_fract_y
_atom_site_fract_z
Si Si1 0.888565 0.675811 0.805780
Si Si2 0.797685 0.013834 0.942726
O O1 0.581868 0.720694 0.862120
O O2 0.846361 0.630256 0.506477
O O3 0.049824 0.574510 0.933663
O O4 0.006229 0.991545 0.187895
#
# Coordination Sequence:
#
# PCOD9347030 Si02
#       2
#     4   4
#     4  12  28  52  84 122 162 220 268 338 414 478
#     4  12  28  56  82 122 170 212 278 338 398 500
#
# _framework density 26.818394000000001
#
# number of rings (size 3 to 8) (size 9 to 14) (size 15 to 20)
#    0.000    0.000    5.000    3.000    0.000    4.000 
#    0.000    0.000    0.000    0.000    0.000    0.000 
#    0.000    0.000    0.000    0.000    0.000    0.000 
#
# Total GULP energy -44747.829550 kJ/mol
# GULP energy per Si atom -5593.478694 kJ/mol
# Density = 2.675735 g / cm^3
# Si number density = 26.818394 Si / 1000 Ang^3
#
#
#
# Elastic Constant Matrix: (Units=GPa)
#
#
# Indices 1 2 3 4 5 6 
#
# 1 184.2768 35.1839 58.1941 0.0000 0.0000 0.0000
# 2 35.1839 114.7119 18.2494 0.0000 0.0000 0.0000
# 3 58.1941 18.2494 147.8208 0.0000 0.0000 0.0000
# 4 0.0000 0.0000 0.0000 51.7335 0.0000 0.0000
# 5 0.0000 0.0000 0.0000 0.0000 56.7489 0.0000
# 6 0.0000 0.0000 0.0000 0.0000 0.0000 54.1171
#
#
#
# Elastic Compliance Matrix: (Units=1/GPa)
#
#
# Indices 1 2 3 4 5 6 
#
# 1 0.006477 -0.001613 -0.002351 0.000000 0.000000 0.000000
# 2 -0.001613 0.009294 -0.000513 0.000000 0.000000 0.000000
# 3 -0.002351 -0.000513 0.007754 0.000000 0.000000 0.000000
# 4 0.000000 0.000000 0.000000 0.019330 0.000000 0.000000
# 5 0.000000 0.000000 0.000000 0.000000 0.017621 0.000000
# 6 0.000000 0.000000 0.000000 0.000000 0.000000 0.018478
#
#
# Mechanical properties :
#
#
# Convention : Reuss Voigt Hill
#
# Bulk Modulus (GPa) = 68.62238 74.45156 71.53697
# Shear Modulus (GPa) = 53.90077 54.86538 54.38307
#
# Velocity S-wave (km/s) = 4.48799 4.52797 4.50803
# Velocity P-wave (km/s) = 7.24565 7.42687 7.33682
#
# Compressibility (1/GPa) = 0.01457251
#
# Stress axis : x y z
#
# Youngs Moduli (GPa) = 154.39577 107.60057 128.97146
#
# Poissons Ratio (x) = 0.17351 0.30318
# Poissons Ratio (y) = 0.24897 0.06610
# Poissons Ratio (z) = 0.36294 0.05515
#
# Static dielectric constant tensor:
#      x y z
#    x 2.025890 0.000000 0.000000 
#    y 0.000000 2.141050 0.000000 
#    z 0.000000 0.000000 2.186330 
# 
# From -- ./inp_files/97.got.cif
#   From: 2010.05.17/outbox.cif.g08.bks.cpg/sg33_1_cif.got.tgz:97.got - 2010.06.03 17:15:25.
