data_PCOD9347973
_publ_section_title
;
Structure prediction by ZEFSAII (Michael W. Deem and Ramdas Pophale) SiO2 
 PCOD9347973
Probable space group: P N N 2
;
_chemical_formula_sum "Si O2"
_cell_formula_units_Z 18
_cell_length_a 6.026296
_cell_length_b 19.897875
_cell_length_c 6.005922
_cell_angle_alpha 90.000000
_cell_angle_beta 90.000000
_cell_angle_gamma 90.000000
_cell_volume 720.173017
_symmetry_space_group_name_H-M "P N N 2"
_symmetry_group_IT_number 34
_symmetry_cell_setting 'orthorhombic'
loop_
_space_group_symop_operation_xyz
x,y,z
-x,-y,z
1/2-x,1/2+y,1/2+z
1/2+x,1/2-y,1/2+z
loop_
_atom_site_type_symbol
_atom_site_label
_atom_site_fract_x
_atom_site_fract_y
_atom_site_fract_z
Si Si1 0.193796 0.087008 0.827740
Si Si2 0.031349 0.682515 0.050820
Si Si3 0.000000 0.500000 0.670750
Si Si4 0.836484 0.089132 0.471849
Si Si5 0.885525 0.817099 0.191714
O O1 0.367249 0.113301 0.645895
O O2 0.969060 0.066265 0.693928
O O3 0.333876 0.041305 0.002431
O O4 0.141200 0.158540 0.941913
O O5 0.031426 0.750168 0.193554
O O6 0.158139 0.696027 0.821432
O O7 0.780396 0.659613 0.026312
O O8 0.833642 0.541574 0.835524
O O9 0.016348 0.114673 0.296500
#
# Coordination Sequence:
#
# PCOD9347973 Si02
#       5
#     4   4   2   4   4
#     4  11  27  51  75 110 153 212 254 338 402 466
#     4  11  24  46  77 115 151 196 264 328 412 485
#     4  12  28  56  76 112 168 208 280 322 396 488
#     4  11  27  51  75 112 153 208 266 326 404 482
#     4  11  24  46  77 115 151 197 262 331 411 482
#
# _framework density 24.993995000000002
#
# number of rings (size 3 to 8) (size 9 to 14) (size 15 to 20)
#    0.000    0.889    2.222    2.667    6.222    5.333 
#    8.000    0.000    0.000    0.000    0.000    0.000 
#    0.000    0.000    0.000    0.000    0.000    0.000 
#
# Total GULP energy -100343.305990 kJ/mol
# GULP energy per Si atom -5574.628111 kJ/mol
# Density = 2.493711 g / cm^3
# Si number density = 24.993995 Si / 1000 Ang^3
#
#
#
# Elastic Constant Matrix: (Units=GPa)
#
#
# Indices 1 2 3 4 5 6 
#
# 1 122.8410 72.3457 77.0654 0.0000 0.0000 0.0000
# 2 72.3457 141.2890 73.0172 0.0000 0.0000 0.0000
# 3 77.0654 73.0172 117.1836 0.0000 0.0000 0.0000
# 4 0.0000 0.0000 0.0000 45.0794 0.0000 0.0000
# 5 0.0000 0.0000 0.0000 0.0000 57.9429 0.0000
# 6 0.0000 0.0000 0.0000 0.0000 0.0000 39.4307
#
#
#
# Elastic Compliance Matrix: (Units=1/GPa)
#
#
# Indices 1 2 3 4 5 6 
#
# 1 0.015156 -0.003849 -0.007569 0.000000 0.000000 0.000000
# 2 -0.003849 0.011417 -0.004583 0.000000 0.000000 0.000000
# 3 -0.007569 -0.004583 0.016367 0.000000 0.000000 0.000000
# 4 0.000000 0.000000 0.000000 0.022183 0.000000 0.000000
# 5 0.000000 0.000000 0.000000 0.000000 0.017258 0.000000
# 6 0.000000 0.000000 0.000000 0.000000 0.000000 0.025361
#
#
# Mechanical properties :
#
#
# Convention : Reuss Voigt Hill
#
# Bulk Modulus (GPa) = 91.42026 91.79671 91.60848
# Shear Modulus (GPa) = 34.87033 39.08297 36.97665
#
# Velocity S-wave (km/s) = 3.73922 3.95865 3.85050
# Velocity P-wave (km/s) = 7.43631 7.59617 7.51666
#
# Compressibility (1/GPa) = 0.01093849
#
# Stress axis : x y z
#
# Youngs Moduli (GPa) = 65.98161 87.59113 61.09944
#
# Poissons Ratio (x) = 0.33712 0.46246
# Poissons Ratio (y) = 0.25395 0.28000
# Poissons Ratio (z) = 0.49941 0.40140
#
# Static dielectric constant tensor:
#      x y z
#    x 2.040170 0.000000 0.000000 
#    y 0.000000 1.996060 0.000000 
#    z 0.000000 0.000000 2.006380 
# 
# From -- ./inp_files/124.got.cif
#   From: 2010.05.17/outbox.cif.g08.bks.cpg/sg34_1_cif.got.tgz:124.got - 2010.06.03 17:23:11.
