data_PCOD9347526
_publ_section_title
;
Structure prediction by ZEFSAII (Michael W. Deem and Ramdas Pophale) SiO2 
 PCOD9347526
Probable space group: P N N 2
;
_chemical_formula_sum "Si O2"
_cell_formula_units_Z 30
_cell_length_a 5.055366
_cell_length_b 32.901572
_cell_length_c 8.798762
_cell_angle_alpha 90.000000
_cell_angle_beta 90.000000
_cell_angle_gamma 90.000000
_cell_volume 1463.493582
_symmetry_space_group_name_H-M "P N N 2"
_symmetry_group_IT_number 34
_symmetry_cell_setting 'orthorhombic'
loop_
_space_group_symop_operation_xyz
x,y,z
-x,-y,z
1/2-x,1/2+y,1/2+z
1/2+x,1/2-y,1/2+z
loop_
_atom_site_type_symbol
_atom_site_label
_atom_site_fract_x
_atom_site_fract_y
_atom_site_fract_z
Si Si1 0.936297 0.859786 0.408500
Si Si2 0.467047 0.272062 0.979652
Si Si3 0.969821 0.285739 0.196063
Si Si4 0.500000 0.500000 0.951688
Si Si5 0.852833 0.543431 0.532620
Si Si6 0.160394 0.062541 0.218461
Si Si7 0.441528 0.871184 0.597599
Si Si8 0.855296 0.543128 0.187027
O O1 0.018587 0.813454 0.378222
O O2 0.948205 0.895346 0.286533
O O3 0.630962 0.859532 0.458499
O O4 0.135842 0.871062 0.546705
O O5 0.481886 0.235902 0.858708
O O6 0.204191 0.272258 0.081935
O O7 0.703346 0.275328 0.102799
O O8 0.003526 0.334637 0.213680
O O9 0.304152 0.527663 0.848438
O O10 0.638488 0.532921 0.060241
O O11 0.580146 0.544998 0.620854
O O12 0.776004 0.553110 0.359363
O O13 0.000000 0.500000 0.532830
O O14 0.075008 0.569615 0.620880
O O15 0.515964 0.916982 0.640251
O O16 0.000000 0.500000 0.195114
#
# Coordination Sequence:
#
# PCOD9347526 Si02
#       8
#     4   4   4   2   4   4   4   4
#     4  10  21  38  63  89 122 155 207 260 303 358
#     4  10  21  40  64  93 125 164 201 256 311 370
#     4  10  21  40  66  92 127 164 202 257 310 371
#     4  12  24  36  72  84 112 164 222 244 284 384
#     4  11  25  41  57  82 131 158 191 259 321 350
#     4  12  23  41  61  89 117 160 206 253 305 362
#     4  10  21  40  62  91 123 159 207 258 301 359
#     4  11  26  40  62  91 122 167 208 257 308 367
#
# _framework density 20.498895000000001
#
# number of rings (size 3 to 8) (size 9 to 14) (size 15 to 20)
#    0.000    1.333    2.667    2.400    5.600    0.000 
#    4.800    0.000    0.000    0.000    0.000    0.000 
#    0.000    0.000    0.000    0.000    0.000    0.000 
#
# Total GULP energy -167295.177963 kJ/mol
# GULP energy per Si atom -5576.505932 kJ/mol
# Density = 2.045224 g / cm^3
# Si number density = 20.498895 Si / 1000 Ang^3
#
#
#
# Elastic Constant Matrix: (Units=GPa)
#
#
# Indices 1 2 3 4 5 6 
#
# 1 91.3397 2.3264 19.7288 0.0000 0.0000 0.0000
# 2 2.3264 87.9506 6.9840 0.0000 0.0000 0.0000
# 3 19.7288 6.9840 57.9915 0.0000 0.0000 0.0000
# 4 0.0000 0.0000 0.0000 6.1570 0.0000 0.0000
# 5 0.0000 0.0000 0.0000 0.0000 15.2690 0.0000
# 6 0.0000 0.0000 0.0000 0.0000 0.0000 20.0824
#
#
#
# Elastic Compliance Matrix: (Units=1/GPa)
#
#
# Indices 1 2 3 4 5 6 
#
# 1 0.011816 0.000007 -0.004021 0.000000 0.000000 0.000000
# 2 0.000007 0.011480 -0.001385 0.000000 0.000000 0.000000
# 3 -0.004021 -0.001385 0.018779 0.000000 0.000000 0.000000
# 4 0.000000 0.000000 0.000000 0.162417 0.000000 0.000000
# 5 0.000000 0.000000 0.000000 0.000000 0.065492 0.000000
# 6 0.000000 0.000000 0.000000 0.000000 0.000000 0.049795
#
#
# Mechanical properties :
#
#
# Convention : Reuss Voigt Hill
#
# Bulk Modulus (GPa) = 31.97233 32.81780 32.39506
# Shear Modulus (GPa) = 14.66268 22.18454 18.42361
#
# Velocity S-wave (km/s) = 2.67739 3.29330 3.00119
# Velocity P-wave (km/s) = 5.01885 5.52317 5.27704
#
# Compressibility (1/GPa) = 0.03127705
#
# Stress axis : x y z
#
# Youngs Moduli (GPa) = 84.62791 87.10951 53.25228
#
# Poissons Ratio (x) = -0.00059 0.21412
# Poissons Ratio (y) = -0.00057 0.07374
# Poissons Ratio (z) = 0.34027 0.12063
#
# Static dielectric constant tensor:
#      x y z
#    x 1.745660 0.000000 0.000000 
#    y 0.000000 1.782500 0.000000 
#    z 0.000000 0.000000 1.764350 
# 
# From -- ./inp_files/2196.got.cif
#   From: 2010.05.17/outbox.cif.g08.bks.cpg/sg34_2_cif.got.tgz:2196.got - 2010.06.03 17:23:11.
