data_PCOD9347503
_publ_section_title
;
Structure prediction by ZEFSAII (Michael W. Deem and Ramdas Pophale) SiO2 
 PCOD9347503
Probable space group: P N N 2
;
_chemical_formula_sum "Si O2"
_cell_formula_units_Z 24
_cell_length_a 7.951133
_cell_length_b 24.667510
_cell_length_c 5.469971
_cell_angle_alpha 90.000000
_cell_angle_beta 90.000000
_cell_angle_gamma 90.000000
_cell_volume 1072.850863
_symmetry_space_group_name_H-M "P N N 2"
_symmetry_group_IT_number 34
_symmetry_cell_setting 'orthorhombic'
loop_
_space_group_symop_operation_xyz
x,y,z
-x,-y,z
1/2-x,1/2+y,1/2+z
1/2+x,1/2-y,1/2+z
loop_
_atom_site_type_symbol
_atom_site_label
_atom_site_fract_x
_atom_site_fract_y
_atom_site_fract_z
Si Si1 0.177085 0.091681 0.946390
Si Si2 0.375103 0.265869 0.513967
Si Si3 0.677439 0.016996 0.910901
Si Si4 0.694679 0.617103 0.653298
Si Si5 0.542063 0.556239 0.036668
Si Si6 0.768734 0.290981 0.508554
O O1 0.286516 0.144318 0.996576
O O2 0.123251 0.082103 0.662284
O O3 0.265301 0.037903 0.044240
O O4 0.993919 0.100501 0.064257
O O5 0.275471 0.322635 0.559295
O O6 0.569950 0.280153 0.477286
O O7 0.356731 0.234262 0.770213
O O8 0.318946 0.234150 0.270485
O O9 0.829778 0.030064 0.730905
O O10 0.500000 0.000000 0.795700
O O11 0.673980 0.071397 0.071532
O O12 0.655602 0.606042 0.936326
O O13 0.500000 0.500000 0.890100
#
# Coordination Sequence:
#
# PCOD9347503 Si02
#       6
#     4   4   4   4   4   4
#     4   9  21  38  64  85 125 165 223 257 325 400
#     4  11  26  43  72  95 137 174 234 271 343 390
#     4  10  21  36  57  95 129 158 204 274 337 385
#     4  10  21  38  66  84 123 168 223 258 326 400
#     4   9  18  36  62  90 116 169 217 265 319 411
#     4  11  25  45  67 101 132 182 223 286 328 407
#
# _framework density 22.370304000000001
#
# number of rings (size 3 to 8) (size 9 to 14) (size 15 to 20)
#    0.000    2.000    0.000    3.500   11.667    3.333 
#    0.000    0.000    0.000    0.000    0.000    0.000 
#    0.000    0.000    0.000    0.000    0.000    0.000 
#
# Total GULP energy -133645.167417 kJ/mol
# GULP energy per Si atom -5568.548642 kJ/mol
# Density = 2.231939 g / cm^3
# Si number density = 22.370304 Si / 1000 Ang^3
#
#
#
# Elastic Constant Matrix: (Units=GPa)
#
#
# Indices 1 2 3 4 5 6 
#
# 1 30.3067 -0.5131 -5.8657 0.0000 0.0000 0.0000
# 2 -0.5131 106.0395 46.8544 0.0000 0.0000 0.0000
# 3 -5.8657 46.8544 65.6895 0.0000 0.0000 0.0000
# 4 0.0000 0.0000 0.0000 23.0235 0.0000 0.0000
# 5 0.0000 0.0000 0.0000 0.0000 19.5525 0.0000
# 6 0.0000 0.0000 0.0000 0.0000 0.0000 25.1703
#
#
#
# Elastic Compliance Matrix: (Units=1/GPa)
#
#
# Indices 1 2 3 4 5 6 
#
# 1 0.033787 -0.001708 0.004235 0.000000 0.000000 0.000000
# 2 -0.001708 0.013857 -0.010036 0.000000 0.000000 0.000000
# 3 0.004235 -0.010036 0.022760 0.000000 0.000000 0.000000
# 4 0.000000 0.000000 0.000000 0.043434 0.000000 0.000000
# 5 0.000000 0.000000 0.000000 0.000000 0.051144 0.000000
# 6 0.000000 0.000000 0.000000 0.000000 0.000000 0.039729
#
#
# Mechanical properties :
#
#
# Convention : Reuss Voigt Hill
#
# Bulk Modulus (GPa) = 18.05519 31.44296 24.74908
# Shear Modulus (GPa) = 20.99162 24.31994 22.65578
#
# Velocity S-wave (km/s) = 3.06661 3.30078 3.18584
# Velocity P-wave (km/s) = 4.54173 5.34911 4.96187
#
# Compressibility (1/GPa) = 0.05538573
#
# Stress axis : x y z
#
# Youngs Moduli (GPa) = 29.59733 72.16721 43.93721
#
# Poissons Ratio (x) = 0.12325 -0.18608
# Poissons Ratio (y) = 0.05055 0.44096
# Poissons Ratio (z) = -0.12535 0.72428
#
# Static dielectric constant tensor:
#      x y z
#    x 1.810170 0.000000 0.000000 
#    y 0.000000 1.919180 0.000000 
#    z 0.000000 0.000000 2.074200 
# 
# From -- ./inp_files/483.got.cif
#   From: 2010.05.17/outbox.cif.g08.bks.cpg/sg34_1_cif.got.tgz:483.got - 2010.06.03 17:23:11.
