data_PCOD9347442
_publ_section_title
;
Structure prediction by ZEFSAII (Michael W. Deem and Ramdas Pophale) SiO2 
 PCOD9347442
Probable space group: P N N 2
;
_chemical_formula_sum "Si O2"
_cell_formula_units_Z 24
_cell_length_a 10.142012
_cell_length_b 10.306930
_cell_length_c 9.282973
_cell_angle_alpha 90.000000
_cell_angle_beta 90.000000
_cell_angle_gamma 90.000000
_cell_volume 970.377088
_symmetry_space_group_name_H-M "P N N 2"
_symmetry_group_IT_number 34
_symmetry_cell_setting 'orthorhombic'
loop_
_space_group_symop_operation_xyz
x,y,z
-x,-y,z
1/2-x,1/2+y,1/2+z
1/2+x,1/2-y,1/2+z
loop_
_atom_site_type_symbol
_atom_site_label
_atom_site_fract_x
_atom_site_fract_y
_atom_site_fract_z
Si Si1 0.853781 0.013781 0.188160
Si Si2 0.107817 0.883484 0.737424
Si Si3 0.279124 0.063066 0.921557
Si Si4 0.233786 0.998854 0.476520
Si Si5 0.069092 0.295267 0.910697
Si Si6 0.610544 0.811638 0.679730
O O1 0.854571 0.950131 0.345896
O O2 0.841650 0.167084 0.206238
O O3 0.000000 0.000000 0.118023
O O4 0.736002 0.962635 0.089680
O O5 0.164004 0.889287 0.575469
O O6 0.044106 0.752657 0.800573
O O7 0.221621 0.933627 0.845355
O O8 0.000000 0.000000 0.738371
O O9 0.174341 0.179694 0.898661
O O10 0.403195 0.114020 0.831133
O O11 0.358273 0.932344 0.397813
O O12 0.282648 0.107393 0.586725
O O13 0.013136 0.302221 0.073770
#
# Coordination Sequence:
#
# PCOD9347442 Si02
#       6
#     4   4   4   4   4   4
#     4  12  22  44  72 102 134 187 237 279 347 432
#     4   9  19  39  67  95 129 186 230 277 346 420
#     4  10  20  40  70  93 129 180 232 280 338 418
#     4  11  25  39  69 105 140 179 236 291 352 409
#     4  11  20  41  69  93 138 178 226 293 346 406
#     4  11  23  43  66 100 135 180 235 285 349 412
#
# _framework density 24.732652000000002
#
# number of rings (size 3 to 8) (size 9 to 14) (size 15 to 20)
#    0.000    1.333    5.000    1.500    0.000    1.333 
#    0.000    0.000    0.000    0.000    0.000    0.000 
#    0.000    0.000    0.000    0.000    0.000    0.000 
#
# Total GULP energy -134065.304342 kJ/mol
# GULP energy per Si atom -5586.054348 kJ/mol
# Density = 2.467636 g / cm^3
# Si number density = 24.732652 Si / 1000 Ang^3
#
#
#
# Elastic Constant Matrix: (Units=GPa)
#
#
# Indices 1 2 3 4 5 6 
#
# 1 39.6787 24.3575 21.2312 0.0000 0.0000 0.0000
# 2 24.3575 78.6076 23.2709 0.0000 0.0000 0.0000
# 3 21.2312 23.2709 134.3072 0.0000 0.0000 0.0000
# 4 0.0000 0.0000 0.0000 37.1959 0.0000 0.0000
# 5 0.0000 0.0000 0.0000 0.0000 40.1598 0.0000
# 6 0.0000 0.0000 0.0000 0.0000 0.0000 30.5849
#
#
#
# Elastic Compliance Matrix: (Units=1/GPa)
#
#
# Indices 1 2 3 4 5 6 
#
# 1 0.032692 -0.009065 -0.003597 0.000000 0.000000 0.000000
# 2 -0.009065 0.015923 -0.001326 0.000000 0.000000 0.000000
# 3 -0.003597 -0.001326 0.008244 0.000000 0.000000 0.000000
# 4 0.000000 0.000000 0.000000 0.026885 0.000000 0.000000
# 5 0.000000 0.000000 0.000000 0.000000 0.024901 0.000000
# 6 0.000000 0.000000 0.000000 0.000000 0.000000 0.032696
#
#
# Mechanical properties :
#
#
# Convention : Reuss Voigt Hill
#
# Bulk Modulus (GPa) = 34.62313 43.36806 38.99559
# Shear Modulus (GPa) = 27.94173 33.83707 30.88940
#
# Velocity S-wave (km/s) = 3.36482 3.70281 3.53786
# Velocity P-wave (km/s) = 5.39679 5.98781 5.69997
#
# Compressibility (1/GPa) = 0.02888243
#
# Stress axis : x y z
#
# Youngs Moduli (GPa) = 30.58849 62.80285 121.30034
#
# Poissons Ratio (x) = 0.56931 0.43635
# Poissons Ratio (y) = 0.27729 0.16083
# Poissons Ratio (z) = 0.11003 0.08327
#
# Static dielectric constant tensor:
#      x y z
#    x 2.026920 0.000000 0.000000 
#    y 0.000000 1.939910 0.000000 
#    z 0.000000 0.000000 2.016570 
# 
# From -- ./inp_files/3160.got.cif
#   From: 2010.05.17/outbox.cif.g08.bks.cpg/sg34_2_cif.got.tgz:3160.got - 2010.06.03 17:23:11.
