data_PCOD9347005
_publ_section_title
;
Structure prediction by ZEFSAII (Michael W. Deem and Ramdas Pophale) SiO2 
 PCOD9347005
Probable space group: P N A 21
;
_chemical_formula_sum "Si O2"
_cell_formula_units_Z 24
_cell_length_a 15.032342
_cell_length_b 11.156841
_cell_length_c 5.556885
_cell_angle_alpha 90.000000
_cell_angle_beta 90.000000
_cell_angle_gamma 90.000000
_cell_volume 931.964352
_symmetry_space_group_name_H-M "P N A 21"
_symmetry_group_IT_number 33
_symmetry_cell_setting 'orthorhombic'
loop_
_space_group_symop_operation_xyz
x,y,z
-x,-y,1/2+z
1/2-x,1/2+y,1/2+z
1/2+x,1/2-y,z
loop_
_atom_site_type_symbol
_atom_site_label
_atom_site_fract_x
_atom_site_fract_y
_atom_site_fract_z
Si Si1 0.059223 0.154129 0.265650
Si Si2 0.341472 0.829763 0.475321
Si Si3 0.502326 0.925727 0.277385
Si Si4 0.173434 0.734864 0.284322
Si Si5 0.720790 0.451913 0.554091
Si Si6 0.886996 0.059566 0.470765
O O1 0.126872 0.087617 0.444710
O O2 0.958069 0.148210 0.348566
O O3 0.099614 0.282002 0.196117
O O4 0.064513 0.064768 0.035566
O O5 0.416835 0.836833 0.269281
O O6 0.255740 0.742558 0.468322
O O7 0.293647 0.956889 0.453600
O O8 0.589531 0.847197 0.338364
O O9 0.489088 0.008925 0.517742
O O10 0.224534 0.670890 0.067437
O O11 0.144034 0.866135 0.202869
O O12 0.693895 0.519663 0.802527
#
# Coordination Sequence:
#
# PCOD9347005 Si02
#       6
#     4   4   4   4   4   4
#     4  12  27  47  75 113 154 203 262 330 407 476
#     4  12  29  48  81 111 157 211 268 333 402 489
#     4  12  32  56  82 120 166 218 278 340 414 492
#     4  12  29  48  81 111 157 211 268 333 402 489
#     4  12  26  50  76 108 150 206 262 328 392 488
#     4  12  27  47  75 113 154 203 262 330 407 476
#
# _framework density 25.752056
#
# number of rings (size 3 to 8) (size 9 to 14) (size 15 to 20)
#    0.000    0.000    6.667    1.000   14.000    0.000 
#    0.000    0.000    0.000    0.000    0.000    0.000 
#    0.000    0.000    0.000    0.000    0.000    0.000 
#
# Total GULP energy -134050.322237 kJ/mol
# GULP energy per Si atom -5585.430093 kJ/mol
# Density = 2.569344 g / cm^3
# Si number density = 25.752056 Si / 1000 Ang^3
#
#
#
# Elastic Constant Matrix: (Units=GPa)
#
#
# Indices 1 2 3 4 5 6 
#
# 1 138.9305 17.1031 22.0505 0.0000 0.0000 0.0000
# 2 17.1031 75.5486 13.1706 0.0000 0.0000 0.0000
# 3 22.0505 13.1706 63.6161 0.0000 0.0000 0.0000
# 4 0.0000 0.0000 0.0000 28.9260 0.0000 0.0000
# 5 0.0000 0.0000 0.0000 0.0000 32.1853 0.0000
# 6 0.0000 0.0000 0.0000 0.0000 0.0000 43.3600
#
#
#
# Elastic Compliance Matrix: (Units=1/GPa)
#
#
# Indices 1 2 3 4 5 6 
#
# 1 0.007744 -0.001333 -0.002408 0.000000 0.000000 0.000000
# 2 -0.001333 0.013962 -0.002428 0.000000 0.000000 0.000000
# 3 -0.002408 -0.002428 0.017057 0.000000 0.000000 0.000000
# 4 0.000000 0.000000 0.000000 0.034571 0.000000 0.000000
# 5 0.000000 0.000000 0.000000 0.000000 0.031070 0.000000
# 6 0.000000 0.000000 0.000000 0.000000 0.000000 0.023063
#
#
# Mechanical properties :
#
#
# Convention : Reuss Voigt Hill
#
# Bulk Modulus (GPa) = 37.84613 42.52709 40.18661
# Shear Modulus (GPa) = 33.64419 35.94564 34.79491
#
# Velocity S-wave (km/s) = 3.61843 3.74014 3.67979
# Velocity P-wave (km/s) = 5.67324 5.93308 5.80461
#
# Compressibility (1/GPa) = 0.02642278
#
# Stress axis : x y z
#
# Youngs Moduli (GPa) = 129.12866 71.62446 58.62771
#
# Poissons Ratio (x) = 0.09550 0.14119
# Poissons Ratio (y) = 0.17217 0.14237
# Poissons Ratio (z) = 0.31097 0.17393
#
# Static dielectric constant tensor:
#      x y z
#    x 1.962230 0.000000 0.000000 
#    y 0.000000 2.063590 0.000000 
#    z 0.000000 0.000000 2.129390 
# 
# From -- ./inp_files/1268.got.cif
#   From: 2010.05.17/outbox.cif.g08.bks.cpg/sg33_1_cif.got.tgz:1268.got - 2010.06.03 17:15:25.
