data_PCOD9347290
_publ_section_title
;
Structure prediction by ZEFSAII (Michael W. Deem and Ramdas Pophale) SiO2 
 PCOD9347290
Probable space group: P N N 2
;
_chemical_formula_sum "Si O2"
_cell_formula_units_Z 24
_cell_length_a 11.200917
_cell_length_b 10.688623
_cell_length_c 7.370774
_cell_angle_alpha 90.000000
_cell_angle_beta 90.000000
_cell_angle_gamma 90.000000
_cell_volume 882.446599
_symmetry_space_group_name_H-M "P N N 2"
_symmetry_group_IT_number 34
_symmetry_cell_setting 'orthorhombic'
loop_
_space_group_symop_operation_xyz
x,y,z
-x,-y,z
1/2-x,1/2+y,1/2+z
1/2+x,1/2-y,1/2+z
loop_
_atom_site_type_symbol
_atom_site_label
_atom_site_fract_x
_atom_site_fract_y
_atom_site_fract_z
Si Si1 0.500001 0.150821 0.934810
Si Si2 0.500000 0.850715 0.355856
Si Si3 0.693690 0.772579 0.647579
Si Si4 0.866429 0.999999 0.616582
Si Si5 0.693691 0.227421 0.647578
Si Si6 0.360223 0.500001 0.683073
O O1 0.704324 0.375091 0.167600
O O2 0.610798 0.207916 0.824723
O O3 0.500000 0.000000 0.914350
O O4 0.500001 0.185611 0.145492
O O5 0.614107 0.808220 0.472211
O O6 0.385893 0.808222 0.472211
O O7 0.500000 0.000000 0.359695
O O8 0.795677 0.124908 0.667599
O O9 0.711852 0.624233 0.630655
O O10 0.610796 0.792083 0.824723
O O11 0.870172 0.999998 0.399256
O O12 0.000000 0.000000 0.690284
O O13 0.711852 0.375767 0.630654
O O14 0.500000 0.500000 0.616920
#
# Coordination Sequence:
#
# PCOD9347290 Si02
#       6
#     4   4   4   4   4   4
#     4  10  19  37  83 134 169 217 288 350 434 512
#     4  10  19  37  83 136 165 221 288 344 444 510
#     4  11  21  49  80 120 178 223 270 366 425 495
#     4  11  26  51  84 120 173 233 288 334 412 522
#     4  11  21  49  80 120 178 223 270 366 425 495
#     4  11  24  48  85 125 170 209 279 365 429 499
#
# _framework density 27.197111
#
# number of rings (size 3 to 8) (size 9 to 14) (size 15 to 20)
#    0.000    1.333    6.667    1.000    0.000    0.000 
#    6.000    5.833   11.000   10.000    0.000    0.000 
#    0.000    0.000    0.000    0.000    0.000    0.000 
#
# Total GULP energy -134981.037842 kJ/mol
# GULP energy per Si atom -5624.209910 kJ/mol
# Density = 2.713521 g / cm^3
# Si number density = 27.197111 Si / 1000 Ang^3
#
#
#
# Elastic Constant Matrix: (Units=GPa)
#
#
# Indices 1 2 3 4 5 6 
#
# 1 190.4644 125.3688 46.8132 0.0000 0.0000 0.0000
# 2 125.3688 295.7122 65.9574 0.0000 0.0000 0.0000
# 3 46.8132 65.9574 217.5767 0.0000 0.0000 0.0000
# 4 0.0000 0.0000 0.0000 40.4772 0.0000 0.0000
# 5 0.0000 0.0000 0.0000 0.0000 30.2380 0.0000
# 6 0.0000 0.0000 0.0000 0.0000 0.0000 44.2404
#
#
#
# Elastic Compliance Matrix: (Units=1/GPa)
#
#
# Indices 1 2 3 4 5 6 
#
# 1 0.007377 -0.002975 -0.000685 0.000000 0.000000 0.000000
# 2 -0.002975 0.004826 -0.000823 0.000000 0.000000 0.000000
# 3 -0.000685 -0.000823 0.004993 0.000000 0.000000 0.000000
# 4 0.000000 0.000000 0.000000 0.024705 0.000000 0.000000
# 5 0.000000 0.000000 0.000000 0.000000 0.033071 0.000000
# 6 0.000000 0.000000 0.000000 0.000000 0.000000 0.022604
#
#
# Mechanical properties :
#
#
# Convention : Reuss Voigt Hill
#
# Bulk Modulus (GPa) = 121.50650 131.11465 126.31058
# Shear Modulus (GPa) = 45.75176 54.03206 49.89191
#
# Velocity S-wave (km/s) = 4.10595 4.46206 4.28770
# Velocity P-wave (km/s) = 8.20071 8.65219 8.42947
#
# Compressibility (1/GPa) = 0.00823001
#
# Stress axis : x y z
#
# Youngs Moduli (GPa) = 135.56205 207.19758 200.27740
#
# Poissons Ratio (x) = 0.61631 0.13728
# Poissons Ratio (y) = 0.40323 0.16485
# Poissons Ratio (z) = 0.09292 0.17054
#
# Static dielectric constant tensor:
#      x y z
#    x 2.178710 0.000000 0.000000 
#    y 0.000000 2.022900 0.000000 
#    z 0.000000 0.000000 2.068860 
# 
# From -- ./inp_files/3544.got.cif
#   From: 2010.05.17/outbox.cif.g08.bks.cpg/sg34_2_cif.got.tgz:3544.got - 2010.06.03 17:23:11.
