data_PCOD9347192
_publ_section_title
;
Structure prediction by ZEFSAII (Michael W. Deem and Ramdas Pophale) SiO2 
 PCOD9347192
Probable space group: P N N 2
;
_chemical_formula_sum "Si O2"
_cell_formula_units_Z 32
_cell_length_a 12.071842
_cell_length_b 8.587850
_cell_length_c 14.232637
_cell_angle_alpha 90.000000
_cell_angle_beta 90.000000
_cell_angle_gamma 90.000000
_cell_volume 1475.514106
_symmetry_space_group_name_H-M "P N N 2"
_symmetry_group_IT_number 34
_symmetry_cell_setting 'orthorhombic'
loop_
_space_group_symop_operation_xyz
x,y,z
-x,-y,z
1/2-x,1/2+y,1/2+z
1/2+x,1/2-y,1/2+z
loop_
_atom_site_type_symbol
_atom_site_label
_atom_site_fract_x
_atom_site_fract_y
_atom_site_fract_z
Si Si1 0.471480 0.754601 0.728710
Si Si2 0.758262 0.409287 0.990688
Si Si3 0.920205 0.858555 0.019875
Si Si4 0.961012 0.332772 0.866258
Si Si5 0.317451 0.246285 0.015842
Si Si6 0.897849 0.099101 0.705183
Si Si7 0.323934 0.062136 0.703765
Si Si8 0.035471 0.175313 0.436310
O O1 0.447503 0.673036 0.629489
O O2 0.602068 0.795400 0.739717
O O3 0.438654 0.675007 0.825633
O O4 0.398622 0.911022 0.722577
O O5 0.724137 0.588601 0.973240
O O6 0.814288 0.410205 0.092339
O O7 0.841345 0.352721 0.912503
O O8 0.649670 0.301362 0.991094
O O9 0.786789 0.870018 0.010074
O O10 0.000000 0.000000 0.990598
O O11 0.959092 0.719115 0.951655
O O12 0.948664 0.202727 0.787361
O O13 0.000000 0.500000 0.828736
O O14 0.345573 0.291894 0.123987
O O15 0.434317 0.212261 0.965335
O O16 0.799398 0.981973 0.737375
O O17 0.000000 0.000000 0.665501
O O18 0.000000 0.000000 0.459918
#
# Coordination Sequence:
#
# PCOD9347192 Si02
#       8
#     4   4   4   4   4   4   4   4
#     4  11  20  38  63  95 128 167 217 273 332 395
#     4  10  18  37  67  89 120 169 226 260 327 409
#     4  12  24  40  66 100 134 171 222 287 337 397
#     4  12  23  41  66  95 133 177 221 279 346 410
#     4  10  21  43  66  88 132 176 220 273 340 401
#     4  11  23  41  67  97 132 175 233 279 333 409
#     4  10  20  38  67  90 121 173 221 264 332 399
#     4  10  22  37  62  94 124 169 215 269 326 399
#
# _framework density 21.687356000000001
#
# number of rings (size 3 to 8) (size 9 to 14) (size 15 to 20)
#    0.000    1.250    5.000    3.375    0.000    2.000 
#    0.000    0.000    2.750    0.000    0.000    0.000 
#    0.000    0.000    0.000    0.000    0.000    0.000 
#
# Total GULP energy -178620.847780 kJ/mol
# GULP energy per Si atom -5581.901493 kJ/mol
# Density = 2.163799 g / cm^3
# Si number density = 21.687356 Si / 1000 Ang^3
#
#
#
# Elastic Constant Matrix: (Units=GPa)
#
#
# Indices 1 2 3 4 5 6 
#
# 1 147.0926 20.5065 19.7067 0.0000 0.0000 0.0000
# 2 20.5065 29.4134 13.7441 0.0000 0.0000 0.0000
# 3 19.7067 13.7441 88.7121 0.0000 0.0000 0.0000
# 4 0.0000 0.0000 0.0000 31.0088 0.0000 0.0000
# 5 0.0000 0.0000 0.0000 0.0000 24.4413 0.0000
# 6 0.0000 0.0000 0.0000 0.0000 0.0000 31.1324
#
#
#
# Elastic Compliance Matrix: (Units=1/GPa)
#
#
# Indices 1 2 3 4 5 6 
#
# 1 0.007602 -0.004863 -0.000935 0.000000 0.000000 0.000000
# 2 -0.004863 0.039762 -0.005080 0.000000 0.000000 0.000000
# 3 -0.000935 -0.005080 0.012267 0.000000 0.000000 0.000000
# 4 0.000000 0.000000 0.000000 0.032249 0.000000 0.000000
# 5 0.000000 0.000000 0.000000 0.000000 0.040914 0.000000
# 6 0.000000 0.000000 0.000000 0.000000 0.000000 0.032121
#
#
# Mechanical properties :
#
#
# Convention : Reuss Voigt Hill
#
# Bulk Modulus (GPa) = 26.40276 41.45919 33.93097
# Shear Modulus (GPa) = 25.08827 31.40055 28.24441
#
# Velocity S-wave (km/s) = 3.40489 3.80922 3.61272
# Velocity P-wave (km/s) = 5.25912 6.20525 5.75168
#
# Compressibility (1/GPa) = 0.03787483
#
# Stress axis : x y z
#
# Youngs Moduli (GPa) = 131.55009 25.14957 81.51799
#
# Poissons Ratio (x) = 0.12230 0.07624
# Poissons Ratio (y) = 0.63969 0.41412
# Poissons Ratio (z) = 0.12303 0.12776
#
# Static dielectric constant tensor:
#      x y z
#    x 1.837610 0.000000 0.000000 
#    y 0.000000 1.805230 0.000000 
#    z 0.000000 0.000000 1.754770 
# 
# From -- ./inp_files/6822.got.cif
#   From: 2010.05.17/outbox.cif.g08.bks.cpg/sg34_4_cif.got.tgz:6822.got - 2010.06.03 17:23:11.
