data_PCOD9347286
_publ_section_title
;
Structure prediction by ZEFSAII (Michael W. Deem and Ramdas Pophale) SiO2 
 PCOD9347286
Probable space group: P N N 2
;
_chemical_formula_sum "Si O2"
_cell_formula_units_Z 26
_cell_length_a 9.969322
_cell_length_b 8.966269
_cell_length_c 15.394484
_cell_angle_alpha 90.000000
_cell_angle_beta 90.000000
_cell_angle_gamma 90.000000
_cell_volume 1376.076329
_symmetry_space_group_name_H-M "P N N 2"
_symmetry_group_IT_number 34
_symmetry_cell_setting 'orthorhombic'
loop_
_space_group_symop_operation_xyz
x,y,z
-x,-y,z
1/2-x,1/2+y,1/2+z
1/2+x,1/2-y,1/2+z
loop_
_atom_site_type_symbol
_atom_site_label
_atom_site_fract_x
_atom_site_fract_y
_atom_site_fract_z
Si Si1 0.846397 0.761958 0.462030
Si Si2 0.463505 0.333609 0.451156
Si Si3 0.395062 0.864130 0.583304
Si Si4 0.000000 0.000000 0.343466
Si Si5 0.500000 0.000000 0.868158
Si Si6 0.926343 0.262058 0.229148
Si Si7 0.809465 0.903167 0.631397
Si Si8 0.000000 0.000000 0.782204
O O1 0.685429 0.733385 0.465905
O O2 0.901399 0.893459 0.399241
O O3 0.890519 0.815297 0.557876
O O4 0.910018 0.608709 0.426638
O O5 0.500000 0.500000 0.487144
O O6 0.572625 0.229868 0.497812
O O7 0.473679 0.363170 0.348063
O O8 0.437252 0.776121 0.671408
O O9 0.500000 0.000000 0.582626
O O10 0.253892 0.947113 0.589323
O O11 0.081647 0.890344 0.280684
O O12 0.578074 0.891790 0.801744
O O13 0.808022 0.292852 0.162492
O O14 0.883088 0.954480 0.717592
#
# Coordination Sequence:
#
# PCOD9347286 Si02
#       8
#     4   4   4   2   2   4   4   2
#     4  11  22  43  61  95 130 165 222 259 331 394
#     4  10  23  41  65  95 125 169 221 268 319 397
#     4  10  19  38  66  92 121 165 212 266 310 386
#     4  10  25  35  66  96 126 162 212 277 305 390
#     4  10  20  38  64  88 124 170 206 264 320 382
#     4  10  19  37  63  92 116 163 212 255 314 368
#     4  11  21  41  63  88 132 166 210 261 323 391
#     4  10  25  39  60  94 128 174 200 271 335 370
#
# _framework density 18.894300999999999
#
# number of rings (size 3 to 8) (size 9 to 14) (size 15 to 20)
#    0.462    1.231    5.385    1.385    3.231    1.231 
#    5.538    1.538    0.000    0.000    0.000    0.000 
#    0.000    0.000    0.000    0.000    0.000    0.000 
#
# Total GULP energy -144757.439464 kJ/mol
# GULP energy per Si atom -5567.593826 kJ/mol
# Density = 1.885130 g / cm^3
# Si number density = 18.894301 Si / 1000 Ang^3
#
#
#
# Elastic Constant Matrix: (Units=GPa)
#
#
# Indices 1 2 3 4 5 6 
#
# 1 45.7611 25.3585 29.6922 0.0000 0.0000 0.0000
# 2 25.3585 101.9362 54.9164 0.0000 0.0000 0.0000
# 3 29.6922 54.9164 136.8136 0.0000 0.0000 0.0000
# 4 0.0000 0.0000 0.0000 -51.5798 0.0000 0.0000
# 5 0.0000 0.0000 0.0000 0.0000 35.1095 0.0000
# 6 0.0000 0.0000 0.0000 0.0000 0.0000 20.3641
#
#
#
# Elastic Compliance Matrix: (Units=1/GPa)
#
#
# Indices 1 2 3 4 5 6 
#
# 1 0.026986 -0.004540 -0.004034 0.000000 0.000000 0.000000
# 2 -0.004540 0.013280 -0.004345 0.000000 0.000000 0.000000
# 3 -0.004034 -0.004345 0.009929 0.000000 0.000000 0.000000
# 4 0.000000 0.000000 0.000000 -0.019387 0.000000 0.000000
# 5 0.000000 0.000000 0.000000 0.000000 0.028482 0.000000
# 6 0.000000 0.000000 0.000000 0.000000 0.000000 0.049106
#
#
# Mechanical properties :
#
#
# Convention : Reuss Voigt Hill
#
# Bulk Modulus (GPa) = 41.05728 56.04944 48.55336
# Shear Modulus (GPa) = 35.12353 12.41502 23.76928
#
# Velocity S-wave (km/s) = 4.31623 2.56613 3.55070
# Velocity P-wave (km/s) = 6.82766 6.20558 6.52404
#
# Compressibility (1/GPa) = 0.02435622
#
# Stress axis : x y z
#
# Youngs Moduli (GPa) = 37.05608 75.29867 100.71464
#
# Poissons Ratio (x) = 0.34184 0.40633
# Poissons Ratio (y) = 0.16823 0.43765
# Poissons Ratio (z) = 0.14950 0.32721
#
# Static dielectric constant tensor:
#      x y z
#    x 1.677870 0.000000 0.000000 
#    y 0.000000 1.673380 0.000000 
#    z 0.000000 0.000000 1.669030 
# 
# From -- ./inp_files/6763.got.cif
#   From: 2010.05.17/outbox.cif.g08.bks.cpg/sg34_4_cif.got.tgz:6763.got - 2010.06.03 17:23:11.
