data_PCOD9347720
_publ_section_title
;
Structure prediction by ZEFSAII (Michael W. Deem and Ramdas Pophale) SiO2 
 PCOD9347720
Probable space group: P N N 2
;
_chemical_formula_sum "Si O2"
_cell_formula_units_Z 26
_cell_length_a 12.159771
_cell_length_b 9.817317
_cell_length_c 9.866959
_cell_angle_alpha 90.000000
_cell_angle_beta 90.000000
_cell_angle_gamma 90.000000
_cell_volume 1177.881320
_symmetry_space_group_name_H-M "P N N 2"
_symmetry_group_IT_number 34
_symmetry_cell_setting 'orthorhombic'
loop_
_space_group_symop_operation_xyz
x,y,z
-x,-y,z
1/2-x,1/2+y,1/2+z
1/2+x,1/2-y,1/2+z
loop_
_atom_site_type_symbol
_atom_site_label
_atom_site_fract_x
_atom_site_fract_y
_atom_site_fract_z
Si Si1 0.000000 0.000000 0.987391
Si Si2 0.000000 0.500000 0.381472
Si Si3 0.549226 0.203493 0.413175
Si Si4 0.500000 0.500000 0.041483
Si Si5 0.764172 0.044962 0.439094
Si Si6 0.442259 0.802998 0.108470
Si Si7 0.622424 0.881403 0.645225
Si Si8 0.707623 0.589037 0.655883
O O1 0.981165 0.861456 0.908454
O O2 0.111642 0.981382 0.072700
O O3 0.995629 0.372103 0.482962
O O4 0.097670 0.520593 0.271906
O O5 0.525035 0.151307 0.260977
O O6 0.478085 0.143577 0.538111
O O7 0.677475 0.170557 0.442357
O O8 0.454273 0.639542 0.108302
O O9 0.606818 0.558162 0.964360
O O10 0.715935 0.942830 0.549764
O O11 0.758150 0.997540 0.283352
O O12 0.318854 0.861426 0.084430
O O13 0.654994 0.733561 0.701733
#
# Coordination Sequence:
#
# PCOD9347720 Si02
#       8
#     2   2   4   2   4   4   4   4
#     4  10  22  44  74 110 141 183 242 296 367 431
#     4  12  26  42  72 104 140 186 250 302 356 428
#     4  10  23  45  73 101 138 189 231 298 363 434
#     4  12  24  46  66 110 143 189 226 304 355 433
#     4  11  22  42  72  95 143 185 232 287 361 419
#     4  11  26  43  69 105 142 182 244 297 361 427
#     4  11  22  47  69  98 140 184 239 293 364 423
#     4  10  23  42  69 104 139 180 236 298 351 441
#
# _framework density 22.073532
#
# number of rings (size 3 to 8) (size 9 to 14) (size 15 to 20)
#    0.000    1.231    3.077    1.846    4.308    4.923 
#    5.538    0.000    0.000    0.000    0.000    0.000 
#    0.000    0.000    0.000    0.000    0.000    0.000 
#
# Total GULP energy -144816.005064 kJ/mol
# GULP energy per Si atom -5569.846349 kJ/mol
# Density = 2.202329 g / cm^3
# Si number density = 22.073532 Si / 1000 Ang^3
#
#
#
# Elastic Constant Matrix: (Units=GPa)
#
#
# Indices 1 2 3 4 5 6 
#
# 1 127.2199 13.5408 48.3315 0.0000 0.0000 0.0000
# 2 13.5408 99.9887 53.9740 0.0000 0.0000 0.0000
# 3 48.3315 53.9740 138.8977 0.0000 0.0000 0.0000
# 4 0.0000 0.0000 0.0000 1691.7273 0.0000 0.0000
# 5 0.0000 0.0000 0.0000 0.0000 -19.5787 0.0000
# 6 0.0000 0.0000 0.0000 0.0000 0.0000 30.9887
#
#
#
# Elastic Compliance Matrix: (Units=1/GPa)
#
#
# Indices 1 2 3 4 5 6 
#
# 1 0.009086 0.000603 -0.003396 0.000000 0.000000 0.000000
# 2 0.000603 0.012696 -0.005143 0.000000 0.000000 0.000000
# 3 -0.003396 -0.005143 0.010380 0.000000 0.000000 0.000000
# 4 0.000000 0.000000 0.000000 0.000591 0.000000 0.000000
# 5 0.000000 0.000000 0.000000 0.000000 -0.051076 0.000000
# 6 0.000000 0.000000 0.000000 0.000000 0.000000 0.032270
#
#
# Mechanical properties :
#
#
# Convention : Reuss Voigt Hill
#
# Bulk Modulus (GPa) = 61.39080 66.42211 63.90645
# Shear Modulus (GPa) = 141.84549 357.31144 249.57846
#
# Velocity S-wave (km/s) = 8.02496 12.73674 10.64483
# Velocity P-wave (km/s) = 10.66484 15.69892 13.42004
#
# Compressibility (1/GPa) = 0.01628909
#
# Stress axis : x y z
#
# Youngs Moduli (GPa) = 110.05468 78.76628 96.34142
#
# Poissons Ratio (x) = -0.04746 0.32717
# Poissons Ratio (y) = -0.06632 0.49550
# Poissons Ratio (z) = 0.37374 0.40510
#
# Static dielectric constant tensor:
#      x y z
#    x 1.855130 0.000000 0.000000 
#    y 0.000000 1.746910 0.000000 
#    z 0.000000 0.000000 1.794930 
# 
# From -- ./inp_files/3205.got.cif
#   From: 2010.05.17/outbox.cif.g08.bks.cpg/sg34_2_cif.got.tgz:3205.got - 2010.06.03 17:23:11.
