data_PCOD9347812
_publ_section_title
;
Structure prediction by ZEFSAII (Michael W. Deem and Ramdas Pophale) SiO2 
 PCOD9347812
Probable space group: P N N 2
;
_chemical_formula_sum "Si O2"
_cell_formula_units_Z 16
_cell_length_a 5.338773
_cell_length_b 14.450067
_cell_length_c 9.155500
_cell_angle_alpha 90.000000
_cell_angle_beta 90.000000
_cell_angle_gamma 90.000000
_cell_volume 706.306793
_symmetry_space_group_name_H-M "P N N 2"
_symmetry_group_IT_number 34
_symmetry_cell_setting 'orthorhombic'
loop_
_space_group_symop_operation_xyz
x,y,z
-x,-y,z
1/2-x,1/2+y,1/2+z
1/2+x,1/2-y,1/2+z
loop_
_atom_site_type_symbol
_atom_site_label
_atom_site_fract_x
_atom_site_fract_y
_atom_site_fract_z
Si Si1 0.645819 0.627671 0.411820
Si Si2 0.000000 0.500000 0.960922
Si Si3 0.500000 0.500000 0.150881
Si Si4 0.539135 0.198123 0.319796
Si Si5 0.643027 0.833666 0.000102
O O1 0.553920 0.585166 0.260073
O O2 0.667181 0.739369 0.402056
O O3 0.411257 0.614132 0.520723
O O4 0.925570 0.599081 0.444497
O O5 0.044072 0.407539 0.867258
O O6 0.250126 0.514733 0.057005
O O7 0.466110 0.204096 0.151068
O O8 0.779607 0.255317 0.380344
#
# Coordination Sequence:
#
# PCOD9347812 Si02
#       5
#     4   2   2   4   4
#     4  10  25  41  72  95 139 183 232 293 350 443
#     4  12  28  40  76  98 148 178 252 300 364 438
#     4  12  26  48  68 106 134 198 240 294 370 446
#     4  10  26  44  68 106 139 188 235 301 364 435
#     4  10  24  41  73  95 145 179 237 289 368 426
#
# _framework density 22.653047999999998
#
# number of rings (size 3 to 8) (size 9 to 14) (size 15 to 20)
#    1.500    0.000    0.000    3.000   10.500    2.000 
#    0.000    0.000    0.000    0.000    0.000    0.000 
#    0.000    0.000    0.000    0.000    0.000    0.000 
#
# Total GULP energy -89085.532764 kJ/mol
# GULP energy per Si atom -5567.845798 kJ/mol
# Density = 2.260149 g / cm^3
# Si number density = 22.653048 Si / 1000 Ang^3
#
#
#
# Elastic Constant Matrix: (Units=GPa)
#
#
# Indices 1 2 3 4 5 6 
#
# 1 204.8035 50.3527 76.7318 0.0000 0.0000 0.0000
# 2 50.3527 110.5162 19.0329 0.0000 0.0000 0.0000
# 3 76.7318 19.0329 114.7980 0.0000 0.0000 0.0000
# 4 0.0000 0.0000 0.0000 13.8772 0.0000 0.0000
# 5 0.0000 0.0000 0.0000 0.0000 30.3303 0.0000
# 6 0.0000 0.0000 0.0000 0.0000 0.0000 17.0328
#
#
#
# Elastic Compliance Matrix: (Units=1/GPa)
#
#
# Indices 1 2 3 4 5 6 
#
# 1 0.007126 -0.002498 -0.004349 0.000000 0.000000 0.000000
# 2 -0.002498 0.010190 -0.000020 0.000000 0.000000 0.000000
# 3 -0.004349 -0.000020 0.011621 0.000000 0.000000 0.000000
# 4 0.000000 0.000000 0.000000 0.072060 0.000000 0.000000
# 5 0.000000 0.000000 0.000000 0.000000 0.032970 0.000000
# 6 0.000000 0.000000 0.000000 0.000000 0.000000 0.058710
#
#
# Mechanical properties :
#
#
# Convention : Reuss Voigt Hill
#
# Bulk Modulus (GPa) = 65.77312 80.26137 73.01725
# Shear Modulus (GPa) = 23.64288 31.18143 27.41216
#
# Velocity S-wave (km/s) = 3.23413 3.71412 3.48240
# Velocity P-wave (km/s) = 6.56081 7.34170 6.96221
#
# Compressibility (1/GPa) = 0.01520378
#
# Stress axis : x y z
#
# Youngs Moduli (GPa) = 140.32546 98.13629 86.04935
#
# Poissons Ratio (x) = 0.24513 0.37424
# Poissons Ratio (y) = 0.35051 0.00171
# Poissons Ratio (z) = 0.61029 0.00195
#
# Static dielectric constant tensor:
#      x y z
#    x 1.935340 0.000000 0.000000 
#    y 0.000000 1.872420 0.000000 
#    z 0.000000 0.000000 1.857430 
# 
# From -- ./inp_files/1964.got.cif
#   From: 2010.05.17/outbox.cif.g08.bks.cpg/sg34_1_cif.got.tgz:1964.got - 2010.06.03 17:23:11.
