data_PCOD9347469
_publ_section_title
;
Structure prediction by ZEFSAII (Michael W. Deem and Ramdas Pophale) SiO2 
 PCOD9347469
Probable space group: P N N 2
;
_chemical_formula_sum "Si O2"
_cell_formula_units_Z 16
_cell_length_a 11.533730
_cell_length_b 13.758791
_cell_length_c 4.881361
_cell_angle_alpha 90.000000
_cell_angle_beta 90.000000
_cell_angle_gamma 90.000000
_cell_volume 774.624058
_symmetry_space_group_name_H-M "P N N 2"
_symmetry_group_IT_number 34
_symmetry_cell_setting 'orthorhombic'
loop_
_space_group_symop_operation_xyz
x,y,z
-x,-y,z
1/2-x,1/2+y,1/2+z
1/2+x,1/2-y,1/2+z
loop_
_atom_site_type_symbol
_atom_site_label
_atom_site_fract_x
_atom_site_fract_y
_atom_site_fract_z
Si Si1 0.586969 0.415337 0.511540
Si Si2 0.231986 0.132293 0.541521
Si Si3 0.011827 0.611082 0.247360
Si Si4 0.070689 0.281276 0.772288
O O1 0.500000 0.500000 0.592202
O O2 0.663584 0.440942 0.245458
O O3 0.520705 0.316612 0.417024
O O4 0.678485 0.386212 0.745135
O O5 0.366988 0.123093 0.588935
O O6 0.189305 0.238101 0.647568
O O7 0.000000 0.500000 0.333907
O O8 0.000063 0.677295 0.516122
O O9 0.918670 0.641572 0.015733
#
# Coordination Sequence:
#
# PCOD9347469 Si02
#       4
#     4   4   4   4
#     4  10  20  42  66  95 130 166 220 274 326 389
#     4  10  22  42  61  94 133 162 226 262 326 397
#     4  12  24  44  66  95 138 171 217 275 331 397
#     4  10  22  44  61  96 128 175 218 267 320 401
#
# _framework density 20.655183000000001
#
# number of rings (size 3 to 8) (size 9 to 14) (size 15 to 20)
#    1.500    0.000    2.500    3.000    0.000    0.000 
#   13.500    0.000    0.000    0.000    0.000    0.000 
#    0.000    0.000    0.000    0.000    0.000    0.000 
#
# Total GULP energy -89106.641850 kJ/mol
# GULP energy per Si atom -5569.165116 kJ/mol
# Density = 2.060817 g / cm^3
# Si number density = 20.655183 Si / 1000 Ang^3
#
#
#
# Elastic Constant Matrix: (Units=GPa)
#
#
# Indices 1 2 3 4 5 6 
#
# 1 60.5189 36.9312 22.5415 0.0000 0.0000 0.0000
# 2 36.9312 90.0530 35.1724 0.0000 0.0000 0.0000
# 3 22.5415 35.1724 132.9319 0.0000 0.0000 0.0000
# 4 0.0000 0.0000 0.0000 20.8379 0.0000 0.0000
# 5 0.0000 0.0000 0.0000 0.0000 12.4073 0.0000
# 6 0.0000 0.0000 0.0000 0.0000 0.0000 16.2777
#
#
#
# Elastic Compliance Matrix: (Units=1/GPa)
#
#
# Indices 1 2 3 4 5 6 
#
# 1 0.022311 -0.008557 -0.001519 0.000000 0.000000 0.000000
# 2 -0.008557 0.015666 -0.002694 0.000000 0.000000 0.000000
# 3 -0.001519 -0.002694 0.008493 0.000000 0.000000 0.000000
# 4 0.000000 0.000000 0.000000 0.047989 0.000000 0.000000
# 5 0.000000 0.000000 0.000000 0.000000 0.080598 0.000000
# 6 0.000000 0.000000 0.000000 0.000000 0.000000 0.061434
#
#
# Mechanical properties :
#
#
# Convention : Reuss Voigt Hill
#
# Bulk Modulus (GPa) = 47.77770 52.53265 50.15517
# Shear Modulus (GPa) = 18.58682 22.49517 20.54100
#
# Velocity S-wave (km/s) = 3.00302 3.30370 3.15695
# Velocity P-wave (km/s) = 5.93342 6.32779 6.13378
#
# Compressibility (1/GPa) = 0.02093027
#
# Stress axis : x y z
#
# Youngs Moduli (GPa) = 44.82050 63.83302 117.74238
#
# Poissons Ratio (x) = 0.54619 0.17890
# Poissons Ratio (y) = 0.38351 0.31721
# Poissons Ratio (z) = 0.06810 0.17197
#
# Static dielectric constant tensor:
#      x y z
#    x 1.763390 0.000000 0.000000 
#    y 0.000000 1.760020 0.000000 
#    z 0.000000 0.000000 1.744570 
# 
# From -- ./inp_files/708.got.cif
#   From: 2010.05.17/outbox.cif.g08.bks.cpg/sg34_1_cif.got.tgz:708.got - 2010.06.03 17:23:11.
