data_PCOD9347276
_publ_section_title
;
Structure prediction by ZEFSAII (Michael W. Deem and Ramdas Pophale) SiO2 
 PCOD9347276
Probable space group: P N N 2
;
_chemical_formula_sum "Si O2"
_cell_formula_units_Z 14
_cell_length_a 9.438123
_cell_length_b 5.227304
_cell_length_c 14.036233
_cell_angle_alpha 90.000000
_cell_angle_beta 90.000000
_cell_angle_gamma 90.000000
_cell_volume 692.490723
_symmetry_space_group_name_H-M "P N N 2"
_symmetry_group_IT_number 34
_symmetry_cell_setting 'orthorhombic'
loop_
_space_group_symop_operation_xyz
x,y,z
-x,-y,z
1/2-x,1/2+y,1/2+z
1/2+x,1/2-y,1/2+z
loop_
_atom_site_type_symbol
_atom_site_label
_atom_site_fract_x
_atom_site_fract_y
_atom_site_fract_z
Si Si1 0.000000 0.500000 0.764331
Si Si2 0.908080 0.249537 0.490529
Si Si3 0.747620 0.723338 0.170023
Si Si4 0.292018 0.292345 0.781840
O O1 0.913549 0.291107 0.703395
O O2 0.871028 0.646240 0.814169
O O3 0.767833 0.238668 0.556497
O O4 0.876156 0.247925 0.378250
O O5 0.000000 0.500000 0.511681
O O6 0.000000 0.000000 0.512593
O O7 0.793209 0.454579 0.213963
O O8 0.831256 0.956111 0.220237
#
# Coordination Sequence:
#
# PCOD9347276 Si02
#       4
#     2   4   4   4
#     4   8  18  34  56  80 108 146 192 236 266 334
#     4  12  22  37  61  90 115 153 195 237 290 347
#     4  10  19  37  59  87 107 151 198 239 273 340
#     4  10  21  34  60  85 117 143 197 242 285 328
#
# _framework density 20.216875999999999
#
# number of rings (size 3 to 8) (size 9 to 14) (size 15 to 20)
#    1.714    0.000    1.429    6.000    0.000    0.000 
#    0.000    0.000    9.429    0.000    0.000    0.000 
#    0.000    0.000    0.000    0.000    0.000    0.000 
#
# Total GULP energy -77940.958601 kJ/mol
# GULP energy per Si atom -5567.211329 kJ/mol
# Density = 2.017086 g / cm^3
# Si number density = 20.216876 Si / 1000 Ang^3
#
#
#
# Elastic Constant Matrix: (Units=GPa)
#
#
# Indices 1 2 3 4 5 6 
#
# 1 26.9666 14.4978 9.2370 0.0000 0.0000 0.0000
# 2 14.4978 180.9367 63.5333 0.0000 0.0000 0.0000
# 3 9.2370 63.5333 132.6162 0.0000 0.0000 0.0000
# 4 0.0000 0.0000 0.0000 45.8445 0.0000 0.0000
# 5 0.0000 0.0000 0.0000 0.0000 33.5485 0.0000
# 6 0.0000 0.0000 0.0000 0.0000 0.0000 6.1446
#
#
#
# Elastic Compliance Matrix: (Units=1/GPa)
#
#
# Indices 1 2 3 4 5 6 
#
# 1 0.038988 -0.002609 -0.001465 0.000000 0.000000 0.000000
# 2 -0.002609 0.006819 -0.003085 0.000000 0.000000 0.000000
# 3 -0.001465 -0.003085 0.009121 0.000000 0.000000 0.000000
# 4 0.000000 0.000000 0.000000 0.021813 0.000000 0.000000
# 5 0.000000 0.000000 0.000000 0.000000 0.029808 0.000000
# 6 0.000000 0.000000 0.000000 0.000000 0.000000 0.162745
#
#
# Mechanical properties :
#
#
# Convention : Reuss Voigt Hill
#
# Bulk Modulus (GPa) = 24.62600 57.22842 40.92721
# Shear Modulus (GPa) = 16.82657 33.99095 25.40876
#
# Velocity S-wave (km/s) = 2.88810 4.10483 3.54900
# Velocity P-wave (km/s) = 4.82999 7.12986 6.08949
#
# Compressibility (1/GPa) = 0.04060750
#
# Stress axis : x y z
#
# Youngs Moduli (GPa) = 25.64913 146.64512 109.64119
#
# Poissons Ratio (x) = 0.38265 0.16068
# Poissons Ratio (y) = 0.06693 0.33826
# Poissons Ratio (z) = 0.03759 0.45242
#
# Static dielectric constant tensor:
#      x y z
#    x 1.721680 0.000000 0.000000 
#    y 0.000000 1.691300 0.000000 
#    z 0.000000 0.000000 1.735750 
# 
# From -- ./inp_files/4599.got.cif
#   From: 2010.05.17/outbox.cif.g08.bks.cpg/sg34_3_cif.got.tgz:4599.got - 2010.06.03 17:23:11.
