data_PCOD9347430
_publ_section_title
;
Structure prediction by ZEFSAII (Michael W. Deem and Ramdas Pophale) SiO2 
 PCOD9347430
Probable space group: P N N 2
;
_chemical_formula_sum "Si O2"
_cell_formula_units_Z 30
_cell_length_a 14.209396
_cell_length_b 12.424865
_cell_length_c 8.781314
_cell_angle_alpha 90.000000
_cell_angle_beta 90.000000
_cell_angle_gamma 90.000000
_cell_volume 1550.339468
_symmetry_space_group_name_H-M "P N N 2"
_symmetry_group_IT_number 34
_symmetry_cell_setting 'orthorhombic'
loop_
_space_group_symop_operation_xyz
x,y,z
-x,-y,z
1/2-x,1/2+y,1/2+z
1/2+x,1/2-y,1/2+z
loop_
_atom_site_type_symbol
_atom_site_label
_atom_site_fract_x
_atom_site_fract_y
_atom_site_fract_z
Si Si1 0.192931 0.222027 0.993990
Si Si2 0.100826 0.693657 0.005756
Si Si3 0.292398 0.647129 0.153682
Si Si4 0.853441 0.247431 0.691231
Si Si5 0.196997 0.415948 0.191429
Si Si6 0.517263 0.373754 0.648546
Si Si7 0.988719 0.871463 0.498889
Si Si8 0.500000 0.000000 0.683217
O O1 0.181999 0.191591 0.819934
O O2 0.298002 0.197138 0.052544
O O3 0.176889 0.348533 0.034781
O O4 0.122892 0.156124 0.101826
O O5 0.201831 0.705063 0.084760
O O6 0.044968 0.803263 0.035137
O O7 0.112634 0.677454 0.826186
O O8 0.045711 0.595655 0.084193
O O9 0.256604 0.523711 0.166447
O O10 0.382984 0.655753 0.047664
O O11 0.772008 0.168417 0.762751
O O12 0.937477 0.181670 0.614176
O O13 0.094463 0.447102 0.260312
O O14 0.500000 0.500000 0.633337
O O15 0.495661 0.340202 0.822572
O O16 0.000000 0.000000 0.507777
#
# Coordination Sequence:
#
# PCOD9347430 Si02
#       8
#     4   4   4   4   4   4   4   2
#     4  10  21  40  58  91 124 161 211 267 306 380
#     4  11  22  39  63  93 120 171 211 258 318 389
#     4  11  22  36  65  88 120 172 212 248 331 375
#     4  10  21  38  62  84 132 157 212 263 310 371
#     4   9  21  38  62  88 124 169 206 264 311 385
#     4  11  24  37  64  93 127 160 212 266 315 368
#     4  11  21  38  58  92 123 165 206 259 315 375
#     4  10  20  40  64  86 126 168 208 246 334 374
#
# _framework density 19.350601000000001
#
# number of rings (size 3 to 8) (size 9 to 14) (size 15 to 20)
#    0.800    0.800    2.667    2.400    1.867    1.067 
#    0.000    0.000    2.933    0.000    0.000    0.000 
#    0.000    0.000    0.000    0.000    0.000    0.000 
#
# Total GULP energy -167117.617933 kJ/mol
# GULP energy per Si atom -5570.587264 kJ/mol
# Density = 1.930656 g / cm^3
# Si number density = 19.350601 Si / 1000 Ang^3
#
#
#
# Elastic Constant Matrix: (Units=GPa)
#
#
# Indices 1 2 3 4 5 6 
#
# 1 109.6303 5.3721 -5.6786 0.0000 0.0000 0.0000
# 2 5.3721 46.9226 -1.4471 0.0000 0.0000 0.0000
# 3 -5.6786 -1.4471 41.4229 0.0000 0.0000 0.0000
# 4 0.0000 0.0000 0.0000 16.2756 0.0000 0.0000
# 5 0.0000 0.0000 0.0000 0.0000 8.2241 0.0000
# 6 0.0000 0.0000 0.0000 0.0000 0.0000 23.9720
#
#
#
# Elastic Compliance Matrix: (Units=1/GPa)
#
#
# Indices 1 2 3 4 5 6 
#
# 1 0.009235 -0.001019 0.001230 0.000000 0.000000 0.000000
# 2 -0.001019 0.021447 0.000610 0.000000 0.000000 0.000000
# 3 0.001230 0.000610 0.024331 0.000000 0.000000 0.000000
# 4 0.000000 0.000000 0.000000 0.061442 0.000000 0.000000
# 5 0.000000 0.000000 0.000000 0.000000 0.121594 0.000000
# 6 0.000000 0.000000 0.000000 0.000000 0.000000 0.041715
#
#
# Mechanical properties :
#
#
# Convention : Reuss Voigt Hill
#
# Bulk Modulus (GPa) = 17.65075 21.60762 19.62918
# Shear Modulus (GPa) = 16.83453 23.00963 19.92208
#
# Velocity S-wave (km/s) = 2.95273 3.45206 3.21211
# Velocity P-wave (km/s) = 4.55699 5.20381 4.89110
#
# Compressibility (1/GPa) = 0.05665483
#
# Stress axis : x y z
#
# Youngs Moduli (GPa) = 108.28081 46.62610 41.09944
#
# Poissons Ratio (x) = 0.04753 -0.05057
# Poissons Ratio (y) = 0.11038 -0.02505
# Poissons Ratio (z) = -0.13323 -0.02842
#
# Static dielectric constant tensor:
#      x y z
#    x 1.711750 0.000000 0.000000 
#    y 0.000000 1.670730 0.000000 
#    z 0.000000 0.000000 1.641280 
# 
# From -- ./inp_files/3658.got.cif
#   From: 2010.05.17/outbox.cif.g08.bks.cpg/sg34_2_cif.got.tgz:3658.got - 2010.06.03 17:23:11.
