data_PCOD9347349
_publ_section_title
;
Structure prediction by ZEFSAII (Michael W. Deem and Ramdas Pophale) SiO2 
 PCOD9347349
Probable space group: P N N 2
;
_chemical_formula_sum "Si O2"
_cell_formula_units_Z 24
_cell_length_a 16.763527
_cell_length_b 7.790022
_cell_length_c 8.255456
_cell_angle_alpha 90.000000
_cell_angle_beta 90.000000
_cell_angle_gamma 90.000000
_cell_volume 1078.065504
_symmetry_space_group_name_H-M "P N N 2"
_symmetry_group_IT_number 34
_symmetry_cell_setting 'orthorhombic'
loop_
_space_group_symop_operation_xyz
x,y,z
-x,-y,z
1/2-x,1/2+y,1/2+z
1/2+x,1/2-y,1/2+z
loop_
_atom_site_type_symbol
_atom_site_label
_atom_site_fract_x
_atom_site_fract_y
_atom_site_fract_z
Si Si1 0.789875 0.531965 0.755080
Si Si2 0.128160 0.099898 0.750405
Si Si3 0.056896 0.233220 0.075302
Si Si4 0.615297 0.891180 0.518404
Si Si5 0.739468 0.620745 0.450137
Si Si6 0.133659 0.104030 0.390247
O O1 0.823792 0.721813 0.742596
O O2 0.862266 0.422812 0.829402
O O3 0.762134 0.473145 0.577536
O O4 0.710217 0.519459 0.863121
O O5 0.096318 0.072338 0.567818
O O6 0.188784 0.951813 0.803514
O O7 0.073231 0.130503 0.908333
O O8 0.077851 0.120657 0.233201
O O9 0.109004 0.411608 0.078933
O O10 0.966631 0.300596 0.064087
O O11 0.685734 0.756541 0.553949
O O12 0.819351 0.714208 0.396726
#
# Coordination Sequence:
#
# PCOD9347349 Si02
#       6
#     4   4   4   4   4   4
#     4   9  19  36  56  90 110 153 205 254 309 368
#     4  10  21  34  60  85 122 152 201 264 304 373
#     4  10  20  41  61  82 127 166 201 261 314 387
#     4   9  21  37  62  86 121 170 206 250 330 374
#     4  10  20  35  62  91 118 157 208 265 308 373
#     4  10  21  35  59  89 116 155 210 250 314 375
#
# _framework density 22.262097000000001
#
# number of rings (size 3 to 8) (size 9 to 14) (size 15 to 20)
#    0.000    2.333    1.667    0.000    9.333    0.667 
#    0.000   10.000    7.333    0.000    0.000    0.000 
#    0.000    0.000    0.000    0.000    0.000    0.000 
#
# Total GULP energy -133602.986661 kJ/mol
# GULP energy per Si atom -5566.791111 kJ/mol
# Density = 2.221143 g / cm^3
# Si number density = 22.262097 Si / 1000 Ang^3
#
#
#
# Elastic Constant Matrix: (Units=GPa)
#
#
# Indices 1 2 3 4 5 6 
#
# 1 70.1468 2.1687 51.8691 0.0000 0.0000 0.0000
# 2 2.1687 25.2192 25.9147 0.0000 0.0000 0.0000
# 3 51.8691 25.9147 159.6982 0.0000 0.0000 0.0000
# 4 0.0000 0.0000 0.0000 35.9288 0.0000 0.0000
# 5 0.0000 0.0000 0.0000 0.0000 13.0391 0.0000
# 6 0.0000 0.0000 0.0000 0.0000 0.0000 32.1450
#
#
#
# Elastic Compliance Matrix: (Units=1/GPa)
#
#
# Indices 1 2 3 4 5 6 
#
# 1 0.019439 0.005780 -0.007252 0.000000 0.000000 0.000000
# 2 0.005780 0.049306 -0.009878 0.000000 0.000000 0.000000
# 3 -0.007252 -0.009878 0.010220 0.000000 0.000000 0.000000
# 4 0.000000 0.000000 0.000000 0.027833 0.000000 0.000000
# 5 0.000000 0.000000 0.000000 0.000000 0.076693 0.000000
# 6 0.000000 0.000000 0.000000 0.000000 0.000000 0.031109
#
#
# Mechanical properties :
#
#
# Convention : Reuss Voigt Hill
#
# Bulk Modulus (GPa) = 17.77294 46.10769 31.94032
# Shear Modulus (GPa) = 19.52705 27.89669 23.71187
#
# Velocity S-wave (km/s) = 2.96487 3.54376 3.26716
# Velocity P-wave (km/s) = 4.44089 6.12377 5.34893
#
# Compressibility (1/GPa) = 0.05626530
#
# Stress axis : x y z
#
# Youngs Moduli (GPa) = 51.44223 20.28151 97.84635
#
# Poissons Ratio (x) = -0.11723 0.70955
# Poissons Ratio (y) = -0.29734 0.96656
# Poissons Ratio (z) = 0.37304 0.20035
#
# Static dielectric constant tensor:
#      x y z
#    x 1.819240 0.000000 0.000000 
#    y 0.000000 1.876770 0.000000 
#    z 0.000000 0.000000 1.939240 
# 
# From -- ./inp_files/2710.got.cif
#   From: 2010.05.17/outbox.cif.g08.bks.cpg/sg34_2_cif.got.tgz:2710.got - 2010.06.03 17:23:11.
