data_PCOD9347360
_publ_section_title
;
Structure prediction by ZEFSAII (Michael W. Deem and Ramdas Pophale) SiO2 
 PCOD9347360
Probable space group: P N N 2
;
_chemical_formula_sum "Si O2"
_cell_formula_units_Z 30
_cell_length_a 9.063309
_cell_length_b 5.118271
_cell_length_c 30.274941
_cell_angle_alpha 90.000000
_cell_angle_beta 90.000000
_cell_angle_gamma 90.000000
_cell_volume 1404.408241
_symmetry_space_group_name_H-M "P N N 2"
_symmetry_group_IT_number 34
_symmetry_cell_setting 'orthorhombic'
loop_
_space_group_symop_operation_xyz
x,y,z
-x,-y,z
1/2-x,1/2+y,1/2+z
1/2+x,1/2-y,1/2+z
loop_
_atom_site_type_symbol
_atom_site_label
_atom_site_fract_x
_atom_site_fract_y
_atom_site_fract_z
Si Si1 0.830516 0.476099 0.087780
Si Si2 0.836191 0.120526 0.321749
Si Si3 0.322039 0.508372 0.721318
Si Si4 0.000000 0.500000 0.370139
Si Si5 0.290715 0.842914 0.941125
Si Si6 0.675780 0.490805 0.178554
Si Si7 0.158066 0.371395 0.907539
Si Si8 0.828368 0.974902 0.028334
O O1 0.720324 0.531486 0.127658
O O2 0.813716 0.190326 0.066816
O O3 0.000000 0.500000 0.104555
O O4 0.812798 0.691379 0.049616
O O5 0.789242 0.060926 0.272500
O O6 0.872401 0.417040 0.336235
O O7 0.724589 0.046114 0.360099
O O8 0.000000 0.000000 0.327390
O O9 0.500000 0.500000 0.715837
O O10 0.256780 0.787008 0.707491
O O11 0.243432 0.287334 0.692422
O O12 0.928250 0.685104 0.407567
O O13 0.237284 0.546345 0.944581
O O14 0.187067 0.065833 0.917022
O O15 0.288873 0.958040 0.990235
O O16 0.500000 0.500000 0.184888
O O17 0.000000 0.500000 0.908486
O O18 0.000000 0.000000 0.011171
#
# Coordination Sequence:
#
# PCOD9347360 Si02
#       8
#     4   4   4   2   4   4   4   4
#     4  10  21  40  65  89 125 167 216 263 323 397
#     4  10  22  40  64  88 128 165 221 263 324 371
#     4  11  25  42  73  98 127 175 232 274 317 417
#     4  10  22  40  62  90 132 176 210 276 318 386
#     4  11  22  38  59  89 127 168 214 261 317 374
#     4  12  26  46  67 101 138 172 210 283 358 402
#     4  11  22  36  59  87 124 167 206 260 320 375
#     4  10  20  36  61  92 121 164 216 270 308 379
#
# _framework density 21.361308999999999
#
# number of rings (size 3 to 8) (size 9 to 14) (size 15 to 20)
#    0.000    1.333    1.333    4.400    3.733    3.200 
#    2.400    0.000    0.000    0.000    0.000    0.000 
#    0.000    0.000    0.000    0.000    0.000    0.000 
#
# Total GULP energy -167228.455942 kJ/mol
# GULP energy per Si atom -5574.281865 kJ/mol
# Density = 2.131269 g / cm^3
# Si number density = 21.361309 Si / 1000 Ang^3
#
#
#
# Elastic Constant Matrix: (Units=GPa)
#
#
# Indices 1 2 3 4 5 6 
#
# 1 39.3280 1.1042 11.8515 0.0000 0.0000 0.0000
# 2 1.1042 65.7641 -13.3325 0.0000 0.0000 0.0000
# 3 11.8515 -13.3325 77.8991 0.0000 0.0000 0.0000
# 4 0.0000 0.0000 0.0000 23.8376 0.0000 0.0000
# 5 0.0000 0.0000 0.0000 0.0000 16.4063 0.0000
# 6 0.0000 0.0000 0.0000 0.0000 0.0000 20.8262
#
#
#
# Elastic Compliance Matrix: (Units=1/GPa)
#
#
# Indices 1 2 3 4 5 6 
#
# 1 0.026759 -0.001320 -0.004297 0.000000 0.000000 0.000000
# 2 -0.001320 0.015818 0.002908 0.000000 0.000000 0.000000
# 3 -0.004297 0.002908 0.013989 0.000000 0.000000 0.000000
# 4 0.000000 0.000000 0.000000 0.041951 0.000000 0.000000
# 5 0.000000 0.000000 0.000000 0.000000 0.060952 0.000000
# 6 0.000000 0.000000 0.000000 0.000000 0.000000 0.048016
#
#
# Mechanical properties :
#
#
# Convention : Reuss Voigt Hill
#
# Bulk Modulus (GPa) = 19.55170 20.24862 19.90016
# Shear Modulus (GPa) = 21.74365 24.43856 23.09111
#
# Velocity S-wave (km/s) = 3.19391 3.38606 3.29139
# Velocity P-wave (km/s) = 4.77223 4.97864 4.87653
#
# Compressibility (1/GPa) = 0.05114644
#
# Stress axis : x y z
#
# Youngs Moduli (GPa) = 37.37035 63.22072 71.48685
#
# Poissons Ratio (x) = 0.08348 0.30719
# Poissons Ratio (y) = 0.04935 -0.20789
# Poissons Ratio (z) = 0.16058 -0.18385
#
# Static dielectric constant tensor:
#      x y z
#    x 1.853480 0.000000 0.000000 
#    y 0.000000 1.927870 0.000000 
#    z 0.000000 0.000000 1.732520 
# 
# From -- ./inp_files/8684.got.cif
#   From: 2010.05.17/outbox.cif.g08.bks.cpg/sg34_5_cif.got.tgz:8684.got - 2010.06.03 17:23:11.
