data_PCOD9347448
_publ_section_title
;
Structure prediction by ZEFSAII (Michael W. Deem and Ramdas Pophale) SiO2 
 PCOD9347448
Probable space group: P N N 2
;
_chemical_formula_sum "Si O2"
_cell_formula_units_Z 32
_cell_length_a 12.236337
_cell_length_b 9.305961
_cell_length_c 13.416294
_cell_angle_alpha 90.000000
_cell_angle_beta 90.000000
_cell_angle_gamma 90.000000
_cell_volume 1527.725136
_symmetry_space_group_name_H-M "P N N 2"
_symmetry_group_IT_number 34
_symmetry_cell_setting 'orthorhombic'
loop_
_space_group_symop_operation_xyz
x,y,z
-x,-y,z
1/2-x,1/2+y,1/2+z
1/2+x,1/2-y,1/2+z
loop_
_atom_site_type_symbol
_atom_site_label
_atom_site_fract_x
_atom_site_fract_y
_atom_site_fract_z
Si Si1 0.657632 0.052513 0.304230
Si Si2 0.255493 0.276659 0.652130
Si Si3 0.063744 0.348952 0.305650
Si Si4 0.227107 0.956357 0.716885
Si Si5 0.948160 0.268360 0.726388
Si Si6 0.886612 0.590367 0.029410
Si Si7 0.995701 0.170408 0.112916
Si Si8 0.956046 0.662562 0.526407
O O1 0.760548 0.113796 0.245076
O O2 0.558967 0.165566 0.275747
O O3 0.658933 0.043873 0.422608
O O4 0.632686 0.898109 0.256243
O O5 0.372162 0.273975 0.600501
O O6 0.164856 0.326846 0.573056
O O7 0.221721 0.126208 0.701927
O O8 0.188804 0.399499 0.299641
O O9 0.038584 0.285286 0.413727
O O10 0.000000 0.500000 0.290385
O O11 0.035134 0.239614 0.217657
O O12 0.113039 0.881103 0.744267
O O13 0.292695 0.917482 0.613615
O O14 0.970185 0.260930 0.608370
O O15 0.000000 0.500000 0.050454
O O16 0.928474 0.754599 0.030318
O O17 0.000000 0.000000 0.111516
O O18 0.000000 0.500000 0.525413
#
# Coordination Sequence:
#
# PCOD9347448 Si02
#       8
#     4   4   4   4   4   4   4   4
#     4  10  22  40  65  89 124 169 211 255 310 388
#     4  11  22  42  61  93 125 164 208 261 318 367
#     4  10  21  43  63  88 126 170 205 253 326 378
#     4  11  23  38  65  92 125 163 208 264 317 378
#     4  10  20  41  63  88 122 169 202 257 313 367
#     4  11  21  44  66  90 125 170 209 254 323 377
#     4  11  24  42  63  94 133 162 208 274 312 374
#     4  10  21  39  66  88 124 169 209 258 309 385
#
# _framework density 20.946175
#
# number of rings (size 3 to 8) (size 9 to 14) (size 15 to 20)
#    0.000    1.500    6.250    0.750    3.500    5.000 
#    6.750    0.000    0.000    0.000    0.000    0.000 
#    0.000    0.000    0.000    0.000    0.000    0.000 
#
# Total GULP energy -178374.298645 kJ/mol
# GULP energy per Si atom -5574.196833 kJ/mol
# Density = 2.089850 g / cm^3
# Si number density = 20.946175 Si / 1000 Ang^3
#
#
#
# Elastic Constant Matrix: (Units=GPa)
#
#
# Indices 1 2 3 4 5 6 
#
# 1 26.9018 12.6633 -10.5465 0.0000 0.0000 0.0000
# 2 12.6633 80.4605 -0.6642 0.0000 0.0000 0.0000
# 3 -10.5465 -0.6642 77.3513 0.0000 0.0000 0.0000
# 4 0.0000 0.0000 0.0000 7.7704 0.0000 0.0000
# 5 0.0000 0.0000 0.0000 0.0000 7.4337 0.0000
# 6 0.0000 0.0000 0.0000 0.0000 0.0000 35.3930
#
#
#
# Elastic Compliance Matrix: (Units=1/GPa)
#
#
# Indices 1 2 3 4 5 6 
#
# 1 0.042555 -0.006650 0.005745 0.000000 0.000000 0.000000
# 2 -0.006650 0.013469 -0.000791 0.000000 0.000000 0.000000
# 3 0.005745 -0.000791 0.013705 0.000000 0.000000 0.000000
# 4 0.000000 0.000000 0.000000 0.128694 0.000000 0.000000
# 5 0.000000 0.000000 0.000000 0.000000 0.134522 0.000000
# 6 0.000000 0.000000 0.000000 0.000000 0.000000 0.028254
#
#
# Mechanical properties :
#
#
# Convention : Reuss Voigt Hill
#
# Bulk Modulus (GPa) = 15.07479 20.84652 17.96066
# Shear Modulus (GPa) = 12.92984 22.33682 17.63333
#
# Velocity S-wave (km/s) = 2.48723 3.26911 2.90460
# Velocity P-wave (km/s) = 3.93204 4.92173 4.45446
#
# Compressibility (1/GPa) = 0.06633590
#
# Stress axis : x y z
#
# Youngs Moduli (GPa) = 23.49906 74.24698 72.96841
#
# Poissons Ratio (x) = 0.49375 -0.41921
# Poissons Ratio (y) = 0.15627 0.05772
# Poissons Ratio (z) = -0.13500 0.05873
#
# Static dielectric constant tensor:
#      x y z
#    x 1.797810 0.000000 0.000000 
#    y 0.000000 1.753160 0.000000 
#    z 0.000000 0.000000 1.764930 
# 
# From -- ./inp_files/6843.got.cif
#   From: 2010.05.17/outbox.cif.g08.bks.cpg/sg34_4_cif.got.tgz:6843.got - 2010.06.03 17:23:11.
