data_PCOD9347645
_publ_section_title
;
Structure prediction by ZEFSAII (Michael W. Deem and Ramdas Pophale) SiO2 
 PCOD9347645
Probable space group: P N N 2
;
_chemical_formula_sum "Si O2"
_cell_formula_units_Z 20
_cell_length_a 10.294346
_cell_length_b 10.347906
_cell_length_c 8.872979
_cell_angle_alpha 90.000000
_cell_angle_beta 90.000000
_cell_angle_gamma 90.000000
_cell_volume 945.193420
_symmetry_space_group_name_H-M "P N N 2"
_symmetry_group_IT_number 34
_symmetry_cell_setting 'orthorhombic'
loop_
_space_group_symop_operation_xyz
x,y,z
-x,-y,z
1/2-x,1/2+y,1/2+z
1/2+x,1/2-y,1/2+z
loop_
_atom_site_type_symbol
_atom_site_label
_atom_site_fract_x
_atom_site_fract_y
_atom_site_fract_z
Si Si1 0.100823 0.259306 0.902570
Si Si2 0.380213 0.666702 0.096153
Si Si3 0.000000 0.000000 0.363163
Si Si4 0.000000 0.500000 0.707830
Si Si5 0.899177 0.240694 0.168423
Si Si6 0.619787 0.833298 0.974840
O O1 0.091935 0.147435 0.773832
O O2 0.064361 0.390181 0.812536
O O3 0.244267 0.242615 0.971712
O O4 0.000000 0.250000 0.035496
O O5 0.244267 0.742615 0.099281
O O6 0.387430 0.550041 0.978123
O O7 0.500000 0.750000 0.035496
O O8 0.064361 0.890181 0.258457
O O9 0.112570 0.550041 0.592870
O O10 0.908065 0.352565 0.297161
#
# Coordination Sequence:
#
# PCOD9347645 Si02
#       6
#     4   4   2   2   4   4
#     4  10  22  39  63  96 124 165 225 261 309 397
#     4   9  21  39  59  92 128 165 213 258 318 389
#     4  10  22  42  66  90 138 178 198 276 336 358
#     4  10  22  42  66  90 138 178 198 276 336 358
#     4  10  22  39  63  96 124 165 225 261 309 397
#     4   9  21  39  59  92 128 165 213 258 318 389
#
# _framework density 21.159690000000001
#
# number of rings (size 3 to 8) (size 9 to 14) (size 15 to 20)
#    0.000    2.400    0.000    0.000    0.000   20.800 
#    0.000   12.000    0.000    0.000    0.000    0.000 
#    0.000    0.000    0.000    0.000    0.000    0.000 
#
# Total GULP energy -111360.419770 kJ/mol
# GULP energy per Si atom -5568.020989 kJ/mol
# Density = 2.111153 g / cm^3
# Si number density = 21.159690 Si / 1000 Ang^3
#
#
#
# Elastic Constant Matrix: (Units=GPa)
#
#
# Indices 1 2 3 4 5 6 
#
# 1 178.6191 49.7134 117.8898 0.0000 0.0000 0.0000
# 2 49.7134 96.3938 75.2560 0.0000 0.0000 0.0000
# 3 117.8898 75.2560 178.9708 0.0000 0.0000 0.0000
# 4 0.0000 0.0000 0.0000 61.9506 0.0000 0.0000
# 5 0.0000 0.0000 0.0000 0.0000 44.7932 0.0000
# 6 0.0000 0.0000 0.0000 0.0000 0.0000 24.5444
#
#
#
# Elastic Compliance Matrix: (Units=1/GPa)
#
#
# Indices 1 2 3 4 5 6 
#
# 1 0.009905 -0.000022 -0.006515 0.000000 0.000000 0.000000
# 2 -0.000022 0.015444 -0.006480 0.000000 0.000000 0.000000
# 3 -0.006515 -0.006480 0.012604 0.000000 0.000000 0.000000
# 4 0.000000 0.000000 0.000000 0.016142 0.000000 0.000000
# 5 0.000000 0.000000 0.000000 0.000000 0.022325 0.000000
# 6 0.000000 0.000000 0.000000 0.000000 0.000000 0.040743
#
#
# Mechanical properties :
#
#
# Convention : Reuss Voigt Hill
#
# Bulk Modulus (GPa) = 83.89806 104.41137 94.15471
# Shear Modulus (GPa) = 33.97467 40.33260 37.15364
#
# Velocity S-wave (km/s) = 4.01138 4.37063 4.19485
# Velocity P-wave (km/s) = 7.82246 8.65572 8.24962
#
# Compressibility (1/GPa) = 0.01191923
#
# Stress axis : x y z
#
# Youngs Moduli (GPa) = 100.96356 64.74896 79.34076
#
# Poissons Ratio (x) = 0.00140 0.51692
# Poissons Ratio (y) = 0.00219 0.51412
# Poissons Ratio (z) = 0.65779 0.41957
#
# Static dielectric constant tensor:
#      x y z
#    x 5.211460 0.000000 0.000000 
#    y 0.000000 1.913070 0.000000 
#    z 0.000000 0.000000 1.797680 
# 
# From -- ./inp_files/2482.got.cif
#   From: 2010.05.17/outbox.cif.g08.bks.cpg/sg34_2_cif.got.tgz:2482.got - 2010.06.03 17:23:11.
