data_PCOD9347749
_publ_section_title
;
Structure prediction by ZEFSAII (Michael W. Deem and Ramdas Pophale) SiO2 
 PCOD9347749
Probable space group: P N N 2
;
_chemical_formula_sum "Si O2"
_cell_formula_units_Z 30
_cell_length_a 9.383569
_cell_length_b 15.674735
_cell_length_c 10.164282
_cell_angle_alpha 90.000000
_cell_angle_beta 90.000000
_cell_angle_gamma 90.000000
_cell_volume 1495.012985
_symmetry_space_group_name_H-M "P N N 2"
_symmetry_group_IT_number 34
_symmetry_cell_setting 'orthorhombic'
loop_
_space_group_symop_operation_xyz
x,y,z
-x,-y,z
1/2-x,1/2+y,1/2+z
1/2+x,1/2-y,1/2+z
loop_
_atom_site_type_symbol
_atom_site_label
_atom_site_fract_x
_atom_site_fract_y
_atom_site_fract_z
Si Si1 0.314039 0.696288 0.523830
Si Si2 0.661932 0.337700 0.224039
Si Si3 0.000000 0.000000 0.807818
Si Si4 0.153849 0.031026 0.198809
Si Si5 0.933858 0.288464 0.080880
Si Si6 0.486743 0.813380 0.073303
Si Si7 0.921051 0.412562 0.835956
Si Si8 0.288281 0.390000 0.497459
O O1 0.359801 0.696691 0.372121
O O2 0.353192 0.605669 0.589715
O O3 0.400888 0.766112 0.608060
O O4 0.144507 0.705197 0.522229
O O5 0.592823 0.431520 0.226263
O O6 0.829274 0.330329 0.187657
O O7 0.583415 0.274197 0.123891
O O8 0.115264 0.944034 0.894178
O O9 0.255964 0.066381 0.309911
O O10 0.221752 0.950860 0.124486
O O11 0.000000 0.000000 0.243444
O O12 0.868210 0.196649 0.039297
O O13 0.933110 0.348302 0.954795
O O14 0.515892 0.872051 0.202045
O O15 0.375635 0.860235 0.974841
O O16 0.000000 0.500000 0.865413
#
# Coordination Sequence:
#
# PCOD9347749 Si02
#       8
#     4   4   2   4   4   4   4   4
#     4  11  21  42  67  93 127 165 224 276 324 381
#     4  11  23  44  65  91 131 175 216 267 334 395
#     4  12  20  42  72  92 138 176 218 282 328 394
#     4  11  19  36  68 100 115 164 222 273 311 374
#     4  11  23  43  62  93 130 172 212 260 343 400
#     4  10  23  39  67  98 123 167 226 275 316 384
#     4  11  22  39  61  89 133 165 206 271 326 382
#     4  11  18  38  68  96 122 167 222 269 315 379
#
# _framework density 20.066714000000001
#
# number of rings (size 3 to 8) (size 9 to 14) (size 15 to 20)
#    0.000    1.067    7.333    0.000    0.000    0.000 
#   15.600    0.000    0.000    0.000    0.000    0.000 
#    0.000    0.000    0.000    0.000    0.000    0.000 
#
# Total GULP energy -167332.085612 kJ/mol
# GULP energy per Si atom -5577.736187 kJ/mol
# Density = 2.002104 g / cm^3
# Si number density = 20.066714 Si / 1000 Ang^3
#
#
#
# Elastic Constant Matrix: (Units=GPa)
#
#
# Indices 1 2 3 4 5 6 
#
# 1 152.3762 39.5556 17.5646 0.0000 0.0000 0.0000
# 2 39.5556 95.3358 26.6262 0.0000 0.0000 0.0000
# 3 17.5646 26.6262 32.0130 0.0000 0.0000 0.0000
# 4 0.0000 0.0000 0.0000 -5.5069 0.0000 0.0000
# 5 0.0000 0.0000 0.0000 0.0000 26.5516 0.0000
# 6 0.0000 0.0000 0.0000 0.0000 0.0000 18.8728
#
#
#
# Elastic Compliance Matrix: (Units=1/GPa)
#
#
# Indices 1 2 3 4 5 6 
#
# 1 0.007450 -0.002539 -0.001975 0.000000 0.000000 0.000000
# 2 -0.002539 0.014529 -0.010691 0.000000 0.000000 0.000000
# 3 -0.001975 -0.010691 0.041213 0.000000 0.000000 0.000000
# 4 0.000000 0.000000 0.000000 -0.181590 0.000000 0.000000
# 5 0.000000 0.000000 0.000000 0.000000 0.037663 0.000000
# 6 0.000000 0.000000 0.000000 0.000000 0.000000 0.052986
#
#
# Mechanical properties :
#
#
# Convention : Reuss Voigt Hill
#
# Bulk Modulus (GPa) = 30.50600 49.69086 40.09843
# Shear Modulus (GPa) = 367.97644 21.04873 194.51259
#
# Velocity S-wave (km/s) = 13.55635 3.24224 9.85613
# Velocity P-wave (km/s) = 16.13283 6.23160 12.22908
#
# Compressibility (1/GPa) = 0.03278044
#
# Stress axis : x y z
#
# Youngs Moduli (GPa) = 134.23614 68.82999 24.26425
#
# Poissons Ratio (x) = 0.17477 0.04793
# Poissons Ratio (y) = 0.34085 0.25940
# Poissons Ratio (z) = 0.26518 0.73584
#
# Static dielectric constant tensor:
#      x y z
#    x 1.794390 0.000000 0.000000 
#    y 0.000000 1.691820 0.000000 
#    z 0.000000 0.000000 1.694850 
# 
# From -- ./inp_files/5078.got.cif
#   From: 2010.05.17/outbox.cif.g08.bks.cpg/sg34_3_cif.got.tgz:5078.got - 2010.06.03 17:23:11.
