data_PCOD9347545
_publ_section_title
;
Structure prediction by ZEFSAII (Michael W. Deem and Ramdas Pophale) SiO2 
 PCOD9347545
Probable space group: P N N 2
;
_chemical_formula_sum "Si O2"
_cell_formula_units_Z 32
_cell_length_a 8.679151
_cell_length_b 13.214756
_cell_length_c 12.490404
_cell_angle_alpha 90.000000
_cell_angle_beta 90.000000
_cell_angle_gamma 90.000000
_cell_volume 1432.560192
_symmetry_space_group_name_H-M "P N N 2"
_symmetry_group_IT_number 34
_symmetry_cell_setting 'orthorhombic'
loop_
_space_group_symop_operation_xyz
x,y,z
-x,-y,z
1/2-x,1/2+y,1/2+z
1/2+x,1/2-y,1/2+z
loop_
_atom_site_type_symbol
_atom_site_label
_atom_site_fract_x
_atom_site_fract_y
_atom_site_fract_z
Si Si1 0.959205 0.198991 0.644160
Si Si2 0.837215 0.734526 0.037765
Si Si3 0.915568 0.892477 0.422769
Si Si4 0.213952 0.091375 0.748847
Si Si5 0.377008 0.917117 0.157560
Si Si6 0.671651 0.691315 0.815603
Si Si7 0.386783 0.090547 0.531157
Si Si8 0.321053 0.528576 0.481518
O O1 0.776290 0.201247 0.633376
O O2 0.026329 0.156316 0.533345
O O3 0.035530 0.125010 0.731143
O O4 0.030248 0.311319 0.650707
O O5 0.817381 0.854822 0.022436
O O6 0.008838 0.690486 0.048718
O O7 0.763925 0.688233 0.928311
O O8 0.734042 0.895813 0.435401
O O9 0.990870 0.825450 0.331105
O O10 0.000000 0.000000 0.414242
O O11 0.296514 0.198592 0.769865
O O12 0.290477 0.056883 0.637478
O O13 0.227827 0.027661 0.856513
O O14 0.242027 0.894448 0.240924
O O15 0.500000 0.000000 0.192661
O O16 0.293526 0.958554 0.050561
O O17 0.500000 0.000000 0.505581
O O18 0.500000 0.500000 0.491336
#
# Coordination Sequence:
#
# PCOD9347545 Si02
#       8
#     4   4   4   4   4   4   4   4
#     4   9  19  41  70  90 129 176 216 275 334 401
#     4  10  21  42  65  98 131 174 224 283 340 406
#     4  10  21  39  65  92 123 168 215 274 334 392
#     4   9  22  43  62  94 132 172 225 273 332 405
#     4  11  22  41  69  98 132 180 219 275 341 401
#     4   9  21  41  63  91 132 167 222 272 330 411
#     4  11  23  40  67  95 127 169 222 285 340 404
#     4  11  25  40  64  96 143 180 224 280 338 418
#
# _framework density 22.337629
#
# number of rings (size 3 to 8) (size 9 to 14) (size 15 to 20)
#    0.000    2.000    1.250    1.500    5.250    5.500 
#    0.000    3.750    0.000    0.000    0.000    0.000 
#    0.000    0.000    0.000    0.000    0.000    0.000 
#
# Total GULP energy -178773.996998 kJ/mol
# GULP energy per Si atom -5586.687406 kJ/mol
# Density = 2.228679 g / cm^3
# Si number density = 22.337629 Si / 1000 Ang^3
#
#
#
# Elastic Constant Matrix: (Units=GPa)
#
#
# Indices 1 2 3 4 5 6 
#
# 1 132.4695 15.1688 36.7217 0.0000 0.0000 0.0000
# 2 15.1688 48.3444 15.7750 0.0000 0.0000 0.0000
# 3 36.7217 15.7750 70.9350 0.0000 0.0000 0.0000
# 4 0.0000 0.0000 0.0000 21.2298 0.0000 0.0000
# 5 0.0000 0.0000 0.0000 0.0000 341.9522 0.0000
# 6 0.0000 0.0000 0.0000 0.0000 0.0000 26.3101
#
#
#
# Elastic Compliance Matrix: (Units=1/GPa)
#
#
# Indices 1 2 3 4 5 6 
#
# 1 0.008900 -0.001390 -0.004298 0.000000 0.000000 0.000000
# 2 -0.001390 0.022520 -0.004289 0.000000 0.000000 0.000000
# 3 -0.004298 -0.004289 0.017276 0.000000 0.000000 0.000000
# 4 0.000000 0.000000 0.000000 0.047104 0.000000 0.000000
# 5 0.000000 0.000000 0.000000 0.000000 0.002924 0.000000
# 6 0.000000 0.000000 0.000000 0.000000 0.000000 0.038008
#
#
# Mechanical properties :
#
#
# Convention : Reuss Voigt Hill
#
# Bulk Modulus (GPa) = 34.79123 43.00886 38.90004
# Shear Modulus (GPa) = 30.07220 90.17065 60.12142
#
# Velocity S-wave (km/s) = 3.67312 6.36041 5.19358
# Velocity P-wave (km/s) = 5.79638 8.55777 7.30868
#
# Compressibility (1/GPa) = 0.02874288
#
# Stress axis : x y z
#
# Youngs Moduli (GPa) = 112.36575 44.40405 57.88321
#
# Poissons Ratio (x) = 0.06172 0.24878
# Poissons Ratio (y) = 0.15618 0.24825
# Poissons Ratio (z) = 0.48295 0.19044
#
# Static dielectric constant tensor:
#      x y z
#    x 1.798070 0.000000 0.000000 
#    y 0.000000 1.838020 0.000000 
#    z 0.000000 0.000000 1.835770 
# 
# From -- ./inp_files/5107.got.cif
#   From: 2010.05.17/outbox.cif.g08.bks.cpg/sg34_3_cif.got.tgz:5107.got - 2010.06.03 17:23:11.
