data_PCOD9347706
_publ_section_title
;
Structure prediction by ZEFSAII (Michael W. Deem and Ramdas Pophale) SiO2 
 PCOD9347706
Probable space group: P N N 2
;
_chemical_formula_sum "Si O2"
_cell_formula_units_Z 28
_cell_length_a 19.327386
_cell_length_b 5.142017
_cell_length_c 13.263443
_cell_angle_alpha 90.000000
_cell_angle_beta 90.000000
_cell_angle_gamma 90.000000
_cell_volume 1318.144142
_symmetry_space_group_name_H-M "P N N 2"
_symmetry_group_IT_number 34
_symmetry_cell_setting 'orthorhombic'
loop_
_space_group_symop_operation_xyz
x,y,z
-x,-y,z
1/2-x,1/2+y,1/2+z
1/2+x,1/2-y,1/2+z
loop_
_atom_site_type_symbol
_atom_site_label
_atom_site_fract_x
_atom_site_fract_y
_atom_site_fract_z
Si Si1 0.308519 0.746729 0.282940
Si Si2 0.343666 0.991924 0.069134
Si Si3 0.918759 0.022546 0.502181
Si Si4 0.082746 0.984518 0.083418
Si Si5 0.640881 0.008789 0.471791
Si Si6 0.752662 0.659016 0.402133
Si Si7 0.845289 0.040637 0.299081
O O1 0.362231 0.891406 0.356873
O O2 0.306280 0.454270 0.327950
O O3 0.226331 0.801833 0.297409
O O4 0.322102 0.857849 0.173105
O O5 0.383732 0.264175 0.075518
O O6 0.389786 0.765682 0.019488
O O7 0.279898 0.025848 0.991231
O O8 0.896207 0.113921 0.390191
O O9 0.000000 0.000000 0.513868
O O10 0.118014 0.245567 0.038551
O O11 0.099201 0.739333 0.011610
O O12 0.117021 0.943780 0.192889
O O13 0.000000 0.000000 0.092477
O O14 0.719781 0.897202 0.467359
O O15 0.814398 0.758948 0.330881
#
# Coordination Sequence:
#
# PCOD9347706 Si02
#       7
#     4   4   4   4   4   4   4
#     4  11  23  43  71 101 136 169 228 290 355 396
#     4  11  25  40  70 102 133 174 229 280 347 405
#     4  11  24  46  65  96 139 183 228 277 331 420
#     4  12  26  45  68 101 141 188 228 275 340 425
#     4  11  25  44  66  96 140 180 228 278 340 405
#     4  10  22  43  69 105 136 173 221 296 351 407
#     4  10  24  39  71 104 134 175 224 284 362 398
#
# _framework density 21.241987999999999
#
# number of rings (size 3 to 8) (size 9 to 14) (size 15 to 20)
#    0.000    1.143    2.857    2.143    8.000    0.000 
#    0.000    7.143    0.000    0.000    0.000    0.000 
#    0.000    0.000    0.000    0.000    0.000    0.000 
#
# Total GULP energy -156014.724423 kJ/mol
# GULP energy per Si atom -5571.954444 kJ/mol
# Density = 2.119364 g / cm^3
# Si number density = 21.241988 Si / 1000 Ang^3
#
#
#
# Elastic Constant Matrix: (Units=GPa)
#
#
# Indices 1 2 3 4 5 6 
#
# 1 75.4364 20.7901 23.3802 0.0000 0.0000 0.0000
# 2 20.7901 103.8255 5.5582 0.0000 0.0000 0.0000
# 3 23.3802 5.5582 92.8093 0.0000 0.0000 0.0000
# 4 0.0000 0.0000 0.0000 24.3336 0.0000 0.0000
# 5 0.0000 0.0000 0.0000 0.0000 22.9398 0.0000
# 6 0.0000 0.0000 0.0000 0.0000 0.0000 25.6481
#
#
#
# Elastic Compliance Matrix: (Units=1/GPa)
#
#
# Indices 1 2 3 4 5 6 
#
# 1 0.015171 -0.002842 -0.003652 0.000000 0.000000 0.000000
# 2 -0.002842 0.010195 0.000105 0.000000 0.000000 0.000000
# 3 -0.003652 0.000105 0.011688 0.000000 0.000000 0.000000
# 4 0.000000 0.000000 0.000000 0.041095 0.000000 0.000000
# 5 0.000000 0.000000 0.000000 0.000000 0.043592 0.000000
# 6 0.000000 0.000000 0.000000 0.000000 0.000000 0.038989
#
#
# Mechanical properties :
#
#
# Convention : Reuss Voigt Hill
#
# Bulk Modulus (GPa) = 41.19033 41.28091 41.23562
# Shear Modulus (GPa) = 27.53280 29.40716 28.46998
#
# Velocity S-wave (km/s) = 3.60411 3.72477 3.66494
# Velocity P-wave (km/s) = 6.06239 6.16234 6.11257
#
# Compressibility (1/GPa) = 0.02427754
#
# Stress axis : x y z
#
# Youngs Moduli (GPa) = 65.91375 98.08662 85.55503
#
# Poissons Ratio (x) = 0.27881 0.31242
# Poissons Ratio (y) = 0.18736 -0.00903
# Poissons Ratio (z) = 0.24070 -0.01035
#
# Static dielectric constant tensor:
#      x y z
#    x 1.772330 0.000000 0.000000 
#    y 0.000000 1.918140 0.000000 
#    z 0.000000 0.000000 1.797170 
# 
# From -- ./inp_files/5838.got.cif
#   From: 2010.05.17/outbox.cif.g08.bks.cpg/sg34_3_cif.got.tgz:5838.got - 2010.06.03 17:23:11.
