data_PCOD9347999
_publ_section_title
;
Structure prediction by ZEFSAII (Michael W. Deem and Ramdas Pophale) SiO2 
 PCOD9347999
Probable space group: P N N 2
;
_chemical_formula_sum "Si O2"
_cell_formula_units_Z 28
_cell_length_a 21.839198
_cell_length_b 9.810721
_cell_length_c 5.494658
_cell_angle_alpha 90.000000
_cell_angle_beta 90.000000
_cell_angle_gamma 90.000000
_cell_volume 1177.275964
_symmetry_space_group_name_H-M "P N N 2"
_symmetry_group_IT_number 34
_symmetry_cell_setting 'orthorhombic'
loop_
_space_group_symop_operation_xyz
x,y,z
-x,-y,z
1/2-x,1/2+y,1/2+z
1/2+x,1/2-y,1/2+z
loop_
_atom_site_type_symbol
_atom_site_label
_atom_site_fract_x
_atom_site_fract_y
_atom_site_fract_z
Si Si1 0.094928 0.644841 0.381510
Si Si2 0.699456 0.843379 0.479818
Si Si3 0.479504 0.869091 0.521633
Si Si4 0.054536 0.079987 0.090568
Si Si5 0.341059 0.654994 0.977750
Si Si6 0.132814 0.422657 0.775319
Si Si7 0.879052 0.114480 0.710868
O O1 0.159457 0.651352 0.230341
O O2 0.103726 0.523292 0.573668
O O3 0.087112 0.790540 0.515298
O O4 0.032251 0.627188 0.226716
O O5 0.770152 0.807290 0.445800
O O6 0.662301 0.725903 0.342687
O O7 0.691605 0.992881 0.359112
O O8 0.475735 0.710723 0.456858
O O9 0.407505 0.905619 0.521131
O O10 0.500000 0.000000 0.360978
O O11 0.109021 0.135939 0.262407
O O12 0.000000 0.000000 0.228107
O O13 0.080933 0.971584 0.900572
O O14 0.362748 0.774592 0.158022
O O15 0.339612 0.503930 0.089152
#
# Coordination Sequence:
#
# PCOD9347999 Si02
#       7
#     4   4   4   4   4   4   4
#     4  11  26  51  77 108 155 204 247 326 385 457
#     4  11  27  49  77 110 154 195 260 312 382 466
#     4  12  24  49  77 109 154 191 259 316 382 459
#     4  12  28  49  72 113 157 197 262 313 386 468
#     4  12  28  47  80 110 150 203 249 321 385 453
#     4  11  27  49  75 118 146 202 257 315 387 460
#     4  11  26  49  75 110 150 206 250 311 390 459
#
# _framework density 23.783719000000001
#
# number of rings (size 3 to 8) (size 9 to 14) (size 15 to 20)
#    0.000    0.571    2.857    3.429    8.000    4.571 
#    2.571    0.000    0.000    0.000    0.000    0.000 
#    0.000    0.000    0.000    0.000    0.000    0.000 
#
# Total GULP energy -155992.368126 kJ/mol
# GULP energy per Si atom -5571.156004 kJ/mol
# Density = 2.372959 g / cm^3
# Si number density = 23.783719 Si / 1000 Ang^3
#
#
#
# Elastic Constant Matrix: (Units=GPa)
#
#
# Indices 1 2 3 4 5 6 
#
# 1 132.7962 44.4103 50.8627 0.0000 0.0000 0.0000
# 2 44.4103 163.6337 34.9787 0.0000 0.0000 0.0000
# 3 50.8627 34.9787 78.0097 0.0000 0.0000 0.0000
# 4 0.0000 0.0000 0.0000 47.7955 0.0000 0.0000
# 5 0.0000 0.0000 0.0000 0.0000 9.6119 0.0000
# 6 0.0000 0.0000 0.0000 0.0000 0.0000 28.0365
#
#
#
# Elastic Compliance Matrix: (Units=1/GPa)
#
#
# Indices 1 2 3 4 5 6 
#
# 1 0.010365 -0.001514 -0.006079 0.000000 0.000000 0.000000
# 2 -0.001514 0.006980 -0.002143 0.000000 0.000000 0.000000
# 3 -0.006079 -0.002143 0.017744 0.000000 0.000000 0.000000
# 4 0.000000 0.000000 0.000000 0.020922 0.000000 0.000000
# 5 0.000000 0.000000 0.000000 0.000000 0.104038 0.000000
# 6 0.000000 0.000000 0.000000 0.000000 0.000000 0.035668
#
#
# Mechanical properties :
#
#
# Convention : Reuss Voigt Hill
#
# Bulk Modulus (GPa) = 64.03313 70.54922 67.29118
# Shear Modulus (GPa) = 22.68663 33.36798 28.02730
#
# Velocity S-wave (km/s) = 3.09183 3.74970 3.43654
# Velocity P-wave (km/s) = 6.30297 6.96234 6.64084
#
# Compressibility (1/GPa) = 0.01561692
#
# Stress axis : x y z
#
# Youngs Moduli (GPa) = 96.47889 143.26513 56.35851
#
# Poissons Ratio (x) = 0.21684 0.34262
# Poissons Ratio (y) = 0.14602 0.12077
# Poissons Ratio (z) = 0.58653 0.30701
#
# Static dielectric constant tensor:
#      x y z
#    x 1.965280 0.000000 0.000000 
#    y 0.000000 1.913310 0.000000 
#    z 0.000000 0.000000 1.983600 
# 
# From -- ./inp_files/1751.got.cif
#   From: 2010.05.17/outbox.cif.g08.bks.cpg/sg34_1_cif.got.tgz:1751.got - 2010.06.03 17:23:11.
