data_PCOD9347602
_publ_section_title
;
Structure prediction by ZEFSAII (Michael W. Deem and Ramdas Pophale) SiO2 
 PCOD9347602
Probable space group: P N N 2
;
_chemical_formula_sum "Si O2"
_cell_formula_units_Z 26
_cell_length_a 12.155744
_cell_length_b 17.352017
_cell_length_c 5.140308
_cell_angle_alpha 90.000000
_cell_angle_beta 90.000000
_cell_angle_gamma 90.000000
_cell_volume 1084.228083
_symmetry_space_group_name_H-M "P N N 2"
_symmetry_group_IT_number 34
_symmetry_cell_setting 'orthorhombic'
loop_
_space_group_symop_operation_xyz
x,y,z
-x,-y,z
1/2-x,1/2+y,1/2+z
1/2+x,1/2-y,1/2+z
loop_
_atom_site_type_symbol
_atom_site_label
_atom_site_fract_x
_atom_site_fract_y
_atom_site_fract_z
Si Si1 0.000000 0.000000 0.954381
Si Si2 0.563733 0.718797 0.412027
Si Si3 0.411954 0.885535 0.873019
Si Si4 0.298403 0.549279 0.808684
Si Si5 0.180371 0.912325 0.710346
Si Si6 0.927483 0.794922 0.409833
Si Si7 0.057797 0.604745 0.882078
O O1 0.944319 0.066428 0.791291
O O2 0.109472 0.032101 0.090499
O O3 0.662434 0.678408 0.252154
O O4 0.526044 0.687419 0.697212
O O5 0.593861 0.807761 0.443371
O O6 0.463782 0.715924 0.207981
O O7 0.292721 0.925425 0.869077
O O8 0.396106 0.792839 0.828683
O O9 0.488907 0.916261 0.639774
O O10 0.473692 0.896823 0.142839
O O11 0.345064 0.632433 0.908079
O O12 0.167996 0.561881 0.791448
O O13 0.306882 0.469759 0.971411
#
# Coordination Sequence:
#
# PCOD9347602 Si02
#       7
#     2   4   4   4   4   4   4
#     4  12  26  44  66 102 140 188 228 286 374 420
#     4  10  21  43  72 103 140 180 239 294 349 419
#     4  10  25  47  73 104 137 190 242 291 352 420
#     4  12  26  44  69 104 146 187 233 296 356 431
#     4  12  26  44  69 104 146 187 233 296 356 431
#     4  10  21  43  72 103 140 180 239 294 349 419
#     4  10  25  47  73 104 137 190 242 291 352 420
#
# _framework density 23.980195999999999
#
# number of rings (size 3 to 8) (size 9 to 14) (size 15 to 20)
#    0.000    1.231    1.538    3.231    4.308    0.615 
#    0.000    9.231    0.000    0.000    0.000    0.000 
#    0.000    0.000    0.000    0.000    0.000    0.000 
#
# Total GULP energy -144774.131140 kJ/mol
# GULP energy per Si atom -5568.235813 kJ/mol
# Density = 2.392562 g / cm^3
# Si number density = 23.980196 Si / 1000 Ang^3
#
#
#
# Elastic Constant Matrix: (Units=GPa)
#
#
# Indices 1 2 3 4 5 6 
#
# 1 115.0971 25.8546 7.1931 0.0000 0.0000 0.0000
# 2 25.8546 90.7021 1.4777 0.0000 0.0000 0.0000
# 3 7.1931 1.4777 70.2721 0.0000 0.0000 0.0000
# 4 0.0000 0.0000 0.0000 584.8758 0.0000 0.0000
# 5 0.0000 0.0000 0.0000 0.0000 22.2792 0.0000
# 6 0.0000 0.0000 0.0000 0.0000 0.0000 46.9898
#
#
#
# Elastic Compliance Matrix: (Units=1/GPa)
#
#
# Indices 1 2 3 4 5 6 
#
# 1 0.009339 -0.002647 -0.000900 0.000000 0.000000 0.000000
# 2 -0.002647 0.011779 0.000023 0.000000 0.000000 0.000000
# 3 -0.000900 0.000023 0.014322 0.000000 0.000000 0.000000
# 4 0.000000 0.000000 0.000000 0.001710 0.000000 0.000000
# 5 0.000000 0.000000 0.000000 0.000000 0.044885 0.000000
# 6 0.000000 0.000000 0.000000 0.000000 0.000000 0.021281
#
#
# Mechanical properties :
#
#
# Convention : Reuss Voigt Hill
#
# Bulk Modulus (GPa) = 35.22151 38.34690 36.78421
# Shear Modulus (GPa) = 41.72593 146.93201 94.32897
#
# Velocity S-wave (km/s) = 4.17588 7.83615 6.27866
# Velocity P-wave (km/s) = 6.16200 9.89441 8.24226
#
# Compressibility (1/GPa) = 0.02839174
#
# Stress axis : x y z
#
# Youngs Moduli (GPa) = 107.07440 84.89399 69.82237
#
# Poissons Ratio (x) = 0.22476 0.06286
# Poissons Ratio (y) = 0.28348 -0.00163
# Poissons Ratio (z) = 0.09640 -0.00198
#
# Static dielectric constant tensor:
#      x y z
#    x 1.938680 0.000000 0.000000 
#    y 0.000000 -0.743950 0.000000 
#    z 0.000000 0.000000 1.994510 
# 
# From -- ./inp_files/938.got.cif
#   From: 2010.05.17/outbox.cif.g08.bks.cpg/sg34_1_cif.got.tgz:938.got - 2010.06.03 17:23:11.
