data_PCOD9347615
_publ_section_title
;
Structure prediction by ZEFSAII (Michael W. Deem and Ramdas Pophale) SiO2 
 PCOD9347615
Probable space group: P N N 2
;
_chemical_formula_sum "Si O2"
_cell_formula_units_Z 24
_cell_length_a 7.118076
_cell_length_b 11.855528
_cell_length_c 10.605463
_cell_angle_alpha 90.000000
_cell_angle_beta 90.000000
_cell_angle_gamma 90.000000
_cell_volume 894.979637
_symmetry_space_group_name_H-M "P N N 2"
_symmetry_group_IT_number 34
_symmetry_cell_setting 'orthorhombic'
loop_
_space_group_symop_operation_xyz
x,y,z
-x,-y,z
1/2-x,1/2+y,1/2+z
1/2+x,1/2-y,1/2+z
loop_
_atom_site_type_symbol
_atom_site_label
_atom_site_fract_x
_atom_site_fract_y
_atom_site_fract_z
Si Si1 0.667281 0.223660 0.543750
Si Si2 0.712704 0.952749 0.163188
Si Si3 0.772752 0.502569 0.941017
Si Si4 0.720353 0.675302 0.541240
Si Si5 0.650835 0.376776 0.193853
Si Si6 0.220203 0.407561 0.284930
O O1 0.772031 0.334327 0.592597
O O2 0.771675 0.136336 0.452408
O O3 0.468188 0.264345 0.492911
O O4 0.618779 0.148584 0.667006
O O5 0.500000 0.000000 0.163462
O O6 0.776562 0.946851 0.308364
O O7 0.823361 0.052762 0.095248
O O8 0.000000 0.500000 0.951981
O O9 0.680468 0.438690 0.058309
O O10 0.801078 0.749793 0.655170
O O11 0.836087 0.649652 0.415032
O O12 0.440252 0.382969 0.247901
O O13 0.779046 0.455739 0.284716
#
# Coordination Sequence:
#
# PCOD9347615 Si02
#       6
#     4   4   4   4   4   4
#     4  11  24  44  71 101 138 184 236 288 359 421
#     4  11  26  45  68 106 144 182 235 293 363 428
#     4  10  21  45  75  99 139 184 234 298 352 428
#     4  12  25  44  72 102 144 182 232 298 358 415
#     4  10  22  44  74  97 133 189 229 284 363 414
#     4  10  25  45  69  99 144 179 236 291 348 429
#
# _framework density 26.816253
#
# number of rings (size 3 to 8) (size 9 to 14) (size 15 to 20)
#    0.000    1.333    1.667    2.500    9.333    0.000 
#   27.000    0.000    0.000    0.000    0.000    0.000 
#    0.000    0.000    0.000    0.000    0.000    0.000 
#
# Total GULP energy -134436.018937 kJ/mol
# GULP energy per Si atom -5601.500789 kJ/mol
# Density = 2.675522 g / cm^3
# Si number density = 26.816253 Si / 1000 Ang^3
#
#
#
# Elastic Constant Matrix: (Units=GPa)
#
#
# Indices 1 2 3 4 5 6 
#
# 1 58.6887 29.8572 4.9087 0.0000 0.0000 0.0000
# 2 29.8572 178.9206 33.6543 0.0000 0.0000 0.0000
# 3 4.9087 33.6543 110.8317 0.0000 0.0000 0.0000
# 4 0.0000 0.0000 0.0000 8.5208 0.0000 0.0000
# 5 0.0000 0.0000 0.0000 0.0000 8.3107 0.0000
# 6 0.0000 0.0000 0.0000 0.0000 0.0000 49.3809
#
#
#
# Elastic Compliance Matrix: (Units=1/GPa)
#
#
# Indices 1 2 3 4 5 6 
#
# 1 0.018621 -0.003131 0.000126 0.000000 0.000000 0.000000
# 2 -0.003131 0.006454 -0.001821 0.000000 0.000000 0.000000
# 3 0.000126 -0.001821 0.009570 0.000000 0.000000 0.000000
# 4 0.000000 0.000000 0.000000 0.117360 0.000000 0.000000
# 5 0.000000 0.000000 0.000000 0.000000 0.120326 0.000000
# 6 0.000000 0.000000 0.000000 0.000000 0.000000 0.020251
#
#
# Mechanical properties :
#
#
# Convention : Reuss Voigt Hill
#
# Bulk Modulus (GPa) = 40.01088 53.92016 46.96552
# Shear Modulus (GPa) = 16.09962 31.91053 24.00508
#
# Velocity S-wave (km/s) = 2.45290 3.45334 2.99518
# Velocity P-wave (km/s) = 4.79323 6.00430 5.43262
#
# Compressibility (1/GPa) = 0.02499320
#
# Stress axis : x y z
#
# Youngs Moduli (GPa) = 53.70151 154.93964 104.49213
#
# Poissons Ratio (x) = 0.48514 -0.01317
# Poissons Ratio (y) = 0.16815 0.19029
# Poissons Ratio (z) = -0.00677 0.28217
#
# Static dielectric constant tensor:
#      x y z
#    x 2.286250 0.000000 0.000000 
#    y 0.000000 2.123280 0.000000 
#    z 0.000000 0.000000 2.043980 
# 
# From -- ./inp_files/4946.got.cif
#   From: 2010.05.17/outbox.cif.g08.bks.cpg/sg34_3_cif.got.tgz:4946.got - 2010.06.03 17:23:11.
