data_PCOD9347266
_publ_section_title
;
Structure prediction by ZEFSAII (Michael W. Deem and Ramdas Pophale) SiO2 
 PCOD9347266
Probable space group: P N N 2
;
_chemical_formula_sum "Si O2"
_cell_formula_units_Z 32
_cell_length_a 8.948413
_cell_length_b 17.291420
_cell_length_c 11.179373
_cell_angle_alpha 90.000000
_cell_angle_beta 90.000000
_cell_angle_gamma 90.000000
_cell_volume 1729.792965
_symmetry_space_group_name_H-M "P N N 2"
_symmetry_group_IT_number 34
_symmetry_cell_setting 'orthorhombic'
loop_
_space_group_symop_operation_xyz
x,y,z
-x,-y,z
1/2-x,1/2+y,1/2+z
1/2+x,1/2-y,1/2+z
loop_
_atom_site_type_symbol
_atom_site_label
_atom_site_fract_x
_atom_site_fract_y
_atom_site_fract_z
Si Si1 0.283300 0.308208 0.204210
Si Si2 0.521040 0.407409 0.056842
Si Si3 0.721876 0.817713 0.682266
Si Si4 0.543584 0.245715 0.357089
Si Si5 0.931271 0.081088 0.301660
Si Si6 0.943986 0.581086 0.223703
Si Si7 0.392425 0.928358 0.434757
Si Si8 0.506933 0.293251 0.601860
O O1 0.388345 0.353732 0.109304
O O2 0.394026 0.258174 0.282592
O O3 0.199374 0.376237 0.276856
O O4 0.150482 0.255067 0.151167
O O5 0.500000 0.500000 0.074158
O O6 0.670430 0.379397 0.120913
O O7 0.528193 0.391972 0.915881
O O8 0.816857 0.766124 0.772690
O O9 0.584575 0.862914 0.740052
O O10 0.637903 0.762030 0.590451
O O11 0.553484 0.157788 0.401747
O O12 0.548249 0.308055 0.464844
O O13 0.767982 0.066746 0.365202
O O14 0.954505 0.141230 0.194158
O O15 0.000000 0.000000 0.261170
O O16 0.000000 0.500000 0.270989
O O17 0.899370 0.570362 0.081453
O O18 0.500000 0.000000 0.398160
#
# Coordination Sequence:
#
# PCOD9347266 Si02
#       8
#     4   4   4   4   4   4   4   4
#     4  10  21  36  58  92 115 158 194 246 308 355
#     4  10  20  35  60  93 119 145 202 259 297 344
#     4  10  21  35  59  88 117 158 192 248 304 353
#     4  11  22  40  59  90 122 156 199 243 306 360
#     4  11  24  38  60  90 124 158 198 249 302 359
#     4  10  19  36  60  89 118 145 194 254 305 343
#     4  11  22  37  61  89 121 151 194 260 304 347
#     4  11  23  39  59  83 128 157 199 241 296 377
#
# _framework density 18.499323
#
# number of rings (size 3 to 8) (size 9 to 14) (size 15 to 20)
#    0.000    1.500    5.000    0.750    8.750    0.000 
#    0.000    3.750    0.000    0.750    0.000    0.000 
#    0.000    0.000    0.000    0.000    0.000    0.000 
#
# Total GULP energy -178180.050460 kJ/mol
# GULP energy per Si atom -5568.126577 kJ/mol
# Density = 1.845722 g / cm^3
# Si number density = 18.499323 Si / 1000 Ang^3
#
#
#
# Elastic Constant Matrix: (Units=GPa)
#
#
# Indices 1 2 3 4 5 6 
#
# 1 95.6119 28.9263 23.7201 0.0000 0.0000 0.0000
# 2 28.9263 76.4857 17.5086 0.0000 0.0000 0.0000
# 3 23.7201 17.5086 45.4102 0.0000 0.0000 0.0000
# 4 0.0000 0.0000 0.0000 26.7890 0.0000 0.0000
# 5 0.0000 0.0000 0.0000 0.0000 -9.1366 0.0000
# 6 0.0000 0.0000 0.0000 0.0000 0.0000 20.7002
#
#
#
# Elastic Compliance Matrix: (Units=1/GPa)
#
#
# Indices 1 2 3 4 5 6 
#
# 1 0.012885 -0.003655 -0.005321 0.000000 0.000000 0.000000
# 2 -0.003655 0.015377 -0.004020 0.000000 0.000000 0.000000
# 3 -0.005321 -0.004020 0.026351 0.000000 0.000000 0.000000
# 4 0.000000 0.000000 0.000000 0.037329 0.000000 0.000000
# 5 0.000000 0.000000 0.000000 0.000000 -0.109450 0.000000
# 6 0.000000 0.000000 0.000000 0.000000 0.000000 0.048309
#
#
# Mechanical properties :
#
#
# Convention : Reuss Voigt Hill
#
# Bulk Modulus (GPa) = 34.93935 39.75753 37.34844
# Shear Modulus (GPa) = 75.37880 17.49406 46.43643
#
# Velocity S-wave (km/s) = 6.39025 3.07849 5.01559
# Velocity P-wave (km/s) = 8.56591 5.84587 7.33311
#
# Compressibility (1/GPa) = 0.02862103
#
# Stress axis : x y z
#
# Youngs Moduli (GPa) = 77.61080 65.03346 37.94945
#
# Poissons Ratio (x) = 0.23769 0.20194
# Poissons Ratio (y) = 0.28365 0.15254
# Poissons Ratio (z) = 0.41299 0.26141
#
# Static dielectric constant tensor:
#      x y z
#    x 1.775230 0.000000 0.000000 
#    y 0.000000 1.664350 0.000000 
#    z 0.000000 0.000000 1.634760 
# 
# From -- ./inp_files/5170.got.cif
#   From: 2010.05.17/outbox.cif.g08.bks.cpg/sg34_3_cif.got.tgz:5170.got - 2010.06.03 17:23:11.
