data_PCOD9347468
_publ_section_title
;
Structure prediction by ZEFSAII (Michael W. Deem and Ramdas Pophale) SiO2 
 PCOD9347468
Probable space group: P N N 2
;
_chemical_formula_sum "Si O2"
_cell_formula_units_Z 18
_cell_length_a 5.358313
_cell_length_b 15.386063
_cell_length_c 8.330221
_cell_angle_alpha 90.000000
_cell_angle_beta 90.000000
_cell_angle_gamma 90.000000
_cell_volume 686.771254
_symmetry_space_group_name_H-M "P N N 2"
_symmetry_group_IT_number 34
_symmetry_cell_setting 'orthorhombic'
loop_
_space_group_symop_operation_xyz
x,y,z
-x,-y,z
1/2-x,1/2+y,1/2+z
1/2+x,1/2-y,1/2+z
loop_
_atom_site_type_symbol
_atom_site_label
_atom_site_fract_x
_atom_site_fract_y
_atom_site_fract_z
Si Si1 0.604409 0.648073 0.816700
Si Si2 0.246357 0.756594 0.599432
Si Si3 0.000000 0.000000 0.116294
Si Si4 0.396162 0.597542 0.136810
Si Si5 0.384169 0.094428 0.931589
O O1 0.469256 0.714475 0.697611
O O2 0.676190 0.558307 0.730551
O O3 0.806095 0.694172 0.930972
O O4 0.393373 0.619147 0.948219
O O5 0.056413 0.679726 0.535498
O O6 0.093217 0.829445 0.696593
O O7 0.889459 0.927673 0.000407
O O8 0.500000 0.500000 0.154555
O O9 0.148436 0.606824 0.241822
O O10 0.500000 0.000000 0.958058
#
# Coordination Sequence:
#
# PCOD9347468 Si02
#       5
#     4   4   2   4   4
#     4   9  19  40  65  93 127 180 216 278 343 406
#     4   9  22  39  62  95 129 170 227 269 342 405
#     4  10  20  42  66  90 136 170 216 284 342 400
#     4  10  21  41  66  93 134 171 222 284 340 407
#     4  11  24  40  67  98 128 175 225 276 344 411
#
# _framework density 26.209600999999999
#
# number of rings (size 3 to 8) (size 9 to 14) (size 15 to 20)
#    1.333    0.889    2.222    0.000    3.111    1.778 
#    8.000    4.444    0.000    0.000    0.000    0.000 
#    0.000    0.000    0.000    0.000    0.000    0.000 
#
# Total GULP energy -100288.073364 kJ/mol
# GULP energy per Si atom -5571.559631 kJ/mol
# Density = 2.614995 g / cm^3
# Si number density = 26.209601 Si / 1000 Ang^3
#
#
#
# Elastic Constant Matrix: (Units=GPa)
#
#
# Indices 1 2 3 4 5 6 
#
# 1 30.0213 27.8447 24.8052 0.0000 0.0000 0.0000
# 2 27.8447 191.7078 55.2864 0.0000 0.0000 0.0000
# 3 24.8052 55.2864 130.7425 0.0000 0.0000 0.0000
# 4 0.0000 0.0000 0.0000 55.6001 0.0000 0.0000
# 5 0.0000 0.0000 0.0000 0.0000 22.2229 0.0000
# 6 0.0000 0.0000 0.0000 0.0000 0.0000 36.7548
#
#
#
# Elastic Compliance Matrix: (Units=1/GPa)
#
#
# Indices 1 2 3 4 5 6 
#
# 1 0.042507 -0.004383 -0.006211 0.000000 0.000000 0.000000
# 2 -0.004383 0.006393 -0.001872 0.000000 0.000000 0.000000
# 3 -0.006211 -0.001872 0.009619 0.000000 0.000000 0.000000
# 4 0.000000 0.000000 0.000000 0.017986 0.000000 0.000000
# 5 0.000000 0.000000 0.000000 0.000000 0.044999 0.000000
# 6 0.000000 0.000000 0.000000 0.000000 0.000000 0.027207
#
#
# Mechanical properties :
#
#
# Convention : Reuss Voigt Hill
#
# Bulk Modulus (GPa) = 29.77385 63.14936 46.46160
# Shear Modulus (GPa) = 27.05095 39.21792 33.13444
#
# Velocity S-wave (km/s) = 3.21612 3.87242 3.55943
# Velocity P-wave (km/s) = 5.01755 6.64383 5.88712
#
# Compressibility (1/GPa) = 0.03358653
#
# Stress axis : x y z
#
# Youngs Moduli (GPa) = 23.52566 156.43060 103.96564
#
# Poissons Ratio (x) = 0.68558 0.64577
# Poissons Ratio (y) = 0.10310 0.19459
# Poissons Ratio (z) = 0.14613 0.29279
#
# Static dielectric constant tensor:
#      x y z
#    x 2.171270 0.000000 0.000000 
#    y 0.000000 2.090360 0.000000 
#    z 0.000000 0.000000 2.089660 
# 
# From -- ./inp_files/2038.got.cif
#   From: 2010.05.17/outbox.cif.g08.bks.cpg/sg34_2_cif.got.tgz:2038.got - 2010.06.03 17:23:11.
