data_PCOD9347362
_publ_section_title
;
Structure prediction by ZEFSAII (Michael W. Deem and Ramdas Pophale) SiO2 
 PCOD9347362
Probable space group: P N N 2
;
_chemical_formula_sum "Si O2"
_cell_formula_units_Z 32
_cell_length_a 28.207514
_cell_length_b 6.685440
_cell_length_c 8.398978
_cell_angle_alpha 90.000000
_cell_angle_beta 90.000000
_cell_angle_gamma 90.000000
_cell_volume 1583.876268
_symmetry_space_group_name_H-M "P N N 2"
_symmetry_group_IT_number 34
_symmetry_cell_setting 'orthorhombic'
loop_
_space_group_symop_operation_xyz
x,y,z
-x,-y,z
1/2-x,1/2+y,1/2+z
1/2+x,1/2-y,1/2+z
loop_
_atom_site_type_symbol
_atom_site_label
_atom_site_fract_x
_atom_site_fract_y
_atom_site_fract_z
Si Si1 0.546667 0.875850 0.403610
Si Si2 0.154917 0.940556 0.189009
Si Si3 0.638458 0.228455 0.928449
Si Si4 0.619897 0.145128 0.291517
Si Si5 0.287379 0.056615 0.762479
Si Si6 0.212136 0.265268 0.989630
Si Si7 0.561079 0.452476 0.502315
Si Si8 0.953547 0.603570 0.230023
O O1 0.537460 0.640910 0.415545
O O2 0.500000 0.000000 0.353062
O O3 0.591314 0.936701 0.296439
O O4 0.558075 0.957660 0.581672
O O5 0.175551 0.721431 0.201929
O O6 0.146188 0.049777 0.357942
O O7 0.191488 0.082837 0.094251
O O8 0.106122 0.952227 0.093487
O O9 0.591191 0.140537 0.842289
O O10 0.683107 0.096649 0.871960
O O11 0.632309 0.214473 0.115675
O O12 0.667077 0.140657 0.398125
O O13 0.583848 0.301231 0.374567
O O14 0.267910 0.929714 0.612737
O O15 0.248549 0.175283 0.863626
O O16 0.536482 0.314417 0.638479
O O17 0.000000 0.500000 0.305778
#
# Coordination Sequence:
#
# PCOD9347362 Si02
#       8
#     4   4   4   4   4   4   4   4
#     4  10  20  36  62  89 116 157 205 249 300 363
#     4   9  20  39  61  84 118 157 198 247 296 359
#     4  10  22  39  58  91 123 157 203 253 305 369
#     4  10  22  38  57  87 124 156 199 254 301 365
#     4  11  23  40  63  86 121 161 203 254 307 364
#     4  10  24  39  59  89 118 158 205 251 302 374
#     4   9  18  38  60  85 114 155 199 241 300 356
#     4   9  19  35  61  87 116 154 200 251 300 363
#
# _framework density 20.203598
#
# number of rings (size 3 to 8) (size 9 to 14) (size 15 to 20)
#    0.000    2.250    0.000    3.750    3.500    7.000 
#    2.250    0.000    0.000    7.500    0.000    0.000 
#    0.000    0.000    0.000    0.000    0.000    0.000 
#
# Total GULP energy -178623.869032 kJ/mol
# GULP energy per Si atom -5581.995907 kJ/mol
# Density = 2.015761 g / cm^3
# Si number density = 20.203598 Si / 1000 Ang^3
#
#
#
# Elastic Constant Matrix: (Units=GPa)
#
#
# Indices 1 2 3 4 5 6 
#
# 1 76.9217 30.8314 20.8167 0.0000 0.0000 0.0000
# 2 30.8314 108.9522 17.1663 0.0000 0.0000 0.0000
# 3 20.8167 17.1663 87.2159 0.0000 0.0000 0.0000
# 4 0.0000 0.0000 0.0000 15.4101 0.0000 0.0000
# 5 0.0000 0.0000 0.0000 0.0000 13.4242 0.0000
# 6 0.0000 0.0000 0.0000 0.0000 0.0000 22.3158
#
#
#
# Elastic Compliance Matrix: (Units=1/GPa)
#
#
# Indices 1 2 3 4 5 6 
#
# 1 0.015341 -0.003885 -0.002897 0.000000 0.000000 0.000000
# 2 -0.003885 0.010456 -0.001131 0.000000 0.000000 0.000000
# 3 -0.002897 -0.001131 0.012380 0.000000 0.000000 0.000000
# 4 0.000000 0.000000 0.000000 0.064892 0.000000 0.000000
# 5 0.000000 0.000000 0.000000 0.000000 0.074493 0.000000
# 6 0.000000 0.000000 0.000000 0.000000 0.000000 0.044811
#
#
# Mechanical properties :
#
#
# Convention : Reuss Voigt Hill
#
# Bulk Modulus (GPa) = 44.73927 45.63543 45.18735
# Shear Modulus (GPa) = 20.35424 23.84838 22.10131
#
# Velocity S-wave (km/s) = 3.17749 3.43943 3.31105
# Velocity P-wave (km/s) = 5.97111 6.19755 6.08539
#
# Compressibility (1/GPa) = 0.02235173
#
# Stress axis : x y z
#
# Youngs Moduli (GPa) = 65.18336 95.64037 80.77664
#
# Poissons Ratio (x) = 0.37155 0.23401
# Poissons Ratio (y) = 0.25323 0.09134
# Poissons Ratio (z) = 0.18884 0.10814
#
# Static dielectric constant tensor:
#      x y z
#    x 1.773450 0.000000 0.000000 
#    y 0.000000 1.736610 0.000000 
#    z 0.000000 0.000000 1.687010 
# 
# From -- ./inp_files/4158.got.cif
#   From: 2010.05.17/outbox.cif.g08.bks.cpg/sg34_3_cif.got.tgz:4158.got - 2010.06.03 17:23:11.
