data_PCOD9347495
_publ_section_title
;
Structure prediction by ZEFSAII (Michael W. Deem and Ramdas Pophale) SiO2 
 PCOD9347495
Probable space group: P N N 2
;
_chemical_formula_sum "Si O2"
_cell_formula_units_Z 18
_cell_length_a 10.186595
_cell_length_b 12.755758
_cell_length_c 5.380619
_cell_angle_alpha 90.000000
_cell_angle_beta 90.000000
_cell_angle_gamma 90.000000
_cell_volume 699.145476
_symmetry_space_group_name_H-M "P N N 2"
_symmetry_group_IT_number 34
_symmetry_cell_setting 'orthorhombic'
loop_
_space_group_symop_operation_xyz
x,y,z
-x,-y,z
1/2-x,1/2+y,1/2+z
1/2+x,1/2-y,1/2+z
loop_
_atom_site_type_symbol
_atom_site_label
_atom_site_fract_x
_atom_site_fract_y
_atom_site_fract_z
Si Si1 0.582373 0.347685 0.426890
Si Si2 0.345036 0.057377 0.117804
Si Si3 0.500000 0.500000 0.058472
Si Si4 0.322362 0.376574 0.677026
Si Si5 0.928591 0.339954 0.123092
O O1 0.701635 0.390027 0.586863
O O2 0.594691 0.405323 0.163827
O O3 0.435704 0.397486 0.473476
O O4 0.552197 0.230331 0.525845
O O5 0.396777 0.089880 0.386192
O O6 0.310299 0.934694 0.113351
O O7 0.427838 0.098657 0.882567
O O8 0.392333 0.428027 0.913580
O O9 0.319201 0.251280 0.680253
#
# Coordination Sequence:
#
# PCOD9347495 Si02
#       5
#     4   4   2   4   4
#     4  10  21  35  56  95 115 149 201 260 290 352
#     4  12  20  38  64  80 122 166 184 248 326 332
#     4  12  14  36  64  84 118 150 182 280 316 318
#     4  10  21  35  56  95 115 149 201 260 290 352
#     4  10  25  35  55  96 121 150 200 256 286 377
#
# _framework density 25.745714
#
# number of rings (size 3 to 8) (size 9 to 14) (size 15 to 20)
#    1.333    0.000    4.444    2.667    0.000    0.000 
#    0.000    0.000    0.000    8.000    0.000    0.000 
#    0.000    0.000    0.000    0.000    0.000    0.000 
#
# Total GULP energy -100251.346248 kJ/mol
# GULP energy per Si atom -5569.519236 kJ/mol
# Density = 2.568712 g / cm^3
# Si number density = 25.745714 Si / 1000 Ang^3
#
#
#
# Elastic Constant Matrix: (Units=GPa)
#
#
# Indices 1 2 3 4 5 6 
#
# 1 92.4783 55.1388 47.5053 0.0000 0.0000 0.0000
# 2 55.1388 142.6092 36.6124 0.0000 0.0000 0.0000
# 3 47.5053 36.6124 133.3511 0.0000 0.0000 0.0000
# 4 0.0000 0.0000 0.0000 -13.0012 0.0000 0.0000
# 5 0.0000 0.0000 0.0000 0.0000 81.2014 0.0000
# 6 0.0000 0.0000 0.0000 0.0000 0.0000 50.7783
#
#
#
# Elastic Compliance Matrix: (Units=1/GPa)
#
#
# Indices 1 2 3 4 5 6 
#
# 1 0.016081 -0.005107 -0.004327 0.000000 0.000000 0.000000
# 2 -0.005107 0.009166 -0.000697 0.000000 0.000000 0.000000
# 3 -0.004327 -0.000697 0.009232 0.000000 0.000000 0.000000
# 4 0.000000 0.000000 0.000000 -0.076916 0.000000 0.000000
# 5 0.000000 0.000000 0.000000 0.000000 0.012315 0.000000
# 6 0.000000 0.000000 0.000000 0.000000 0.000000 0.019693
#
#
# Mechanical properties :
#
#
# Convention : Reuss Voigt Hill
#
# Bulk Modulus (GPa) = 70.33815 71.88351 71.11083
# Shear Modulus (GPa) = 343.15685 39.07452 191.11569
#
# Velocity S-wave (km/s) = 11.55752 3.90001 8.62515
# Velocity P-wave (km/s) = 14.33462 6.94703 11.26372
#
# Compressibility (1/GPa) = 0.01421704
#
# Stress axis : x y z
#
# Youngs Moduli (GPa) = 62.18657 109.10301 108.32202
#
# Poissons Ratio (x) = 0.55716 0.46866
# Poissons Ratio (y) = 0.31757 0.07553
# Poissons Ratio (z) = 0.26905 0.07607
#
# Static dielectric constant tensor:
#      x y z
#    x 2.003890 0.000000 0.000000 
#    y 0.000000 2.199200 0.000000 
#    z 0.000000 0.000000 2.172980 
# 
# From -- ./inp_files/821.got.cif
#   From: 2010.05.17/outbox.cif.g08.bks.cpg/sg34_1_cif.got.tgz:821.got - 2010.06.03 17:23:11.
