data_PCOD9347499
_publ_section_title
;
Structure prediction by ZEFSAII (Michael W. Deem and Ramdas Pophale) SiO2 
 PCOD9347499
Probable space group: P N N 2
;
_chemical_formula_sum "Si O2"
_cell_formula_units_Z 32
_cell_length_a 24.530918
_cell_length_b 13.360083
_cell_length_c 4.946126
_cell_angle_alpha 90.000000
_cell_angle_beta 90.000000
_cell_angle_gamma 90.000000
_cell_volume 1621.019102
_symmetry_space_group_name_H-M "P N N 2"
_symmetry_group_IT_number 34
_symmetry_cell_setting 'orthorhombic'
loop_
_space_group_symop_operation_xyz
x,y,z
-x,-y,z
1/2-x,1/2+y,1/2+z
1/2+x,1/2-y,1/2+z
loop_
_atom_site_type_symbol
_atom_site_label
_atom_site_fract_x
_atom_site_fract_y
_atom_site_fract_z
Si Si1 0.771920 0.580952 0.994230
Si Si2 0.773544 0.343218 0.966099
Si Si3 0.067760 0.794609 0.762735
Si Si4 0.934016 0.706093 0.222594
Si Si5 0.986402 0.115344 0.251797
Si Si6 0.680685 0.737004 0.954801
Si Si7 0.011584 0.383969 0.733790
Si Si8 0.681787 0.188081 0.006178
O O1 0.815905 0.628093 0.786866
O O2 0.770985 0.461994 0.982362
O O3 0.714993 0.634888 0.917180
O O4 0.786092 0.618125 0.293713
O O5 0.818615 0.295795 0.170416
O O6 0.716877 0.289107 0.045620
O O7 0.786421 0.307851 0.663054
O O8 0.030039 0.857869 0.557142
O O9 0.124689 0.784699 0.608825
O O10 0.040734 0.685187 0.797967
O O11 0.062043 0.849053 0.050680
O O12 0.971454 0.642946 0.429640
O O13 0.875591 0.710105 0.364687
O O14 0.961451 0.814814 0.188296
O O15 0.940772 0.652317 0.935402
O O16 0.000000 0.000000 0.217711
O O17 0.000000 0.500000 0.766430
#
# Coordination Sequence:
#
# PCOD9347499 Si02
#       8
#     4   4   4   4   4   4   4   4
#     4  10  21  37  56  82 113 144 184 231 277 331
#     4  10  21  37  56  81 113 146 186 234 282 335
#     4  10  21  37  56  82 112 144 186 229 276 335
#     4  10  21  37  56  81 111 143 184 228 274 331
#     4  10  21  38  58  82 112 145 184 232 279 330
#     4  10  21  37  57  82 113 148 187 233 282 337
#     4  10  21  36  55  81 113 146 183 228 274 328
#     4  10  21  37  56  81 111 144 184 229 276 331
#
# _framework density 19.740666999999998
#
# number of rings (size 3 to 8) (size 9 to 14) (size 15 to 20)
#    0.000    2.000    0.000    3.000    0.000    4.000 
#    0.000    3.750    0.000    0.000    0.000    0.000 
#    0.000    0.000    0.000    0.000    0.000    0.000 
#
# Total GULP energy -178614.941125 kJ/mol
# GULP energy per Si atom -5581.716910 kJ/mol
# Density = 1.969574 g / cm^3
# Si number density = 19.740667 Si / 1000 Ang^3
#
#
#
# Elastic Constant Matrix: (Units=GPa)
#
#
# Indices 1 2 3 4 5 6 
#
# 1 78.6845 46.8472 -7.9753 0.0000 0.0000 0.0000
# 2 46.8472 164.1647 24.9617 0.0000 0.0000 0.0000
# 3 -7.9753 24.9617 89.7322 0.0000 0.0000 0.0000
# 4 0.0000 0.0000 0.0000 17.2151 0.0000 0.0000
# 5 0.0000 0.0000 0.0000 0.0000 37.4686 0.0000
# 6 0.0000 0.0000 0.0000 0.0000 0.0000 5.2464
#
#
#
# Elastic Compliance Matrix: (Units=1/GPa)
#
#
# Indices 1 2 3 4 5 6 
#
# 1 0.015958 -0.004980 0.002804 0.000000 0.000000 0.000000
# 2 -0.004980 0.007915 -0.002644 0.000000 0.000000 0.000000
# 3 0.002804 -0.002644 0.012129 0.000000 0.000000 0.000000
# 4 0.000000 0.000000 0.000000 0.058088 0.000000 0.000000
# 5 0.000000 0.000000 0.000000 0.000000 0.026689 0.000000
# 6 0.000000 0.000000 0.000000 0.000000 0.000000 0.190608
#
#
# Mechanical properties :
#
#
# Convention : Reuss Voigt Hill
#
# Bulk Modulus (GPa) = 37.93574 51.13874 44.53724
# Shear Modulus (GPa) = 15.15996 29.90254 22.53125
#
# Velocity S-wave (km/s) = 2.77421 3.89622 3.38207
# Velocity P-wave (km/s) = 5.43327 6.79722 6.15316
#
# Compressibility (1/GPa) = 0.02636036
#
# Stress axis : x y z
#
# Youngs Moduli (GPa) = 62.66320 126.34661 82.44651
#
# Poissons Ratio (x) = 0.62924 -0.23116
# Poissons Ratio (y) = 0.31208 0.21802
# Poissons Ratio (z) = -0.17569 0.33411
#
# Static dielectric constant tensor:
#      x y z
#    x 1.732700 0.000000 0.000000 
#    y 0.000000 1.636110 0.000000 
#    z 0.000000 0.000000 1.692020 
# 
# From -- ./inp_files/1099.got.cif
#   From: 2010.05.17/outbox.cif.g08.bks.cpg/sg34_1_cif.got.tgz:1099.got - 2010.06.03 17:23:11.
