data_PCOD9347485
_publ_section_title
;
Structure prediction by ZEFSAII (Michael W. Deem and Ramdas Pophale) SiO2 
 PCOD9347485
Probable space group: P N N 2
;
_chemical_formula_sum "Si O2"
_cell_formula_units_Z 20
_cell_length_a 7.648312
_cell_length_b 16.913702
_cell_length_c 6.340727
_cell_angle_alpha 90.000000
_cell_angle_beta 90.000000
_cell_angle_gamma 90.000000
_cell_volume 820.244497
_symmetry_space_group_name_H-M "P N N 2"
_symmetry_group_IT_number 34
_symmetry_cell_setting 'orthorhombic'
loop_
_space_group_symop_operation_xyz
x,y,z
-x,-y,z
1/2-x,1/2+y,1/2+z
1/2+x,1/2-y,1/2+z
loop_
_atom_site_type_symbol
_atom_site_label
_atom_site_fract_x
_atom_site_fract_y
_atom_site_fract_z
Si Si1 0.500000 0.500000 0.330210
Si Si2 0.500000 0.000000 0.190550
Si Si3 0.203714 0.425216 0.051371
Si Si4 0.589051 0.332658 0.486740
Si Si5 0.432887 0.129315 0.858900
Si Si6 0.246994 0.773658 0.799803
O O1 0.517696 0.421271 0.469078
O O2 0.332945 0.482834 0.180110
O O3 0.346889 0.957601 0.324388
O O4 0.413575 0.065071 0.040801
O O5 0.986459 0.585831 0.158623
O O6 0.280320 0.336998 0.103275
O O7 0.749184 0.329412 0.321558
O O8 0.680977 0.306282 0.701698
O O9 0.430909 0.274524 0.428763
O O10 0.590126 0.187865 0.923632
#
# Coordination Sequence:
#
# PCOD9347485 Si02
#       6
#     2   2   4   4   4   4
#     4  10  20  44  74 106 148 186 252 308 360 452
#     4  12  20  40  74  98 142 196 234 296 392 416
#     4   9  22  44  65 108 144 181 234 303 358 441
#     4  11  22  45  72 100 144 196 236 305 374 438
#     4  10  24  43  69 102 148 183 239 311 354 451
#     4   9  25  44  64 104 148 185 243 301 373 446
#
# _framework density 24.382974000000001
#
# number of rings (size 3 to 8) (size 9 to 14) (size 15 to 20)
#    1.200    0.800    0.000    3.000    2.800    1.600 
#    3.600    2.000    0.000    0.000    0.000    0.000 
#    0.000    0.000    0.000    0.000    0.000    0.000 
#
# Total GULP energy -111658.807159 kJ/mol
# GULP energy per Si atom -5582.940358 kJ/mol
# Density = 2.432748 g / cm^3
# Si number density = 24.382974 Si / 1000 Ang^3
#
#
#
# Elastic Constant Matrix: (Units=GPa)
#
#
# Indices 1 2 3 4 5 6 
#
# 1 150.1354 21.8271 14.2096 0.0000 0.0000 0.0000
# 2 21.8271 64.7808 32.3732 0.0000 0.0000 0.0000
# 3 14.2096 32.3732 42.0479 0.0000 0.0000 0.0000
# 4 0.0000 0.0000 0.0000 37.1025 0.0000 0.0000
# 5 0.0000 0.0000 0.0000 0.0000 -3.3745 0.0000
# 6 0.0000 0.0000 0.0000 0.0000 0.0000 31.3710
#
#
#
# Elastic Compliance Matrix: (Units=1/GPa)
#
#
# Indices 1 2 3 4 5 6 
#
# 1 0.007024 -0.001919 -0.000897 0.000000 0.000000 0.000000
# 2 -0.001919 0.025614 -0.019072 0.000000 0.000000 0.000000
# 3 -0.000897 -0.019072 0.038769 0.000000 0.000000 0.000000
# 4 0.000000 0.000000 0.000000 0.026952 0.000000 0.000000
# 5 0.000000 0.000000 0.000000 0.000000 -0.296339 0.000000
# 6 0.000000 0.000000 0.000000 0.000000 0.000000 0.031877
#
#
# Mechanical properties :
#
#
# Convention : Reuss Voigt Hill
#
# Bulk Modulus (GPa) = 36.18879 43.75375 39.97127
# Shear Modulus (GPa) = -44.20259 25.59008 -9.30626
#
# Velocity S-wave (km/s) = -4.26237 3.24312 -1.95576
# Velocity P-wave (km/s) = 3.05773 5.65748 3.36581
#
# Compressibility (1/GPa) = 0.02763287
#
# Stress axis : x y z
#
# Youngs Moduli (GPa) = 142.35967 39.04071 25.79351
#
# Poissons Ratio (x) = 0.07491 0.02313
# Poissons Ratio (y) = 0.27315 0.49194
# Poissons Ratio (z) = 0.12763 0.74460
#
# Static dielectric constant tensor:
#      x y z
#    x 1.985630 0.000000 0.000000 
#    y 0.000000 2.026110 0.000000 
#    z 0.000000 0.000000 1.937590 
# 
# From -- ./inp_files/455.got.cif
#   From: 2010.05.17/outbox.cif.g08.bks.cpg/sg34_1_cif.got.tgz:455.got - 2010.06.03 17:23:11.
