data_PCOD9347965
_publ_section_title
;
Structure prediction by ZEFSAII (Michael W. Deem and Ramdas Pophale) SiO2 
 PCOD9347965
Probable space group: P N N 2
;
_chemical_formula_sum "Si O2"
_cell_formula_units_Z 22
_cell_length_a 5.164492
_cell_length_b 15.143356
_cell_length_c 12.754794
_cell_angle_alpha 90.000000
_cell_angle_beta 90.000000
_cell_angle_gamma 90.000000
_cell_volume 997.523625
_symmetry_space_group_name_H-M "P N N 2"
_symmetry_group_IT_number 34
_symmetry_cell_setting 'orthorhombic'
loop_
_space_group_symop_operation_xyz
x,y,z
-x,-y,z
1/2-x,1/2+y,1/2+z
1/2+x,1/2-y,1/2+z
loop_
_atom_site_type_symbol
_atom_site_label
_atom_site_fract_x
_atom_site_fract_y
_atom_site_fract_z
Si Si1 0.000000 0.500000 0.375000
Si Si2 0.500000 0.500000 0.680338
Si Si3 0.233604 0.341063 0.955826
Si Si4 0.852714 0.117329 0.998554
Si Si5 0.760072 0.823076 0.816396
Si Si6 0.500000 0.000000 0.323719
Si Si7 0.208579 0.205170 0.573024
O O1 0.778354 0.530274 0.453227
O O2 0.922850 0.410368 0.315038
O O3 0.518901 0.586099 0.605993
O O4 0.247620 0.515506 0.750346
O O5 0.322873 0.269501 0.868108
O O6 0.093888 0.420083 0.896332
O O7 0.499214 0.358534 0.018148
O O8 0.007411 0.308815 0.036615
O O9 0.017276 0.151139 0.899727
O O10 0.655385 0.194845 0.032639
O O11 0.828535 0.804146 0.696693
#
# Coordination Sequence:
#
# PCOD9347965 Si02
#       7
#     2   2   4   4   4   2   4
#     4  12  21  45  68 108 144 188 235 325 348 444
#     4  12  24  42  76 106 136 194 246 308 372 428
#     4  11  26  48  69 102 146 189 244 302 357 454
#     4  11  24  43  71 107 143 179 250 307 359 443
#     4  11  25  43  72 103 146 187 241 307 372 437
#     4  12  27  47  70 104 146 194 249 299 370 446
#     4  11  26  45  72 102 142 195 233 296 381 437
#
# _framework density 22.054614999999998
#
# number of rings (size 3 to 8) (size 9 to 14) (size 15 to 20)
#    0.000    0.727    3.636    2.727    2.545    3.636 
#    3.273    0.000    0.000    0.000    0.000    0.000 
#    0.000    0.000    0.000    0.000    0.000    0.000 
#
# Total GULP energy -122742.726151 kJ/mol
# GULP energy per Si atom -5579.214825 kJ/mol
# Density = 2.200442 g / cm^3
# Si number density = 22.054615 Si / 1000 Ang^3
#
#
#
# Elastic Constant Matrix: (Units=GPa)
#
#
# Indices 1 2 3 4 5 6 
#
# 1 92.6697 11.8107 48.3598 0.0000 0.0000 0.0000
# 2 11.8107 98.1425 50.4224 0.0000 0.0000 0.0000
# 3 48.3598 50.4224 166.1304 0.0000 0.0000 0.0000
# 4 0.0000 0.0000 0.0000 39.4919 0.0000 0.0000
# 5 0.0000 0.0000 0.0000 0.0000 -70.5772 0.0000
# 6 0.0000 0.0000 0.0000 0.0000 0.0000 34.0518
#
#
#
# Elastic Compliance Matrix: (Units=1/GPa)
#
#
# Indices 1 2 3 4 5 6 
#
# 1 0.012740 0.000441 -0.003842 0.000000 0.000000 0.000000
# 2 0.000441 0.012087 -0.003797 0.000000 0.000000 0.000000
# 3 -0.003842 -0.003797 0.008290 0.000000 0.000000 0.000000
# 4 0.000000 0.000000 0.000000 0.025322 0.000000 0.000000
# 5 0.000000 0.000000 0.000000 0.000000 -0.014169 0.000000
# 6 0.000000 0.000000 0.000000 0.000000 0.000000 0.029367
#
#
# Mechanical properties :
#
#
# Convention : Reuss Voigt Hill
#
# Bulk Modulus (GPa) = 53.41737 64.23652 58.82694
# Shear Modulus (GPa) = 53.03709 17.01663 35.02686
#
# Velocity S-wave (km/s) = 4.90920 2.78072 3.98953
# Velocity P-wave (km/s) = 7.51044 6.28484 6.92481
#
# Compressibility (1/GPa) = 0.01872050
#
# Stress axis : x y z
#
# Youngs Moduli (GPa) = 78.49317 82.73417 120.62358
#
# Poissons Ratio (x) = -0.03648 0.46348
# Poissons Ratio (y) = -0.03461 0.45799
# Poissons Ratio (z) = 0.30160 0.31413
#
# Static dielectric constant tensor:
#      x y z
#    x 1.937430 0.000000 0.000000 
#    y 0.000000 1.902010 0.000000 
#    z 0.000000 0.000000 1.777420 
# 
# From -- ./inp_files/4403.got.cif
#   From: 2010.05.17/outbox.cif.g08.bks.cpg/sg34_3_cif.got.tgz:4403.got - 2010.06.03 17:23:11.
