data_PCOD9347372
_publ_section_title
;
Structure prediction by ZEFSAII (Michael W. Deem and Ramdas Pophale) SiO2 
 PCOD9347372
Probable space group: P N N 2
;
_chemical_formula_sum "Si O2"
_cell_formula_units_Z 30
_cell_length_a 11.690291
_cell_length_b 5.283768
_cell_length_c 23.284348
_cell_angle_alpha 90.000000
_cell_angle_beta 90.000000
_cell_angle_gamma 90.000000
_cell_volume 1438.245897
_symmetry_space_group_name_H-M "P N N 2"
_symmetry_group_IT_number 34
_symmetry_cell_setting 'orthorhombic'
loop_
_space_group_symop_operation_xyz
x,y,z
-x,-y,z
1/2-x,1/2+y,1/2+z
1/2+x,1/2-y,1/2+z
loop_
_atom_site_type_symbol
_atom_site_label
_atom_site_fract_x
_atom_site_fract_y
_atom_site_fract_z
Si Si1 0.000000 0.500000 0.503391
Si Si2 0.302826 0.299436 0.029163
Si Si3 0.867824 0.984853 0.189115
Si Si4 0.745399 0.864535 0.307306
Si Si5 0.365635 0.015473 0.612736
Si Si6 0.174383 0.151284 0.430407
Si Si7 0.120594 0.139860 0.836411
Si Si8 0.869416 0.005218 0.964606
O O1 0.920681 0.331654 0.545838
O O2 0.913823 0.655935 0.461353
O O3 0.236977 0.507170 0.066296
O O4 0.339234 0.399724 0.966515
O O5 0.203818 0.099050 0.016743
O O6 0.848129 0.240010 0.152715
O O7 0.797965 0.941020 0.246868
O O8 0.850169 0.740528 0.149196
O O9 0.000000 0.000000 0.206305
O O10 0.830562 0.887655 0.362405
O O11 0.707398 0.570245 0.310616
O O12 0.645471 0.075395 0.316254
O O13 0.500000 0.000000 0.591608
O O14 0.304475 0.243365 0.443974
O O15 0.134250 0.153024 0.905473
O O16 0.000000 0.000000 0.825937
O O17 0.000000 0.000000 0.982521
#
# Coordination Sequence:
#
# PCOD9347372 Si02
#       8
#     2   4   4   4   4   4   4   4
#     4  10  24  42  58  92 136 172 220 254 330 394
#     4  11  22  39  64  90 128 171 209 268 323 391
#     4  10  23  44  64  95 125 166 212 274 319 374
#     4  11  21  40  67  93 130 171 212 256 328 380
#     4  10  24  42  67  95 127 161 219 275 327 374
#     4  10  22  38  60  96 129 170 212 263 317 399
#     4  10  20  37  60  93 134 169 202 261 311 383
#     4   9  20  33  55  93 132 163 207 254 326 385
#
# _framework density 20.858740000000001
#
# number of rings (size 3 to 8) (size 9 to 14) (size 15 to 20)
#    0.000    1.867    1.333    1.600    5.600    1.600 
#    3.600    0.000    5.867    0.000    0.000    0.000 
#    0.000    0.000    0.000    0.000    0.000    0.000 
#
# Total GULP energy -167192.477750 kJ/mol
# GULP energy per Si atom -5573.082592 kJ/mol
# Density = 2.081126 g / cm^3
# Si number density = 20.858740 Si / 1000 Ang^3
#
#
#
# Elastic Constant Matrix: (Units=GPa)
#
#
# Indices 1 2 3 4 5 6 
#
# 1 101.0521 30.2651 38.2199 0.0000 0.0000 0.0000
# 2 30.2651 92.3023 14.8695 0.0000 0.0000 0.0000
# 3 38.2199 14.8695 65.9844 0.0000 0.0000 0.0000
# 4 0.0000 0.0000 0.0000 14.4915 0.0000 0.0000
# 5 0.0000 0.0000 0.0000 0.0000 12.7783 0.0000
# 6 0.0000 0.0000 0.0000 0.0000 0.0000 20.5292
#
#
#
# Elastic Compliance Matrix: (Units=1/GPa)
#
#
# Indices 1 2 3 4 5 6 
#
# 1 0.013579 -0.003305 -0.007120 0.000000 0.000000 0.000000
# 2 -0.003305 0.012047 -0.000800 0.000000 0.000000 0.000000
# 3 -0.007120 -0.000800 0.019460 0.000000 0.000000 0.000000
# 4 0.000000 0.000000 0.000000 0.069006 0.000000 0.000000
# 5 0.000000 0.000000 0.000000 0.000000 0.078258 0.000000
# 6 0.000000 0.000000 0.000000 0.000000 0.000000 0.048711
#
#
# Mechanical properties :
#
#
# Convention : Reuss Voigt Hill
#
# Bulk Modulus (GPa) = 44.18232 47.33865 45.76048
# Shear Modulus (GPa) = 18.44637 21.29211 19.86924
#
# Velocity S-wave (km/s) = 2.97702 3.19842 3.08971
# Velocity P-wave (km/s) = 5.74844 6.03192 5.89188
#
# Compressibility (1/GPa) = 0.02263349
#
# Stress axis : x y z
#
# Youngs Moduli (GPa) = 73.64355 83.01059 51.38814
#
# Poissons Ratio (x) = 0.27438 0.36591
# Poissons Ratio (y) = 0.24342 0.04112
# Poissons Ratio (z) = 0.52437 0.06642
#
# Static dielectric constant tensor:
#      x y z
#    x 1.829940 0.000000 0.000000 
#    y 0.000000 1.813580 0.000000 
#    z 0.000000 0.000000 1.776550 
# 
# From -- ./inp_files/8148.got.cif
#   From: 2010.05.17/outbox.cif.g08.bks.cpg/sg34_5_cif.got.tgz:8148.got - 2010.06.03 17:23:11.
