data_PCOD9347629
_publ_section_title
;
Structure prediction by ZEFSAII (Michael W. Deem and Ramdas Pophale) SiO2 
 PCOD9347629
Probable space group: P N N 2
;
_chemical_formula_sum "Si O2"
_cell_formula_units_Z 26
_cell_length_a 10.282495
_cell_length_b 22.751549
_cell_length_c 5.096944
_cell_angle_alpha 90.000000
_cell_angle_beta 90.000000
_cell_angle_gamma 90.000000
_cell_volume 1192.392784
_symmetry_space_group_name_H-M "P N N 2"
_symmetry_group_IT_number 34
_symmetry_cell_setting 'orthorhombic'
loop_
_space_group_symop_operation_xyz
x,y,z
-x,-y,z
1/2-x,1/2+y,1/2+z
1/2+x,1/2-y,1/2+z
loop_
_atom_site_type_symbol
_atom_site_label
_atom_site_fract_x
_atom_site_fract_y
_atom_site_fract_z
Si Si1 0.308429 0.631344 0.634790
Si Si2 0.654335 0.098942 0.211719
Si Si3 0.941488 0.659441 0.213719
Si Si4 0.601810 0.672285 0.644301
Si Si5 0.315870 0.092370 0.634604
Si Si6 0.500000 0.000000 0.922152
Si Si7 0.209867 0.760010 0.642591
O O1 0.455926 0.650390 0.680298
O O2 0.293954 0.603417 0.349509
O O3 0.221863 0.690483 0.648826
O O4 0.247482 0.587938 0.851075
O O5 0.627788 0.112207 0.516541
O O6 0.803007 0.115283 0.153235
O O7 0.408559 0.040764 0.740881
O O8 0.578730 0.145041 0.020117
O O9 0.860264 0.717453 0.155207
O O10 0.906252 0.538766 0.607878
O O11 0.590276 0.850203 0.642509
O O12 0.646690 0.714715 0.879422
O O13 0.366892 0.291728 0.378970
#
# Coordination Sequence:
#
# PCOD9347629 Si02
#       7
#     4   4   4   4   4   2   4
#     4  12  25  38  61  94 132 164 210 257 312 392
#     4   9  19  37  66  88 118 159 209 261 316 364
#     4   9  19  37  58  90 120 157 207 255 299 376
#     4  10  22  43  58  92 131 168 207 256 315 385
#     4  11  24  40  62  96 125 162 218 272 309 373
#     4  10  22  44  70  92 120 166 220 282 324 360
#     4  10  22  37  63  85 126 175 201 244 316 377
#
# _framework density 21.804897
#
# number of rings (size 3 to 8) (size 9 to 14) (size 15 to 20)
#    0.000    1.846    0.000    3.692    4.308    5.538 
#    0.000    0.769    0.000    3.692    0.000    0.000 
#    0.000    0.000    0.000    0.000    0.000    0.000 
#
# Total GULP energy -145267.201539 kJ/mol
# GULP energy per Si atom -5587.200059 kJ/mol
# Density = 2.175527 g / cm^3
# Si number density = 21.804897 Si / 1000 Ang^3
#
#
#
# Elastic Constant Matrix: (Units=GPa)
#
#
# Indices 1 2 3 4 5 6 
#
# 1 106.1638 23.5787 16.5042 0.0000 0.0000 0.0000
# 2 23.5787 90.4963 20.3753 0.0000 0.0000 0.0000
# 3 16.5042 20.3753 93.3342 0.0000 0.0000 0.0000
# 4 0.0000 0.0000 0.0000 24.7003 0.0000 0.0000
# 5 0.0000 0.0000 0.0000 0.0000 27.3563 0.0000
# 6 0.0000 0.0000 0.0000 0.0000 0.0000 26.7572
#
#
#
# Elastic Compliance Matrix: (Units=1/GPa)
#
#
# Indices 1 2 3 4 5 6 
#
# 1 0.010141 -0.002354 -0.001279 0.000000 0.000000 0.000000
# 2 -0.002354 0.012168 -0.002240 0.000000 0.000000 0.000000
# 3 -0.001279 -0.002240 0.011429 0.000000 0.000000 0.000000
# 4 0.000000 0.000000 0.000000 0.040485 0.000000 0.000000
# 5 0.000000 0.000000 0.000000 0.000000 0.036555 0.000000
# 6 0.000000 0.000000 0.000000 0.000000 0.000000 0.037373
#
#
# Mechanical properties :
#
#
# Convention : Reuss Voigt Hill
#
# Bulk Modulus (GPa) = 45.47240 45.65675 45.56457
# Shear Modulus (GPa) = 29.89911 31.06517 30.48214
#
# Velocity S-wave (km/s) = 3.70700 3.77860 3.74297
# Velocity P-wave (km/s) = 6.26275 6.32624 6.29457
#
# Compressibility (1/GPa) = 0.02199136
#
# Stress axis : x y z
#
# Youngs Moduli (GPa) = 98.60804 82.18337 87.49356
#
# Poissons Ratio (x) = 0.19348 0.11193
# Poissons Ratio (y) = 0.23215 0.19599
# Poissons Ratio (z) = 0.12615 0.18409
#
# Static dielectric constant tensor:
#      x y z
#    x 1.786720 0.000000 0.000000 
#    y 0.000000 1.809040 0.000000 
#    z 0.000000 0.000000 1.783380 
# 
# From -- ./inp_files/986.got.cif
#   From: 2010.05.17/outbox.cif.g08.bks.cpg/sg34_1_cif.got.tgz:986.got - 2010.06.03 17:23:11.
