data_PCOD9347685
_publ_section_title
;
Structure prediction by ZEFSAII (Michael W. Deem and Ramdas Pophale) SiO2 
 PCOD9347685
Probable space group: P N N 2
;
_chemical_formula_sum "Si O2"
_cell_formula_units_Z 32
_cell_length_a 8.119064
_cell_length_b 30.444075
_cell_length_c 5.458155
_cell_angle_alpha 90.000000
_cell_angle_beta 90.000000
_cell_angle_gamma 90.000000
_cell_volume 1349.132525
_symmetry_space_group_name_H-M "P N N 2"
_symmetry_group_IT_number 34
_symmetry_cell_setting 'orthorhombic'
loop_
_space_group_symop_operation_xyz
x,y,z
-x,-y,z
1/2-x,1/2+y,1/2+z
1/2+x,1/2-y,1/2+z
loop_
_atom_site_type_symbol
_atom_site_label
_atom_site_fract_x
_atom_site_fract_y
_atom_site_fract_z
Si Si1 0.081660 0.661688 0.854600
Si Si2 0.839942 0.586572 0.851585
Si Si3 0.401243 0.290754 0.808099
Si Si4 0.510698 0.447733 0.882477
Si Si5 0.981204 0.551671 0.356429
Si Si6 0.733520 0.746632 0.308553
Si Si7 0.422041 0.629088 0.613960
Si Si8 0.244477 0.108149 0.717808
O O1 0.102810 0.712753 0.810244
O O2 0.241179 0.641839 0.713323
O O3 0.913071 0.635615 0.809448
O O4 0.131348 0.645892 0.126248
O O5 0.661964 0.573872 0.956762
O O6 0.862912 0.564926 0.582395
O O7 0.946685 0.565708 0.074027
O O8 0.298276 0.276641 0.568236
O O9 0.579285 0.265253 0.802110
O O10 0.452486 0.341103 0.759142
O O11 0.308889 0.280792 0.063117
O O12 0.500000 0.500000 0.880502
O O13 0.536697 0.422406 0.627025
O O14 0.659627 0.426879 0.037300
O O15 0.000000 0.500000 0.364225
O O16 0.150518 0.577664 0.399791
O O17 0.405125 0.636962 0.327435
#
# Coordination Sequence:
#
# PCOD9347685 Si02
#       8
#     4   4   4   4   4   4   4   4
#     4   9  22  43  69  95 132 180 236 271 340 405
#     4  11  24  41  63 100 131 172 226 293 330 394
#     4  11  26  44  72 103 139 178 230 278 351 406
#     4  11  26  41  64 100 141 178 228 290 359 405
#     4  11  23  40  67  92 130 175 239 276 330 404
#     4  11  25  44  73 105 142 180 229 288 338 427
#     4  10  23  43  69  90 138 184 224 271 352 422
#     4  10  22  42  68  93 130 191 222 283 342 424
#
# _framework density 23.718945999999999
#
# number of rings (size 3 to 8) (size 9 to 14) (size 15 to 20)
#    0.000    1.500    1.250    1.875   12.250    2.500 
#    0.000    0.000    0.000    0.000    0.000    0.000 
#    0.000    0.000    0.000    0.000    0.000    0.000 
#
# Total GULP energy -178247.420690 kJ/mol
# GULP energy per Si atom -5570.231897 kJ/mol
# Density = 2.366496 g / cm^3
# Si number density = 23.718946 Si / 1000 Ang^3
#
#
#
# Elastic Constant Matrix: (Units=GPa)
#
#
# Indices 1 2 3 4 5 6 
#
# 1 81.9639 -4.0087 5.3940 0.0000 0.0000 0.0000
# 2 -4.0087 87.4692 23.0330 0.0000 0.0000 0.0000
# 3 5.3940 23.0330 75.9319 0.0000 0.0000 0.0000
# 4 0.0000 0.0000 0.0000 16.8246 0.0000 0.0000
# 5 0.0000 0.0000 0.0000 0.0000 21.8229 0.0000
# 6 0.0000 0.0000 0.0000 0.0000 0.0000 28.5114
#
#
#
# Elastic Compliance Matrix: (Units=1/GPa)
#
#
# Indices 1 2 3 4 5 6 
#
# 1 0.012318 0.000864 -0.001137 0.000000 0.000000 0.000000
# 2 0.000864 0.012486 -0.003849 0.000000 0.000000 0.000000
# 3 -0.001137 -0.003849 0.014418 0.000000 0.000000 0.000000
# 4 0.000000 0.000000 0.000000 0.059437 0.000000 0.000000
# 5 0.000000 0.000000 0.000000 0.000000 0.045823 0.000000
# 6 0.000000 0.000000 0.000000 0.000000 0.000000 0.035074
#
#
# Mechanical properties :
#
#
# Convention : Reuss Voigt Hill
#
# Bulk Modulus (GPa) = 32.28157 32.68906 32.48531
# Shear Modulus (GPa) = 25.23663 28.16156 26.69909
#
# Velocity S-wave (km/s) = 3.26542 3.44946 3.35870
# Velocity P-wave (km/s) = 5.27796 5.44764 5.36347
#
# Compressibility (1/GPa) = 0.03097743
#
# Stress axis : x y z
#
# Youngs Moduli (GPa) = 81.18478 80.09184 69.35805
#
# Poissons Ratio (x) = -0.06919 0.07886
# Poissons Ratio (y) = -0.07014 0.26694
# Poissons Ratio (z) = 0.09231 0.30825
#
# Static dielectric constant tensor:
#      x y z
#    x 2.074340 0.000000 0.000000 
#    y 0.000000 1.920190 0.000000 
#    z 0.000000 0.000000 2.271050 
# 
# From -- ./inp_files/660.got.cif
#   From: 2010.05.17/outbox.cif.g08.bks.cpg/sg34_1_cif.got.tgz:660.got - 2010.06.03 17:23:11.
