data_PCOD9347184
_publ_section_title
;
Structure prediction by ZEFSAII (Michael W. Deem and Ramdas Pophale) SiO2 
 PCOD9347184
Probable space group: P N N 2
;
_chemical_formula_sum "Si O2"
_cell_formula_units_Z 30
_cell_length_a 13.191784
_cell_length_b 14.201581
_cell_length_c 7.195102
_cell_angle_alpha 90.000000
_cell_angle_beta 90.000000
_cell_angle_gamma 90.000000
_cell_volume 1347.960549
_symmetry_space_group_name_H-M "P N N 2"
_symmetry_group_IT_number 34
_symmetry_cell_setting 'orthorhombic'
loop_
_space_group_symop_operation_xyz
x,y,z
-x,-y,z
1/2-x,1/2+y,1/2+z
1/2+x,1/2-y,1/2+z
loop_
_atom_site_type_symbol
_atom_site_label
_atom_site_fract_x
_atom_site_fract_y
_atom_site_fract_z
Si Si1 0.895952 0.870976 0.131000
Si Si2 0.109530 0.532471 0.750810
Si Si3 0.294139 0.428344 0.280728
Si Si4 0.604072 0.950778 0.795991
Si Si5 0.000000 0.000000 0.824452
Si Si6 0.308782 0.441999 0.725733
Si Si7 0.567448 0.740318 0.826901
Si Si8 0.684460 0.781830 0.172415
O O1 0.785520 0.828345 0.077678
O O2 0.961066 0.795071 0.245189
O O3 0.872641 0.962676 0.258439
O O4 0.959981 0.914070 0.957955
O O5 0.107853 0.540056 0.523212
O O6 0.196124 0.458012 0.798910
O O7 0.146160 0.636339 0.809937
O O8 0.000000 0.500000 0.812103
O O9 0.201316 0.493737 0.222023
O O10 0.403167 0.464576 0.209907
O O11 0.303508 0.439142 0.502610
O O12 0.280111 0.318488 0.245504
O O13 0.599157 0.841185 0.745187
O O14 0.500000 0.000000 0.739148
O O15 0.357506 0.345873 0.788093
O O16 0.586479 0.759399 0.044655
#
# Coordination Sequence:
#
# PCOD9347184 Si02
#       8
#     4   4   4   4   2   4   4   4
#     4  10  18  37  61  79 112 154 193 227 282 352
#     4   8  16  34  52  76 107 144 181 224 271 337
#     4  10  19  38  53  82 114 147 185 235 285 339
#     4   9  18  32  56  78 107 144 184 223 277 341
#     4  10  18  36  62  78 108 164 188 224 278 372
#     4   9  18  34  59  79 107 149 193 215 279 364
#     4  11  18  34  59  85 103 147 192 230 284 338
#     4  10  22  34  57  87 113 138 190 249 280 328
#
# _framework density 22.255842999999999
#
# number of rings (size 3 to 8) (size 9 to 14) (size 15 to 20)
#    0.000    2.400    2.667    3.200    0.000    1.067 
#    7.200    2.667    0.000    1.600    0.000    0.000 
#    0.000    0.000    0.000    0.000    0.000    0.000 
#
# Total GULP energy -167328.390701 kJ/mol
# GULP energy per Si atom -5577.613023 kJ/mol
# Density = 2.220519 g / cm^3
# Si number density = 22.255843 Si / 1000 Ang^3
#
#
#
# Elastic Constant Matrix: (Units=GPa)
#
#
# Indices 1 2 3 4 5 6 
#
# 1 149.5478 71.7885 -9.1044 0.0000 0.0000 0.0000
# 2 71.7885 163.6663 -4.2470 0.0000 0.0000 0.0000
# 3 -9.1044 -4.2470 48.9263 0.0000 0.0000 0.0000
# 4 0.0000 0.0000 0.0000 15.0651 0.0000 0.0000
# 5 0.0000 0.0000 0.0000 0.0000 4.0030 0.0000
# 6 0.0000 0.0000 0.0000 0.0000 0.0000 42.9817
#
#
#
# Elastic Compliance Matrix: (Units=1/GPa)
#
#
# Indices 1 2 3 4 5 6 
#
# 1 0.008548 -0.003717 0.001268 0.000000 0.000000 0.000000
# 2 -0.003717 0.007740 -0.000020 0.000000 0.000000 0.000000
# 3 0.001268 -0.000020 0.020673 0.000000 0.000000 0.000000
# 4 0.000000 0.000000 0.000000 0.066378 0.000000 0.000000
# 5 0.000000 0.000000 0.000000 0.000000 0.249814 0.000000
# 6 0.000000 0.000000 0.000000 0.000000 0.000000 0.023266
#
#
# Mechanical properties :
#
#
# Convention : Reuss Voigt Hill
#
# Bulk Modulus (GPa) = 31.22613 53.22384 42.22498
# Shear Modulus (GPa) = 12.75411 32.65685 22.70548
#
# Velocity S-wave (km/s) = 2.39648 3.83474 3.19753
# Velocity P-wave (km/s) = 4.66031 6.60102 5.71366
#
# Compressibility (1/GPa) = 0.03202446
#
# Stress axis : x y z
#
# Youngs Moduli (GPa) = 116.98520 129.20489 48.37191
#
# Poissons Ratio (x) = 0.48019 -0.06134
# Poissons Ratio (y) = 0.43478 0.00096
# Poissons Ratio (z) = -0.14834 0.00255
#
# Static dielectric constant tensor:
#      x y z
#    x 1.826850 0.000000 0.000000 
#    y 0.000000 1.827380 0.000000 
#    z 0.000000 0.000000 1.891550 
# 
# From -- ./inp_files/3661.got.cif
#   From: 2010.05.17/outbox.cif.g08.bks.cpg/sg34_2_cif.got.tgz:3661.got - 2010.06.03 17:23:11.
