data_PCOD9347383
_publ_section_title
;
Structure prediction by ZEFSAII (Michael W. Deem and Ramdas Pophale) SiO2 
 PCOD9347383
Probable space group: P N N 2
;
_chemical_formula_sum "Si O2"
_cell_formula_units_Z 24
_cell_length_a 13.185471
_cell_length_b 5.671416
_cell_length_c 13.378820
_cell_angle_alpha 90.000000
_cell_angle_beta 90.000000
_cell_angle_gamma 90.000000
_cell_volume 1000.472055
_symmetry_space_group_name_H-M "P N N 2"
_symmetry_group_IT_number 34
_symmetry_cell_setting 'orthorhombic'
loop_
_space_group_symop_operation_xyz
x,y,z
-x,-y,z
1/2-x,1/2+y,1/2+z
1/2+x,1/2-y,1/2+z
loop_
_atom_site_type_symbol
_atom_site_label
_atom_site_fract_x
_atom_site_fract_y
_atom_site_fract_z
Si Si1 0.000000 0.000000 0.756220
Si Si2 0.000000 0.500000 0.519859
Si Si3 0.867490 0.626679 0.863283
Si Si4 0.500000 0.000000 0.540394
Si Si5 0.700897 0.779166 0.983269
Si Si6 0.500000 0.500000 0.661579
Si Si7 0.273487 0.495154 0.692565
Si Si8 0.350336 0.617404 0.105731
O O1 0.961231 0.774896 0.818069
O O2 0.905519 0.052895 0.683608
O O3 0.091718 0.613884 0.459451
O O4 0.063531 0.314138 0.585742
O O5 0.784100 0.816690 0.900152
O O6 0.805974 0.472867 0.782999
O O7 0.904855 0.504890 0.964234
O O8 0.502314 0.749282 0.599131
O O9 0.677271 0.505284 0.003094
O O10 0.745613 0.864367 0.090563
O O11 0.391708 0.515779 0.717754
O O12 0.246690 0.229390 0.657101
#
# Coordination Sequence:
#
# PCOD9347383 Si02
#       8
#     2   2   4   2   4   2   4   4
#     4  10  21  40  71 106 130 180 249 318 362 447
#     4  10  20  37  69  92 132 188 232 289 382 445
#     4  11  25  43  71 108 144 188 262 313 378 459
#     4  12  26  47  79 106 146 204 256 319 370 475
#     4  11  21  42  65 102 135 189 229 310 371 451
#     4  12  25  54  73 108 156 208 245 306 412 455
#     4  10  25  42  71 101 142 190 243 307 378 454
#     4  10  20  40  69  96 135 179 239 296 374 439
#
# _framework density 23.988674
#
# number of rings (size 3 to 8) (size 9 to 14) (size 15 to 20)
#    0.000    1.333    3.333    1.500    2.333    1.333 
#    3.000    0.833    0.000    0.000    0.000    0.000 
#    0.000    0.000    0.000    0.000    0.000    0.000 
#
# Total GULP energy -133890.344426 kJ/mol
# GULP energy per Si atom -5578.764351 kJ/mol
# Density = 2.393407 g / cm^3
# Si number density = 23.988674 Si / 1000 Ang^3
#
#
#
# Elastic Constant Matrix: (Units=GPa)
#
#
# Indices 1 2 3 4 5 6 
#
# 1 160.0199 40.2689 14.8438 0.0000 0.0000 0.0000
# 2 40.2689 78.1715 25.2337 0.0000 0.0000 0.0000
# 3 14.8438 25.2337 50.2501 0.0000 0.0000 0.0000
# 4 0.0000 0.0000 0.0000 21.1034 0.0000 0.0000
# 5 0.0000 0.0000 0.0000 0.0000 38.8601 0.0000
# 6 0.0000 0.0000 0.0000 0.0000 0.0000 34.7880
#
#
#
# Elastic Compliance Matrix: (Units=1/GPa)
#
#
# Indices 1 2 3 4 5 6 
#
# 1 0.007184 -0.003599 -0.000315 0.000000 0.000000 0.000000
# 2 -0.003599 0.017070 -0.007509 0.000000 0.000000 0.000000
# 3 -0.000315 -0.007509 0.023764 0.000000 0.000000 0.000000
# 4 0.000000 0.000000 0.000000 0.047386 0.000000 0.000000
# 5 0.000000 0.000000 0.000000 0.000000 0.025733 0.000000
# 6 0.000000 0.000000 0.000000 0.000000 0.000000 0.028746
#
#
# Mechanical properties :
#
#
# Convention : Reuss Voigt Hill
#
# Bulk Modulus (GPa) = 39.72533 49.90380 44.81457
# Shear Modulus (GPa) = 27.60600 32.82329 30.21464
#
# Velocity S-wave (km/s) = 3.39601 3.70304 3.55285
# Velocity P-wave (km/s) = 5.65449 6.25553 5.96258
#
# Compressibility (1/GPa) = 0.02517285
#
# Stress axis : x y z
#
# Youngs Moduli (GPa) = 139.19509 58.58117 42.08022
#
# Poissons Ratio (x) = 0.21085 0.01325
# Poissons Ratio (y) = 0.50099 0.31598
# Poissons Ratio (z) = 0.04382 0.43988
#
# Static dielectric constant tensor:
#      x y z
#    x 1.959850 0.000000 0.000000 
#    y 0.000000 2.079910 0.000000 
#    z 0.000000 0.000000 1.935960 
# 
# From -- ./inp_files/6894.got.cif
#   From: 2010.05.17/outbox.cif.g08.bks.cpg/sg34_4_cif.got.tgz:6894.got - 2010.06.03 17:23:11.
