data_PCOD9347272
_publ_section_title
;
Structure prediction by ZEFSAII (Michael W. Deem and Ramdas Pophale) SiO2 
 PCOD9347272
Probable space group: P N N 2
;
_chemical_formula_sum "Si O2"
_cell_formula_units_Z 24
_cell_length_a 28.836633
_cell_length_b 8.931761
_cell_length_c 5.142058
_cell_angle_alpha 90.000000
_cell_angle_beta 90.000000
_cell_angle_gamma 90.000000
_cell_volume 1324.398300
_symmetry_space_group_name_H-M "P N N 2"
_symmetry_group_IT_number 34
_symmetry_cell_setting 'orthorhombic'
loop_
_space_group_symop_operation_xyz
x,y,z
-x,-y,z
1/2-x,1/2+y,1/2+z
1/2+x,1/2-y,1/2+z
loop_
_atom_site_type_symbol
_atom_site_label
_atom_site_fract_x
_atom_site_fract_y
_atom_site_fract_z
Si Si1 0.978020 0.165594 0.740320
Si Si2 0.887505 0.014650 0.864722
Si Si3 0.109204 0.186027 0.362844
Si Si4 0.783406 0.791918 0.325405
Si Si5 0.779932 0.999941 0.826747
Si Si6 0.514693 0.170831 0.742185
O O1 0.987498 0.231512 0.456871
O O2 0.923798 0.144720 0.803423
O O3 0.002150 0.267164 0.958094
O O4 0.000000 0.000000 0.756820
O O5 0.895865 0.885283 0.648522
O O6 0.833457 0.054977 0.840400
O O7 0.896328 0.946139 0.149482
O O8 0.161558 0.244199 0.331569
O O9 0.068872 0.303218 0.304055
O O10 0.773952 0.902784 0.566202
O O11 0.753732 0.641436 0.338233
O O12 0.773226 0.886368 0.066066
O O13 0.500000 0.000000 0.765029
#
# Coordination Sequence:
#
# PCOD9347272 Si02
#       6
#     4   4   4   4   4   4
#     4  12  21  38  63  81 110 153 194 228 264 339
#     4  10  20  35  61  84 106 147 199 229 265 331
#     4  10  19  37  57  81 112 153 181 223 287 340
#     4  10  21  38  61  81 114 147 186 233 283 333
#     4  10  21  39  59  86 114 145 188 236 280 337
#     4  12  24  38  55  86 122 145 184 236 287 331
#
# _framework density 18.121437
#
# number of rings (size 3 to 8) (size 9 to 14) (size 15 to 20)
#    0.000    1.333    3.333    3.000    0.000    0.000 
#    6.000    0.000    0.000    0.000    0.000    0.000 
#    0.000    0.000    0.000    0.000    0.000    0.000 
#
# Total GULP energy -134092.337233 kJ/mol
# GULP energy per Si atom -5587.180718 kJ/mol
# Density = 1.808019 g / cm^3
# Si number density = 18.121437 Si / 1000 Ang^3
#
#
#
# Elastic Constant Matrix: (Units=GPa)
#
#
# Indices 1 2 3 4 5 6 
#
# 1 104.6406 58.8401 1.6181 0.0000 0.0000 0.0000
# 2 58.8401 67.4445 -0.8821 0.0000 0.0000 0.0000
# 3 1.6181 -0.8821 68.2488 0.0000 0.0000 0.0000
# 4 0.0000 0.0000 0.0000 17.0412 0.0000 0.0000
# 5 0.0000 0.0000 0.0000 0.0000 6.4497 0.0000
# 6 0.0000 0.0000 0.0000 0.0000 0.0000 31.6685
#
#
#
# Elastic Compliance Matrix: (Units=1/GPa)
#
#
# Indices 1 2 3 4 5 6 
#
# 1 0.018789 -0.016400 -0.000657 0.000000 0.000000 0.000000
# 2 -0.016400 0.029145 0.000766 0.000000 0.000000 0.000000
# 3 -0.000657 0.000766 0.014678 0.000000 0.000000 0.000000
# 4 0.000000 0.000000 0.000000 0.058681 0.000000 0.000000
# 5 0.000000 0.000000 0.000000 0.000000 0.155046 0.000000
# 6 0.000000 0.000000 0.000000 0.000000 0.000000 0.031577
#
#
# Mechanical properties :
#
#
# Convention : Reuss Voigt Hill
#
# Bulk Modulus (GPa) = 33.30325 39.94287 36.62306
# Shear Modulus (GPa) = 14.26498 23.08240 18.67369
#
# Velocity S-wave (km/s) = 2.80873 3.57285 3.21358
# Velocity P-wave (km/s) = 5.37925 6.25380 5.83294
#
# Compressibility (1/GPa) = 0.03002710
#
# Stress axis : x y z
#
# Youngs Moduli (GPa) = 53.22359 34.31123 68.13027
#
# Poissons Ratio (x) = 0.56271 0.04479
# Poissons Ratio (y) = 0.87288 -0.05216
# Poissons Ratio (z) = 0.03499 -0.02627
#
# Static dielectric constant tensor:
#      x y z
#    x 1.645820 0.000000 0.000000 
#    y 0.000000 1.561890 0.000000 
#    z 0.000000 0.000000 1.617250 
# 
# From -- ./inp_files/563.got.cif
#   From: 2010.05.17/outbox.cif.g08.bks.cpg/sg34_1_cif.got.tgz:563.got - 2010.06.03 17:23:11.
