data_PCOD9347995
_publ_section_title
;
Structure prediction by ZEFSAII (Michael W. Deem and Ramdas Pophale) SiO2 
 PCOD9347995
Probable space group: P N N 2
;
_chemical_formula_sum "Si O2"
_cell_formula_units_Z 20
_cell_length_a 9.205397
_cell_length_b 16.562344
_cell_length_c 5.146008
_cell_angle_alpha 90.000000
_cell_angle_beta 90.000000
_cell_angle_gamma 90.000000
_cell_volume 784.575570
_symmetry_space_group_name_H-M "P N N 2"
_symmetry_group_IT_number 34
_symmetry_cell_setting 'orthorhombic'
loop_
_space_group_symop_operation_xyz
x,y,z
-x,-y,z
1/2-x,1/2+y,1/2+z
1/2+x,1/2-y,1/2+z
loop_
_atom_site_type_symbol
_atom_site_label
_atom_site_fract_x
_atom_site_fract_y
_atom_site_fract_z
Si Si1 0.242708 0.952413 0.358510
Si Si2 0.492074 0.875612 0.650718
Si Si3 0.297427 0.555103 0.343539
Si Si4 0.770607 0.682381 0.512585
Si Si5 0.019872 0.212021 0.834982
O O1 0.407223 0.929686 0.442612
O O2 0.168934 0.990065 0.615629
O O3 0.188145 0.866671 0.240457
O O4 0.228197 0.014966 0.123255
O O5 0.650541 0.902980 0.732839
O O6 0.386597 0.879446 0.896193
O O7 0.481919 0.783225 0.551849
O O8 0.416632 0.624091 0.388460
O O9 0.869931 0.753678 0.619842
O O10 0.653372 0.705525 0.295256
#
# Coordination Sequence:
#
# PCOD9347995 Si02
#       5
#     4   4   4   4   4
#     4  11  27  48  75 115 154 201 258 325 389 473
#     4  11  26  46  78 110 151 204 259 320 383 475
#     4  12  27  49  79 112 152 208 261 321 395 465
#     4  11  26  50  74 115 157 203 264 325 398 473
#     4  11  27  48  77 114 153 210 259 327 394 477
#
# _framework density 25.491489000000001
#
# number of rings (size 3 to 8) (size 9 to 14) (size 15 to 20)
#    0.000    0.800    4.000    0.600   14.000    0.800 
#    3.600    0.000    0.000    0.000    0.000    0.000 
#    0.000    0.000    0.000    0.000    0.000    0.000 
#
# Total GULP energy -111819.591664 kJ/mol
# GULP energy per Si atom -5590.979583 kJ/mol
# Density = 2.543347 g / cm^3
# Si number density = 25.491489 Si / 1000 Ang^3
#
#
#
# Elastic Constant Matrix: (Units=GPa)
#
#
# Indices 1 2 3 4 5 6 
#
# 1 153.3330 34.1688 30.4694 0.0000 0.0000 0.0000
# 2 34.1688 87.0847 35.6043 0.0000 0.0000 0.0000
# 3 30.4694 35.6043 134.6880 0.0000 0.0000 0.0000
# 4 0.0000 0.0000 0.0000 35.5326 0.0000 0.0000
# 5 0.0000 0.0000 0.0000 0.0000 20.8016 0.0000
# 6 0.0000 0.0000 0.0000 0.0000 0.0000 38.2682
#
#
#
# Elastic Compliance Matrix: (Units=1/GPa)
#
#
# Indices 1 2 3 4 5 6 
#
# 1 0.007264 -0.002442 -0.000998 0.000000 0.000000 0.000000
# 2 -0.002442 0.013696 -0.003068 0.000000 0.000000 0.000000
# 3 -0.000998 -0.003068 0.008461 0.000000 0.000000 0.000000
# 4 0.000000 0.000000 0.000000 0.028143 0.000000 0.000000
# 5 0.000000 0.000000 0.000000 0.000000 0.048073 0.000000
# 6 0.000000 0.000000 0.000000 0.000000 0.000000 0.026131
#
#
# Mechanical properties :
#
#
# Convention : Reuss Voigt Hill
#
# Bulk Modulus (GPa) = 60.95586 63.95453 62.45519
# Shear Modulus (GPa) = 33.27713 37.24467 35.26090
#
# Velocity S-wave (km/s) = 3.61698 3.82653 3.72323
# Velocity P-wave (km/s) = 6.43487 6.68328 6.56025
#
# Compressibility (1/GPa) = 0.01640531
#
# Stress axis : x y z
#
# Youngs Moduli (GPa) = 137.66025 73.01587 118.18573
#
# Poissons Ratio (x) = 0.17833 0.11792
# Poissons Ratio (y) = 0.33621 0.36258
# Poissons Ratio (z) = 0.13735 0.22401
#
# Static dielectric constant tensor:
#      x y z
#    x 2.004860 0.000000 0.000000 
#    y 0.000000 2.099080 0.000000 
#    z 0.000000 0.000000 2.023870 
# 
# From -- ./inp_files/417.got.cif
#   From: 2010.05.17/outbox.cif.g08.bks.cpg/sg34_1_cif.got.tgz:417.got - 2010.06.03 17:23:11.
