data_PCOD9347486
_publ_section_title
;
Structure prediction by ZEFSAII (Michael W. Deem and Ramdas Pophale) SiO2 
 PCOD9347486
Probable space group: P N N 2
;
_chemical_formula_sum "Si O2"
_cell_formula_units_Z 18
_cell_length_a 5.284984
_cell_length_b 5.332112
_cell_length_c 25.103943
_cell_angle_alpha 90.000000
_cell_angle_beta 90.000000
_cell_angle_gamma 90.000000
_cell_volume 707.432292
_symmetry_space_group_name_H-M "P N N 2"
_symmetry_group_IT_number 34
_symmetry_cell_setting 'orthorhombic'
loop_
_space_group_symop_operation_xyz
x,y,z
-x,-y,z
1/2-x,1/2+y,1/2+z
1/2+x,1/2-y,1/2+z
loop_
_atom_site_type_symbol
_atom_site_label
_atom_site_fract_x
_atom_site_fract_y
_atom_site_fract_z
Si Si1 0.645675 0.255472 0.269170
Si Si2 0.742465 0.163289 0.918862
Si Si3 0.828654 0.250984 0.151405
Si Si4 0.500000 0.500000 0.840462
Si Si5 0.329583 0.249132 0.537125
O O1 0.500000 0.500000 0.287798
O O2 0.673433 0.265217 0.205452
O O3 0.906241 0.215511 0.300255
O O4 0.500000 0.000000 0.280231
O O5 0.718106 0.400172 0.880013
O O6 0.500000 0.000000 0.903921
O O7 0.695501 0.243882 0.980324
O O8 0.000000 0.000000 0.915884
O O9 0.687679 0.248451 0.094103
O O10 0.000000 0.500000 0.151339
O O11 0.000000 0.000000 0.154699
O O12 0.500000 0.500000 0.538074
O O13 0.500000 0.000000 0.536304
#
# Coordination Sequence:
#
# PCOD9347486 Si02
#       5
#     4   4   4   2   4
#     4  12  29  48  76 113 152 207 267 327 403 477
#     4  11  29  51  79 116 158 211 268 329 404 480
#     4  10  20  44  75 108 153 197 251 327 399 476
#     4  12  32  50  76 108 170 208 282 330 406 480
#     4   9  21  43  75 111 153 197 254 325 399 477
#
# _framework density 25.444133999999998
#
# number of rings (size 3 to 8) (size 9 to 14) (size 15 to 20)
#    0.000    1.333    1.111    1.333   12.444    0.889 
#    2.000    0.000    0.000    0.000    0.000    0.000 
#    0.000    0.000    0.000    0.000    0.000    0.000 
#
# Total GULP energy -100802.003425 kJ/mol
# GULP energy per Si atom -5600.111301 kJ/mol
# Density = 2.538622 g / cm^3
# Si number density = 25.444134 Si / 1000 Ang^3
#
#
#
# Elastic Constant Matrix: (Units=GPa)
#
#
# Indices 1 2 3 4 5 6 
#
# 1 80.6311 43.5894 28.9651 0.0000 0.0000 0.0000
# 2 43.5894 183.4219 27.2787 0.0000 0.0000 0.0000
# 3 28.9651 27.2787 225.8149 0.0000 0.0000 0.0000
# 4 0.0000 0.0000 0.0000 25.8487 0.0000 0.0000
# 5 0.0000 0.0000 0.0000 0.0000 20.5841 0.0000
# 6 0.0000 0.0000 0.0000 0.0000 0.0000 51.8190
#
#
#
# Elastic Compliance Matrix: (Units=1/GPa)
#
#
# Indices 1 2 3 4 5 6 
#
# 1 0.014707 -0.003273 -0.001491 0.000000 0.000000 0.000000
# 2 -0.003273 0.006280 -0.000339 0.000000 0.000000 0.000000
# 3 -0.001491 -0.000339 0.004661 0.000000 0.000000 0.000000
# 4 0.000000 0.000000 0.000000 0.038687 0.000000 0.000000
# 5 0.000000 0.000000 0.000000 0.000000 0.048581 0.000000
# 6 0.000000 0.000000 0.000000 0.000000 0.000000 0.019298
#
#
# Mechanical properties :
#
#
# Convention : Reuss Voigt Hill
#
# Bulk Modulus (GPa) = 64.75973 76.61492 70.68732
# Shear Modulus (GPa) = 33.88273 45.65267 39.76770
#
# Velocity S-wave (km/s) = 3.65314 4.24043 3.95769
# Velocity P-wave (km/s) = 6.58034 7.35877 6.98041
#
# Compressibility (1/GPa) = 0.01544170
#
# Stress axis : x y z
#
# Youngs Moduli (GPa) = 67.99292 159.23057 214.56509
#
# Poissons Ratio (x) = 0.52122 0.31993
# Poissons Ratio (y) = 0.22257 0.07269
# Poissons Ratio (z) = 0.10138 0.05394
#
# Static dielectric constant tensor:
#      x y z
#    x 1.940950 0.000000 0.000000 
#    y 0.000000 1.958250 0.000000 
#    z 0.000000 0.000000 2.006170 
# 
# From -- ./inp_files/8217.got.cif
#   From: 2010.05.17/outbox.cif.g08.bks.cpg/sg34_5_cif.got.tgz:8217.got - 2010.06.03 17:23:11.
