data_PCOD9347621
_publ_section_title
;
Structure prediction by ZEFSAII (Michael W. Deem and Ramdas Pophale) SiO2 
 PCOD9347621
Probable space group: P N N 2
;
_chemical_formula_sum "Si O2"
_cell_formula_units_Z 26
_cell_length_a 18.500540
_cell_length_b 12.314174
_cell_length_c 5.377721
_cell_angle_alpha 90.000000
_cell_angle_beta 90.000000
_cell_angle_gamma 90.000000
_cell_volume 1225.146314
_symmetry_space_group_name_H-M "P N N 2"
_symmetry_group_IT_number 34
_symmetry_cell_setting 'orthorhombic'
loop_
_space_group_symop_operation_xyz
x,y,z
-x,-y,z
1/2-x,1/2+y,1/2+z
1/2+x,1/2-y,1/2+z
loop_
_atom_site_type_symbol
_atom_site_label
_atom_site_fract_x
_atom_site_fract_y
_atom_site_fract_z
Si Si1 0.029256 0.211682 0.824700
Si Si2 0.223984 0.931759 0.788368
Si Si3 0.172741 0.258102 0.046812
Si Si4 0.866829 0.272834 0.874989
Si Si5 0.297006 0.140587 0.866795
Si Si6 0.375741 0.581369 0.940438
Si Si7 0.000000 0.000000 0.151320
O O1 0.067902 0.161747 0.581504
O O2 0.952275 0.268853 0.821985
O O3 0.092416 0.281355 0.953354
O O4 0.013745 0.104883 0.987413
O O5 0.283711 0.858016 0.654680
O O6 0.168400 0.847650 0.915098
O O7 0.271525 0.019328 0.934614
O O8 0.177223 0.009818 0.608517
O O9 0.164711 0.158813 0.243885
O O10 0.223536 0.210920 0.828886
O O11 0.833402 0.312460 0.614227
O O12 0.843935 0.343266 0.116736
O O13 0.428118 0.492858 0.813752
#
# Coordination Sequence:
#
# PCOD9347621 Si02
#       7
#     4   4   4   4   4   4   2
#     4  11  23  42  64 102 137 179 227 298 341 415
#     4  11  22  43  70  96 136 182 224 285 346 403
#     4  10  25  41  70  97 142 179 229 291 346 411
#     4  11  27  42  73  99 137 181 227 288 349 404
#     4  11  25  46  64 106 135 180 235 279 341 429
#     4  11  22  42  66 104 135 173 236 283 350 416
#     4  10  22  34  66 102 134 172 220 288 362 394
#
# _framework density 21.221955000000001
#
# number of rings (size 3 to 8) (size 9 to 14) (size 15 to 20)
#    0.000    1.231    1.538    4.154   10.769    2.462 
#    0.000    0.769    0.000    0.000    0.000    0.000 
#    0.000    0.000    0.000    0.000    0.000    0.000 
#
# Total GULP energy -145137.073313 kJ/mol
# GULP energy per Si atom -5582.195127 kJ/mol
# Density = 2.117365 g / cm^3
# Si number density = 21.221955 Si / 1000 Ang^3
#
#
#
# Elastic Constant Matrix: (Units=GPa)
#
#
# Indices 1 2 3 4 5 6 
#
# 1 106.3723 6.7112 24.4774 0.0000 0.0000 0.0000
# 2 6.7112 38.6002 -0.8367 0.0000 0.0000 0.0000
# 3 24.4774 -0.8367 71.7688 0.0000 0.0000 0.0000
# 4 0.0000 0.0000 0.0000 13.8358 0.0000 0.0000
# 5 0.0000 0.0000 0.0000 0.0000 32.5381 0.0000
# 6 0.0000 0.0000 0.0000 0.0000 0.0000 34.3460
#
#
#
# Elastic Compliance Matrix: (Units=1/GPa)
#
#
# Indices 1 2 3 4 5 6 
#
# 1 0.010335 -0.001874 -0.003547 0.000000 0.000000 0.000000
# 2 -0.001874 0.026253 0.000945 0.000000 0.000000 0.000000
# 3 -0.003547 0.000945 0.015154 0.000000 0.000000 0.000000
# 4 0.000000 0.000000 0.000000 0.072276 0.000000 0.000000
# 5 0.000000 0.000000 0.000000 0.000000 0.030733 0.000000
# 6 0.000000 0.000000 0.000000 0.000000 0.000000 0.029115
#
#
# Mechanical properties :
#
#
# Convention : Reuss Voigt Hill
#
# Bulk Modulus (GPa) = 23.36909 30.82722 27.09815
# Shear Modulus (GPa) = 24.14500 28.56995 26.35747
#
# Velocity S-wave (km/s) = 3.37669 3.67310 3.52801
# Velocity P-wave (km/s) = 5.12234 5.70496 5.42148
#
# Compressibility (1/GPa) = 0.04279157
#
# Stress axis : x y z
#
# Youngs Moduli (GPa) = 96.75554 38.09110 65.98782
#
# Poissons Ratio (x) = 0.07138 0.23405
# Poissons Ratio (y) = 0.18130 -0.06237
# Poissons Ratio (z) = 0.34317 -0.03600
#
# Static dielectric constant tensor:
#      x y z
#    x 1.842840 0.000000 0.000000 
#    y 0.000000 1.777700 0.000000 
#    z 0.000000 0.000000 1.899070 
# 
# From -- ./inp_files/943.got.cif
#   From: 2010.05.17/outbox.cif.g08.bks.cpg/sg34_1_cif.got.tgz:943.got - 2010.06.03 17:23:11.
