data_PCOD9347164
_publ_section_title
;
Structure prediction by ZEFSAII (Michael W. Deem and Ramdas Pophale) SiO2 
 PCOD9347164
Probable space group: P N N 2
;
_chemical_formula_sum "Si O2"
_cell_formula_units_Z 22
_cell_length_a 5.963407
_cell_length_b 11.763321
_cell_length_c 13.485733
_cell_angle_alpha 90.000000
_cell_angle_beta 90.000000
_cell_angle_gamma 90.000000
_cell_volume 946.017033
_symmetry_space_group_name_H-M "P N N 2"
_symmetry_group_IT_number 34
_symmetry_cell_setting 'orthorhombic'
loop_
_space_group_symop_operation_xyz
x,y,z
-x,-y,z
1/2-x,1/2+y,1/2+z
1/2+x,1/2-y,1/2+z
loop_
_atom_site_type_symbol
_atom_site_label
_atom_site_fract_x
_atom_site_fract_y
_atom_site_fract_z
Si Si1 0.169065 0.897212 0.250000
Si Si2 0.761101 0.008185 0.735507
Si Si3 0.470345 0.878084 0.060231
Si Si4 0.500000 0.000000 0.391795
Si Si5 0.852788 0.746500 0.156502
Si Si6 0.236969 0.651820 0.040626
O O1 0.275560 0.900639 0.140506
O O2 0.017689 0.785484 0.244713
O O3 0.374936 0.907290 0.324475
O O4 0.000000 0.000000 0.267557
O O5 0.775796 0.918022 0.643455
O O6 0.500000 0.000000 0.773360
O O7 0.770596 0.134621 0.691154
O O8 0.000000 0.000000 0.794276
O O9 0.689619 0.846635 0.124186
O O10 0.404428 0.755021 0.013846
O O11 0.500000 0.000000 0.006551
O O12 0.309301 0.059085 0.457534
O O13 0.998910 0.711696 0.061604
#
# Coordination Sequence:
#
# PCOD9347164 Si02
#       6
#     4   4   4   2   4   4
#     4  11  22  36  57  88 134 168 217 274 354 417
#     4  10  18  34  56  93 129 162 211 289 336 386
#     4  11  20  37  59  91 127 167 221 279 330 414
#     4  12  22  40  56  98 136 176 218 294 362 424
#     4  10  19  35  57  89 127 167 212 282 333 407
#     4  10  22  34  59  94 130 165 223 283 343 400
#
# _framework density 23.255395
#
# number of rings (size 3 to 8) (size 9 to 14) (size 15 to 20)
#    0.000    1.455    7.273    0.000    0.000    2.182 
#    0.000    0.000    0.000    0.000    0.000   82.727 
#    0.000    0.000    0.000    0.000    0.000    0.000 
#
# Total GULP energy -122570.182747 kJ/mol
# GULP energy per Si atom -5571.371943 kJ/mol
# Density = 2.320247 g / cm^3
# Si number density = 23.255395 Si / 1000 Ang^3
#
#
#
# Elastic Constant Matrix: (Units=GPa)
#
#
# Indices 1 2 3 4 5 6 
#
# 1 119.5274 19.6301 11.4812 0.0000 0.0000 0.0000
# 2 19.6301 147.0074 11.3888 0.0000 0.0000 0.0000
# 3 11.4812 11.3888 40.7113 0.0000 0.0000 0.0000
# 4 0.0000 0.0000 0.0000 6.4388 0.0000 0.0000
# 5 0.0000 0.0000 0.0000 0.0000 11.8877 0.0000
# 6 0.0000 0.0000 0.0000 0.0000 0.0000 40.0860
#
#
#
# Elastic Compliance Matrix: (Units=1/GPa)
#
#
# Indices 1 2 3 4 5 6 
#
# 1 0.008740 -0.000998 -0.002186 0.000000 0.000000 0.000000
# 2 -0.000998 0.007067 -0.001696 0.000000 0.000000 0.000000
# 3 -0.002186 -0.001696 0.025654 0.000000 0.000000 0.000000
# 4 0.000000 0.000000 0.000000 0.155309 0.000000 0.000000
# 5 0.000000 0.000000 0.000000 0.000000 0.084121 0.000000
# 6 0.000000 0.000000 0.000000 0.000000 0.000000 0.024946
#
#
# Mechanical properties :
#
#
# Convention : Reuss Voigt Hill
#
# Bulk Modulus (GPa) = 31.54283 43.58293 37.56288
# Shear Modulus (GPa) = 15.32978 29.33224 22.33101
#
# Velocity S-wave (km/s) = 2.57026 3.55534 3.10215
# Velocity P-wave (km/s) = 4.73301 5.96956 5.38689
#
# Compressibility (1/GPa) = 0.03170292
#
# Stress axis : x y z
#
# Youngs Moduli (GPa) = 114.41527 141.50343 38.98033
#
# Poissons Ratio (x) = 0.14118 0.08520
# Poissons Ratio (y) = 0.11416 0.06609
# Poissons Ratio (z) = 0.25008 0.23993
#
# Static dielectric constant tensor:
#      x y z
#    x 1.935410 0.000000 0.000000 
#    y 0.000000 1.927430 0.000000 
#    z 0.000000 0.000000 1.848410 
# 
# From -- ./inp_files/6057.got.cif
#   From: 2010.05.17/outbox.cif.g08.bks.cpg/sg34_4_cif.got.tgz:6057.got - 2010.06.03 17:23:11.
