data_PCOD9347363
_publ_section_title
;
Structure prediction by ZEFSAII (Michael W. Deem and Ramdas Pophale) SiO2 
 PCOD9347363
Probable space group: P N N 2
;
_chemical_formula_sum "Si O2"
_cell_formula_units_Z 32
_cell_length_a 4.976155
_cell_length_b 26.654742
_cell_length_c 11.913454
_cell_angle_alpha 90.000000
_cell_angle_beta 90.000000
_cell_angle_gamma 90.000000
_cell_volume 1580.178233
_symmetry_space_group_name_H-M "P N N 2"
_symmetry_group_IT_number 34
_symmetry_cell_setting 'orthorhombic'
loop_
_space_group_symop_operation_xyz
x,y,z
-x,-y,z
1/2-x,1/2+y,1/2+z
1/2+x,1/2-y,1/2+z
loop_
_atom_site_type_symbol
_atom_site_label
_atom_site_fract_x
_atom_site_fract_y
_atom_site_fract_z
Si Si1 0.845314 0.692059 0.007890
Si Si2 0.868569 0.668465 0.268766
Si Si3 0.649316 0.243039 0.966407
Si Si4 0.385491 0.622143 0.375578
Si Si5 0.817683 0.146666 0.088681
Si Si6 0.309382 0.049163 0.277265
Si Si7 0.821606 0.110922 0.331439
Si Si8 0.102339 0.555842 0.527620
O O1 0.839025 0.680291 0.139377
O O2 0.651185 0.737651 0.976454
O O3 0.145003 0.710795 0.979304
O O4 0.721368 0.645851 0.938228
O O5 0.800449 0.715750 0.347858
O O6 0.661581 0.625438 0.308645
O O7 0.164950 0.651478 0.304455
O O8 0.687587 0.200341 0.061562
O O9 0.439483 0.645555 0.499301
O O10 0.267564 0.569840 0.416963
O O11 0.900232 0.140999 0.217838
O O12 0.624050 0.099360 0.051915
O O13 0.523369 0.091829 0.304682
O O14 0.235291 0.051495 0.145196
O O15 0.035387 0.064895 0.340935
O O16 0.500000 0.000000 0.295359
O O17 0.000000 0.500000 0.512137
#
# Coordination Sequence:
#
# PCOD9347363 Si02
#       8
#     4   4   4   4   4   4   4   4
#     4  12  27  42  62  94 122 172 212 265 298 377
#     4  11  25  42  63  84 126 165 212 250 320 366
#     4  11  24  40  64  89 123 167 210 254 322 365
#     4  11  19  41  62  88 122 171 193 256 318 370
#     4  10  22  38  63  92 130 167 202 259 325 377
#     4  10  21  38  64  95 131 164 198 260 325 380
#     4  11  23  39  63  95 130 159 212 259 312 377
#     4  10  20  36  63 100 129 159 207 259 326 379
#
# _framework density 20.250879999999999
#
# number of rings (size 3 to 8) (size 9 to 14) (size 15 to 20)
#    0.000    1.250    3.750    3.375    3.500    0.500 
#    0.000    0.000    0.000    4.500    0.000    0.000 
#    0.000    0.000    0.000    0.000    0.000    0.000 
#
# Total GULP energy -178482.274548 kJ/mol
# GULP energy per Si atom -5577.571080 kJ/mol
# Density = 2.020479 g / cm^3
# Si number density = 20.250880 Si / 1000 Ang^3
#
#
#
# Elastic Constant Matrix: (Units=GPa)
#
#
# Indices 1 2 3 4 5 6 
#
# 1 78.4863 -1.3802 9.8447 0.0000 0.0000 0.0000
# 2 -1.3802 48.0345 21.6992 0.0000 0.0000 0.0000
# 3 9.8447 21.6992 105.5791 0.0000 0.0000 0.0000
# 4 0.0000 0.0000 0.0000 20.7298 0.0000 0.0000
# 5 0.0000 0.0000 0.0000 0.0000 11.4516 0.0000
# 6 0.0000 0.0000 0.0000 0.0000 0.0000 24.7071
#
#
#
# Elastic Compliance Matrix: (Units=1/GPa)
#
#
# Indices 1 2 3 4 5 6 
#
# 1 0.012936 0.001010 -0.001414 0.000000 0.000000 0.000000
# 2 0.001010 0.023028 -0.004827 0.000000 0.000000 0.000000
# 3 -0.001414 -0.004827 0.010595 0.000000 0.000000 0.000000
# 4 0.000000 0.000000 0.000000 0.048240 0.000000 0.000000
# 5 0.000000 0.000000 0.000000 0.000000 0.087324 0.000000
# 6 0.000000 0.000000 0.000000 0.000000 0.000000 0.040474
#
#
# Mechanical properties :
#
#
# Convention : Reuss Voigt Hill
#
# Bulk Modulus (GPa) = 27.70189 32.49191 30.09690
# Shear Modulus (GPa) = 20.40052 24.84010 22.62031
#
# Velocity S-wave (km/s) = 3.17738 3.50611 3.34579
# Velocity P-wave (km/s) = 5.21249 5.69824 5.46077
#
# Compressibility (1/GPa) = 0.03609862
#
# Stress axis : x y z
#
# Youngs Moduli (GPa) = 77.30245 43.42538 94.37971
#
# Poissons Ratio (x) = -0.04388 0.13344
# Poissons Ratio (y) = -0.07811 0.45558
# Poissons Ratio (z) = 0.10930 0.20962
#
# Static dielectric constant tensor:
#      x y z
#    x 1.771990 0.000000 0.000000 
#    y 0.000000 1.791910 0.000000 
#    z 0.000000 0.000000 1.698270 
# 
# From -- ./inp_files/4567.got.cif
#   From: 2010.05.17/outbox.cif.g08.bks.cpg/sg34_3_cif.got.tgz:4567.got - 2010.06.03 17:23:11.
