data_PCOD9347563
_publ_section_title
;
Structure prediction by ZEFSAII (Michael W. Deem and Ramdas Pophale) SiO2 
 PCOD9347563
Probable space group: P N N 2
;
_chemical_formula_sum "Si O2"
_cell_formula_units_Z 20
_cell_length_a 9.993761
_cell_length_b 7.569388
_cell_length_c 12.100562
_cell_angle_alpha 90.000000
_cell_angle_beta 90.000000
_cell_angle_gamma 90.000000
_cell_volume 915.367034
_symmetry_space_group_name_H-M "P N N 2"
_symmetry_group_IT_number 34
_symmetry_cell_setting 'orthorhombic'
loop_
_space_group_symop_operation_xyz
x,y,z
-x,-y,z
1/2-x,1/2+y,1/2+z
1/2+x,1/2-y,1/2+z
loop_
_atom_site_type_symbol
_atom_site_label
_atom_site_fract_x
_atom_site_fract_y
_atom_site_fract_z
Si Si1 0.378571 0.365452 0.625000
Si Si2 0.797945 0.370760 0.493549
Si Si3 0.150312 0.531816 0.253641
Si Si4 0.410709 0.326390 0.183516
Si Si5 0.982335 0.784608 0.912471
O O1 0.500000 0.500000 0.658557
O O2 0.265084 0.492131 0.579349
O O3 0.323105 0.232323 0.715349
O O4 0.428379 0.247354 0.520013
O O5 0.846718 0.471277 0.385672
O O6 0.905771 0.268868 0.565924
O O7 0.671325 0.255258 0.447324
O O8 0.259937 0.395207 0.209541
O O9 0.000000 0.500000 0.215006
O O10 0.500000 0.500000 0.171986
O O11 0.466138 0.224201 0.292674
O O12 0.000000 0.000000 0.904753
#
# Coordination Sequence:
#
# PCOD9347563 Si02
#       5
#     4   4   4   4   4
#     4   9  19  40  64  85 129 173 210 267 329 392
#     4  10  21  40  66  93 130 172 216 265 334 389
#     4  12  23  39  65  99 129 167 221 278 329 392
#     4  11  21  42  68  90 134 178 215 272 333 393
#     4   8  15  39  63  79 119 177 205 256 324 379
#
# _framework density 21.849159
#
# number of rings (size 3 to 8) (size 9 to 14) (size 15 to 20)
#    0.000    2.400    6.000    2.400    0.000    2.400 
#    3.600    0.000    0.000    0.000    0.000    0.000 
#    0.000    0.000    0.000    0.000    0.000    0.000 
#
# Total GULP energy -111516.287488 kJ/mol
# GULP energy per Si atom -5575.814374 kJ/mol
# Density = 2.179943 g / cm^3
# Si number density = 21.849159 Si / 1000 Ang^3
#
#
#
# Elastic Constant Matrix: (Units=GPa)
#
#
# Indices 1 2 3 4 5 6 
#
# 1 52.0003 -9.3033 -9.7755 0.0000 0.0000 0.0000
# 2 -9.3033 27.1478 12.7789 0.0000 0.0000 0.0000
# 3 -9.7755 12.7789 57.1511 0.0000 0.0000 0.0000
# 4 0.0000 0.0000 0.0000 24.0740 0.0000 0.0000
# 5 0.0000 0.0000 0.0000 0.0000 18.8155 0.0000
# 6 0.0000 0.0000 0.0000 0.0000 0.0000 23.8893
#
#
#
# Elastic Compliance Matrix: (Units=1/GPa)
#
#
# Indices 1 2 3 4 5 6 
#
# 1 0.020729 0.006074 0.002187 0.000000 0.000000 0.000000
# 2 0.006074 0.042948 -0.008564 0.000000 0.000000 0.000000
# 3 0.002187 -0.008564 0.019787 0.000000 0.000000 0.000000
# 4 0.000000 0.000000 0.000000 0.041539 0.000000 0.000000
# 5 0.000000 0.000000 0.000000 0.000000 0.053148 0.000000
# 6 0.000000 0.000000 0.000000 0.000000 0.000000 0.041860
#
#
# Mechanical properties :
#
#
# Convention : Reuss Voigt Hill
#
# Bulk Modulus (GPa) = 12.06892 13.74436 12.90664
# Shear Modulus (GPa) = 20.14225 22.86237 21.50231
#
# Velocity S-wave (km/s) = 3.03954 3.23828 3.14048
# Velocity P-wave (km/s) = 4.22541 4.50402 4.36694
#
# Compressibility (1/GPa) = 0.08285743
#
# Stress axis : x y z
#
# Youngs Moduli (GPa) = 48.24266 23.28386 50.53929
#
# Poissons Ratio (x) = -0.14142 -0.11055
# Poissons Ratio (y) = -0.29302 0.43283
# Poissons Ratio (z) = -0.10553 0.19941
#
# Static dielectric constant tensor:
#      x y z
#    x 1.863680 0.000000 0.000000 
#    y 0.000000 1.904930 0.000000 
#    z 0.000000 0.000000 1.822720 
# 
# From -- ./inp_files/4785.got.cif
#   From: 2010.05.17/outbox.cif.g08.bks.cpg/sg34_3_cif.got.tgz:4785.got - 2010.06.03 17:23:11.
