data_PCOD9347701
_publ_section_title
;
Structure prediction by ZEFSAII (Michael W. Deem and Ramdas Pophale) SiO2 
 PCOD9347701
Probable space group: P N N 2
;
_chemical_formula_sum "Si O2"
_cell_formula_units_Z 32
_cell_length_a 11.298011
_cell_length_b 9.411579
_cell_length_c 15.376297
_cell_angle_alpha 90.000000
_cell_angle_beta 90.000000
_cell_angle_gamma 90.000000
_cell_volume 1634.994305
_symmetry_space_group_name_H-M "P N N 2"
_symmetry_group_IT_number 34
_symmetry_cell_setting 'orthorhombic'
loop_
_space_group_symop_operation_xyz
x,y,z
-x,-y,z
1/2-x,1/2+y,1/2+z
1/2+x,1/2-y,1/2+z
loop_
_atom_site_type_symbol
_atom_site_label
_atom_site_fract_x
_atom_site_fract_y
_atom_site_fract_z
Si Si1 0.356447 0.823726 0.217660
Si Si2 0.528997 0.667102 0.099208
Si Si3 0.738011 0.866565 0.165828
Si Si4 0.500744 0.155709 0.939424
Si Si5 0.394146 0.614177 0.492881
Si Si6 0.478847 0.163509 0.386823
Si Si7 0.220316 0.603157 0.325385
Si Si8 0.727021 0.213637 0.829338
O O1 0.414060 0.748864 0.135035
O O2 0.452198 0.814117 0.295607
O O3 0.253632 0.725772 0.257856
O O4 0.322535 0.983988 0.192701
O O5 0.500000 0.500000 0.109732
O O6 0.640179 0.743163 0.147114
O O7 0.544426 0.718171 0.000166
O O8 0.809262 0.815898 0.250694
O O9 0.819248 0.885417 0.081109
O O10 0.411024 0.130275 0.860167
O O11 0.628831 0.195080 0.903341
O O12 0.500000 0.000000 0.986203
O O13 0.500000 0.500000 0.493523
O O14 0.461790 0.757173 0.467413
O O15 0.303893 0.598309 0.411594
O O16 0.347413 0.222640 0.369732
O O17 0.500000 0.000000 0.404193
O O18 0.239632 0.444806 0.289829
#
# Coordination Sequence:
#
# PCOD9347701 Si02
#       8
#     4   4   4   4   4   4   4   4
#     4  11  23  37  68  92 129 171 223 273 332 396
#     4  12  24  38  63  97 128 168 224 276 326 396
#     4  12  24  43  63  98 139 170 221 281 342 394
#     4  10  23  42  65  92 132 176 215 269 340 407
#     4  11  24  40  68  97 130 176 221 287 337 403
#     4  11  21  40  66  98 125 173 229 277 332 400
#     4  10  22  43  66  95 130 175 225 267 335 407
#     4  11  22  40  68  95 132 175 221 276 336 406
#
# _framework density 19.571935
#
# number of rings (size 3 to 8) (size 9 to 14) (size 15 to 20)
#    0.000    1.000    5.000    1.875    1.750    3.000 
#    0.000    3.125    0.000    0.000    0.000    0.000 
#    0.000    0.000    0.000    0.000    0.000    0.000 
#
# Total GULP energy -178513.696371 kJ/mol
# GULP energy per Si atom -5578.553012 kJ/mol
# Density = 1.952739 g / cm^3
# Si number density = 19.571935 Si / 1000 Ang^3
#
#
#
# Elastic Constant Matrix: (Units=GPa)
#
#
# Indices 1 2 3 4 5 6 
#
# 1 83.9811 37.7940 18.9033 0.0000 0.0000 0.0000
# 2 37.7940 134.8350 22.1428 0.0000 0.0000 0.0000
# 3 18.9033 22.1428 57.9625 0.0000 0.0000 0.0000
# 4 0.0000 0.0000 0.0000 32.9908 0.0000 0.0000
# 5 0.0000 0.0000 0.0000 0.0000 37.0638 0.0000
# 6 0.0000 0.0000 0.0000 0.0000 0.0000 23.5974
#
#
#
# Elastic Compliance Matrix: (Units=1/GPa)
#
#
# Indices 1 2 3 4 5 6 
#
# 1 0.014200 -0.003435 -0.003319 0.000000 0.000000 0.000000
# 2 -0.003435 0.008744 -0.002220 0.000000 0.000000 0.000000
# 3 -0.003319 -0.002220 0.019183 0.000000 0.000000 0.000000
# 4 0.000000 0.000000 0.000000 0.030312 0.000000 0.000000
# 5 0.000000 0.000000 0.000000 0.000000 0.026981 0.000000
# 6 0.000000 0.000000 0.000000 0.000000 0.000000 0.042378
#
#
# Mechanical properties :
#
#
# Convention : Reuss Voigt Hill
#
# Bulk Modulus (GPa) = 41.35804 48.27319 44.81562
# Shear Modulus (GPa) = 29.79648 31.92628 30.86138
#
# Velocity S-wave (km/s) = 3.90604 4.04323 3.97522
# Velocity P-wave (km/s) = 6.44360 6.82019 6.63457
#
# Compressibility (1/GPa) = 0.02417910
#
# Stress axis : x y z
#
# Youngs Moduli (GPa) = 70.42012 114.36459 52.12954
#
# Poissons Ratio (x) = 0.39288 0.17301
# Poissons Ratio (y) = 0.24192 0.11573
# Poissons Ratio (z) = 0.23371 0.25389
#
# Static dielectric constant tensor:
#      x y z
#    x 1.697210 0.000000 0.000000 
#    y 0.000000 1.680500 0.000000 
#    z 0.000000 0.000000 1.693530 
# 
# From -- ./inp_files/6591.got.cif
#   From: 2010.05.17/outbox.cif.g08.bks.cpg/sg34_4_cif.got.tgz:6591.got - 2010.06.03 17:23:11.
