data_PCOD9347684
_publ_section_title
;
Structure prediction by ZEFSAII (Michael W. Deem and Ramdas Pophale) SiO2 
 PCOD9347684
Probable space group: P N N 2
;
_chemical_formula_sum "Si O2"
_cell_formula_units_Z 16
_cell_length_a 16.659611
_cell_length_b 7.372423
_cell_length_c 4.777758
_cell_angle_alpha 90.000000
_cell_angle_beta 90.000000
_cell_angle_gamma 90.000000
_cell_volume 586.812356
_symmetry_space_group_name_H-M "P N N 2"
_symmetry_group_IT_number 34
_symmetry_cell_setting 'orthorhombic'
loop_
_space_group_symop_operation_xyz
x,y,z
-x,-y,z
1/2-x,1/2+y,1/2+z
1/2+x,1/2-y,1/2+z
loop_
_atom_site_type_symbol
_atom_site_label
_atom_site_fract_x
_atom_site_fract_y
_atom_site_fract_z
Si Si1 0.729634 0.521285 0.807430
Si Si2 0.581215 0.658729 0.067435
Si Si3 0.500000 0.500000 0.536901
Si Si4 0.500000 0.000000 0.042365
Si Si5 0.833129 0.624383 0.285029
O O1 0.672307 0.665638 0.967012
O O2 0.766795 0.580305 0.518251
O O3 0.675809 0.342412 0.765220
O O4 0.805850 0.514537 0.012412
O O5 0.534494 0.636633 0.772194
O O6 0.537721 0.830305 0.207048
O O7 0.570495 0.499246 0.297887
O O8 0.421885 0.931982 0.874379
#
# Coordination Sequence:
#
# PCOD9347684 Si02
#       5
#     4   4   2   2   4
#     4  12  26  50  75 104 142 190 238 292 354 424
#     4  11  24  44  71 103 141 183 234 285 350 416
#     4  10  22  42  68 102 138 182 232 290 346 406
#     4  12  28  46  72 110 146 186 236 294 354 422
#     4  12  27  47  74 103 143 186 238 293 354 423
#
# _framework density 27.265955000000002
#
# number of rings (size 3 to 8) (size 9 to 14) (size 15 to 20)
#    0.000    0.500    0.000    9.000    0.000   10.000 
#    0.000    0.000    0.000    0.000    0.000    0.000 
#    0.000    0.000    0.000    0.000    0.000    0.000 
#
# Total GULP energy -89420.740065 kJ/mol
# GULP energy per Si atom -5588.796254 kJ/mol
# Density = 2.720390 g / cm^3
# Si number density = 27.265955 Si / 1000 Ang^3
#
#
#
# Elastic Constant Matrix: (Units=GPa)
#
#
# Indices 1 2 3 4 5 6 
#
# 1 120.9597 63.2144 9.2543 0.0000 0.0000 0.0000
# 2 63.2144 94.8832 26.2720 0.0000 0.0000 0.0000
# 3 9.2543 26.2720 171.8903 0.0000 0.0000 0.0000
# 4 0.0000 0.0000 0.0000 22.9520 0.0000 0.0000
# 5 0.0000 0.0000 0.0000 0.0000 46.1507 0.0000
# 6 0.0000 0.0000 0.0000 0.0000 0.0000 57.3317
#
#
#
# Elastic Compliance Matrix: (Units=1/GPa)
#
#
# Indices 1 2 3 4 5 6 
#
# 1 0.012750 -0.008671 0.000639 0.000000 0.000000 0.000000
# 2 -0.008671 0.016903 -0.002117 0.000000 0.000000 0.000000
# 3 0.000639 -0.002117 0.006107 0.000000 0.000000 0.000000
# 4 0.000000 0.000000 0.000000 0.043569 0.000000 0.000000
# 5 0.000000 0.000000 0.000000 0.000000 0.021668 0.000000
# 6 0.000000 0.000000 0.000000 0.000000 0.000000 0.017442
#
#
# Mechanical properties :
#
#
# Convention : Reuss Voigt Hill
#
# Bulk Modulus (GPa) = 64.67799 65.02385 64.85092
# Shear Modulus (GPa) = 34.74852 44.55304 39.65078
#
# Velocity S-wave (km/s) = 3.57379 4.04668 3.81756
# Velocity P-wave (km/s) = 6.38764 6.76269 6.57784
#
# Compressibility (1/GPa) = 0.01546121
#
# Stress axis : x y z
#
# Youngs Moduli (GPa) = 78.43073 59.16266 163.75288
#
# Poissons Ratio (x) = 0.51303 -0.10462
# Poissons Ratio (y) = 0.68011 0.34659
# Poissons Ratio (z) = -0.05011 0.12522
#
# Static dielectric constant tensor:
#      x y z
#    x 2.125750 0.000000 0.000000 
#    y 0.000000 2.345160 0.000000 
#    z 0.000000 0.000000 2.020330 
# 
# From -- ./inp_files/1365.got.cif
#   From: 2010.05.17/outbox.cif.g08.bks.cpg/sg34_1_cif.got.tgz:1365.got - 2010.06.03 17:23:11.
