data_PCOD9347203
_publ_section_title
;
Structure prediction by ZEFSAII (Michael W. Deem and Ramdas Pophale) SiO2 
 PCOD9347203
Probable space group: P N N 2
;
_chemical_formula_sum "Si O2"
_cell_formula_units_Z 26
_cell_length_a 10.522962
_cell_length_b 8.506460
_cell_length_c 15.901010
_cell_angle_alpha 90.000000
_cell_angle_beta 90.000000
_cell_angle_gamma 90.000000
_cell_volume 1423.349578
_symmetry_space_group_name_H-M "P N N 2"
_symmetry_group_IT_number 34
_symmetry_cell_setting 'orthorhombic'
loop_
_space_group_symop_operation_xyz
x,y,z
-x,-y,z
1/2-x,1/2+y,1/2+z
1/2+x,1/2-y,1/2+z
loop_
_atom_site_type_symbol
_atom_site_label
_atom_site_fract_x
_atom_site_fract_y
_atom_site_fract_z
Si Si1 0.097818 0.857086 0.304420
Si Si2 0.953397 0.678921 0.168486
Si Si3 0.000000 0.000000 0.855664
Si Si4 0.369016 0.738750 0.485770
Si Si5 0.880164 0.417900 0.437409
Si Si6 0.646771 0.997688 0.355030
Si Si7 0.755482 0.158705 0.811243
O O1 0.080383 0.726745 0.377006
O O2 0.245066 0.907396 0.304159
O O3 0.058094 0.779591 0.217287
O O4 0.000000 0.000000 0.320324
O O5 0.930063 0.745797 0.076349
O O6 0.828233 0.685993 0.228245
O O7 0.000000 0.500000 0.164083
O O8 0.885408 0.062720 0.799223
O O9 0.051286 0.136949 0.917875
O O10 0.233587 0.651157 0.492577
O O11 0.354321 0.911522 0.444354
O O12 0.823952 0.551042 0.375406
O O13 0.000000 0.500000 0.480974
O O14 0.500000 0.000000 0.324583
O O15 0.701469 0.821922 0.353697
#
# Coordination Sequence:
#
# PCOD9347203 Si02
#       7
#     4   4   2   4   4   4   4
#     4  11  20  35  63  96 118 159 214 253 303 377
#     4  12  23  39  62  92 125 155 210 269 316 364
#     4  10  22  38  62  84 124 164 214 242 316 386
#     4  10  24  36  61  92 124 159 207 263 316 363
#     4  10  18  39  61  88 117 166 207 250 305 383
#     4  11  21  37  60  94 124 162 211 258 303 377
#     4  11  20  37  63  87 117 169 206 256 305 383
#
# _framework density 18.266770000000001
#
# number of rings (size 3 to 8) (size 9 to 14) (size 15 to 20)
#    0.000    1.231    6.154    0.462    1.077    0.000 
#    0.000    0.769   10.154    0.000    0.000    0.000 
#    0.000    0.000    0.000    0.000    0.000    0.000 
#
# Total GULP energy -145024.639170 kJ/mol
# GULP energy per Si atom -5577.870737 kJ/mol
# Density = 1.822519 g / cm^3
# Si number density = 18.266770 Si / 1000 Ang^3
#
#
#
# Elastic Constant Matrix: (Units=GPa)
#
#
# Indices 1 2 3 4 5 6 
#
# 1 127.5700 24.2460 23.3026 0.0000 0.0000 0.0000
# 2 24.2460 92.9700 11.4864 0.0000 0.0000 0.0000
# 3 23.3026 11.4864 57.8372 0.0000 0.0000 0.0000
# 4 0.0000 0.0000 0.0000 13.2985 0.0000 0.0000
# 5 0.0000 0.0000 0.0000 0.0000 17.8830 0.0000
# 6 0.0000 0.0000 0.0000 0.0000 0.0000 47.9288
#
#
#
# Elastic Compliance Matrix: (Units=1/GPa)
#
#
# Indices 1 2 3 4 5 6 
#
# 1 0.008777 -0.001899 -0.003159 0.000000 0.000000 0.000000
# 2 -0.001899 0.011437 -0.001507 0.000000 0.000000 0.000000
# 3 -0.003159 -0.001507 0.018862 0.000000 0.000000 0.000000
# 4 0.000000 0.000000 0.000000 0.075196 0.000000 0.000000
# 5 0.000000 0.000000 0.000000 0.000000 0.055919 0.000000
# 6 0.000000 0.000000 0.000000 0.000000 0.000000 0.020864
#
#
# Mechanical properties :
#
#
# Convention : Reuss Voigt Hill
#
# Bulk Modulus (GPa) = 38.53914 44.04969 41.29441
# Shear Modulus (GPa) = 23.49257 30.44490 26.96873
#
# Velocity S-wave (km/s) = 3.59009 4.08693 3.84654
# Velocity P-wave (km/s) = 6.19102 6.81452 6.51024
#
# Compressibility (1/GPa) = 0.02594765
#
# Stress axis : x y z
#
# Youngs Moduli (GPa) = 113.93758 87.43225 53.01696
#
# Poissons Ratio (x) = 0.16600 0.16748
# Poissons Ratio (y) = 0.21632 0.07987
# Poissons Ratio (z) = 0.35994 0.13172
#
# Static dielectric constant tensor:
#      x y z
#    x 1.672620 0.000000 0.000000 
#    y 0.000000 1.671350 0.000000 
#    z 0.000000 0.000000 1.569180 
# 
# From -- ./inp_files/6746.got.cif
#   From: 2010.05.17/outbox.cif.g08.bks.cpg/sg34_4_cif.got.tgz:6746.got - 2010.06.03 17:23:11.
