data_PCOD9347735
_publ_section_title
;
Structure prediction by ZEFSAII (Michael W. Deem and Ramdas Pophale) SiO2 
 PCOD9347735
Probable space group: P N N 2
;
_chemical_formula_sum "Si O2"
_cell_formula_units_Z 20
_cell_length_a 17.256051
_cell_length_b 8.218005
_cell_length_c 6.181178
_cell_angle_alpha 90.000000
_cell_angle_beta 90.000000
_cell_angle_gamma 90.000000
_cell_volume 876.554789
_symmetry_space_group_name_H-M "P N N 2"
_symmetry_group_IT_number 34
_symmetry_cell_setting 'orthorhombic'
loop_
_space_group_symop_operation_xyz
x,y,z
-x,-y,z
1/2-x,1/2+y,1/2+z
1/2+x,1/2-y,1/2+z
loop_
_atom_site_type_symbol
_atom_site_label
_atom_site_fract_x
_atom_site_fract_y
_atom_site_fract_z
Si Si1 0.000000 0.500000 0.242661
Si Si2 0.603079 0.896400 0.391590
Si Si3 0.253531 0.637481 0.163360
Si Si4 0.848556 0.168208 0.516054
Si Si5 0.591047 0.192815 0.101098
Si Si6 0.500000 0.500000 0.995064
O O1 0.059585 0.402168 0.392565
O O2 0.046647 0.625971 0.093468
O O3 0.688561 0.888861 0.485664
O O4 0.606297 0.781862 0.184920
O O5 0.582981 0.074499 0.302797
O O6 0.208871 0.720083 0.368929
O O7 0.299543 0.464238 0.157387
O O8 0.319079 0.762971 0.085761
O O9 0.920266 0.076212 0.390104
O O10 0.541150 0.355542 0.126477
#
# Coordination Sequence:
#
# PCOD9347735 Si02
#       6
#     2   4   4   4   4   2
#     4  12  26  46  74 108 148 200 250 312 388 450
#     4  12  25  44  76 106 149 204 248 323 378 465
#     4  11  25  45  75 112 149 201 251 324 383 462
#     4  11  25  46  73 108 152 198 263 315 393 463
#     4  11  24  46  72 108 150 192 261 311 379 462
#     4  10  22  46  72 100 148 192 248 322 366 454
#
# _framework density 22.816600999999999
#
# number of rings (size 3 to 8) (size 9 to 14) (size 15 to 20)
#    0.000    0.800    2.000    5.400    5.600    0.000 
#    0.000   17.000    0.000    0.000    0.000    0.000 
#    0.000    0.000    0.000    0.000    0.000    0.000 
#
# Total GULP energy -111549.143339 kJ/mol
# GULP energy per Si atom -5577.457167 kJ/mol
# Density = 2.276467 g / cm^3
# Si number density = 22.816601 Si / 1000 Ang^3
#
#
#
# Elastic Constant Matrix: (Units=GPa)
#
#
# Indices 1 2 3 4 5 6 
#
# 1 170.1635 56.4358 61.6730 0.0000 0.0000 0.0000
# 2 56.4358 123.5407 60.9492 0.0000 0.0000 0.0000
# 3 61.6730 60.9492 89.3862 0.0000 0.0000 0.0000
# 4 0.0000 0.0000 0.0000 25.1938 0.0000 0.0000
# 5 0.0000 0.0000 0.0000 0.0000 47.0446 0.0000
# 6 0.0000 0.0000 0.0000 0.0000 0.0000 50.7224
#
#
#
# Elastic Compliance Matrix: (Units=1/GPa)
#
#
# Indices 1 2 3 4 5 6 
#
# 1 0.007994 -0.001403 -0.004559 0.000000 0.000000 0.000000
# 2 -0.001403 0.012444 -0.007517 0.000000 0.000000 0.000000
# 3 -0.004559 -0.007517 0.019459 0.000000 0.000000 0.000000
# 4 0.000000 0.000000 0.000000 0.039692 0.000000 0.000000
# 5 0.000000 0.000000 0.000000 0.000000 0.021256 0.000000
# 6 0.000000 0.000000 0.000000 0.000000 0.000000 0.019715
#
#
# Mechanical properties :
#
#
# Convention : Reuss Voigt Hill
#
# Bulk Modulus (GPa) = 77.28789 82.35628 79.82209
# Shear Modulus (GPa) = 32.93097 38.19434 35.56265
#
# Velocity S-wave (km/s) = 3.80319 4.09586 3.95223
# Velocity P-wave (km/s) = 7.29608 7.65123 7.47576
#
# Compressibility (1/GPa) = 0.01293864
#
# Stress axis : x y z
#
# Youngs Moduli (GPa) = 125.08814 80.36049 51.38994
#
# Poissons Ratio (x) = 0.11271 0.23431
# Poissons Ratio (y) = 0.17544 0.38632
# Poissons Ratio (z) = 0.57033 0.60410
#
# Static dielectric constant tensor:
#      x y z
#    x 1.883350 0.000000 0.000000 
#    y 0.000000 1.921330 0.000000 
#    z 0.000000 0.000000 1.819500 
# 
# From -- ./inp_files/391.got.cif
#   From: 2010.05.17/outbox.cif.g08.bks.cpg/sg34_1_cif.got.tgz:391.got - 2010.06.03 17:23:11.
