data_PCOD9347289
_publ_section_title
;
Structure prediction by ZEFSAII (Michael W. Deem and Ramdas Pophale) SiO2 
 PCOD9347289
Probable space group: P N N 2
;
_chemical_formula_sum "Si O2"
_cell_formula_units_Z 32
_cell_length_a 8.207771
_cell_length_b 11.885869
_cell_length_c 14.943805
_cell_angle_alpha 90.000000
_cell_angle_beta 90.000000
_cell_angle_gamma 90.000000
_cell_volume 1457.865176
_symmetry_space_group_name_H-M "P N N 2"
_symmetry_group_IT_number 34
_symmetry_cell_setting 'orthorhombic'
loop_
_space_group_symop_operation_xyz
x,y,z
-x,-y,z
1/2-x,1/2+y,1/2+z
1/2+x,1/2-y,1/2+z
loop_
_atom_site_type_symbol
_atom_site_label
_atom_site_fract_x
_atom_site_fract_y
_atom_site_fract_z
Si Si1 0.397174 0.242744 0.586570
Si Si2 0.220242 0.352547 0.441493
Si Si3 0.402616 0.223538 0.276644
Si Si4 0.420602 0.616671 0.729327
Si Si5 0.408635 0.882043 0.433101
Si Si6 0.166701 0.552497 0.319045
Si Si7 0.899561 0.899849 0.663829
Si Si8 0.574833 0.711294 0.900750
O O1 0.321279 0.346696 0.531696
O O2 0.499339 0.284661 0.670442
O O3 0.512856 0.187967 0.513139
O O4 0.251769 0.157958 0.613138
O O5 0.307102 0.294704 0.354436
O O6 0.189303 0.477636 0.407574
O O7 0.059723 0.276663 0.458962
O O8 0.273224 0.136618 0.233720
O O9 0.542422 0.163335 0.334573
O O10 0.480993 0.303806 0.202286
O O11 0.500000 0.500000 0.698277
O O12 0.480267 0.634988 0.830386
O O13 0.216042 0.864042 0.442569
O O14 0.500000 0.000000 0.439415
O O15 0.313713 0.542609 0.250372
O O16 0.150613 0.682085 0.346795
O O17 0.000000 0.500000 0.278219
O O18 0.000000 0.000000 0.616815
#
# Coordination Sequence:
#
# PCOD9347289 Si02
#       8
#     4   4   4   4   4   4   4   4
#     4  11  26  41  56  95 142 159 219 280 336 381
#     4   9  21  39  61  92 125 169 210 275 324 392
#     4  10  21  39  64  91 119 166 234 257 316 407
#     4  11  23  42  65  93 127 177 212 281 332 395
#     4  11  23  40  62  91 127 177 211 279 333 398
#     4  10  19  37  68  97 122 166 223 269 319 397
#     4  12  23  39  68  99 129 175 218 276 327 398
#     4  10  20  40  67  91 122 166 233 261 321 401
#
# _framework density 21.949904
#
# number of rings (size 3 to 8) (size 9 to 14) (size 15 to 20)
#    0.000    1.500    3.750    0.750    0.000    4.500 
#    0.000    3.750    0.000    0.000    0.000    0.000 
#    0.000    0.000    0.000    0.000    0.000    0.000 
#
# Total GULP energy -178640.159530 kJ/mol
# GULP energy per Si atom -5582.504985 kJ/mol
# Density = 2.189995 g / cm^3
# Si number density = 21.949904 Si / 1000 Ang^3
#
#
#
# Elastic Constant Matrix: (Units=GPa)
#
#
# Indices 1 2 3 4 5 6 
#
# 1 96.8627 5.9737 23.4200 0.0000 0.0000 0.0000
# 2 5.9737 53.3551 3.0370 0.0000 0.0000 0.0000
# 3 23.4200 3.0370 50.2702 0.0000 0.0000 0.0000
# 4 0.0000 0.0000 0.0000 33.2998 0.0000 0.0000
# 5 0.0000 0.0000 0.0000 0.0000 18.4895 0.0000
# 6 0.0000 0.0000 0.0000 0.0000 0.0000 33.2038
#
#
#
# Elastic Compliance Matrix: (Units=1/GPa)
#
#
# Indices 1 2 3 4 5 6 
#
# 1 0.011688 -0.001002 -0.005385 0.000000 0.000000 0.000000
# 2 -0.001002 0.018893 -0.000675 0.000000 0.000000 0.000000
# 3 -0.005385 -0.000675 0.022442 0.000000 0.000000 0.000000
# 4 0.000000 0.000000 0.000000 0.030030 0.000000 0.000000
# 5 0.000000 0.000000 0.000000 0.000000 0.054085 0.000000
# 6 0.000000 0.000000 0.000000 0.000000 0.000000 0.030117
#
#
# Mechanical properties :
#
#
# Convention : Reuss Voigt Hill
#
# Bulk Modulus (GPa) = 25.70686 29.48325 27.59505
# Shear Modulus (GPa) = 25.72768 28.20245 26.96507
#
# Velocity S-wave (km/s) = 3.42732 3.58838 3.50877
# Velocity P-wave (km/s) = 5.23441 5.53442 5.38651
#
# Compressibility (1/GPa) = 0.03890013
#
# Stress axis : x y z
#
# Youngs Moduli (GPa) = 85.56083 52.92980 44.55971
#
# Poissons Ratio (x) = 0.05304 0.23993
# Poissons Ratio (y) = 0.08574 0.03006
# Poissons Ratio (z) = 0.46070 0.03570
#
# Static dielectric constant tensor:
#      x y z
#    x 1.830650 0.000000 0.000000 
#    y 0.000000 1.789420 0.000000 
#    z 0.000000 0.000000 1.768560 
# 
# From -- ./inp_files/6566.got.cif
#   From: 2010.05.17/outbox.cif.g08.bks.cpg/sg34_4_cif.got.tgz:6566.got - 2010.06.03 17:23:11.
