data_PCOD9347926
_publ_section_title
;
Structure prediction by ZEFSAII (Michael W. Deem and Ramdas Pophale) SiO2 
 PCOD9347926
Probable space group: P N N 2
;
_chemical_formula_sum "Si O2"
_cell_formula_units_Z 32
_cell_length_a 8.229463
_cell_length_b 15.760857
_cell_length_c 10.192787
_cell_angle_alpha 90.000000
_cell_angle_beta 90.000000
_cell_angle_gamma 90.000000
_cell_volume 1322.039023
_symmetry_space_group_name_H-M "P N N 2"
_symmetry_group_IT_number 34
_symmetry_cell_setting 'orthorhombic'
loop_
_space_group_symop_operation_xyz
x,y,z
-x,-y,z
1/2-x,1/2+y,1/2+z
1/2+x,1/2-y,1/2+z
loop_
_atom_site_type_symbol
_atom_site_label
_atom_site_fract_x
_atom_site_fract_y
_atom_site_fract_z
Si Si1 0.179339 0.456924 0.656490
Si Si2 0.693320 0.520411 0.376781
Si Si3 0.877802 0.201270 0.182909
Si Si4 0.136166 0.439360 0.118538
Si Si5 0.969459 0.293067 0.939910
Si Si6 0.814900 0.877521 0.281045
Si Si7 0.127858 0.070597 0.549761
Si Si8 0.219230 0.162553 0.814950
O O1 0.238448 0.439638 0.508205
O O2 0.238410 0.367477 0.719478
O O3 0.287038 0.529935 0.722346
O O4 0.000000 0.500000 0.661278
O O5 0.500000 0.500000 0.381237
O O6 0.746241 0.572218 0.245540
O O7 0.764902 0.424639 0.383093
O O8 0.869801 0.276900 0.287848
O O9 0.061910 0.167776 0.182858
O O10 0.851895 0.244953 0.042273
O O11 0.216781 0.510032 0.022672
O O12 0.000000 0.500000 0.180891
O O13 0.068380 0.361741 0.031769
O O14 0.084708 0.220621 0.881971
O O15 0.855736 0.335601 0.827516
O O16 0.914674 0.883261 0.417032
O O17 0.156078 0.129561 0.673421
O O18 0.000000 0.000000 0.584267
#
# Coordination Sequence:
#
# PCOD9347926 Si02
#       8
#     4   4   4   4   4   4   4   4
#     4  12  27  47  77 105 143 201 246 302 377 460
#     4  11  24  49  74 107 151 197 251 296 368 462
#     4  12  27  47  68 109 152 184 242 322 379 437
#     4  11  22  42  72 102 143 196 254 303 365 450
#     4  12  26  45  74 108 153 195 251 322 380 441
#     4  12  26  47  72 105 149 200 251 306 379 456
#     4  11  24  44  72 103 142 198 257 308 365 462
#     4  11  24  45  68 105 144 187 245 311 374 430
#
# _framework density 24.205034999999999
#
# number of rings (size 3 to 8) (size 9 to 14) (size 15 to 20)
#    0.000    0.500    2.500    6.750    5.250    4.000 
#    2.250    0.000    0.000    0.000    0.000    0.000 
#    0.000    0.000    0.000    0.000    0.000    0.000 
#
# Total GULP energy -178586.246937 kJ/mol
# GULP energy per Si atom -5580.820217 kJ/mol
# Density = 2.414994 g / cm^3
# Si number density = 24.205035 Si / 1000 Ang^3
#
#
#
# Elastic Constant Matrix: (Units=GPa)
#
#
# Indices 1 2 3 4 5 6 
#
# 1 78.6147 26.8626 6.5505 0.0000 0.0000 0.0000
# 2 26.8626 123.1229 26.6509 0.0000 0.0000 0.0000
# 3 6.5505 26.6509 62.5055 0.0000 0.0000 0.0000
# 4 0.0000 0.0000 0.0000 32.8116 0.0000 0.0000
# 5 0.0000 0.0000 0.0000 0.0000 31.3996 0.0000
# 6 0.0000 0.0000 0.0000 0.0000 0.0000 41.1022
#
#
#
# Elastic Compliance Matrix: (Units=1/GPa)
#
#
# Indices 1 2 3 4 5 6 
#
# 1 0.013747 -0.002961 -0.000178 0.000000 0.000000 0.000000
# 2 -0.002961 0.009585 -0.003777 0.000000 0.000000 0.000000
# 3 -0.000178 -0.003777 0.017628 0.000000 0.000000 0.000000
# 4 0.000000 0.000000 0.000000 0.030477 0.000000 0.000000
# 5 0.000000 0.000000 0.000000 0.000000 0.031848 0.000000
# 6 0.000000 0.000000 0.000000 0.000000 0.000000 0.024330
#
#
# Mechanical properties :
#
#
# Convention : Reuss Voigt Hill
#
# Bulk Modulus (GPa) = 36.86170 42.70792 39.78481
# Shear Modulus (GPa) = 33.22523 34.67462 33.94993
#
# Velocity S-wave (km/s) = 3.70896 3.78899 3.74919
# Velocity P-wave (km/s) = 5.79688 6.06832 5.93415
#
# Compressibility (1/GPa) = 0.02712843
#
# Stress axis : x y z
#
# Youngs Moduli (GPa) = 72.74437 104.32524 56.72932
#
# Poissons Ratio (x) = 0.30887 0.01012
# Poissons Ratio (y) = 0.21537 0.21425
# Poissons Ratio (z) = 0.01297 0.39401
#
# Static dielectric constant tensor:
#      x y z
#    x 2.176410 0.000000 0.000000 
#    y 0.000000 1.975490 0.000000 
#    z 0.000000 0.000000 1.965180 
# 
# From -- ./inp_files/5100.got.cif
#   From: 2010.05.17/outbox.cif.g08.bks.cpg/sg34_3_cif.got.tgz:5100.got - 2010.06.03 17:23:11.
