data_PCOD9347640
_publ_section_title
;
Structure prediction by ZEFSAII (Michael W. Deem and Ramdas Pophale) SiO2 
 PCOD9347640
Probable space group: P N N 2
;
_chemical_formula_sum "Si O2"
_cell_formula_units_Z 32
_cell_length_a 8.099755
_cell_length_b 10.774268
_cell_length_c 16.769151
_cell_angle_alpha 90.000000
_cell_angle_beta 90.000000
_cell_angle_gamma 90.000000
_cell_volume 1463.425883
_symmetry_space_group_name_H-M "P N N 2"
_symmetry_group_IT_number 34
_symmetry_cell_setting 'orthorhombic'
loop_
_space_group_symop_operation_xyz
x,y,z
-x,-y,z
1/2-x,1/2+y,1/2+z
1/2+x,1/2-y,1/2+z
loop_
_atom_site_type_symbol
_atom_site_label
_atom_site_fract_x
_atom_site_fract_y
_atom_site_fract_z
Si Si1 0.682784 0.451757 0.477040
Si Si2 0.348888 0.288669 0.050523
Si Si3 0.759408 0.088070 0.391356
Si Si4 0.713529 0.191790 0.718992
Si Si5 0.080064 0.622156 0.826918
Si Si6 0.626806 0.109320 0.090461
Si Si7 0.313201 0.549460 0.289698
Si Si8 0.853018 0.204059 0.228298
O O1 0.500000 0.500000 0.492947
O O2 0.737863 0.331158 0.526239
O O3 0.798068 0.562503 0.507450
O O4 0.701048 0.426751 0.383711
O O5 0.277635 0.343697 0.131641
O O6 0.526336 0.233911 0.073298
O O7 0.342138 0.375810 0.973640
O O8 0.577538 0.155954 0.381756
O O9 0.852793 0.130594 0.311996
O O10 0.718149 0.942246 0.381924
O O11 0.843911 0.279334 0.767056
O O12 0.696868 0.065870 0.768188
O O13 0.540216 0.260581 0.710061
O O14 0.000000 0.500000 0.784129
O O15 0.764799 0.128708 0.157726
O O16 0.500000 0.000000 0.113685
O O17 0.500000 0.500000 0.272969
O O18 0.256477 0.671968 0.243366
#
# Coordination Sequence:
#
# PCOD9347640 Si02
#       8
#     4   4   4   4   4   4   4   4
#     4  10  22  38  67  98 128 167 223 276 331 389
#     4  11  22  41  65  95 131 176 217 278 326 395
#     4   9  21  41  69  90 130 173 219 265 334 394
#     4  12  26  41  70  99 136 170 228 276 336 392
#     4   8  22  43  69  93 128 175 223 264 339 398
#     4  10  24  40  67  96 138 173 226 276 332 389
#     4  11  24  44  70  95 133 181 217 267 344 410
#     4  12  24  43  67 100 136 174 225 278 329 404
#
# _framework density 21.866499999999998
#
# number of rings (size 3 to 8) (size 9 to 14) (size 15 to 20)
#    0.750    0.750    1.250    3.375    8.750    1.500 
#    4.500    0.000    5.500    0.000    0.000    0.000 
#    0.000    0.000    0.000    0.000    0.000    0.000 
#
# Total GULP energy -178741.825082 kJ/mol
# GULP energy per Si atom -5585.682034 kJ/mol
# Density = 2.181673 g / cm^3
# Si number density = 21.866500 Si / 1000 Ang^3
#
#
#
# Elastic Constant Matrix: (Units=GPa)
#
#
# Indices 1 2 3 4 5 6 
#
# 1 58.8602 -1.3085 11.1631 0.0000 0.0000 0.0000
# 2 -1.3085 46.3568 12.7017 0.0000 0.0000 0.0000
# 3 11.1631 12.7017 76.7359 0.0000 0.0000 0.0000
# 4 0.0000 0.0000 0.0000 -63.6172 0.0000 0.0000
# 5 0.0000 0.0000 0.0000 0.0000 19.3746 0.0000
# 6 0.0000 0.0000 0.0000 0.0000 0.0000 26.6771
#
#
#
# Elastic Compliance Matrix: (Units=1/GPa)
#
#
# Indices 1 2 3 4 5 6 
#
# 1 0.017540 0.001251 -0.002759 0.000000 0.000000 0.000000
# 2 0.001251 0.022686 -0.003937 0.000000 0.000000 0.000000
# 3 -0.002759 -0.003937 0.014085 0.000000 0.000000 0.000000
# 4 0.000000 0.000000 0.000000 -0.015719 0.000000 0.000000
# 5 0.000000 0.000000 0.000000 0.000000 0.051614 0.000000
# 6 0.000000 0.000000 0.000000 0.000000 0.000000 0.037485
#
#
# Mechanical properties :
#
#
# Convention : Reuss Voigt Hill
#
# Bulk Modulus (GPa) = 23.03012 25.22949 24.12981
# Shear Modulus (GPa) = 32.66803 7.11333 19.89068
#
# Velocity S-wave (km/s) = 3.86939 1.80558 3.01930
# Velocity P-wave (km/s) = 5.52430 3.98872 4.81808
#
# Compressibility (1/GPa) = 0.04342141
#
# Stress axis : x y z
#
# Youngs Moduli (GPa) = 57.01110 44.08031 70.99898
#
# Poissons Ratio (x) = -0.05514 0.19587
# Poissons Ratio (y) = -0.07132 0.27953
# Poissons Ratio (z) = 0.15728 0.17355
#
# Static dielectric constant tensor:
#      x y z
#    x 1.885410 0.000000 0.000000 
#    y 0.000000 1.851670 0.000000 
#    z 0.000000 0.000000 1.747160 
# 
# From -- ./inp_files/6558.got.cif
#   From: 2010.05.17/outbox.cif.g08.bks.cpg/sg34_4_cif.got.tgz:6558.got - 2010.06.03 17:23:11.
