data_PCOD9347962
_publ_section_title
;
Structure prediction by ZEFSAII (Michael W. Deem and Ramdas Pophale) SiO2 
 PCOD9347962
Probable space group: P N N 2
;
_chemical_formula_sum "Si O2"
_cell_formula_units_Z 32
_cell_length_a 8.940228
_cell_length_b 12.699299
_cell_length_c 11.836101
_cell_angle_alpha 90.000000
_cell_angle_beta 90.000000
_cell_angle_gamma 90.000000
_cell_volume 1343.807330
_symmetry_space_group_name_H-M "P N N 2"
_symmetry_group_IT_number 34
_symmetry_cell_setting 'orthorhombic'
loop_
_space_group_symop_operation_xyz
x,y,z
-x,-y,z
1/2-x,1/2+y,1/2+z
1/2+x,1/2-y,1/2+z
loop_
_atom_site_type_symbol
_atom_site_label
_atom_site_fract_x
_atom_site_fract_y
_atom_site_fract_z
Si Si1 0.957423 0.713425 0.543360
Si Si2 0.973006 0.770080 0.976600
Si Si3 0.173110 0.906478 0.126416
Si Si4 0.829785 0.242958 0.750956
Si Si5 0.791762 0.413738 0.478959
Si Si6 0.011789 0.188062 0.311448
Si Si7 0.821695 0.004702 0.744616
Si Si8 0.573119 0.886682 0.663321
O O1 0.066516 0.728979 0.647547
O O2 0.033752 0.612634 0.483220
O O3 0.969710 0.802033 0.446426
O O4 0.798143 0.681149 0.594009
O O5 0.063834 0.760207 0.860810
O O6 0.800025 0.802651 0.968847
O O7 0.040673 0.870604 0.043021
O O8 0.007189 0.667547 0.051447
O O9 0.100869 0.894749 0.251222
O O10 0.243675 0.015704 0.086378
O O11 0.683628 0.314130 0.768317
O O12 0.774566 0.124694 0.726279
O O13 0.737349 0.474963 0.368519
O O14 0.949294 0.297968 0.258541
O O15 0.747385 0.920612 0.660398
O O16 0.000000 0.000000 0.741077
O O17 0.500000 0.000000 0.687314
#
# Coordination Sequence:
#
# PCOD9347962 Si02
#       8
#     4   4   4   4   4   4   4   4
#     4  12  26  42  74 109 149 191 246 304 372 437
#     4  11  24  42  72 104 142 189 241 300 363 438
#     4  11  24  43  72 106 145 188 243 304 364 431
#     4  12  25  44  69 107 147 194 244 298 369 434
#     4  12  23  45  72 108 139 190 247 302 361 437
#     4  11  24  46  70 107 148 188 239 307 366 437
#     4  12  23  38  70 104 137 184 250 299 345 436
#     4  11  24  43  68 101 140 188 240 297 365 423
#
# _framework density 23.812937999999999
#
# number of rings (size 3 to 8) (size 9 to 14) (size 15 to 20)
#    0.000    0.500    6.250    2.250    5.250    0.000 
#    0.000    2.500    0.000    4.500    0.000    0.000 
#    0.000    0.000    0.000    0.000    0.000    0.000 
#
# Total GULP energy -178956.393429 kJ/mol
# GULP energy per Si atom -5592.387295 kJ/mol
# Density = 2.375874 g / cm^3
# Si number density = 23.812938 Si / 1000 Ang^3
#
#
#
# Elastic Constant Matrix: (Units=GPa)
#
#
# Indices 1 2 3 4 5 6 
#
# 1 98.1491 -9.2907 20.9099 0.0000 0.0000 0.0000
# 2 -9.2907 60.8903 5.3836 0.0000 0.0000 0.0000
# 3 20.9099 5.3836 102.0487 0.0000 0.0000 0.0000
# 4 0.0000 0.0000 0.0000 31.9195 0.0000 0.0000
# 5 0.0000 0.0000 0.0000 0.0000 30.4569 0.0000
# 6 0.0000 0.0000 0.0000 0.0000 0.0000 37.1947
#
#
#
# Elastic Compliance Matrix: (Units=1/GPa)
#
#
# Indices 1 2 3 4 5 6 
#
# 1 0.010860 0.001862 -0.002323 0.000000 0.000000 0.000000
# 2 0.001862 0.016819 -0.001269 0.000000 0.000000 0.000000
# 3 -0.002323 -0.001269 0.010342 0.000000 0.000000 0.000000
# 4 0.000000 0.000000 0.000000 0.031329 0.000000 0.000000
# 5 0.000000 0.000000 0.000000 0.000000 0.032833 0.000000
# 6 0.000000 0.000000 0.000000 0.000000 0.000000 0.026886
#
#
# Mechanical properties :
#
#
# Convention : Reuss Voigt Hill
#
# Bulk Modulus (GPa) = 28.93386 32.78819 30.86102
# Shear Modulus (GPa) = 34.71029 36.18658 35.44844
#
# Velocity S-wave (km/s) = 3.82203 3.90246 3.86245
# Velocity P-wave (km/s) = 5.62619 5.83991 5.73405
#
# Compressibility (1/GPa) = 0.03456159
#
# Stress axis : x y z
#
# Youngs Moduli (GPa) = 92.08217 59.45535 96.69059
#
# Poissons Ratio (x) = -0.11073 0.22466
# Poissons Ratio (y) = -0.17150 0.12269
# Poissons Ratio (z) = 0.21395 0.07544
#
# Static dielectric constant tensor:
#      x y z
#    x 2.014340 0.000000 0.000000 
#    y 0.000000 1.938690 0.000000 
#    z 0.000000 0.000000 1.928920 
# 
# From -- ./inp_files/5084.got.cif
#   From: 2010.05.17/outbox.cif.g08.bks.cpg/sg34_3_cif.got.tgz:5084.got - 2010.06.03 17:23:11.
