data_PCOD9347818
_publ_section_title
;
Structure prediction by ZEFSAII (Michael W. Deem and Ramdas Pophale) SiO2 
 PCOD9347818
Probable space group: P N N 2
;
_chemical_formula_sum "Si O2"
_cell_formula_units_Z 18
_cell_length_a 5.266740
_cell_length_b 5.060715
_cell_length_c 25.609442
_cell_angle_alpha 90.000000
_cell_angle_beta 90.000000
_cell_angle_gamma 90.000000
_cell_volume 682.580497
_symmetry_space_group_name_H-M "P N N 2"
_symmetry_group_IT_number 34
_symmetry_cell_setting 'orthorhombic'
loop_
_space_group_symop_operation_xyz
x,y,z
-x,-y,z
1/2-x,1/2+y,1/2+z
1/2+x,1/2-y,1/2+z
loop_
_atom_site_type_symbol
_atom_site_label
_atom_site_fract_x
_atom_site_fract_y
_atom_site_fract_z
Si Si1 0.333247 0.268075 0.182520
Si Si2 0.500000 0.500000 0.759833
Si Si3 0.749182 0.316858 0.568560
Si Si4 0.750191 0.816580 0.957108
Si Si5 0.247282 0.183070 0.843413
O O1 0.500000 0.500000 0.204583
O O2 0.257427 0.337250 0.122966
O O3 0.500000 0.000000 0.180689
O O4 0.101405 0.217978 0.220362
O O5 0.282466 0.392882 0.797788
O O6 0.500000 0.500000 0.571065
O O7 0.748053 0.167463 0.512754
O O8 0.000000 0.500000 0.567750
O O9 0.754069 0.679309 0.900795
O O10 0.500000 0.000000 0.956888
O O11 0.000000 0.000000 0.957712
O O12 0.500000 0.000000 0.840871
O O13 0.000000 0.000000 0.838787
#
# Coordination Sequence:
#
# PCOD9347818 Si02
#       5
#     4   2   4   4   4
#     4  11  27  47  72 107 148 199 254 313 384 455
#     4  12  28  44  72 106 154 196 268 308 390 460
#     4   9  17  38  67 100 140 185 240 307 378 450
#     4   8  15  33  64  97 136 182 237 303 375 450
#     4  10  24  43  69 103 144 194 248 312 382 451
#
# _framework density 26.370515000000001
#
# number of rings (size 3 to 8) (size 9 to 14) (size 15 to 20)
#    0.000    2.222    1.111    0.000    6.222    0.000 
#    2.000    0.000    0.000    0.000    0.000    0.000 
#    0.000    0.000    0.000    0.000    0.000    0.000 
#
# Total GULP energy -100866.723195 kJ/mol
# GULP energy per Si atom -5603.706844 kJ/mol
# Density = 2.631049 g / cm^3
# Si number density = 26.370515 Si / 1000 Ang^3
#
#
#
# Elastic Constant Matrix: (Units=GPa)
#
#
# Indices 1 2 3 4 5 6 
#
# 1 199.7071 43.7263 29.4465 0.0000 0.0000 0.0000
# 2 43.7263 71.7242 27.9638 0.0000 0.0000 0.0000
# 3 29.4465 27.9638 263.8744 0.0000 0.0000 0.0000
# 4 0.0000 0.0000 0.0000-4251.4073 0.0000 0.0000
# 5 0.0000 0.0000 0.0000 0.0000 20.4249 0.0000
# 6 0.0000 0.0000 0.0000 0.0000 0.0000 62.8834
#
#
#
# Elastic Compliance Matrix: (Units=1/GPa)
#
#
# Indices 1 2 3 4 5 6 
#
# 1 0.005799 -0.003425 -0.000284 0.000000 0.000000 0.000000
# 2 -0.003425 0.016566 -0.001373 0.000000 0.000000 0.000000
# 3 -0.000284 -0.001373 0.003967 0.000000 0.000000 0.000000
# 4 0.000000 0.000000 0.000000 -0.000235 0.000000 0.000000
# 5 0.000000 0.000000 0.000000 0.000000 0.048960 0.000000
# 6 0.000000 0.000000 0.000000 0.000000 0.000000 0.015902
#
#
# Mechanical properties :
#
#
# Convention : Reuss Voigt Hill
#
# Bulk Modulus (GPa) = 61.85347 81.95320 71.90333
# Shear Modulus (GPa) = 46.94313 -804.67518 -378.86602
#
# Velocity S-wave (km/s) = 4.22374 -17.48727 -11.99926
# Velocity P-wave (km/s) = 6.87700 19.40604 12.83162
#
# Compressibility (1/GPa) = 0.01616724
#
# Stress axis : x y z
#
# Youngs Moduli (GPa) = 172.44188 60.36640 252.08357
#
# Poissons Ratio (x) = 0.20673 0.07165
# Poissons Ratio (y) = 0.59054 0.34620
# Poissons Ratio (z) = 0.04901 0.08290
#
# Static dielectric constant tensor:
#      x y z
#    x 2.025160 0.000000 0.000000 
#    y 0.000000 2.164650 0.000000 
#    z 0.000000 0.000000 2.096570 
# 
# From -- ./inp_files/8224.got.cif
#   From: 2010.05.17/outbox.cif.g08.bks.cpg/sg34_5_cif.got.tgz:8224.got - 2010.06.03 17:23:11.
