data_PCOD9347078
_publ_section_title
;
Structure prediction by ZEFSAII (Michael W. Deem and Ramdas Pophale) SiO2 
 PCOD9347078
Probable space group: P N A 21
;
_chemical_formula_sum "Si O2"
_cell_formula_units_Z 32
_cell_length_a 9.000000
_cell_length_b 12.000000
_cell_length_c 15.000000
_cell_angle_alpha 90.000000
_cell_angle_beta 90.000000
_cell_angle_gamma 90.000000
_cell_volume 1620.000000
_symmetry_space_group_name_H-M "P N A 21"
_symmetry_group_IT_number 33
_symmetry_cell_setting 'orthorhombic'
loop_
_space_group_symop_operation_xyz
x,y,z
-x,-y,1/2+z
1/2-x,1/2+y,1/2+z
1/2+x,1/2-y,z
loop_
_atom_site_type_symbol
_atom_site_label
_atom_site_fract_x
_atom_site_fract_y
_atom_site_fract_z
Si Si1 0.411513 0.010070 0.289740
Si Si2 0.358892 0.526551 0.658552
Si Si3 0.287739 0.797925 0.090343
Si Si4 0.439098 0.404304 0.324697
Si Si5 0.913977 0.328492 0.699973
Si Si6 0.224902 0.801017 0.370927
Si Si7 0.434505 0.613685 0.460443
Si Si8 0.122851 0.312719 0.380742
O O1 0.548726 0.949832 0.238743
O O2 0.323085 0.908686 0.340175
O O3 0.291255 0.056139 0.216855
O O4 0.490305 0.099956 0.354477
O O5 0.317726 0.401262 0.622783
O O6 0.492951 0.543982 0.731551
O O7 0.394851 0.590865 0.564990
O O8 0.200296 0.686304 0.118410
O O9 0.430164 0.795343 0.154885
O O10 0.334068 0.811141 0.986777
O O11 0.427824 0.501439 0.399727
O O12 0.274037 0.347717 0.327382
O O13 0.556575 0.308263 0.354345
O O14 0.856199 0.252565 0.783011
O O15 0.324347 0.705076 0.416326
O O16 0.099816 0.840040 0.440909
#
# Coordination Sequence:
#
# PCOD9347078 Si02
#       8
#     4   4   4   4   4   4   4   4
#     4  11  24  45  72 106 148 196 243 306 374 440
#     4  11  25  47  70 105 149 195 247 301 366 450
#     4  11  23  41  70 107 141 184 253 302 362 443
#     4  12  26  48  74 102 155 197 242 303 377 434
#     4  11  20  40  70 104 139 181 239 314 358 419
#     4  12  23  44  75 107 144 188 245 310 373 428
#     4  12  26  46  75 109 145 193 243 309 361 439
#     4  12  27  47  72 106 151 204 238 305 375 449
#
# _framework density 19.753086
#
# number of rings (size 3 to 8) (size 9 to 14) (size 15 to 20)
#    0.000    0.500    6.250    2.250    0.000    3.000 
#    0.000    2.500    0.000    0.000    0.000    0.000 
#    0.000    0.000    0.000    0.000    0.000    0.000 
#
# Total GULP energy -178704.448681 kJ/mol
# GULP energy per Si atom -5584.514021 kJ/mol
# Density = 1.970813 g / cm^3
# Si number density = 19.753086 Si / 1000 Ang^3
#
#
#
# Elastic Constant Matrix: (Units=GPa)
#
#
# Indices 1 2 3 4 5 6 
#
# 1 108.2501 58.1078 63.4919 0.0000 0.0000 0.0000
# 2 58.1078 108.7805 58.1164 0.0000 0.0000 0.0000
# 3 63.4919 58.1164 176.1017 0.0000 0.0000 0.0000
# 4 0.0000 0.0000 0.0000 33.2275 0.0000 0.0000
# 5 0.0000 0.0000 0.0000 0.0000 45.8692 0.0000
# 6 0.0000 0.0000 0.0000 0.0000 0.0000 51.6525
#
#
#
# Elastic Compliance Matrix: (Units=1/GPa)
#
#
# Indices 1 2 3 4 5 6 
#
# 1 0.014296 -0.005928 -0.003198 0.000000 0.000000 0.000000
# 2 -0.005928 0.013619 -0.002357 0.000000 0.000000 0.000000
# 3 -0.003198 -0.002357 0.007609 0.000000 0.000000 0.000000
# 4 0.000000 0.000000 0.000000 0.030096 0.000000 0.000000
# 5 0.000000 0.000000 0.000000 0.000000 0.021801 0.000000
# 6 0.000000 0.000000 0.000000 0.000000 0.000000 0.019360
#
#
# Mechanical properties :
#
#
# Convention : Reuss Voigt Hill
#
# Bulk Modulus (GPa) = 79.63119 83.61827 81.62473
# Shear Modulus (GPa) = 37.33238 40.37759 38.85499
#
# Velocity S-wave (km/s) = 4.35207 4.52609 4.43994
# Velocity P-wave (km/s) = 8.10277 8.35091 8.22778
#
# Compressibility (1/GPa) = 0.01255789
#
# Stress axis : x y z
#
# Youngs Moduli (GPa) = 69.95194 73.42876 131.41674
#
# Poissons Ratio (x) = 0.43528 0.42025
# Poissons Ratio (y) = 0.41467 0.30977
# Poissons Ratio (z) = 0.22369 0.17308
#
# Static dielectric constant tensor:
#      x y z
#    x 1.742350 0.000000 0.000000 
#    y 0.000000 1.726610 0.000000 
#    z 0.000000 0.000000 1.684180 
# 
# From -- ./inp_files/7649.got.cif
#   From: 2010.05.17/outbox.ucp.g08.bks.cvg/sg33_4_cif.got.tgz:7649.got - 2010.06.11 10:35:07.
