data_PCOD9347062
_publ_section_title
;
Structure prediction by ZEFSAII (Michael W. Deem and Ramdas Pophale) SiO2 
 PCOD9347062
Probable space group: P N A 21
;
_chemical_formula_sum "Si O2"
_cell_formula_units_Z 20
_cell_length_a 12.000000
_cell_length_b 9.000000
_cell_length_c 9.000000
_cell_angle_alpha 90.000000
_cell_angle_beta 90.000000
_cell_angle_gamma 90.000000
_cell_volume 972.000000
_symmetry_space_group_name_H-M "P N A 21"
_symmetry_group_IT_number 33
_symmetry_cell_setting 'orthorhombic'
loop_
_space_group_symop_operation_xyz
x,y,z
-x,-y,1/2+z
1/2-x,1/2+y,1/2+z
1/2+x,1/2-y,z
loop_
_atom_site_type_symbol
_atom_site_label
_atom_site_fract_x
_atom_site_fract_y
_atom_site_fract_z
Si Si1 0.759999 0.322089 0.182950
Si Si2 0.056128 0.809854 0.878804
Si Si3 0.560740 0.556905 0.213433
Si Si4 0.575022 0.837640 0.419565
Si Si5 0.413091 0.902972 0.695367
O O1 0.841312 0.293251 0.323352
O O2 0.669807 0.451089 0.209478
O O3 0.707098 0.159855 0.160475
O O4 0.819597 0.359223 0.027331
O O5 0.954264 0.704088 0.830619
O O6 0.052756 0.866766 0.049109
O O7 0.040463 0.948188 0.763837
O O8 0.567725 0.674754 0.347911
O O9 0.480000 0.876964 0.541882
O O10 0.576866 0.939224 0.272558
#
# Coordination Sequence:
#
# PCOD9347062 Si02
#       5
#     4   4   4   4   4
#     4  10  22  39  59  88 120 156 200 244 294 355
#     4  10  21  40  61  87 122 157 200 245 296 353
#     4  11  22  40  64  87 119 162 199 244 297 354
#     4  11  23  39  62  89 120 158 199 245 299 351
#     4  10  22  40  60  89 123 155 198 248 296 353
#
# _framework density 20.576132000000001
#
# number of rings (size 3 to 8) (size 9 to 14) (size 15 to 20)
#    0.000    1.600    0.000    6.000    0.000    4.800 
#    0.000   12.000    0.000    0.000    0.000    0.000 
#    0.000    0.000    0.000    0.000    0.000    0.000 
#
# Total GULP energy -111367.283318 kJ/mol
# GULP energy per Si atom -5568.364166 kJ/mol
# Density = 2.052930 g / cm^3
# Si number density = 20.576132 Si / 1000 Ang^3
#
#
#
# Elastic Constant Matrix: (Units=GPa)
#
#
# Indices 1 2 3 4 5 6 
#
# 1 54.4385 15.5322 23.0670 0.0000 0.0000 0.0000
# 2 15.5322 87.5047 21.0653 0.0000 0.0000 0.0000
# 3 23.0670 21.0653 118.6022 0.0000 0.0000 0.0000
# 4 0.0000 0.0000 0.0000 48.4863 0.0000 0.0000
# 5 0.0000 0.0000 0.0000 0.0000 12.7256 0.0000
# 6 0.0000 0.0000 0.0000 0.0000 0.0000 41.9376
#
#
#
# Elastic Compliance Matrix: (Units=1/GPa)
#
#
# Indices 1 2 3 4 5 6 
#
# 1 0.020665 -0.002821 -0.003518 0.000000 0.000000 0.000000
# 2 -0.002821 0.012324 -0.001640 0.000000 0.000000 0.000000
# 3 -0.003518 -0.001640 0.009407 0.000000 0.000000 0.000000
# 4 0.000000 0.000000 0.000000 0.020624 0.000000 0.000000
# 5 0.000000 0.000000 0.000000 0.000000 0.078582 0.000000
# 6 0.000000 0.000000 0.000000 0.000000 0.000000 0.023845
#
#
# Mechanical properties :
#
#
# Convention : Reuss Voigt Hill
#
# Bulk Modulus (GPa) = 37.82592 42.20827 40.01710
# Shear Modulus (GPa) = 26.28569 34.02196 30.15383
#
# Velocity S-wave (km/s) = 3.57807 4.07070 3.83231
# Velocity P-wave (km/s) = 5.95763 6.53084 6.25081
#
# Compressibility (1/GPa) = 0.02643690
#
# Stress axis : x y z
#
# Youngs Moduli (GPa) = 48.39108 81.14540 106.30280
#
# Poissons Ratio (x) = 0.22892 0.37398
# Poissons Ratio (y) = 0.13652 0.17435
# Poissons Ratio (z) = 0.17024 0.13309
#
# Static dielectric constant tensor:
#      x y z
#    x 2.044900 0.000000 0.000000 
#    y 0.000000 1.794610 0.000000 
#    z 0.000000 0.000000 1.673500 
# 
# From -- ./inp_files/3637.got.cif
#   From: 2010.05.17/outbox.ucp.g08.bks.cvg/sg33_2_cif.got.tgz:3637.got - 2010.06.11 10:35:07.
