data_PCOD9347512
_publ_section_title
;
Structure prediction by ZEFSAII (Michael W. Deem and Ramdas Pophale) SiO2 
 PCOD9347512
Probable space group: P N N 2
;
_chemical_formula_sum "Si O2"
_cell_formula_units_Z 24
_cell_length_a 7.183614
_cell_length_b 25.523788
_cell_length_c 4.838012
_cell_angle_alpha 90.000000
_cell_angle_beta 90.000000
_cell_angle_gamma 90.000000
_cell_volume 887.064212
_symmetry_space_group_name_H-M "P N N 2"
_symmetry_group_IT_number 34
_symmetry_cell_setting 'orthorhombic'
loop_
_space_group_symop_operation_xyz
x,y,z
-x,-y,z
1/2-x,1/2+y,1/2+z
1/2+x,1/2-y,1/2+z
loop_
_atom_site_type_symbol
_atom_site_label
_atom_site_fract_x
_atom_site_fract_y
_atom_site_fract_z
Si Si1 0.723327 0.421018 0.833450
Si Si2 0.220258 0.419029 0.412800
Si Si3 0.636122 0.636827 0.949606
Si Si4 0.500000 0.000000 0.297919
Si Si5 0.500000 0.500000 0.438629
Si Si6 0.829472 0.311174 0.624485
Si Si7 0.897725 0.770832 0.612346
O O1 0.868623 0.460963 0.974302
O O2 0.617187 0.460774 0.630531
O O3 0.819017 0.373409 0.665876
O O4 0.565923 0.391345 0.009823
O O5 0.196420 0.381851 0.148267
O O6 0.359258 0.462883 0.281959
O O7 0.091002 0.456858 0.593806
O O8 0.318288 0.381851 0.641374
O O9 0.577777 0.696264 0.004451
O O10 0.035059 0.288656 0.580333
O O11 0.675428 0.292207 0.404267
O O12 0.769959 0.284127 0.909696
#
# Coordination Sequence:
#
# PCOD9347512 Si02
#       7
#     4   4   4   2   2   4   4
#     4   9  20  39  63  93 128 166 210 263 314 378
#     4  10  21  37  60  90 123 165 212 259 310 376
#     4  10  21  40  63  85 123 173 212 242 312 402
#     4  10  22  40  64 100 132 162 214 284 326 348
#     4   8  16  34  58  80 116 164 200 232 302 380
#     4  11  24  42  66  95 131 166 214 265 321 382
#     4  11  23  42  67  96 127 168 211 264 323 384
#
# _framework density 27.055537000000001
#
# number of rings (size 3 to 8) (size 9 to 14) (size 15 to 20)
#    0.000    2.000    0.000    4.000    0.000    7.333 
#    0.000   11.667    0.000    0.000    0.000    0.000 
#    0.000    0.000    0.000    0.000    0.000    0.000 
#
# Total GULP energy -134115.468017 kJ/mol
# GULP energy per Si atom -5588.144501 kJ/mol
# Density = 2.699396 g / cm^3
# Si number density = 27.055537 Si / 1000 Ang^3
#
#
#
# Elastic Constant Matrix: (Units=GPa)
#
#
# Indices 1 2 3 4 5 6 
#
# 1 45.8621 67.2267 -4.5165 0.0000 0.0000 0.0000
# 2 67.2267 179.0051 22.5490 0.0000 0.0000 0.0000
# 3 -4.5165 22.5490 74.9995 0.0000 0.0000 0.0000
# 4 0.0000 0.0000 0.0000 31.1105 0.0000 0.0000
# 5 0.0000 0.0000 0.0000 0.0000 19.3372 0.0000
# 6 0.0000 0.0000 0.0000 0.0000 0.0000 81.1976
#
#
#
# Elastic Compliance Matrix: (Units=1/GPa)
#
#
# Indices 1 2 3 4 5 6 
#
# 1 0.054711 -0.021787 0.009845 0.000000 0.000000 0.000000
# 2 -0.021787 0.014483 -0.005666 0.000000 0.000000 0.000000
# 3 0.009845 -0.005666 0.015630 0.000000 0.000000 0.000000
# 4 0.000000 0.000000 0.000000 0.032143 0.000000 0.000000
# 5 0.000000 0.000000 0.000000 0.000000 0.051714 0.000000
# 6 0.000000 0.000000 0.000000 0.000000 0.000000 0.012316
#
#
# Mechanical properties :
#
#
# Convention : Reuss Voigt Hill
#
# Bulk Modulus (GPa) = 20.15866 52.26501 36.21184
# Shear Modulus (GPa) = 21.48245 40.63623 31.05934
#
# Velocity S-wave (km/s) = 2.82088 3.87971 3.39187
# Velocity P-wave (km/s) = 4.25169 6.27926 5.36218
#
# Compressibility (1/GPa) = 0.04960647
#
# Stress axis : x y z
#
# Youngs Moduli (GPa) = 18.27797 69.04862 63.97990
#
# Poissons Ratio (x) = 1.50437 -0.62989
# Poissons Ratio (y) = 0.39823 0.36253
# Poissons Ratio (z) = -0.17995 0.39125
#
# Static dielectric constant tensor:
#      x y z
#    x 2.283480 0.000000 0.000000 
#    y 0.000000 2.168240 0.000000 
#    z 0.000000 0.000000 2.008210 
# 
# From -- ./inp_files/567.got.cif
#   From: 2010.05.17/outbox.cif.g08.bks.cpg/sg34_1_cif.got.tgz:567.got - 2010.06.03 17:23:11.
