data_PCOD9347090
_publ_section_title
;
Structure prediction by ZEFSAII (Michael W. Deem and Ramdas Pophale) SiO2 
 PCOD9347090
Probable space group: P N A 21
;
_chemical_formula_sum "Si O2"
_cell_formula_units_Z 28
_cell_length_a 9.000000
_cell_length_b 15.000000
_cell_length_c 9.000000
_cell_angle_alpha 90.000000
_cell_angle_beta 90.000000
_cell_angle_gamma 90.000000
_cell_volume 1215.000000
_symmetry_space_group_name_H-M "P N A 21"
_symmetry_group_IT_number 33
_symmetry_cell_setting 'orthorhombic'
loop_
_space_group_symop_operation_xyz
x,y,z
-x,-y,1/2+z
1/2-x,1/2+y,1/2+z
1/2+x,1/2-y,z
loop_
_atom_site_type_symbol
_atom_site_label
_atom_site_fract_x
_atom_site_fract_y
_atom_site_fract_z
Si Si1 0.942223 0.619136 0.015630
Si Si2 0.159360 0.460648 0.948472
Si Si3 0.680508 0.691749 0.563208
Si Si4 0.415994 0.729179 0.770581
Si Si5 0.918823 0.332971 0.828806
Si Si6 0.387212 0.541275 0.752909
Si Si7 0.183398 0.021745 0.917757
O O1 0.989573 0.666954 0.172668
O O2 0.934999 0.695812 0.892534
O O3 0.796143 0.558731 0.968883
O O4 0.075860 0.548153 0.999949
O O5 0.247704 0.479667 0.797315
O O6 0.033570 0.386201 0.932569
O O7 0.280413 0.412043 0.048510
O O8 0.572071 0.704603 0.700277
O O9 0.822911 0.741493 0.627981
O O10 0.626287 0.740354 0.410950
O O11 0.353669 0.636190 0.831076
O O12 0.776462 0.399869 0.835109
O O13 0.380112 0.554666 0.576561
O O14 0.541521 0.505541 0.818957
#
# Coordination Sequence:
#
# PCOD9347090 Si02
#       7
#     4   4   4   4   4   4   4
#     4  11  27  48  75 112 154 205 258 317 388 467
#     4  11  26  45  78 108 154 199 253 312 389 460
#     4  12  25  48  74 108 150 204 252 310 389 465
#     4  12  26  46  76 109 150 202 255 315 387 464
#     4  11  25  49  73 107 153 203 253 311 389 463
#     4  12  25  47  72 115 148 195 256 326 381 453
#     4  11  26  45  76 113 153 200 259 321 391 454
#
# _framework density 23.045266999999999
#
# number of rings (size 3 to 8) (size 9 to 14) (size 15 to 20)
#    0.000    0.571    4.286    2.571    8.000    1.143 
#    5.143    0.000    0.000    0.000    0.000    0.000 
#    0.000    0.000    0.000    0.000    0.000    0.000 
#
# Total GULP energy -156250.009818 kJ/mol
# GULP energy per Si atom -5580.357494 kJ/mol
# Density = 2.299282 g / cm^3
# Si number density = 23.045267 Si / 1000 Ang^3
#
#
#
# Elastic Constant Matrix: (Units=GPa)
#
#
# Indices 1 2 3 4 5 6 
#
# 1 61.4294 34.4097 9.0460 0.0000 0.0000 0.0000
# 2 34.4097 69.8753 1.9938 0.0000 0.0000 0.0000
# 3 9.0460 1.9938 49.2180 0.0000 0.0000 0.0000
# 4 0.0000 0.0000 0.0000 37.1169 0.0000 0.0000
# 5 0.0000 0.0000 0.0000 0.0000 36.8418 0.0000
# 6 0.0000 0.0000 0.0000 0.0000 0.0000 28.5949
#
#
#
# Elastic Compliance Matrix: (Units=1/GPa)
#
#
# Indices 1 2 3 4 5 6 
#
# 1 0.023169 -0.011301 -0.003800 0.000000 0.000000 0.000000
# 2 -0.011301 0.019840 0.001273 0.000000 0.000000 0.000000
# 3 -0.003800 0.001273 0.020965 0.000000 0.000000 0.000000
# 4 0.000000 0.000000 0.000000 0.026942 0.000000 0.000000
# 5 0.000000 0.000000 0.000000 0.000000 0.027143 0.000000
# 6 0.000000 0.000000 0.000000 0.000000 0.000000 0.034971
#
#
# Mechanical properties :
#
#
# Convention : Reuss Voigt Hill
#
# Bulk Modulus (GPa) = 27.53510 30.15797 28.84653
# Shear Modulus (GPa) = 25.93477 29.51559 27.72518
#
# Velocity S-wave (km/s) = 3.35831 3.58266 3.47230
# Velocity P-wave (km/s) = 5.19730 5.49807 5.34980
#
# Compressibility (1/GPa) = 0.03631728
#
# Stress axis : x y z
#
# Youngs Moduli (GPa) = 43.16173 50.40341 47.69924
#
# Poissons Ratio (x) = 0.56960 0.18128
# Poissons Ratio (y) = 0.48776 -0.06074
# Poissons Ratio (z) = 0.16404 -0.06418
#
# Static dielectric constant tensor:
#      x y z
#    x 2.019620 0.000000 0.000000 
#    y 0.000000 1.917450 0.000000 
#    z 0.000000 0.000000 1.840500 
# 
# From -- ./inp_files/3204.got.cif
#   From: 2010.05.17/outbox.ucp.g08.bks.cvg/sg33_2_cif.got.tgz:3204.got - 2010.06.11 10:35:07.
