data_PCOD9347666
_publ_section_title
;
Structure prediction by ZEFSAII (Michael W. Deem and Ramdas Pophale) SiO2 
 PCOD9347666
Probable space group: P N N 2
;
_chemical_formula_sum "Si O2"
_cell_formula_units_Z 32
_cell_length_a 13.132222
_cell_length_b 18.394155
_cell_length_c 6.980708
_cell_angle_alpha 90.000000
_cell_angle_beta 90.000000
_cell_angle_gamma 90.000000
_cell_volume 1686.232788
_symmetry_space_group_name_H-M "P N N 2"
_symmetry_group_IT_number 34
_symmetry_cell_setting 'orthorhombic'
loop_
_space_group_symop_operation_xyz
x,y,z
-x,-y,z
1/2-x,1/2+y,1/2+z
1/2+x,1/2-y,1/2+z
loop_
_atom_site_type_symbol
_atom_site_label
_atom_site_fract_x
_atom_site_fract_y
_atom_site_fract_z
Si Si1 0.792157 0.085758 0.460350
Si Si2 0.884042 0.586597 0.668232
Si Si3 0.616061 0.294923 0.699412
Si Si4 0.254139 0.335509 0.352889
Si Si5 0.616060 0.705077 0.699412
Si Si6 0.115958 0.586597 0.668232
Si Si7 0.245861 0.164491 0.852889
Si Si8 0.292157 0.585758 0.960350
O O1 0.681851 0.098253 0.359971
O O2 0.786861 0.114957 0.675402
O O3 0.867925 0.134166 0.332574
O O4 0.814627 0.000000 0.451985
O O5 0.823870 0.623919 0.495306
O O6 0.885528 0.500000 0.634339
O O7 0.000000 0.612668 0.684682
O O8 0.695562 0.234911 0.773932
O O9 0.500000 0.269639 0.709644
O O10 0.650253 0.313866 0.484122
O O11 0.632075 0.365834 0.832574
O O12 0.349747 0.313866 0.484122
O O13 0.695562 0.765089 0.773932
O O14 0.176130 0.623919 0.495306
O O15 0.181851 0.598253 0.859971
O O16 0.213139 0.114957 0.675402
#
# Coordination Sequence:
#
# PCOD9347666 Si02
#       8
#     4   4   4   4   4   4   4   4
#     4  10  22  41  62  87 126 166 206 257 309 374
#     4   9  19  35  59  91 123 156 197 249 309 371
#     4  11  24  41  63  91 124 162 207 260 314 368
#     4  11  21  41  60  92 121 159 208 258 310 369
#     4  11  24  41  63  91 124 162 207 260 314 368
#     4   9  19  35  59  91 123 156 197 249 309 371
#     4  11  21  41  60  92 121 159 208 258 310 369
#     4  10  22  41  62  87 126 166 206 257 309 374
#
# _framework density 18.977215999999999
#
# number of rings (size 3 to 8) (size 9 to 14) (size 15 to 20)
#    0.000    1.750    2.500    1.500    0.000    4.500 
#    0.000    2.500    0.000    0.000    0.000    0.000 
#    0.000    0.000    0.000    0.000    0.000    0.000 
#
# Total GULP energy -178738.474084 kJ/mol
# GULP energy per Si atom -5585.577315 kJ/mol
# Density = 1.893402 g / cm^3
# Si number density = 18.977216 Si / 1000 Ang^3
#
#
#
# Elastic Constant Matrix: (Units=GPa)
#
#
# Indices 1 2 3 4 5 6 
#
# 1 38.0150 -6.3457 -4.0099 0.0000 0.0000 0.0000
# 2 -6.3457 54.7173 22.5317 0.0000 0.0000 0.0000
# 3 -4.0099 22.5317 108.1247 0.0000 0.0000 0.0000
# 4 0.0000 0.0000 0.0000 42.5296 0.0000 0.0000
# 5 0.0000 0.0000 0.0000 0.0000 4.3728 0.0000
# 6 0.0000 0.0000 0.0000 0.0000 0.0000 18.3045
#
#
#
# Elastic Compliance Matrix: (Units=1/GPa)
#
#
# Indices 1 2 3 4 5 6 
#
# 1 0.026839 0.002956 0.000379 0.000000 0.000000 0.000000
# 2 0.002956 0.020317 -0.004124 0.000000 0.000000 0.000000
# 3 0.000379 -0.004124 0.010122 0.000000 0.000000 0.000000
# 4 0.000000 0.000000 0.000000 0.023513 0.000000 0.000000
# 5 0.000000 0.000000 0.000000 0.000000 0.228685 0.000000
# 6 0.000000 0.000000 0.000000 0.000000 0.000000 0.054631
#
#
# Mechanical properties :
#
#
# Convention : Reuss Voigt Hill
#
# Bulk Modulus (GPa) = 17.95303 25.02324 21.48813
# Shear Modulus (GPa) = 13.01233 25.62013 19.31623
#
# Velocity S-wave (km/s) = 2.62139 3.67828 3.19386
# Velocity P-wave (km/s) = 4.31777 5.59055 4.99487
#
# Compressibility (1/GPa) = 0.05570091
#
# Stress axis : x y z
#
# Youngs Moduli (GPa) = 37.25937 49.22020 98.79419
#
# Poissons Ratio (x) = -0.14551 -0.03747
# Poissons Ratio (y) = -0.11015 0.40744
# Poissons Ratio (z) = -0.01413 0.20299
#
# Static dielectric constant tensor:
#      x y z
#    x 1.633140 0.000000 0.000000 
#    y 0.000000 1.661970 0.000000 
#    z 0.000000 0.000000 1.636510 
# 
# From -- ./inp_files/1045.got.cif
#   From: 2010.05.17/outbox.cif.g08.bks.cpg/sg34_1_cif.got.tgz:1045.got - 2010.06.03 17:23:11.
