data_PCOD9347716
_publ_section_title
;
Structure prediction by ZEFSAII (Michael W. Deem and Ramdas Pophale) SiO2 
 PCOD9347716
Probable space group: P N N 2
;
_chemical_formula_sum "Si O2"
_cell_formula_units_Z 32
_cell_length_a 12.136274
_cell_length_b 15.277885
_cell_length_c 7.121235
_cell_angle_alpha 90.000000
_cell_angle_beta 90.000000
_cell_angle_gamma 90.000000
_cell_volume 1320.395171
_symmetry_space_group_name_H-M "P N N 2"
_symmetry_group_IT_number 34
_symmetry_cell_setting 'orthorhombic'
loop_
_space_group_symop_operation_xyz
x,y,z
-x,-y,z
1/2-x,1/2+y,1/2+z
1/2+x,1/2-y,1/2+z
loop_
_atom_site_type_symbol
_atom_site_label
_atom_site_fract_x
_atom_site_fract_y
_atom_site_fract_z
Si Si1 0.323319 0.971154 0.472200
Si Si2 0.101054 0.247850 0.666724
Si Si3 0.945898 0.156775 0.231799
Si Si4 0.885499 0.453923 0.324048
Si Si5 0.909413 0.942543 0.503254
Si Si6 0.224179 0.411034 0.563611
Si Si7 0.636387 0.776349 0.056492
Si Si8 0.862180 0.722597 0.088917
O O1 0.335296 0.953171 0.250023
O O2 0.356991 0.882105 0.580081
O O3 0.381258 0.046715 0.596497
O O4 0.196247 0.998302 0.481256
O O5 0.116072 0.150025 0.595690
O O6 0.157164 0.320636 0.534314
O O7 0.151787 0.252132 0.870734
O O8 0.972644 0.272425 0.682451
O O9 0.850326 0.116753 0.102882
O O10 0.882659 0.195386 0.413568
O O11 0.032891 0.086211 0.308193
O O12 0.024492 0.234799 0.157604
O O13 0.789909 0.518181 0.401569
O O14 0.869533 0.363018 0.429668
O O15 0.000000 0.500000 0.379592
O O16 0.000000 0.000000 0.611295
O O17 0.749363 0.763954 0.169926
#
# Coordination Sequence:
#
# PCOD9347716 Si02
#       8
#     4   4   4   4   4   4   4   4
#     4  11  24  45  68 104 145 184 241 293 365 431
#     4  10  22  44  70  99 141 191 234 299 369 431
#     4  11  24  45  73  98 146 189 238 294 370 438
#     4  12  26  44  70 107 142 187 240 299 358 426
#     4  11  22  43  72 102 140 187 227 305 363 421
#     4  11  24  48  70 100 148 188 243 300 356 436
#     4  11  22  45  67  99 144 179 235 300 355 437
#     4  11  24  44  69 103 136 191 242 291 366 447
#
# _framework density 24.235168999999999
#
# number of rings (size 3 to 8) (size 9 to 14) (size 15 to 20)
#    0.000    1.000    5.000    2.250    3.500    2.500 
#    2.250    0.625    0.000    0.000    0.000    0.000 
#    0.000    0.000    0.000    0.000    0.000    0.000 
#
# Total GULP energy -178933.335049 kJ/mol
# GULP energy per Si atom -5591.666720 kJ/mol
# Density = 2.418001 g / cm^3
# Si number density = 24.235169 Si / 1000 Ang^3
#
#
#
# Elastic Constant Matrix: (Units=GPa)
#
#
# Indices 1 2 3 4 5 6 
#
# 1 125.5156 11.2180 7.1490 0.0000 0.0000 0.0000
# 2 11.2180 118.3434 21.3824 0.0000 0.0000 0.0000
# 3 7.1490 21.3824 47.5531 0.0000 0.0000 0.0000
# 4 0.0000 0.0000 0.0000 31.6228 0.0000 0.0000
# 5 0.0000 0.0000 0.0000 0.0000 29.7718 0.0000
# 6 0.0000 0.0000 0.0000 0.0000 0.0000 47.4538
#
#
#
# Elastic Compliance Matrix: (Units=1/GPa)
#
#
# Indices 1 2 3 4 5 6 
#
# 1 0.008074 -0.000594 -0.000947 0.000000 0.000000 0.000000
# 2 -0.000594 0.009241 -0.004066 0.000000 0.000000 0.000000
# 3 -0.000947 -0.004066 0.023000 0.000000 0.000000 0.000000
# 4 0.000000 0.000000 0.000000 0.031623 0.000000 0.000000
# 5 0.000000 0.000000 0.000000 0.000000 0.033589 0.000000
# 6 0.000000 0.000000 0.000000 0.000000 0.000000 0.021073
#
#
# Mechanical properties :
#
#
# Convention : Reuss Voigt Hill
#
# Bulk Modulus (GPa) = 34.36289 41.21231 37.78760
# Shear Modulus (GPa) = 33.89520 38.54719 36.22119
#
# Velocity S-wave (km/s) = 3.74384 3.99249 3.87016
# Velocity P-wave (km/s) = 5.73569 6.18833 5.96630
#
# Compressibility (1/GPa) = 0.02910116
#
# Stress axis : x y z
#
# Youngs Moduli (GPa) = 123.85168 108.21398 43.47894
#
# Poissons Ratio (x) = 0.06432 0.04116
# Poissons Ratio (y) = 0.07361 0.17678
# Poissons Ratio (z) = 0.11724 0.43998
#
# Static dielectric constant tensor:
#      x y z
#    x 2.008330 0.000000 0.000000 
#    y 0.000000 1.948020 0.000000 
#    z 0.000000 0.000000 1.948380 
# 
# From -- ./inp_files/3334.got.cif
#   From: 2010.05.17/outbox.cif.g08.bks.cpg/sg34_2_cif.got.tgz:3334.got - 2010.06.03 17:23:11.
