data_PCOD9347770
_publ_section_title
;
Structure prediction by ZEFSAII (Michael W. Deem and Ramdas Pophale) SiO2 
 PCOD9347770
Probable space group: P N N 2
;
_chemical_formula_sum "Si O2"
_cell_formula_units_Z 16
_cell_length_a 6.626176
_cell_length_b 15.675696
_cell_length_c 6.696339
_cell_angle_alpha 90.000000
_cell_angle_beta 90.000000
_cell_angle_gamma 90.000000
_cell_volume 695.548200
_symmetry_space_group_name_H-M "P N N 2"
_symmetry_group_IT_number 34
_symmetry_cell_setting 'orthorhombic'
loop_
_space_group_symop_operation_xyz
x,y,z
-x,-y,z
1/2-x,1/2+y,1/2+z
1/2+x,1/2-y,1/2+z
loop_
_atom_site_type_symbol
_atom_site_label
_atom_site_fract_x
_atom_site_fract_y
_atom_site_fract_z
Si Si1 0.944784 0.869175 0.262070
Si Si2 0.635851 0.084686 0.177374
Si Si3 0.128773 0.700456 0.434376
Si Si4 0.893441 0.413601 0.056066
O O1 0.802955 0.921940 0.414058
O O2 0.125601 0.923002 0.165833
O O3 0.061966 0.795740 0.385017
O O4 0.803721 0.822642 0.095064
O O5 0.560236 0.116236 0.395333
O O6 0.500000 0.000000 0.140150
O O7 0.569615 0.155666 0.022914
O O8 0.166431 0.651185 0.227539
O O9 0.000000 0.500000 0.136221
#
# Coordination Sequence:
#
# PCOD9347770 Si02
#       4
#     4   4   4   4
#     4  11  24  42  68  97 132 175 221 277 335 396
#     4  10  23  43  65  97 135 173 222 276 330 394
#     4  11  23  41  68  99 132 173 224 276 334 397
#     4  10  23  42  65  97 134 174 222 274 332 395
#
# _framework density 23.003436000000001
#
# number of rings (size 3 to 8) (size 9 to 14) (size 15 to 20)
#    0.000    1.500    0.000    3.750    0.000   18.000 
#    0.000    5.000    0.000    0.000    0.000    0.000 
#    0.000    0.000    0.000    0.000    0.000    0.000 
#
# Total GULP energy -89311.958833 kJ/mol
# GULP energy per Si atom -5581.997427 kJ/mol
# Density = 2.295108 g / cm^3
# Si number density = 23.003436 Si / 1000 Ang^3
#
#
#
# Elastic Constant Matrix: (Units=GPa)
#
#
# Indices 1 2 3 4 5 6 
#
# 1 182.8531 51.8722 14.4169 0.0000 0.0000 0.0000
# 2 51.8722 90.6227 5.7536 0.0000 0.0000 0.0000
# 3 14.4169 5.7536 56.5382 0.0000 0.0000 0.0000
# 4 0.0000 0.0000 0.0000 70.1915 0.0000 0.0000
# 5 0.0000 0.0000 0.0000 0.0000 -20.3894 0.0000
# 6 0.0000 0.0000 0.0000 0.0000 0.0000 35.5460
#
#
#
# Elastic Compliance Matrix: (Units=1/GPa)
#
#
# Indices 1 2 3 4 5 6 
#
# 1 0.006624 -0.003708 -0.001312 0.000000 0.000000 0.000000
# 2 -0.003708 0.013183 -0.000396 0.000000 0.000000 0.000000
# 3 -0.001312 -0.000396 0.018062 0.000000 0.000000 0.000000
# 4 0.000000 0.000000 0.000000 0.014247 0.000000 0.000000
# 5 0.000000 0.000000 0.000000 0.000000 -0.049045 0.000000
# 6 0.000000 0.000000 0.000000 0.000000 0.000000 0.028133
#
#
# Mechanical properties :
#
#
# Convention : Reuss Voigt Hill
#
# Bulk Modulus (GPa) = 36.98689 52.67773 44.83231
# Shear Modulus (GPa) = 97.94779 34.26770 66.10775
#
# Velocity S-wave (km/s) = 6.53239 3.86382 5.36662
# Velocity P-wave (km/s) = 8.54458 6.54638 7.61134
#
# Compressibility (1/GPa) = 0.02703661
#
# Stress axis : x y z
#
# Youngs Moduli (GPa) = 150.95880 75.85745 55.36508
#
# Poissons Ratio (x) = 0.28131 0.07263
# Poissons Ratio (y) = 0.55983 0.02192
# Poissons Ratio (z) = 0.19802 0.03003
#
# Static dielectric constant tensor:
#      x y z
#    x 1.871680 0.000000 0.000000 
#    y 0.000000 1.808430 0.000000 
#    z 0.000000 0.000000 1.868610 
# 
# From -- ./inp_files/108.got.cif
#   From: 2010.05.17/outbox.cif.g08.bks.cpg/sg34_1_cif.got.tgz:108.got - 2010.06.03 17:23:11.
