data_PCOD9347432
_publ_section_title
;
Structure prediction by ZEFSAII (Michael W. Deem and Ramdas Pophale) SiO2 
 PCOD9347432
Probable space group: P N N 2
;
_chemical_formula_sum "Si O2"
_cell_formula_units_Z 20
_cell_length_a 7.891858
_cell_length_b 17.583299
_cell_length_c 5.856867
_cell_angle_alpha 90.000000
_cell_angle_beta 90.000000
_cell_angle_gamma 90.000000
_cell_volume 812.727557
_symmetry_space_group_name_H-M "P N N 2"
_symmetry_group_IT_number 34
_symmetry_cell_setting 'orthorhombic'
loop_
_space_group_symop_operation_xyz
x,y,z
-x,-y,z
1/2-x,1/2+y,1/2+z
1/2+x,1/2-y,1/2+z
loop_
_atom_site_type_symbol
_atom_site_label
_atom_site_fract_x
_atom_site_fract_y
_atom_site_fract_z
Si Si1 0.000000 0.500000 0.631470
Si Si2 0.400334 0.339720 0.844544
Si Si3 0.000000 0.000000 0.435835
Si Si4 0.557178 0.136280 0.473008
Si Si5 0.761690 0.423005 0.284202
Si Si6 0.872481 0.767595 0.695248
O O1 0.055398 0.430874 0.789295
O O2 0.838476 0.473213 0.484513
O O3 0.455516 0.425234 0.789239
O O4 0.505272 0.211235 0.333114
O O5 0.553801 0.294283 0.955667
O O6 0.293399 0.286068 0.678544
O O7 0.848616 0.971473 0.603747
O O8 0.429917 0.110885 0.664688
O O9 0.752907 0.149179 0.540808
O O10 0.660715 0.345174 0.336633
#
# Coordination Sequence:
#
# PCOD9347432 Si02
#       6
#     2   4   2   4   4   4
#     4  12  22  40  68 100 134 190 238 278 360 424
#     4   9  19  40  63  95 139 177 232 291 346 427
#     4  10  20  40  64  98 142 178 228 294 350 404
#     4  10  23  43  66  99 137 179 231 294 341 428
#     4  11  23  44  67  98 142 182 231 292 349 427
#     4   9  21  42  63 101 136 181 232 284 358 417
#
# _framework density 24.608494
#
# number of rings (size 3 to 8) (size 9 to 14) (size 15 to 20)
#    1.200    0.800    0.000    4.200    0.000    0.000 
#   18.000    8.000    0.000    2.400    0.000    0.000 
#    0.000    0.000    0.000    0.000    0.000    0.000 
#
# Total GULP energy -111685.902246 kJ/mol
# GULP energy per Si atom -5584.295112 kJ/mol
# Density = 2.455248 g / cm^3
# Si number density = 24.608494 Si / 1000 Ang^3
#
#
#
# Elastic Constant Matrix: (Units=GPa)
#
#
# Indices 1 2 3 4 5 6 
#
# 1 88.7883 54.8179 20.7596 0.0000 0.0000 0.0000
# 2 54.8179 189.6183 44.2553 0.0000 0.0000 0.0000
# 3 20.7596 44.2553 35.2628 0.0000 0.0000 0.0000
# 4 0.0000 0.0000 0.0000 19.0269 0.0000 0.0000
# 5 0.0000 0.0000 0.0000 0.0000 36.2371 0.0000
# 6 0.0000 0.0000 0.0000 0.0000 0.0000 58.2986
#
#
#
# Elastic Compliance Matrix: (Units=1/GPa)
#
#
# Indices 1 2 3 4 5 6 
#
# 1 0.014205 -0.003048 -0.004538 0.000000 0.000000 0.000000
# 2 -0.003048 0.008112 -0.008387 0.000000 0.000000 0.000000
# 3 -0.004538 -0.008387 0.041556 0.000000 0.000000 0.000000
# 4 0.000000 0.000000 0.000000 0.052557 0.000000 0.000000
# 5 0.000000 0.000000 0.000000 0.000000 0.027596 0.000000
# 6 0.000000 0.000000 0.000000 0.000000 0.000000 0.017153
#
#
# Mechanical properties :
#
#
# Convention : Reuss Voigt Hill
#
# Bulk Modulus (GPa) = 31.32018 61.48166 46.40092
# Shear Modulus (GPa) = 24.53778 35.63495 30.08637
#
# Velocity S-wave (km/s) = 3.16116 3.80949 3.50036
# Velocity P-wave (km/s) = 5.10675 6.66241 5.93577
#
# Compressibility (1/GPa) = 0.03192830
#
# Stress axis : x y z
#
# Youngs Moduli (GPa) = 70.39585 123.27120 24.06409
#
# Poissons Ratio (x) = 0.37568 0.10921
# Poissons Ratio (y) = 0.21454 0.20182
# Poissons Ratio (z) = 0.31947 1.03385
#
# Static dielectric constant tensor:
#      x y z
#    x 2.030410 0.000000 0.000000 
#    y 0.000000 1.968230 0.000000 
#    z 0.000000 0.000000 1.940090 
# 
# From -- ./inp_files/450.got.cif
#   From: 2010.05.17/outbox.cif.g08.bks.cpg/sg34_1_cif.got.tgz:450.got - 2010.06.03 17:23:11.
