data_PCOD9347083
_publ_section_title
;
Structure prediction by ZEFSAII (Michael W. Deem and Ramdas Pophale) SiO2 
 PCOD9347083
Probable space group: P N A 21
;
_chemical_formula_sum "Si O2"
_cell_formula_units_Z 32
_cell_length_a 9.000000
_cell_length_b 12.000000
_cell_length_c 15.000000
_cell_angle_alpha 90.000000
_cell_angle_beta 90.000000
_cell_angle_gamma 90.000000
_cell_volume 1620.000000
_symmetry_space_group_name_H-M "P N A 21"
_symmetry_group_IT_number 33
_symmetry_cell_setting 'orthorhombic'
loop_
_space_group_symop_operation_xyz
x,y,z
-x,-y,1/2+z
1/2-x,1/2+y,1/2+z
1/2+x,1/2-y,z
loop_
_atom_site_type_symbol
_atom_site_label
_atom_site_fract_x
_atom_site_fract_y
_atom_site_fract_z
Si Si1 0.983281 0.868404 0.586770
Si Si2 0.753834 0.139452 0.809902
Si Si3 0.580090 0.760902 0.892903
Si Si4 0.850284 0.100566 0.551796
Si Si5 0.683651 0.152981 0.018787
Si Si6 0.971810 0.270323 0.699478
Si Si7 0.000634 0.431288 0.550084
Si Si8 0.835514 0.877694 0.784321
O O1 0.901785 0.766398 0.539335
O O2 0.911823 0.867832 0.686613
O O3 0.161548 0.855684 0.574690
O O4 0.936319 0.984799 0.540981
O O5 0.882950 0.225711 0.784115
O O6 0.623643 0.183720 0.743558
O O7 0.801440 0.010076 0.794857
O O8 0.717171 0.148063 0.913730
O O9 0.683524 0.813014 0.814513
O O10 0.452577 0.683446 0.850161
O O11 0.657311 0.678091 0.964267
O O12 0.525690 0.861305 0.958405
O O13 0.944187 0.167678 0.628492
O O14 0.677281 0.071865 0.571335
O O15 0.572877 0.051241 0.040925
O O16 0.921363 0.370182 0.634092
#
# Coordination Sequence:
#
# PCOD9347083 Si02
#       8
#     4   4   4   4   4   4   4   4
#     4  12  26  46  72 102 150 193 245 307 377 440
#     4  12  25  46  70 107 149 187 251 301 368 442
#     4  11  24  42  75 102 147 186 244 301 363 440
#     4  11  23  44  72 107 139 188 240 304 374 438
#     4  12  27  47  70 104 147 200 239 309 379 440
#     4  11  24  42  72 105 140 184 238 303 355 442
#     4  11  23  44  73 105 140 190 245 300 378 437
#     4  12  24  47  70 110 146 196 250 305 366 441
#
# _framework density 19.753086
#
# number of rings (size 3 to 8) (size 9 to 14) (size 15 to 20)
#    0.000    0.500    5.000    3.000    1.750    1.000 
#    0.000    2.500    0.000    0.000    0.000    0.000 
#    0.000    0.000    0.000    0.000    0.000    0.000 
#
# Total GULP energy -178464.427367 kJ/mol
# GULP energy per Si atom -5577.013355 kJ/mol
# Density = 1.970813 g / cm^3
# Si number density = 19.753086 Si / 1000 Ang^3
#
#
#
# Elastic Constant Matrix: (Units=GPa)
#
#
# Indices 1 2 3 4 5 6 
#
# 1 100.1243 38.5507 29.8013 0.0000 0.0000 0.0000
# 2 38.5507 95.0992 32.7454 0.0000 0.0000 0.0000
# 3 29.8013 32.7454 73.7764 0.0000 0.0000 0.0000
# 4 0.0000 0.0000 0.0000 35.9306 0.0000 0.0000
# 5 0.0000 0.0000 0.0000 0.0000 31.2807 0.0000
# 6 0.0000 0.0000 0.0000 0.0000 0.0000 38.4499
#
#
#
# Elastic Compliance Matrix: (Units=1/GPa)
#
#
# Indices 1 2 3 4 5 6 
#
# 1 0.012480 -0.003923 -0.003300 0.000000 0.000000 0.000000
# 2 -0.003923 0.013645 -0.004472 0.000000 0.000000 0.000000
# 3 -0.003300 -0.004472 0.016872 0.000000 0.000000 0.000000
# 4 0.000000 0.000000 0.000000 0.027831 0.000000 0.000000
# 5 0.000000 0.000000 0.000000 0.000000 0.031969 0.000000
# 6 0.000000 0.000000 0.000000 0.000000 0.000000 0.026008
#
#
# Mechanical properties :
#
#
# Convention : Reuss Voigt Hill
#
# Bulk Modulus (GPa) = 50.99885 52.35497 51.67691
# Shear Modulus (GPa) = 31.49971 32.32573 31.91272
#
# Velocity S-wave (km/s) = 3.99767 4.04974 4.02379
# Velocity P-wave (km/s) = 6.86897 6.95913 6.91419
#
# Compressibility (1/GPa) = 0.01960829
#
# Stress axis : x y z
#
# Youngs Moduli (GPa) = 80.12657 73.28514 59.26860
#
# Poissons Ratio (x) = 0.28749 0.19559
# Poissons Ratio (y) = 0.31432 0.26504
# Poissons Ratio (z) = 0.26443 0.32772
#
# Static dielectric constant tensor:
#      x y z
#    x 1.748980 0.000000 0.000000 
#    y 0.000000 1.669450 0.000000 
#    z 0.000000 0.000000 1.702930 
# 
# From -- ./inp_files/7671.got.cif
#   From: 2010.05.17/outbox.ucp.g08.bks.cvg/sg33_4_cif.got.tgz:7671.got - 2010.06.11 10:35:07.
