data_PCOD9347597
_publ_section_title
;
Structure prediction by ZEFSAII (Michael W. Deem and Ramdas Pophale) SiO2 
 PCOD9347597
Probable space group: P N N 2
;
_chemical_formula_sum "Si O2"
_cell_formula_units_Z 12
_cell_length_a 5.496773
_cell_length_b 9.367440
_cell_length_c 8.888661
_cell_angle_alpha 90.000000
_cell_angle_beta 90.000000
_cell_angle_gamma 90.000000
_cell_volume 457.683299
_symmetry_space_group_name_H-M "P N N 2"
_symmetry_group_IT_number 34
_symmetry_cell_setting 'orthorhombic'
loop_
_space_group_symop_operation_xyz
x,y,z
-x,-y,z
1/2-x,1/2+y,1/2+z
1/2+x,1/2-y,1/2+z
loop_
_atom_site_type_symbol
_atom_site_label
_atom_site_fract_x
_atom_site_fract_y
_atom_site_fract_z
Si Si1 0.905365 0.142700 0.187350
Si Si2 0.755071 0.573624 0.006833
Si Si3 0.510983 0.169604 0.956266
O O1 0.752002 0.064075 0.324351
O O2 0.043104 0.256175 0.294286
O O3 0.726244 0.212218 0.068075
O O4 0.000000 0.000000 0.108199
O O5 0.500000 0.500000 0.058854
O O6 0.724318 0.745860 0.022601
O O7 0.000000 0.500000 0.061885
O O8 0.500000 0.000000 0.946541
#
# Coordination Sequence:
#
# PCOD9347597 Si02
#       3
#     4   4   4
#     4   9  21  43  72 112 171 209 274 349 432 488
#     4   9  20  41  72 107 158 207 258 336 419 479
#     4  10  21  42  74 118 156 219 279 346 415 517
#
# _framework density 26.219003000000001
#
# number of rings (size 3 to 8) (size 9 to 14) (size 15 to 20)
#    2.000    0.667    0.000    1.000    0.000    2.667 
#    0.000    8.333    0.000    0.000    0.000    0.000 
#    0.000    0.000    0.000    0.000    0.000    0.000 
#
# Total GULP energy -66849.512522 kJ/mol
# GULP energy per Si atom -5570.792710 kJ/mol
# Density = 2.615933 g / cm^3
# Si number density = 26.219003 Si / 1000 Ang^3
#
#
#
# Elastic Constant Matrix: (Units=GPa)
#
#
# Indices 1 2 3 4 5 6 
#
# 1 126.2026 86.6031 28.8653 0.0000 0.0000 0.0000
# 2 86.6031 263.3631 20.7287 0.0000 0.0000 0.0000
# 3 28.8653 20.7287 94.1518 0.0000 0.0000 0.0000
# 4 0.0000 0.0000 0.0000 31.1501 0.0000 0.0000
# 5 0.0000 0.0000 0.0000 0.0000 39.8024 0.0000
# 6 0.0000 0.0000 0.0000 0.0000 0.0000 45.7046
#
#
#
# Elastic Compliance Matrix: (Units=1/GPa)
#
#
# Indices 1 2 3 4 5 6 
#
# 1 0.010814 -0.003353 -0.002577 0.000000 0.000000 0.000000
# 2 -0.003353 0.004904 -0.000052 0.000000 0.000000 0.000000
# 3 -0.002577 -0.000052 0.011423 0.000000 0.000000 0.000000
# 4 0.000000 0.000000 0.000000 0.032103 0.000000 0.000000
# 5 0.000000 0.000000 0.000000 0.000000 0.025124 0.000000
# 6 0.000000 0.000000 0.000000 0.000000 0.000000 0.021880
#
#
# Mechanical properties :
#
#
# Convention : Reuss Voigt Hill
#
# Bulk Modulus (GPa) = 65.89093 84.01241 74.95167
# Shear Modulus (GPa) = 40.56131 46.49944 43.53037
#
# Velocity S-wave (km/s) = 3.93748 4.21586 4.07905
# Velocity P-wave (km/s) = 6.77180 7.47062 7.12978
#
# Compressibility (1/GPa) = 0.01517660
#
# Stress axis : x y z
#
# Youngs Moduli (GPa) = 92.46983 203.92443 87.54551
#
# Poissons Ratio (x) = 0.68382 0.22562
# Poissons Ratio (y) = 0.31008 0.00451
# Poissons Ratio (z) = 0.23831 0.01052
#
# Static dielectric constant tensor:
#      x y z
#    x 2.321370 0.000000 0.000000 
#    y 0.000000 2.236910 0.000000 
#    z 0.000000 0.000000 2.049560 
# 
# From -- ./inp_files/4218.got.cif
#   From: 2010.05.17/outbox.cif.g08.bks.cpg/sg34_3_cif.got.tgz:4218.got - 2010.06.03 17:23:11.
