data_PCOD9347790
_publ_section_title
;
Structure prediction by ZEFSAII (Michael W. Deem and Ramdas Pophale) SiO2 
 PCOD9347790
Probable space group: P N N 2
;
_chemical_formula_sum "Si O2"
_cell_formula_units_Z 32
_cell_length_a 15.291663
_cell_length_b 9.030368
_cell_length_c 11.997764
_cell_angle_alpha 90.000000
_cell_angle_beta 90.000000
_cell_angle_gamma 90.000000
_cell_volume 1656.763363
_symmetry_space_group_name_H-M "P N N 2"
_symmetry_group_IT_number 34
_symmetry_cell_setting 'orthorhombic'
loop_
_space_group_symop_operation_xyz
x,y,z
-x,-y,z
1/2-x,1/2+y,1/2+z
1/2+x,1/2-y,1/2+z
loop_
_atom_site_type_symbol
_atom_site_label
_atom_site_fract_x
_atom_site_fract_y
_atom_site_fract_z
Si Si1 0.229975 0.884748 0.376400
Si Si2 0.030801 0.236504 0.136433
Si Si3 0.407956 0.584334 0.006228
Si Si4 0.571781 0.115272 0.869421
Si Si5 0.076147 0.386285 0.903146
Si Si6 0.910845 0.908510 0.761921
Si Si7 0.646592 0.560738 0.637137
Si Si8 0.753863 0.963370 0.916984
O O1 0.326850 0.950959 0.390123
O O2 0.198073 0.892400 0.248404
O O3 0.236413 0.714461 0.418998
O O4 0.162364 0.980744 0.446625
O O5 0.040704 0.334524 0.246761
O O6 0.931389 0.179564 0.117542
O O7 0.093114 0.093167 0.153394
O O8 0.062322 0.323252 0.027455
O O9 0.500000 0.500000 0.002937
O O10 0.383544 0.609616 0.134399
O O11 0.420561 0.737941 0.942954
O O12 0.500000 0.000000 0.914080
O O13 0.666317 0.039208 0.872825
O O14 0.072684 0.248562 0.819338
O O15 0.000000 0.500000 0.878198
O O16 0.833926 0.984693 0.831720
O O17 0.000000 0.000000 0.768334
O O18 0.712085 0.530245 0.534224
#
# Coordination Sequence:
#
# PCOD9347790 Si02
#       8
#     4   4   4   4   4   4   4   4
#     4  11  24  44  67  99 139 173 228 276 340 409
#     4  11  22  44  72  97 131 178 232 282 336 398
#     4  11  24  43  66  92 133 179 213 275 343 408
#     4  12  26  43  66 104 133 176 226 282 336 407
#     4  11  25  44  65 100 133 171 222 286 333 399
#     4  10  23  44  65  93 130 175 219 272 339 413
#     4  11  22  43  74  96 133 184 226 280 340 402
#     4  11  25  41  70  99 137 172 229 281 335 404
#
# _framework density 19.314767
#
# number of rings (size 3 to 8) (size 9 to 14) (size 15 to 20)
#    0.000    1.000    3.750    3.375    5.250    2.500 
#    4.500    0.000    0.000    0.000    0.000    0.000 
#    0.000    0.000    0.000    0.000    0.000    0.000 
#
# Total GULP energy -178911.076007 kJ/mol
# GULP energy per Si atom -5590.971125 kJ/mol
# Density = 1.927081 g / cm^3
# Si number density = 19.314767 Si / 1000 Ang^3
#
#
#
# Elastic Constant Matrix: (Units=GPa)
#
#
# Indices 1 2 3 4 5 6 
#
# 1 118.1107 39.1496 60.2432 0.0000 0.0000 0.0000
# 2 39.1496 57.2427 44.8192 0.0000 0.0000 0.0000
# 3 60.2432 44.8192 150.8449 0.0000 0.0000 0.0000
# 4 0.0000 0.0000 0.0000 -0.8513 0.0000 0.0000
# 5 0.0000 0.0000 0.0000 0.0000 28.3462 0.0000
# 6 0.0000 0.0000 0.0000 0.0000 0.0000 42.6736
#
#
#
# Elastic Compliance Matrix: (Units=1/GPa)
#
#
# Indices 1 2 3 4 5 6 
#
# 1 0.011937 -0.005775 -0.003052 0.000000 0.000000 0.000000
# 2 -0.005775 0.025559 -0.005288 0.000000 0.000000 0.000000
# 3 -0.003052 -0.005288 0.009419 0.000000 0.000000 0.000000
# 4 0.000000 0.000000 0.000000 -1.174702 0.000000 0.000000
# 5 0.000000 0.000000 0.000000 0.000000 0.035278 0.000000
# 6 0.000000 0.000000 0.000000 0.000000 0.000000 0.023434
#
#
# Mechanical properties :
#
#
# Convention : Reuss Voigt Hill
#
# Bulk Modulus (GPa) = 53.51295 68.29137 60.90216
# Shear Modulus (GPa) = -4.83271 26.16612 10.66671
#
# Velocity S-wave (km/s) = -1.58351 3.68465 2.35256
# Velocity P-wave (km/s) = 4.94191 7.31683 6.24334
#
# Compressibility (1/GPa) = 0.01868707
#
# Stress axis : x y z
#
# Youngs Moduli (GPa) = 83.77113 39.12477 106.16643
#
# Poissons Ratio (x) = 0.22594 0.32398
# Poissons Ratio (y) = 0.48377 0.56139
# Poissons Ratio (z) = 0.25563 0.20689
#
# Static dielectric constant tensor:
#      x y z
#    x 1.687060 0.000000 0.000000 
#    y 0.000000 1.686340 0.000000 
#    z 0.000000 0.000000 1.660770 
# 
# From -- ./inp_files/5659.got.cif
#   From: 2010.05.17/outbox.cif.g08.bks.cpg/sg34_3_cif.got.tgz:5659.got - 2010.06.03 17:23:11.
