data_PCOD9347761
_publ_section_title
;
Structure prediction by ZEFSAII (Michael W. Deem and Ramdas Pophale) SiO2 
 PCOD9347761
Probable space group: P N N 2
;
_chemical_formula_sum "Si O2"
_cell_formula_units_Z 24
_cell_length_a 7.095834
_cell_length_b 12.078048
_cell_length_c 10.650553
_cell_angle_alpha 90.000000
_cell_angle_beta 90.000000
_cell_angle_gamma 90.000000
_cell_volume 912.793116
_symmetry_space_group_name_H-M "P N N 2"
_symmetry_group_IT_number 34
_symmetry_cell_setting 'orthorhombic'
loop_
_space_group_symop_operation_xyz
x,y,z
-x,-y,z
1/2-x,1/2+y,1/2+z
1/2+x,1/2-y,1/2+z
loop_
_atom_site_type_symbol
_atom_site_label
_atom_site_fract_x
_atom_site_fract_y
_atom_site_fract_z
Si Si1 0.645884 0.235705 0.575810
Si Si2 0.788234 0.959848 0.192557
Si Si3 0.777172 0.518031 0.973236
Si Si4 0.774132 0.680412 0.573258
Si Si5 0.646233 0.393323 0.223612
Si Si6 0.210427 0.403385 0.312410
O O1 0.754048 0.342526 0.629214
O O2 0.747595 0.152117 0.478905
O O3 0.442895 0.283709 0.540030
O O4 0.615652 0.152874 0.692919
O O5 0.779150 0.961332 0.342980
O O6 0.680211 0.064084 0.138566
O O7 0.000000 0.000000 0.159236
O O8 0.000000 0.500000 0.984612
O O9 0.678649 0.458520 0.090686
O O10 0.824105 0.769843 0.677653
O O11 0.852943 0.662718 0.434082
O O12 0.437156 0.392196 0.283041
O O13 0.789263 0.461720 0.314588
#
# Coordination Sequence:
#
# PCOD9347761 Si02
#       6
#     4   4   4   4   4   4
#     4  10  23  41  64  95 131 172 222 271 331 399
#     4  10  25  39  64  99 135 173 222 271 338 401
#     4  11  22  42  71  93 131 175 221 281 331 398
#     4  11  23  43  67  96 135 177 219 279 340 393
#     4  10  23  41  71  95 127 177 222 267 343 396
#     4  10  24  42  68  95 134 171 225 277 332 406
#
# _framework density 26.292923999999999
#
# number of rings (size 3 to 8) (size 9 to 14) (size 15 to 20)
#    0.000    1.667    1.667    1.000   14.000    0.000 
#    0.000    0.000    7.333    0.000    0.000    0.000 
#    0.000    0.000    0.000    0.000    0.000    0.000 
#
# Total GULP energy -134079.556575 kJ/mol
# GULP energy per Si atom -5586.648191 kJ/mol
# Density = 2.623308 g / cm^3
# Si number density = 26.292924 Si / 1000 Ang^3
#
#
#
# Elastic Constant Matrix: (Units=GPa)
#
#
# Indices 1 2 3 4 5 6 
#
# 1 58.2742 24.0463 -15.0659 0.0000 0.0000 0.0000
# 2 24.0463 191.4422 31.8045 0.0000 0.0000 0.0000
# 3 -15.0659 31.8045 75.5147 0.0000 0.0000 0.0000
# 4 0.0000 0.0000 0.0000 14.5338 0.0000 0.0000
# 5 0.0000 0.0000 0.0000 0.0000 24.1849 0.0000
# 6 0.0000 0.0000 0.0000 0.0000 0.0000 40.0933
#
#
#
# Elastic Compliance Matrix: (Units=1/GPa)
#
#
# Indices 1 2 3 4 5 6 
#
# 1 0.019968 -0.003408 0.005419 0.000000 0.000000 0.000000
# 2 -0.003408 0.006198 -0.003291 0.000000 0.000000 0.000000
# 3 0.005419 -0.003291 0.015710 0.000000 0.000000 0.000000
# 4 0.000000 0.000000 0.000000 0.068805 0.000000 0.000000
# 5 0.000000 0.000000 0.000000 0.000000 0.041348 0.000000
# 6 0.000000 0.000000 0.000000 0.000000 0.000000 0.024942
#
#
# Mechanical properties :
#
#
# Convention : Reuss Voigt Hill
#
# Bulk Modulus (GPa) = 25.43476 45.20010 35.31743
# Shear Modulus (GPa) = 25.95580 34.72549 30.34064
#
# Velocity S-wave (km/s) = 3.14535 3.63811 3.40066
# Velocity P-wave (km/s) = 4.78389 5.90560 5.37409
#
# Compressibility (1/GPa) = 0.03931627
#
# Stress axis : x y z
#
# Youngs Moduli (GPa) = 50.08075 161.33500 63.65565
#
# Poissons Ratio (x) = 0.54989 -0.34497
# Poissons Ratio (y) = 0.17069 0.20946
# Poissons Ratio (z) = -0.27140 0.53088
#
# Static dielectric constant tensor:
#      x y z
#    x 2.247560 0.000000 0.000000 
#    y 0.000000 2.178130 0.000000 
#    z 0.000000 0.000000 2.055230 
# 
# From -- ./inp_files/4905.got.cif
#   From: 2010.05.17/outbox.cif.g08.bks.cpg/sg34_3_cif.got.tgz:4905.got - 2010.06.03 17:23:11.
