data_PCOD9347445
_publ_section_title
;
Structure prediction by ZEFSAII (Michael W. Deem and Ramdas Pophale) SiO2 
 PCOD9347445
Probable space group: P N N 2
;
_chemical_formula_sum "Si O2"
_cell_formula_units_Z 18
_cell_length_a 8.047546
_cell_length_b 6.617043
_cell_length_c 12.075808
_cell_angle_alpha 90.000000
_cell_angle_beta 90.000000
_cell_angle_gamma 90.000000
_cell_volume 643.048344
_symmetry_space_group_name_H-M "P N N 2"
_symmetry_group_IT_number 34
_symmetry_cell_setting 'orthorhombic'
loop_
_space_group_symop_operation_xyz
x,y,z
-x,-y,z
1/2-x,1/2+y,1/2+z
1/2+x,1/2-y,1/2+z
loop_
_atom_site_type_symbol
_atom_site_label
_atom_site_fract_x
_atom_site_fract_y
_atom_site_fract_z
Si Si1 0.858085 0.123735 0.918350
Si Si2 0.125366 0.372984 0.888421
Si Si3 0.127400 0.831301 0.576541
Si Si4 0.189778 0.964748 0.173989
Si Si5 0.500000 0.000000 0.907543
O O1 0.912012 0.365069 0.878713
O O2 0.916245 0.875602 0.912783
O O3 0.675754 0.078424 0.857050
O O4 0.817975 0.135720 0.052009
O O5 0.222644 0.347173 0.772519
O O6 0.222105 0.414472 0.004274
O O7 0.205711 0.670377 0.659074
O O8 0.038617 0.691507 0.485333
O O9 0.000000 0.000000 0.620260
O O10 0.000000 0.000000 0.206964
#
# Coordination Sequence:
#
# PCOD9347445 Si02
#       5
#     4   4   4   4   2
#     4  10  20  44  73 108 163 210 261 356 414 486
#     4  12  24  42  79 115 158 222 283 341 430 515
#     4  11  23  45  80 117 167 223 273 354 439 497
#     4  10  22  45  78 111 167 223 283 357 422 522
#     4  10  20  40  84 104 154 226 258 342 432 486
#
# _framework density 27.991675999999998
#
# number of rings (size 3 to 8) (size 9 to 14) (size 15 to 20)
#    0.000    1.333    6.667    2.000    6.222    0.000 
#    0.000    1.111    7.333    0.000    0.000    0.000 
#    0.000    0.000    0.000    0.000    0.000    0.000 
#
# Total GULP energy -100538.852557 kJ/mol
# GULP energy per Si atom -5585.491809 kJ/mol
# Density = 2.792797 g / cm^3
# Si number density = 27.991676 Si / 1000 Ang^3
#
#
#
# Elastic Constant Matrix: (Units=GPa)
#
#
# Indices 1 2 3 4 5 6 
#
# 1 181.9372 103.9637 45.5729 0.0000 0.0000 0.0000
# 2 103.9637 228.2645 66.8006 0.0000 0.0000 0.0000
# 3 45.5729 66.8006 177.3567 0.0000 0.0000 0.0000
# 4 0.0000 0.0000 0.0000 46.1882 0.0000 0.0000
# 5 0.0000 0.0000 0.0000 0.0000 34.6579 0.0000
# 6 0.0000 0.0000 0.0000 0.0000 0.0000 77.2710
#
#
#
# Elastic Compliance Matrix: (Units=1/GPa)
#
#
# Indices 1 2 3 4 5 6 
#
# 1 0.007511 -0.003210 -0.000721 0.000000 0.000000 0.000000
# 2 -0.003210 0.006295 -0.001546 0.000000 0.000000 0.000000
# 3 -0.000721 -0.001546 0.006406 0.000000 0.000000 0.000000
# 4 0.000000 0.000000 0.000000 0.021651 0.000000 0.000000
# 5 0.000000 0.000000 0.000000 0.000000 0.028853 0.000000
# 6 0.000000 0.000000 0.000000 0.000000 0.000000 0.012941
#
#
# Mechanical properties :
#
#
# Convention : Reuss Voigt Hill
#
# Bulk Modulus (GPa) = 108.01442 113.35919 110.68681
# Shear Modulus (GPa) = 51.17762 56.37151 53.77456
#
# Velocity S-wave (km/s) = 4.28052 4.49248 4.38778
# Velocity P-wave (km/s) = 7.94369 8.21555 8.08076
#
# Compressibility (1/GPa) = 0.00925802
#
# Stress axis : x y z
#
# Youngs Moduli (GPa) = 133.13252 158.84558 156.10275
#
# Poissons Ratio (x) = 0.50990 0.11256
# Poissons Ratio (y) = 0.42736 0.24138
# Poissons Ratio (z) = 0.09599 0.24562
#
# Static dielectric constant tensor:
#      x y z
#    x 2.231940 0.000000 0.000000 
#    y 0.000000 2.260440 0.000000 
#    z 0.000000 0.000000 1.953930 
# 
# From -- ./inp_files/5260.got.cif
#   From: 2010.05.17/outbox.cif.g08.bks.cpg/sg34_3_cif.got.tgz:5260.got - 2010.06.03 17:23:11.
