data_PCOD9347891
_publ_section_title
;
Structure prediction by ZEFSAII (Michael W. Deem and Ramdas Pophale) SiO2 
 PCOD9347891
Probable space group: P N N 2
;
_chemical_formula_sum "Si O2"
_cell_formula_units_Z 32
_cell_length_a 29.211551
_cell_length_b 6.618460
_cell_length_c 8.262679
_cell_angle_alpha 90.000000
_cell_angle_beta 90.000000
_cell_angle_gamma 90.000000
_cell_volume 1597.469026
_symmetry_space_group_name_H-M "P N N 2"
_symmetry_group_IT_number 34
_symmetry_cell_setting 'orthorhombic'
loop_
_space_group_symop_operation_xyz
x,y,z
-x,-y,z
1/2-x,1/2+y,1/2+z
1/2+x,1/2-y,1/2+z
loop_
_atom_site_type_symbol
_atom_site_label
_atom_site_fract_x
_atom_site_fract_y
_atom_site_fract_z
Si Si1 0.793188 0.695792 0.417150
Si Si2 0.955450 0.599834 0.482773
Si Si3 0.778630 0.008968 0.141009
Si Si4 0.542431 0.385510 0.693123
Si Si5 0.875944 0.873708 0.622981
Si Si6 0.666132 0.898767 0.658441
Si Si7 0.096866 0.794769 0.389458
Si Si8 0.365809 0.725770 0.494011
O O1 0.762037 0.530911 0.511080
O O2 0.830372 0.782342 0.541451
O O3 0.822046 0.569047 0.288237
O O4 0.770444 0.880305 0.308376
O O5 0.970379 0.700676 0.311929
O O6 0.922958 0.756430 0.576298
O O7 0.922937 0.413858 0.446240
O O8 0.000000 0.500000 0.565112
O O9 0.791060 0.247919 0.150154
O O10 0.823113 0.899485 0.066449
O O11 0.500000 0.500000 0.606082
O O12 0.559444 0.554562 0.819122
O O13 0.586457 0.315994 0.588871
O O14 0.871408 0.853933 0.813289
O O15 0.879391 0.092378 0.538833
O O16 0.628462 0.754628 0.736728
O O17 0.647824 0.035245 0.509841
#
# Coordination Sequence:
#
# PCOD9347891 Si02
#       8
#     4   4   4   4   4   4   4   4
#     4  11  25  41  63  95 123 162 221 261 320 388
#     4  11  21  40  67  94 119 169 219 257 318 385
#     4  11  25  42  65  92 124 167 211 268 320 386
#     4  11  21  38  66  94 122 162 218 266 308 383
#     4  11  25  41  61  95 133 165 211 273 319 382
#     4  11  21  43  68  85 126 167 211 260 311 391
#     4  11  19  41  67  87 121 167 213 257 318 375
#     4  11  25  43  60  96 133 168 212 263 331 382
#
# _framework density 20.031687999999999
#
# number of rings (size 3 to 8) (size 9 to 14) (size 15 to 20)
#    0.000    1.000    6.250    1.500    3.500    3.000 
#    2.250    0.625    0.000    0.000    0.000    0.000 
#    0.000    0.000    0.000    0.000    0.000    0.000 
#
# Total GULP energy -178191.015206 kJ/mol
# GULP energy per Si atom -5568.469225 kJ/mol
# Density = 1.998609 g / cm^3
# Si number density = 20.031688 Si / 1000 Ang^3
#
#
#
# Elastic Constant Matrix: (Units=GPa)
#
#
# Indices 1 2 3 4 5 6 
#
# 1 75.0712 10.3869 21.1972 0.0000 0.0000 0.0000
# 2 10.3869 89.7718 21.1702 0.0000 0.0000 0.0000
# 3 21.1972 21.1702 67.6010 0.0000 0.0000 0.0000
# 4 0.0000 0.0000 0.0000 25.8080 0.0000 0.0000
# 5 0.0000 0.0000 0.0000 0.0000 39.5068 0.0000
# 6 0.0000 0.0000 0.0000 0.0000 0.0000 40.1080
#
#
#
# Elastic Compliance Matrix: (Units=1/GPa)
#
#
# Indices 1 2 3 4 5 6 
#
# 1 0.014651 -0.000661 -0.004387 0.000000 0.000000 0.000000
# 2 -0.000661 0.012057 -0.003569 0.000000 0.000000 0.000000
# 3 -0.004387 -0.003569 0.017286 0.000000 0.000000 0.000000
# 4 0.000000 0.000000 0.000000 0.038748 0.000000 0.000000
# 5 0.000000 0.000000 0.000000 0.000000 0.025312 0.000000
# 6 0.000000 0.000000 0.000000 0.000000 0.000000 0.024933
#
#
# Mechanical properties :
#
#
# Convention : Reuss Voigt Hill
#
# Bulk Modulus (GPa) = 37.36754 37.55030 37.45892
# Shear Modulus (GPa) = 31.41886 33.06386 32.24136
#
# Velocity S-wave (km/s) = 3.96467 4.06714 4.01623
# Velocity P-wave (km/s) = 6.29705 6.39075 6.34407
#
# Compressibility (1/GPa) = 0.02676119
#
# Stress axis : x y z
#
# Youngs Moduli (GPa) = 68.25550 82.93670 57.85044
#
# Poissons Ratio (x) = 0.05479 0.25380
# Poissons Ratio (y) = 0.04509 0.20646
# Poissons Ratio (z) = 0.29944 0.29599
#
# Static dielectric constant tensor:
#      x y z
#    x 1.640370 0.000000 0.000000 
#    y 0.000000 1.734480 0.000000 
#    z 0.000000 0.000000 1.752030 
# 
# From -- ./inp_files/2221.got.cif
#   From: 2010.05.17/outbox.cif.g08.bks.cpg/sg34_2_cif.got.tgz:2221.got - 2010.06.03 17:23:11.
