data_PCOD9347836
_publ_section_title
;
Structure prediction by ZEFSAII (Michael W. Deem and Ramdas Pophale) SiO2 
 PCOD9347836
Probable space group: P N N 2
;
_chemical_formula_sum "Si O2"
_cell_formula_units_Z 26
_cell_length_a 20.659282
_cell_length_b 8.237215
_cell_length_c 6.725157
_cell_angle_alpha 90.000000
_cell_angle_beta 90.000000
_cell_angle_gamma 90.000000
_cell_volume 1144.453240
_symmetry_space_group_name_H-M "P N N 2"
_symmetry_group_IT_number 34
_symmetry_cell_setting 'orthorhombic'
loop_
_space_group_symop_operation_xyz
x,y,z
-x,-y,z
1/2-x,1/2+y,1/2+z
1/2+x,1/2-y,1/2+z
loop_
_atom_site_type_symbol
_atom_site_label
_atom_site_fract_x
_atom_site_fract_y
_atom_site_fract_z
Si Si1 0.539177 0.244070 0.234310
Si Si2 0.500000 0.000000 0.577902
Si Si3 0.411508 0.421125 0.324741
Si Si4 0.695306 0.593093 0.063768
Si Si5 0.241207 0.580374 0.405708
Si Si6 0.605448 0.091023 0.857248
Si Si7 0.135825 0.054363 0.189191
O O1 0.471480 0.339002 0.216811
O O2 0.591068 0.386967 0.270140
O O3 0.524753 0.137783 0.428047
O O4 0.562726 0.141536 0.047875
O O5 0.438214 0.027843 0.720962
O O6 0.348380 0.332336 0.241196
O O7 0.414399 0.443921 0.562555
O O8 0.738182 0.463009 0.180700
O O9 0.733196 0.730311 0.947995
O O10 0.647363 0.516935 0.905266
O O11 0.172682 0.488347 0.428602
O O12 0.297668 0.534593 0.562313
O O13 0.619363 0.256827 0.731308
#
# Coordination Sequence:
#
# PCOD9347836 Si02
#       7
#     4   2   4   4   4   4   4
#     4  11  25  47  70 101 144 188 237 305 355 441
#     4  12  28  44  70 102 144 190 240 298 366 424
#     4  10  24  45  70 101 140 188 244 290 365 432
#     4  11  25  44  73 104 143 194 243 300 367 439
#     4  11  27  45  71 108 144 190 249 298 370 441
#     4  12  26  48  70 108 147 189 243 306 370 435
#     4  11  24  47  72 101 143 191 241 301 359 436
#
# _framework density 22.718271000000001
#
# number of rings (size 3 to 8) (size 9 to 14) (size 15 to 20)
#    0.000    0.923    4.615    0.462    8.615    1.231 
#    0.000    0.000    0.000    0.000    0.000    0.000 
#    0.000    0.000    0.000    0.000    0.000    0.000 
#
# Total GULP energy -145044.718969 kJ/mol
# GULP energy per Si atom -5578.643037 kJ/mol
# Density = 2.266656 g / cm^3
# Si number density = 22.718271 Si / 1000 Ang^3
#
#
#
# Elastic Constant Matrix: (Units=GPa)
#
#
# Indices 1 2 3 4 5 6 
#
# 1 88.0372 15.5848 44.7545 0.0000 0.0000 0.0000
# 2 15.5848 39.9078 48.6972 0.0000 0.0000 0.0000
# 3 44.7545 48.6972 138.1173 0.0000 0.0000 0.0000
# 4 0.0000 0.0000 0.0000 34.0766 0.0000 0.0000
# 5 0.0000 0.0000 0.0000 0.0000 45.5403 0.0000
# 6 0.0000 0.0000 0.0000 0.0000 0.0000 34.8371
#
#
#
# Elastic Compliance Matrix: (Units=1/GPa)
#
#
# Indices 1 2 3 4 5 6 
#
# 1 0.013599 0.000116 -0.004448 0.000000 0.000000 0.000000
# 2 0.000116 0.043980 -0.015544 0.000000 0.000000 0.000000
# 3 -0.004448 -0.015544 0.014162 0.000000 0.000000 0.000000
# 4 0.000000 0.000000 0.000000 0.029346 0.000000 0.000000
# 5 0.000000 0.000000 0.000000 0.000000 0.021959 0.000000
# 6 0.000000 0.000000 0.000000 0.000000 0.000000 0.028705
#
#
# Mechanical properties :
#
#
# Convention : Reuss Voigt Hill
#
# Bulk Modulus (GPa) = 31.25942 53.79282 42.52612
# Shear Modulus (GPa) = 24.73239 33.35919 29.04579
#
# Velocity S-wave (km/s) = 3.30306 3.83611 3.57952
# Velocity P-wave (km/s) = 5.32319 6.58412 5.98694
#
# Compressibility (1/GPa) = 0.03199035
#
# Stress axis : x y z
#
# Youngs Moduli (GPa) = 73.53359 22.73775 70.61205
#
# Poissons Ratio (x) = -0.00265 0.31406
# Poissons Ratio (y) = -0.00856 1.09760
# Poissons Ratio (z) = 0.32705 0.35344
#
# Static dielectric constant tensor:
#      x y z
#    x 1.914460 0.000000 0.000000 
#    y 0.000000 1.878430 0.000000 
#    z 0.000000 0.000000 1.847860 
# 
# From -- ./inp_files/499.got.cif
#   From: 2010.05.17/outbox.cif.g08.bks.cpg/sg34_1_cif.got.tgz:499.got - 2010.06.03 17:23:11.
