data_PCOD9347444
_publ_section_title
;
Structure prediction by ZEFSAII (Michael W. Deem and Ramdas Pophale) SiO2 
 PCOD9347444
Probable space group: P N N 2
;
_chemical_formula_sum "Si O2"
_cell_formula_units_Z 30
_cell_length_a 23.460579
_cell_length_b 8.993120
_cell_length_c 4.999003
_cell_angle_alpha 90.000000
_cell_angle_beta 90.000000
_cell_angle_gamma 90.000000
_cell_volume 1054.708660
_symmetry_space_group_name_H-M "P N N 2"
_symmetry_group_IT_number 34
_symmetry_cell_setting 'orthorhombic'
loop_
_space_group_symop_operation_xyz
x,y,z
-x,-y,z
1/2-x,1/2+y,1/2+z
1/2+x,1/2-y,1/2+z
loop_
_atom_site_type_symbol
_atom_site_label
_atom_site_fract_x
_atom_site_fract_y
_atom_site_fract_z
Si Si1 0.800805 0.503599 0.623790
Si Si2 0.418099 0.067450 0.397808
Si Si3 0.027364 0.270905 0.748136
Si Si4 0.000000 0.000000 0.137503
Si Si5 0.900614 0.179339 0.247144
Si Si6 0.367391 0.731173 0.897585
Si Si7 0.337542 0.525066 0.394527
Si Si8 0.720753 0.676427 0.035201
O O1 0.855108 0.434641 0.782537
O O2 0.832703 0.614356 0.416687
O O3 0.763871 0.594985 0.838141
O O4 0.715371 0.585397 0.313775
O O5 0.464697 0.157177 0.222143
O O6 0.416753 0.153705 0.676803
O O7 0.438501 0.898677 0.411683
O O8 0.066439 0.251856 0.484628
O O9 0.022458 0.127837 0.936709
O O10 0.953524 0.078571 0.328296
O O11 0.884551 0.101675 0.961642
O O12 0.850728 0.860692 0.136294
O O13 0.344577 0.627895 0.138198
O O14 0.342600 0.332208 0.908052
O O15 0.232488 0.648037 0.547106
#
# Coordination Sequence:
#
# PCOD9347444 Si02
#       8
#     4   4   4   2   4   4   4   4
#     4  11  28  53  84 119 166 232 290 369 441 528
#     4   9  20  44  77 119 168 222 286 362 436 534
#     4   9  19  40  79 124 172 220 285 355 447 532
#     4  10  20  40  82 128 170 230 278 362 442 534
#     4  11  23  47  78 122 170 219 289 354 438 526
#     4  11  26  51  84 124 173 216 292 354 452 523
#     4  12  25  52  79 125 164 223 280 362 428 535
#     4  12  29  54  83 121 171 229 300 363 448 525
#
# _framework density 28.443874999999998
#
# number of rings (size 3 to 8) (size 9 to 14) (size 15 to 20)
#    0.000    1.333    4.000    0.000    1.867    3.200 
#    4.800    2.000    0.000    4.800    0.000    0.000 
#    0.000    0.000    0.000    0.000    0.000    0.000 
#
# Total GULP energy -168313.512260 kJ/mol
# GULP energy per Si atom -5610.450409 kJ/mol
# Density = 2.837914 g / cm^3
# Si number density = 28.443875 Si / 1000 Ang^3
#
#
#
# Elastic Constant Matrix: (Units=GPa)
#
#
# Indices 1 2 3 4 5 6 
#
# 1 180.1820 68.1331 47.1247 0.0000 0.0000 0.0000
# 2 68.1331 260.1290 87.8886 0.0000 0.0000 0.0000
# 3 47.1247 87.8886 145.1348 0.0000 0.0000 0.0000
# 4 0.0000 0.0000 0.0000 59.6391 0.0000 0.0000
# 5 0.0000 0.0000 0.0000 0.0000 40.5900 0.0000
# 6 0.0000 0.0000 0.0000 0.0000 0.0000 43.0936
#
#
#
# Elastic Compliance Matrix: (Units=1/GPa)
#
#
# Indices 1 2 3 4 5 6 
#
# 1 0.006357 -0.001217 -0.001327 0.000000 0.000000 0.000000
# 2 -0.001217 0.005066 -0.002673 0.000000 0.000000 0.000000
# 3 -0.001327 -0.002673 0.008940 0.000000 0.000000 0.000000
# 4 0.000000 0.000000 0.000000 0.016768 0.000000 0.000000
# 5 0.000000 0.000000 0.000000 0.000000 0.024637 0.000000
# 6 0.000000 0.000000 0.000000 0.000000 0.000000 0.023205
#
#
# Mechanical properties :
#
#
# Convention : Reuss Voigt Hill
#
# Bulk Modulus (GPa) = 100.71227 110.19317 105.45272
# Shear Modulus (GPa) = 50.65066 54.15115 52.40091
#
# Velocity S-wave (km/s) = 4.22444 4.36798 4.29681
# Velocity P-wave (km/s) = 7.69927 8.01646 7.85947
#
# Compressibility (1/GPa) = 0.00992928
#
# Stress axis : x y z
#
# Youngs Moduli (GPa) = 157.30323 197.39770 111.86096
#
# Poissons Ratio (x) = 0.24015 0.14849
# Poissons Ratio (y) = 0.19137 0.29897
# Poissons Ratio (z) = 0.20881 0.52759
#
# Static dielectric constant tensor:
#      x y z
#    x 2.337810 0.000000 0.000000 
#    y 0.000000 2.181020 0.000000 
#    z 0.000000 0.000000 2.236570 
# 
# From -- ./inp_files/3990.got.cif
#   From: 2010.05.17/outbox.cif.g08.bks.cpg/sg34_2_cif.got.tgz:3990.got - 2010.06.03 17:23:11.
