data_PCOD9347767
_publ_section_title
;
Structure prediction by ZEFSAII (Michael W. Deem and Ramdas Pophale) SiO2 
 PCOD9347767
Probable space group: P N N 2
;
_chemical_formula_sum "Si O2"
_cell_formula_units_Z 30
_cell_length_a 9.001887
_cell_length_b 11.798081
_cell_length_c 13.292737
_cell_angle_alpha 90.000000
_cell_angle_beta 90.000000
_cell_angle_gamma 90.000000
_cell_volume 1411.755026
_symmetry_space_group_name_H-M "P N N 2"
_symmetry_group_IT_number 34
_symmetry_cell_setting 'orthorhombic'
loop_
_space_group_symop_operation_xyz
x,y,z
-x,-y,z
1/2-x,1/2+y,1/2+z
1/2+x,1/2-y,1/2+z
loop_
_atom_site_type_symbol
_atom_site_label
_atom_site_fract_x
_atom_site_fract_y
_atom_site_fract_z
Si Si1 0.391973 0.391542 0.223620
Si Si2 0.867023 0.441712 0.200785
Si Si3 0.500000 0.000000 0.285025
Si Si4 0.999530 0.865429 0.930418
Si Si5 0.344475 0.427456 0.821263
Si Si6 0.160272 0.681352 0.402710
Si Si7 0.313578 0.296705 0.611644
Si Si8 0.482808 0.175807 0.106267
O O1 0.500000 0.500000 0.223020
O O2 0.237436 0.451601 0.212125
O O3 0.399405 0.338073 0.334472
O O4 0.435238 0.301388 0.140094
O O5 0.908510 0.389822 0.310491
O O6 0.800161 0.332847 0.147012
O O7 0.000000 0.500000 0.141855
O O8 0.330587 0.975893 0.334577
O O9 0.528794 0.896607 0.207937
O O10 0.836510 0.832655 0.895101
O O11 0.058359 0.806907 0.029930
O O12 0.000000 0.000000 0.949198
O O13 0.500000 0.500000 0.832614
O O14 0.367521 0.315337 0.889641
O O15 0.343581 0.377208 0.707320
O O16 0.114080 0.637856 0.512069
O O17 0.152837 0.329830 0.570244
#
# Coordination Sequence:
#
# PCOD9347767 Si02
#       8
#     4   4   2   4   4   4   4   4
#     4  11  21  45  66  86 127 181 206 260 338 383
#     4  11  24  41  66  93 130 166 220 273 318 394
#     4  10  24  42  72  94 130 180 228 266 336 402
#     4  11  22  39  69  93 127 172 219 272 333 397
#     4  10  23  46  67  93 139 179 217 279 337 402
#     4  11  25  42  62 103 132 167 226 273 332 406
#     4  10  23  42  62  99 128 168 221 273 332 392
#     4  11  25  41  67  95 133 168 221 276 327 401
#
# _framework density 21.250145
#
# number of rings (size 3 to 8) (size 9 to 14) (size 15 to 20)
#    0.000    1.333    4.000    2.000   10.267    1.600 
#    2.400    0.000    1.467    0.000    0.000    0.000 
#    0.000    0.000    0.000    0.000    0.000    0.000 
#
# Total GULP energy -167188.340463 kJ/mol
# GULP energy per Si atom -5572.944682 kJ/mol
# Density = 2.120178 g / cm^3
# Si number density = 21.250145 Si / 1000 Ang^3
#
#
#
# Elastic Constant Matrix: (Units=GPa)
#
#
# Indices 1 2 3 4 5 6 
#
# 1 84.5532 28.8952 -10.6326 0.0000 0.0000 0.0000
# 2 28.8952 81.5193 -0.3593 0.0000 0.0000 0.0000
# 3 -10.6326 -0.3593 33.9191 0.0000 0.0000 0.0000
# 4 0.0000 0.0000 0.0000 -22.7998 0.0000 0.0000
# 5 0.0000 0.0000 0.0000 0.0000 8.3905 0.0000
# 6 0.0000 0.0000 0.0000 0.0000 0.0000 31.4310
#
#
#
# Elastic Compliance Matrix: (Units=1/GPa)
#
#
# Indices 1 2 3 4 5 6 
#
# 1 0.014073 -0.004969 0.004359 0.000000 0.000000 0.000000
# 2 -0.004969 0.014022 -0.001409 0.000000 0.000000 0.000000
# 3 0.004359 -0.001409 0.030833 0.000000 0.000000 0.000000
# 4 0.000000 0.000000 0.000000 -0.043860 0.000000 0.000000
# 5 0.000000 0.000000 0.000000 0.000000 0.119183 0.000000
# 6 0.000000 0.000000 0.000000 0.000000 0.000000 0.031816
#
#
# Mechanical properties :
#
#
# Convention : Reuss Voigt Hill
#
# Bulk Modulus (GPa) = 18.21830 26.19980 22.20905
# Shear Modulus (GPa) = 26.53893 15.54356 21.04124
#
# Velocity S-wave (km/s) = 3.53779 2.70748 3.15011
# Velocity P-wave (km/s) = 5.02790 4.70425 4.86876
#
# Compressibility (1/GPa) = 0.05488986
#
# Stress axis : x y z
#
# Youngs Moduli (GPa) = 71.05723 71.31560 32.43241
#
# Poissons Ratio (x) = 0.35438 -0.14137
# Poissons Ratio (y) = 0.35309 0.04570
# Poissons Ratio (z) = -0.30973 0.10049
#
# Static dielectric constant tensor:
#      x y z
#    x 1.853710 0.000000 0.000000 
#    y 0.000000 1.820320 0.000000 
#    z 0.000000 0.000000 1.758450 
# 
# From -- ./inp_files/6546.got.cif
#   From: 2010.05.17/outbox.cif.g08.bks.cpg/sg34_4_cif.got.tgz:6546.got - 2010.06.03 17:23:11.
