data_PCOD9347980
_publ_section_title
;
Structure prediction by ZEFSAII (Michael W. Deem and Ramdas Pophale) SiO2 
 PCOD9347980
Probable space group: P N N 2
;
_chemical_formula_sum "Si O2"
_cell_formula_units_Z 20
_cell_length_a 12.303664
_cell_length_b 11.765575
_cell_length_c 5.612359
_cell_angle_alpha 90.000000
_cell_angle_beta 90.000000
_cell_angle_gamma 90.000000
_cell_volume 812.443302
_symmetry_space_group_name_H-M "P N N 2"
_symmetry_group_IT_number 34
_symmetry_cell_setting 'orthorhombic'
loop_
_space_group_symop_operation_xyz
x,y,z
-x,-y,z
1/2-x,1/2+y,1/2+z
1/2+x,1/2-y,1/2+z
loop_
_atom_site_type_symbol
_atom_site_label
_atom_site_fract_x
_atom_site_fract_y
_atom_site_fract_z
Si Si1 0.651463 0.885039 0.721380
Si Si2 0.179420 0.830054 0.947585
Si Si3 0.838213 0.802086 0.084343
Si Si4 0.000000 0.000000 0.998592
Si Si5 0.323420 0.916579 0.361550
Si Si6 0.500000 0.000000 0.017684
O O1 0.631014 0.788667 0.530279
O O2 0.536152 0.899845 0.847455
O O3 0.689635 0.999316 0.584844
O O4 0.742544 0.854500 0.917124
O O5 0.277446 0.776569 0.785668
O O6 0.088924 0.920547 0.858395
O O7 0.220482 0.884454 0.198858
O O8 0.925447 0.902597 0.132777
O O9 0.883364 0.700829 0.921613
O O10 0.398766 0.980711 0.179509
#
# Coordination Sequence:
#
# PCOD9347980 Si02
#       6
#     4   4   4   2   4   2
#     4  11  25  45  72 107 150 198 256 332 393 482
#     4  11  26  48  72 111 158 200 266 331 396 493
#     4  11  26  48  72 111 158 200 266 331 396 493
#     4  12  26  44  80 110 152 222 254 324 412 474
#     4  11  25  45  72 107 150 198 256 332 393 482
#     4  12  24  40  76 106 136 204 252 312 410 472
#
# _framework density 24.617104000000001
#
# number of rings (size 3 to 8) (size 9 to 14) (size 15 to 20)
#    0.000    0.800    0.000    6.600   11.200    0.000 
#    0.000    8.000    0.000    0.000    0.000    0.000 
#    0.000    0.000    0.000    0.000    0.000    0.000 
#
# Total GULP energy -111434.573641 kJ/mol
# GULP energy per Si atom -5571.728682 kJ/mol
# Density = 2.456107 g / cm^3
# Si number density = 24.617104 Si / 1000 Ang^3
#
#
#
# Elastic Constant Matrix: (Units=GPa)
#
#
# Indices 1 2 3 4 5 6 
#
# 1 92.0567 46.5040 23.4255 0.0000 0.0000 0.0000
# 2 46.5040 169.9997 37.4593 0.0000 0.0000 0.0000
# 3 23.4255 37.4593 68.6703 0.0000 0.0000 0.0000
# 4 0.0000 0.0000 0.0000 41.4234 0.0000 0.0000
# 5 0.0000 0.0000 0.0000 0.0000 30.1430 0.0000
# 6 0.0000 0.0000 0.0000 0.0000 0.0000 57.4444
#
#
#
# Elastic Compliance Matrix: (Units=1/GPa)
#
#
# Indices 1 2 3 4 5 6 
#
# 1 0.013079 -0.002949 -0.002853 0.000000 0.000000 0.000000
# 2 -0.002949 0.007351 -0.003004 0.000000 0.000000 0.000000
# 3 -0.002853 -0.003004 0.017174 0.000000 0.000000 0.000000
# 4 0.000000 0.000000 0.000000 0.024141 0.000000 0.000000
# 5 0.000000 0.000000 0.000000 0.000000 0.033175 0.000000
# 6 0.000000 0.000000 0.000000 0.000000 0.000000 0.017408
#
#
# Mechanical properties :
#
#
# Convention : Reuss Voigt Hill
#
# Bulk Modulus (GPa) = 50.01964 60.61160 55.31562
# Shear Modulus (GPa) = 36.60224 40.69135 38.64679
#
# Velocity S-wave (km/s) = 3.86017 4.07008 3.96652
# Velocity P-wave (km/s) = 6.34279 6.83832 6.59521
#
# Compressibility (1/GPa) = 0.01999215
#
# Stress axis : x y z
#
# Youngs Moduli (GPa) = 76.46086 136.03583 58.22711
#
# Poissons Ratio (x) = 0.40118 0.16611
# Poissons Ratio (y) = 0.22549 0.17491
# Poissons Ratio (z) = 0.21813 0.40864
#
# Static dielectric constant tensor:
#      x y z
#    x 2.095670 0.000000 0.000000 
#    y 0.000000 1.961470 0.000000 
#    z 0.000000 0.000000 1.992170 
# 
# From -- ./inp_files/775.got.cif
#   From: 2010.05.17/outbox.cif.g08.bks.cpg/sg34_1_cif.got.tgz:775.got - 2010.06.03 17:23:11.
