data_PCOD9347159
_publ_section_title
;
Structure prediction by ZEFSAII (Michael W. Deem and Ramdas Pophale) SiO2 
 PCOD9347159
Probable space group: P N N 2
;
_chemical_formula_sum "Si O2"
_cell_formula_units_Z 32
_cell_length_a 11.209888
_cell_length_b 9.130321
_cell_length_c 16.491249
_cell_angle_alpha 90.000000
_cell_angle_beta 90.000000
_cell_angle_gamma 90.000000
_cell_volume 1687.877287
_symmetry_space_group_name_H-M "P N N 2"
_symmetry_group_IT_number 34
_symmetry_cell_setting 'orthorhombic'
loop_
_space_group_symop_operation_xyz
x,y,z
-x,-y,z
1/2-x,1/2+y,1/2+z
1/2+x,1/2-y,1/2+z
loop_
_atom_site_type_symbol
_atom_site_label
_atom_site_fract_x
_atom_site_fract_y
_atom_site_fract_z
Si Si1 0.417343 0.815538 0.496080
Si Si2 0.720057 0.008533 0.620891
Si Si3 0.929339 0.231228 0.577439
Si Si4 0.245498 0.564466 0.475896
Si Si5 0.691083 0.266399 0.009763
Si Si6 0.193463 0.044800 0.792804
Si Si7 0.353749 0.089801 0.402601
Si Si8 0.530418 0.742904 0.263794
O O1 0.368333 0.651854 0.494029
O O2 0.550492 0.833465 0.463944
O O3 0.383946 0.892566 0.581275
O O4 0.348908 0.921158 0.430617
O O5 0.734223 0.854706 0.576650
O O6 0.720577 0.979375 0.716060
O O7 0.842566 0.093386 0.594995
O O8 0.853621 0.340531 0.521980
O O9 0.958839 0.281177 0.669149
O O10 0.053657 0.209030 0.531977
O O11 0.229508 0.401413 0.507993
O O12 0.240998 0.558467 0.378374
O O13 0.728632 0.336434 0.923393
O O14 0.103519 0.183254 0.780573
O O15 0.110722 0.898740 0.789001
O O16 0.411737 0.127468 0.316863
#
# Coordination Sequence:
#
# PCOD9347159 Si02
#       8
#     4   4   4   4   4   4   4   4
#     4   9  20  35  53  82 116 149 187 244 306 345
#     4   9  19  37  61  82 110 154 199 241 292 369
#     4  10  21  37  57  85 120 154 193 246 306 360
#     4  11  21  35  54  86 124 150 190 248 306 347
#     4  11  20  34  56  83 116 154 194 237 301 362
#     4  10  18  33  61  88 110 149 198 247 296 350
#     4  10  19  35  58  84 113 146 199 243 292 356
#     4  10  18  34  60  88 111 147 202 247 289 354
#
# _framework density 18.958724
#
# number of rings (size 3 to 8) (size 9 to 14) (size 15 to 20)
#    0.000    2.000    3.750    0.750    0.000    0.500 
#    6.750    0.000   11.000    0.000    0.000    0.000 
#    0.000    0.000    0.000    0.000    0.000    0.000 
#
# Total GULP energy -178285.156678 kJ/mol
# GULP energy per Si atom -5571.411146 kJ/mol
# Density = 1.891557 g / cm^3
# Si number density = 18.958724 Si / 1000 Ang^3
#
#
#
# Elastic Constant Matrix: (Units=GPa)
#
#
# Indices 1 2 3 4 5 6 
#
# 1 57.2837 7.5435 41.4208 0.0000 0.0000 0.0000
# 2 7.5435 61.6707 34.3973 0.0000 0.0000 0.0000
# 3 41.4208 34.3973 141.5496 0.0000 0.0000 0.0000
# 4 0.0000 0.0000 0.0000 24.3408 0.0000 0.0000
# 5 0.0000 0.0000 0.0000 0.0000 23.4145 0.0000
# 6 0.0000 0.0000 0.0000 0.0000 0.0000 13.9505
#
#
#
# Elastic Compliance Matrix: (Units=1/GPa)
#
#
# Indices 1 2 3 4 5 6 
#
# 1 0.022201 0.001050 -0.006752 0.000000 0.000000 0.000000
# 2 0.001050 0.018807 -0.004878 0.000000 0.000000 0.000000
# 3 -0.006752 -0.004878 0.010226 0.000000 0.000000 0.000000
# 4 0.000000 0.000000 0.000000 0.041083 0.000000 0.000000
# 5 0.000000 0.000000 0.000000 0.000000 0.042709 0.000000
# 6 0.000000 0.000000 0.000000 0.000000 0.000000 0.071682
#
#
# Mechanical properties :
#
#
# Convention : Reuss Voigt Hill
#
# Bulk Modulus (GPa) = 33.24965 47.46967 40.35966
# Shear Modulus (GPa) = 21.01805 24.15064 22.58434
#
# Velocity S-wave (km/s) = 3.33321 3.57298 3.45518
# Velocity P-wave (km/s) = 5.69119 6.48956 6.10344
#
# Compressibility (1/GPa) = 0.03007550
#
# Stress axis : x y z
#
# Youngs Moduli (GPa) = 45.04373 53.17114 97.79345
#
# Poissons Ratio (x) = -0.05584 0.66027
# Poissons Ratio (y) = -0.04731 0.47699
# Poissons Ratio (z) = 0.30412 0.25935
#
# Static dielectric constant tensor:
#      x y z
#    x 1.684910 0.000000 0.000000 
#    y 0.000000 1.701740 0.000000 
#    z 0.000000 0.000000 1.688870 
# 
# From -- ./inp_files/7727.got.cif
#   From: 2010.05.17/outbox.cif.g08.bks.cpg/sg34_4_cif.got.tgz:7727.got - 2010.06.03 17:23:11.
