data_PCOD9347374
_publ_section_title
;
Structure prediction by ZEFSAII (Michael W. Deem and Ramdas Pophale) SiO2 
 PCOD9347374
Probable space group: P N N 2
;
_chemical_formula_sum "Si O2"
_cell_formula_units_Z 32
_cell_length_a 8.380477
_cell_length_b 12.301184
_cell_length_c 15.316854
_cell_angle_alpha 90.000000
_cell_angle_beta 90.000000
_cell_angle_gamma 90.000000
_cell_volume 1579.011256
_symmetry_space_group_name_H-M "P N N 2"
_symmetry_group_IT_number 34
_symmetry_cell_setting 'orthorhombic'
loop_
_space_group_symop_operation_xyz
x,y,z
-x,-y,z
1/2-x,1/2+y,1/2+z
1/2+x,1/2-y,1/2+z
loop_
_atom_site_type_symbol
_atom_site_label
_atom_site_fract_x
_atom_site_fract_y
_atom_site_fract_z
Si Si1 0.680975 0.205966 0.951880
Si Si2 0.584944 0.771655 0.581792
Si Si3 0.127842 0.097984 0.163637
Si Si4 0.309586 0.885696 0.485377
Si Si5 0.193696 0.521919 0.149321
Si Si6 0.326706 0.146809 0.992861
Si Si7 0.327749 0.558553 0.864293
Si Si8 0.192239 0.486023 0.339224
O O1 0.517817 0.154314 0.988523
O O2 0.668590 0.331291 0.921843
O O3 0.725251 0.135668 0.868272
O O4 0.817098 0.189483 0.023345
O O5 0.470948 0.710599 0.649446
O O6 0.485388 0.847212 0.514589
O O7 0.707602 0.851688 0.627790
O O8 0.196334 0.086311 0.261712
O O9 0.255939 0.105939 0.085027
O O10 0.000000 0.000000 0.151847
O O11 0.224496 0.770675 0.472632
O O12 0.242524 0.947778 0.571234
O O13 0.291920 0.969611 0.406171
O O14 0.262690 0.503122 0.244163
O O15 0.000000 0.500000 0.152681
O O16 0.262209 0.069561 0.915587
O O17 0.500000 0.500000 0.870282
O O18 0.000000 0.500000 0.331985
#
# Coordination Sequence:
#
# PCOD9347374 Si02
#       8
#     4   4   4   4   4   4   4   4
#     4  11  21  36  62  88 124 157 203 259 327 369
#     4  10  21  36  64  87 123 159 207 259 316 381
#     4  10  23  39  64  87 124 168 215 255 318 389
#     4  10  20  37  61  90 118 158 208 256 311 374
#     4   9  18  33  57  87 111 147 200 253 298 365
#     4  10  21  38  63  87 123 162 206 259 314 375
#     4  11  22  37  63  93 121 164 214 261 313 392
#     4   9  20  33  58  85 115 153 202 247 299 368
#
# _framework density 20.265847000000001
#
# number of rings (size 3 to 8) (size 9 to 14) (size 15 to 20)
#    0.000    2.000    2.500    0.750    8.750    0.000 
#    0.000    0.000   24.750    6.750    0.000    0.000 
#    0.000    0.000    0.000    0.000    0.000    0.000 
#
# Total GULP energy -178407.294955 kJ/mol
# GULP energy per Si atom -5575.227967 kJ/mol
# Density = 2.021972 g / cm^3
# Si number density = 20.265847 Si / 1000 Ang^3
#
#
#
# Elastic Constant Matrix: (Units=GPa)
#
#
# Indices 1 2 3 4 5 6 
#
# 1 26.5714 13.8106 30.8997 0.0000 0.0000 0.0000
# 2 13.8106 96.4649 46.6489 0.0000 0.0000 0.0000
# 3 30.8997 46.6489 125.9685 0.0000 0.0000 0.0000
# 4 0.0000 0.0000 0.0000 -7.8962 0.0000 0.0000
# 5 0.0000 0.0000 0.0000 0.0000 19.0046 0.0000
# 6 0.0000 0.0000 0.0000 0.0000 0.0000 24.8481
#
#
#
# Elastic Compliance Matrix: (Units=1/GPa)
#
#
# Indices 1 2 3 4 5 6 
#
# 1 0.052851 -0.001580 -0.012379 0.000000 0.000000 0.000000
# 2 -0.001580 0.012675 -0.004306 0.000000 0.000000 0.000000
# 3 -0.012379 -0.004306 0.012570 0.000000 0.000000 0.000000
# 4 0.000000 0.000000 0.000000 -0.126644 0.000000 0.000000
# 5 0.000000 0.000000 0.000000 0.000000 0.052619 0.000000
# 6 0.000000 0.000000 0.000000 0.000000 0.000000 0.040245
#
#
# Mechanical properties :
#
#
# Convention : Reuss Voigt Hill
#
# Bulk Modulus (GPa) = 24.05867 47.96924 36.01395
# Shear Modulus (GPa) = 52.79706 17.70100 35.24903
#
# Velocity S-wave (km/s) = 5.10968 2.95861 4.17505
# Velocity P-wave (km/s) = 6.83440 5.94916 6.40709
#
# Compressibility (1/GPa) = 0.04156506
#
# Stress axis : x y z
#
# Youngs Moduli (GPa) = 18.92101 78.89463 79.55604
#
# Poissons Ratio (x) = 0.12467 0.98483
# Poissons Ratio (y) = 0.02990 0.34259
# Poissons Ratio (z) = 0.23423 0.33974
#
# Static dielectric constant tensor:
#      x y z
#    x 1.759300 0.000000 0.000000 
#    y 0.000000 1.875870 0.000000 
#    z 0.000000 0.000000 1.726880 
# 
# From -- ./inp_files/6560.got.cif
#   From: 2010.05.17/outbox.cif.g08.bks.cpg/sg34_4_cif.got.tgz:6560.got - 2010.06.03 17:23:11.
