data_PCOD9347798
_publ_section_title
;
Structure prediction by ZEFSAII (Michael W. Deem and Ramdas Pophale) SiO2 
 PCOD9347798
Probable space group: P N N 2
;
_chemical_formula_sum "Si O2"
_cell_formula_units_Z 22
_cell_length_a 12.283738
_cell_length_b 14.270228
_cell_length_c 5.065333
_cell_angle_alpha 90.000000
_cell_angle_beta 90.000000
_cell_angle_gamma 90.000000
_cell_volume 887.911045
_symmetry_space_group_name_H-M "P N N 2"
_symmetry_group_IT_number 34
_symmetry_cell_setting 'orthorhombic'
loop_
_space_group_symop_operation_xyz
x,y,z
-x,-y,z
1/2-x,1/2+y,1/2+z
1/2+x,1/2-y,1/2+z
loop_
_atom_site_type_symbol
_atom_site_label
_atom_site_fract_x
_atom_site_fract_y
_atom_site_fract_z
Si Si1 0.692049 0.535427 0.325400
Si Si2 0.885712 0.890300 0.180746
Si Si3 0.000000 0.000000 0.650093
Si Si4 0.959577 0.686122 0.163243
Si Si5 0.703400 0.865938 0.540264
Si Si6 0.676286 0.172180 0.175315
O O1 0.598107 0.461409 0.438051
O O2 0.599284 0.589022 0.173251
O O3 0.774063 0.464549 0.187417
O O4 0.742607 0.595131 0.557079
O O5 0.949228 0.796995 0.125152
O O6 0.757484 0.872610 0.246801
O O7 0.924464 0.939327 0.441708
O O8 0.923761 0.669033 0.465145
O O9 0.076118 0.651722 0.070387
O O10 0.865179 0.648734 0.966673
O O11 0.768417 0.775371 0.659456
#
# Coordination Sequence:
#
# PCOD9347798 Si02
#       6
#     4   4   2   4   4   4
#     4  11  24  45  67 107 141 187 247 302 360 440
#     4  10  23  45  69 105 140 181 246 303 361 432
#     4  10  24  40  74 108 136 188 236 318 364 424
#     4  11  26  47  70 104 142 192 235 292 375 431
#     4  10  25  45  69 100 145 185 239 305 359 439
#     4  11  27  45  72 102 141 189 240 294 368 436
#
# _framework density 24.777259000000001
#
# number of rings (size 3 to 8) (size 9 to 14) (size 15 to 20)
#    0.000    1.455    1.818    0.545   12.727    0.727 
#    0.000    0.000    0.000    0.000    0.000    0.000 
#    0.000    0.000    0.000    0.000    0.000    0.000 
#
# Total GULP energy -122679.085869 kJ/mol
# GULP energy per Si atom -5576.322085 kJ/mol
# Density = 2.472086 g / cm^3
# Si number density = 24.777259 Si / 1000 Ang^3
#
#
#
# Elastic Constant Matrix: (Units=GPa)
#
#
# Indices 1 2 3 4 5 6 
#
# 1 81.7461 21.9698 -10.8577 0.0000 0.0000 0.0000
# 2 21.9698 89.4176 15.8003 0.0000 0.0000 0.0000
# 3 -10.8577 15.8003 77.8174 0.0000 0.0000 0.0000
# 4 0.0000 0.0000 0.0000 19.8951 0.0000 0.0000
# 5 0.0000 0.0000 0.0000 0.0000 34.0976 0.0000
# 6 0.0000 0.0000 0.0000 0.0000 0.0000 32.7163
#
#
#
# Elastic Compliance Matrix: (Units=1/GPa)
#
#
# Indices 1 2 3 4 5 6 
#
# 1 0.013614 -0.003818 0.002675 0.000000 0.000000 0.000000
# 2 -0.003818 0.012670 -0.003105 0.000000 0.000000 0.000000
# 3 0.002675 -0.003105 0.013854 0.000000 0.000000 0.000000
# 4 0.000000 0.000000 0.000000 0.050264 0.000000 0.000000
# 5 0.000000 0.000000 0.000000 0.000000 0.029328 0.000000
# 6 0.000000 0.000000 0.000000 0.000000 0.000000 0.030566
#
#
# Mechanical properties :
#
#
# Convention : Reuss Voigt Hill
#
# Bulk Modulus (GPa) = 31.60317 33.64509 32.62413
# Shear Modulus (GPa) = 29.52648 32.14639 30.83644
#
# Velocity S-wave (km/s) = 3.45581 3.60587 3.53164
# Velocity P-wave (km/s) = 5.35781 5.56282 5.46127
#
# Compressibility (1/GPa) = 0.03164239
#
# Stress axis : x y z
#
# Youngs Moduli (GPa) = 73.45234 78.92550 72.17978
#
# Poissons Ratio (x) = 0.30131 -0.19306
# Poissons Ratio (y) = 0.28041 0.22414
# Poissons Ratio (z) = -0.19646 0.24508
#
# Static dielectric constant tensor:
#      x y z
#    x 0.375760 0.000000 0.000000 
#    y 0.000000 2.136020 0.000000 
#    z 0.000000 0.000000 2.071540 
# 
# From -- ./inp_files/880.got.cif
#   From: 2010.05.17/outbox.cif.g08.bks.cpg/sg34_1_cif.got.tgz:880.got - 2010.06.03 17:23:11.
