data_PCOD9347654
_publ_section_title
;
Structure prediction by ZEFSAII (Michael W. Deem and Ramdas Pophale) SiO2 
 PCOD9347654
Probable space group: P N N 2
;
_chemical_formula_sum "Si O2"
_cell_formula_units_Z 18
_cell_length_a 10.494760
_cell_length_b 6.022380
_cell_length_c 11.708396
_cell_angle_alpha 90.000000
_cell_angle_beta 90.000000
_cell_angle_gamma 90.000000
_cell_volume 740.010819
_symmetry_space_group_name_H-M "P N N 2"
_symmetry_group_IT_number 34
_symmetry_cell_setting 'orthorhombic'
loop_
_space_group_symop_operation_xyz
x,y,z
-x,-y,z
1/2-x,1/2+y,1/2+z
1/2+x,1/2-y,1/2+z
loop_
_atom_site_type_symbol
_atom_site_label
_atom_site_fract_x
_atom_site_fract_y
_atom_site_fract_z
Si Si1 0.631878 0.382210 0.542730
Si Si2 0.401448 0.177421 0.971460
Si Si3 0.328112 0.345511 0.746780
Si Si4 0.033171 0.248304 0.717996
Si Si5 0.500000 0.000000 0.608498
O O1 0.500000 0.500000 0.510226
O O2 0.764449 0.443533 0.486228
O O3 0.656862 0.428541 0.676755
O O4 0.602778 0.124597 0.530627
O O5 0.369606 0.361810 0.877649
O O6 0.500000 0.000000 0.923080
O O7 0.461770 0.248040 0.093191
O O8 0.186084 0.257643 0.724472
O O9 0.421979 0.174443 0.683128
O O10 0.000000 0.500000 0.764635
O O11 0.000000 0.000000 0.764674
#
# Coordination Sequence:
#
# PCOD9347654 Si02
#       5
#     4   4   4   4   2
#     4  10  22  43  66  99 145 189 244 317 381 453
#     4  11  22  45  71 106 143 198 258 314 387 466
#     4  11  22  41  72 100 139 198 252 313 383 459
#     4  11  24  45  72 104 154 197 246 327 381 458
#     4  10  22  40  64  96 136 190 236 308 380 446
#
# _framework density 24.323968000000001
#
# number of rings (size 3 to 8) (size 9 to 14) (size 15 to 20)
#    0.000    1.333    5.556    1.333    0.000    3.556 
#    2.000    0.000    0.000    0.000    0.000    0.000 
#    0.000    0.000    0.000    0.000    0.000    0.000 
#
# Total GULP energy -100345.715516 kJ/mol
# GULP energy per Si atom -5574.761973 kJ/mol
# Density = 2.426861 g / cm^3
# Si number density = 24.323968 Si / 1000 Ang^3
#
#
#
# Elastic Constant Matrix: (Units=GPa)
#
#
# Indices 1 2 3 4 5 6 
#
# 1 220.9385 38.4878 33.1265 0.0000 0.0000 0.0000
# 2 38.4878 105.4789 8.4488 0.0000 0.0000 0.0000
# 3 33.1265 8.4488 110.4586 0.0000 0.0000 0.0000
# 4 0.0000 0.0000 0.0000 -0.4283 0.0000 0.0000
# 5 0.0000 0.0000 0.0000 0.0000 33.5149 0.0000
# 6 0.0000 0.0000 0.0000 0.0000 0.0000 35.3713
#
#
#
# Elastic Compliance Matrix: (Units=1/GPa)
#
#
# Indices 1 2 3 4 5 6 
#
# 1 0.005033 -0.001726 -0.001377 0.000000 0.000000 0.000000
# 2 -0.001726 0.010131 -0.000257 0.000000 0.000000 0.000000
# 3 -0.001377 -0.000257 0.009486 0.000000 0.000000 0.000000
# 4 0.000000 0.000000 0.000000 -2.334679 0.000000 0.000000
# 5 0.000000 0.000000 0.000000 0.000000 0.029837 0.000000
# 6 0.000000 0.000000 0.000000 0.000000 0.000000 0.028272
#
#
# Mechanical properties :
#
#
# Convention : Reuss Voigt Hill
#
# Bulk Modulus (GPa) = 55.77712 66.33359 61.05535
# Shear Modulus (GPa) = -2.23292 37.47911 17.62310
#
# Velocity S-wave (km/s) = -0.95916 3.92960 2.69460
# Velocity P-wave (km/s) = 4.66413 6.92236 5.90225
#
# Compressibility (1/GPa) = 0.01792850
#
# Stress axis : x y z
#
# Youngs Moduli (GPa) = 198.67288 98.70631 105.41916
#
# Poissons Ratio (x) = 0.17040 0.14521
# Poissons Ratio (y) = 0.34297 0.02711
# Poissons Ratio (z) = 0.27367 0.02539
#
# Static dielectric constant tensor:
#      x y z
#    x 1.866990 0.000000 0.000000 
#    y 0.000000 1.946090 0.000000 
#    z 0.000000 0.000000 1.990990 
# 
# From -- ./inp_files/6656.got.cif
#   From: 2010.05.17/outbox.cif.g08.bks.cpg/sg34_4_cif.got.tgz:6656.got - 2010.06.03 17:23:11.
