data_PCOD9347693
_publ_section_title
;
Structure prediction by ZEFSAII (Michael W. Deem and Ramdas Pophale) SiO2 
 PCOD9347693
Probable space group: P N N 2
;
_chemical_formula_sum "Si O2"
_cell_formula_units_Z 26
_cell_length_a 8.885454
_cell_length_b 11.721330
_cell_length_c 11.321053
_cell_angle_alpha 90.000000
_cell_angle_beta 90.000000
_cell_angle_gamma 90.000000
_cell_volume 1179.080181
_symmetry_space_group_name_H-M "P N N 2"
_symmetry_group_IT_number 34
_symmetry_cell_setting 'orthorhombic'
loop_
_space_group_symop_operation_xyz
x,y,z
-x,-y,z
1/2-x,1/2+y,1/2+z
1/2+x,1/2-y,1/2+z
loop_
_atom_site_type_symbol
_atom_site_label
_atom_site_fract_x
_atom_site_fract_y
_atom_site_fract_z
Si Si1 0.082698 0.386839 0.370930
Si Si2 0.000000 0.500000 0.722981
Si Si3 0.964625 0.851855 0.476256
Si Si4 0.932591 0.129325 0.939618
Si Si5 0.598840 0.199539 0.612531
Si Si6 0.737395 0.025162 0.424476
Si Si7 0.069398 0.748505 0.695101
O O1 0.021935 0.274214 0.430334
O O2 0.255762 0.390945 0.413554
O O3 0.050191 0.366185 0.231201
O O4 0.000000 0.500000 0.408726
O O5 0.854984 0.505424 0.807429
O O6 0.995788 0.375836 0.665351
O O7 0.101325 0.914365 0.410234
O O8 0.005385 0.848906 0.613307
O O9 0.797423 0.901743 0.465889
O O10 0.971106 0.211242 0.827066
O O11 0.000000 0.000000 0.941385
O O12 0.991370 0.204622 0.052181
O O13 0.643727 0.103298 0.515324
O O14 0.754044 0.256614 0.661161
#
# Coordination Sequence:
#
# PCOD9347693 Si02
#       7
#     4   2   4   4   4   4   4
#     4  11  27  44  67 102 145 184 236 294 356 431
#     4  12  22  42  72 102 136 180 238 298 342 436
#     4  10  24  45  63  99 139 183 234 290 364 421
#     4  11  25  46  72 104 141 185 240 298 357 426
#     4  10  23  46  67 104 136 188 238 294 359 431
#     4  10  22  42  72  92 130 185 235 288 348 430
#     4  10  24  41  70 101 140 179 239 292 362 424
#
# _framework density 22.051086000000002
#
# number of rings (size 3 to 8) (size 9 to 14) (size 15 to 20)
#    0.000    1.538    1.538    1.846   12.923    0.000 
#    8.308    0.000    0.000    0.000    0.000    0.000 
#    0.000    0.000    0.000    0.000    0.000    0.000 
#
# Total GULP energy -144967.779965 kJ/mol
# GULP energy per Si atom -5575.683845 kJ/mol
# Density = 2.200090 g / cm^3
# Si number density = 22.051086 Si / 1000 Ang^3
#
#
#
# Elastic Constant Matrix: (Units=GPa)
#
#
# Indices 1 2 3 4 5 6 
#
# 1 53.0352 34.7551 37.5993 0.0000 0.0000 0.0000
# 2 34.7551 135.7077 30.6634 0.0000 0.0000 0.0000
# 3 37.5993 30.6634 62.4589 0.0000 0.0000 0.0000
# 4 0.0000 0.0000 0.0000 5.3933 0.0000 0.0000
# 5 0.0000 0.0000 0.0000 0.0000 -8.4088 0.0000
# 6 0.0000 0.0000 0.0000 0.0000 0.0000 39.8724
#
#
#
# Elastic Compliance Matrix: (Units=1/GPa)
#
#
# Indices 1 2 3 4 5 6 
#
# 1 0.035461 -0.004790 -0.018996 0.000000 0.000000 0.000000
# 2 -0.004790 0.008935 -0.001503 0.000000 0.000000 0.000000
# 3 -0.018996 -0.001503 0.028184 0.000000 0.000000 0.000000
# 4 0.000000 0.000000 0.000000 0.185416 0.000000 0.000000
# 5 0.000000 0.000000 0.000000 0.000000 -0.118924 0.000000
# 6 0.000000 0.000000 0.000000 0.000000 0.000000 0.025080
#
#
# Mechanical properties :
#
#
# Convention : Reuss Voigt Hill
#
# Bulk Modulus (GPa) = 45.44888 50.80415 48.12651
# Shear Modulus (GPa) = 22.51610 17.25033 19.88322
#
# Velocity S-wave (km/s) = 3.19891 2.79998 3.00607
# Velocity P-wave (km/s) = 5.85658 5.79159 5.82417
#
# Compressibility (1/GPa) = 0.02200274
#
# Stress axis : x y z
#
# Youngs Moduli (GPa) = 28.19995 111.91847 35.48156
#
# Poissons Ratio (x) = 0.53604 0.67399
# Poissons Ratio (y) = 0.13507 0.05334
# Poissons Ratio (z) = 0.53568 0.16825
#
# Static dielectric constant tensor:
#      x y z
#    x 1.962630 0.000000 0.000000 
#    y 0.000000 2.076530 0.000000 
#    z 0.000000 0.000000 1.829320 
# 
# From -- ./inp_files/4963.got.cif
#   From: 2010.05.17/outbox.cif.g08.bks.cpg/sg34_3_cif.got.tgz:4963.got - 2010.06.03 17:23:11.
