data_PCOD9347670
_publ_section_title
;
Structure prediction by ZEFSAII (Michael W. Deem and Ramdas Pophale) SiO2 
 PCOD9347670
Probable space group: P N N 2
;
_chemical_formula_sum "Si O2"
_cell_formula_units_Z 20
_cell_length_a 8.332992
_cell_length_b 17.101539
_cell_length_c 6.032998
_cell_angle_alpha 90.000000
_cell_angle_beta 90.000000
_cell_angle_gamma 90.000000
_cell_volume 859.744372
_symmetry_space_group_name_H-M "P N N 2"
_symmetry_group_IT_number 34
_symmetry_cell_setting 'orthorhombic'
loop_
_space_group_symop_operation_xyz
x,y,z
-x,-y,z
1/2-x,1/2+y,1/2+z
1/2+x,1/2-y,1/2+z
loop_
_atom_site_type_symbol
_atom_site_label
_atom_site_fract_x
_atom_site_fract_y
_atom_site_fract_z
Si Si1 0.413741 0.903210 0.771230
Si Si2 0.031864 0.282141 0.643923
Si Si3 0.812562 0.165389 0.410603
Si Si4 0.335806 0.474200 0.594656
Si Si5 0.877540 0.429491 0.885765
O O1 0.298167 0.888122 0.564900
O O2 0.582886 0.920772 0.647704
O O3 0.427706 0.824696 0.913207
O O4 0.315691 0.960034 0.934599
O O5 0.191430 0.273008 0.792089
O O6 0.940120 0.205177 0.570565
O O7 0.923322 0.346945 0.772420
O O8 0.869345 0.108406 0.216086
O O9 0.500000 0.500000 0.479150
O O10 0.286148 0.537965 0.781960
O O11 0.000000 0.500000 0.821994
#
# Coordination Sequence:
#
# PCOD9347670 Si02
#       5
#     4   4   4   4   4
#     4  10  22  41  66  88 134 177 220 271 336 402
#     4  10  23  39  66  92 130 177 227 270 330 412
#     4  10  23  41  61  95 133 174 220 280 336 402
#     4  11  25  41  66 102 137 166 230 286 332 397
#     4  11  21  41  68  96 122 179 226 265 330 408
#
# _framework density 23.262729
#
# number of rings (size 3 to 8) (size 9 to 14) (size 15 to 20)
#    0.000    1.600    6.000    0.000    2.800   12.000 
#    0.000    0.000    0.000    0.000    0.000    0.000 
#    0.000    0.000    0.000    0.000    0.000    0.000 
#
# Total GULP energy -111539.348427 kJ/mol
# GULP energy per Si atom -5576.967421 kJ/mol
# Density = 2.320978 g / cm^3
# Si number density = 23.262729 Si / 1000 Ang^3
#
#
#
# Elastic Constant Matrix: (Units=GPa)
#
#
# Indices 1 2 3 4 5 6 
#
# 1 45.2505 -0.8616 14.4573 0.0000 0.0000 0.0000
# 2 -0.8616 32.9762 16.2058 0.0000 0.0000 0.0000
# 3 14.4573 16.2058 89.0498 0.0000 0.0000 0.0000
# 4 0.0000 0.0000 0.0000 24.0624 0.0000 0.0000
# 5 0.0000 0.0000 0.0000 0.0000 8.2186 0.0000
# 6 0.0000 0.0000 0.0000 0.0000 0.0000 24.4652
#
#
#
# Elastic Compliance Matrix: (Units=1/GPa)
#
#
# Indices 1 2 3 4 5 6 
#
# 1 0.023531 0.002737 -0.004318 0.000000 0.000000 0.000000
# 2 0.002737 0.033622 -0.006563 0.000000 0.000000 0.000000
# 3 -0.004318 -0.006563 0.013125 0.000000 0.000000 0.000000
# 4 0.000000 0.000000 0.000000 0.041559 0.000000 0.000000
# 5 0.000000 0.000000 0.000000 0.000000 0.121676 0.000000
# 6 0.000000 0.000000 0.000000 0.000000 0.000000 0.040874
#
#
# Mechanical properties :
#
#
# Convention : Reuss Voigt Hill
#
# Bulk Modulus (GPa) = 18.52225 25.20883 21.86554
# Shear Modulus (GPa) = 16.19844 20.51424 18.35634
#
# Velocity S-wave (km/s) = 2.64166 2.97282 2.81212
# Velocity P-wave (km/s) = 4.15740 4.75853 4.46809
#
# Compressibility (1/GPa) = 0.05398913
#
# Stress axis : x y z
#
# Youngs Moduli (GPa) = 42.49714 29.74264 76.18963
#
# Poissons Ratio (x) = -0.08141 0.32902
# Poissons Ratio (y) = -0.11632 0.50003
# Poissons Ratio (z) = 0.18352 0.19520
#
# Static dielectric constant tensor:
#      x y z
#    x 1.911940 0.000000 0.000000 
#    y 0.000000 1.909150 0.000000 
#    z 0.000000 0.000000 1.882460 
# 
# From -- ./inp_files/407.got.cif
#   From: 2010.05.17/outbox.cif.g08.bks.cpg/sg34_1_cif.got.tgz:407.got - 2010.06.03 17:23:11.
