data_PCOD9347385
_publ_section_title
;
Structure prediction by ZEFSAII (Michael W. Deem and Ramdas Pophale) SiO2 
 PCOD9347385
Probable space group: P N N 2
;
_chemical_formula_sum "Si O2"
_cell_formula_units_Z 32
_cell_length_a 15.337308
_cell_length_b 11.875833
_cell_length_c 8.220803
_cell_angle_alpha 90.000000
_cell_angle_beta 90.000000
_cell_angle_gamma 90.000000
_cell_volume 1497.364257
_symmetry_space_group_name_H-M "P N N 2"
_symmetry_group_IT_number 34
_symmetry_cell_setting 'orthorhombic'
loop_
_space_group_symop_operation_xyz
x,y,z
-x,-y,z
1/2-x,1/2+y,1/2+z
1/2+x,1/2-y,1/2+z
loop_
_atom_site_type_symbol
_atom_site_label
_atom_site_fract_x
_atom_site_fract_y
_atom_site_fract_z
Si Si1 0.775049 0.560734 0.390320
Si Si2 0.231019 0.098476 0.611961
Si Si3 0.291267 0.732984 0.697628
Si Si4 0.624829 0.805903 0.362338
Si Si5 0.424495 0.412595 0.515251
Si Si6 0.680076 0.194393 0.336333
Si Si7 0.838782 0.013917 0.318364
Si Si8 0.911281 0.515009 0.653631
O O1 0.777329 0.492627 0.224492
O O2 0.816039 0.682470 0.345058
O O3 0.674066 0.564280 0.447802
O O4 0.831549 0.504964 0.530308
O O5 0.303072 0.154219 0.494283
O O6 0.197597 0.194720 0.731526
O O7 0.158764 0.033116 0.503225
O O8 0.185536 0.741491 0.714014
O O9 0.325660 0.773745 0.524728
O O10 0.319903 0.604763 0.726416
O O11 0.563020 0.713079 0.444178
O O12 0.585964 0.918216 0.288671
O O13 0.500000 0.500000 0.464792
O O14 0.412983 0.425058 0.711266
O O15 0.758996 0.103087 0.319992
O O16 0.601125 0.130724 0.250096
O O17 0.000000 0.500000 0.556135
#
# Coordination Sequence:
#
# PCOD9347385 Si02
#       8
#     4   4   4   4   4   4   4   4
#     4  11  21  42  66  94 128 169 213 264 320 384
#     4  11  20  37  72  92 125 173 213 259 329 378
#     4  10  20  37  71  90 125 167 210 260 321 375
#     4  10  20  40  60  96 126 169 215 264 316 383
#     4  11  23  41  64  91 129 168 216 263 319 378
#     4  12  20  38  65  94 120 170 209 255 320 377
#     4  11  20  39  62  94 122 164 209 258 313 374
#     4  12  24  40  62  93 135 166 215 263 318 383
#
# _framework density 21.370885000000001
#
# number of rings (size 3 to 8) (size 9 to 14) (size 15 to 20)
#    0.000    1.000    6.250    3.000    0.000    2.000 
#    0.000    5.625    0.000    0.000    0.000    0.000 
#    0.000    0.000    0.000    0.000    0.000    0.000 
#
# Total GULP energy -178423.136209 kJ/mol
# GULP energy per Si atom -5575.723007 kJ/mol
# Density = 2.132224 g / cm^3
# Si number density = 21.370885 Si / 1000 Ang^3
#
#
#
# Elastic Constant Matrix: (Units=GPa)
#
#
# Indices 1 2 3 4 5 6 
#
# 1 30.9811 -9.6231 7.8425 0.0000 0.0000 0.0000
# 2 -9.6231 97.0785 26.5002 0.0000 0.0000 0.0000
# 3 7.8425 26.5002 103.8269 0.0000 0.0000 0.0000
# 4 0.0000 0.0000 0.0000 49.7813 0.0000 0.0000
# 5 0.0000 0.0000 0.0000 0.0000 6.8952 0.0000
# 6 0.0000 0.0000 0.0000 0.0000 0.0000 6.2465
#
#
#
# Elastic Compliance Matrix: (Units=1/GPa)
#
#
# Indices 1 2 3 4 5 6 
#
# 1 0.034611 0.004455 -0.003751 0.000000 0.000000 0.000000
# 2 0.004455 0.011646 -0.003309 0.000000 0.000000 0.000000
# 3 -0.003751 -0.003309 0.010759 0.000000 0.000000 0.000000
# 4 0.000000 0.000000 0.000000 0.020088 0.000000 0.000000
# 5 0.000000 0.000000 0.000000 0.000000 0.145029 0.000000
# 6 0.000000 0.000000 0.000000 0.000000 0.000000 0.160090
#
#
# Mechanical properties :
#
#
# Convention : Reuss Voigt Hill
#
# Bulk Modulus (GPa) = 19.30296 31.25842 25.28069
# Shear Modulus (GPa) = 12.35475 26.39572 19.37523
#
# Velocity S-wave (km/s) = 2.40700 3.51825 3.01428
# Velocity P-wave (km/s) = 4.09596 5.58234 4.89588
#
# Compressibility (1/GPa) = 0.05180553
#
# Stress axis : x y z
#
# Youngs Moduli (GPa) = 28.89244 85.86784 92.94261
#
# Poissons Ratio (x) = -0.38254 0.34866
# Poissons Ratio (y) = -0.12871 0.30754
# Poissons Ratio (z) = 0.10839 0.28413
#
# Static dielectric constant tensor:
#      x y z
#    x 1.820980 0.000000 0.000000 
#    y 0.000000 1.820680 0.000000 
#    z 0.000000 0.000000 1.794130 
# 
# From -- ./inp_files/3943.got.cif
#   From: 2010.05.17/outbox.cif.g08.bks.cpg/sg34_2_cif.got.tgz:3943.got - 2010.06.03 17:23:11.
