data_PCOD9347333
_publ_section_title
;
Structure prediction by ZEFSAII (Michael W. Deem and Ramdas Pophale) SiO2 
 PCOD9347333
Probable space group: P N N 2
;
_chemical_formula_sum "Si O2"
_cell_formula_units_Z 28
_cell_length_a 26.053358
_cell_length_b 5.129060
_cell_length_c 11.625893
_cell_angle_alpha 90.000000
_cell_angle_beta 90.000000
_cell_angle_gamma 90.000000
_cell_volume 1553.559204
_symmetry_space_group_name_H-M "P N N 2"
_symmetry_group_IT_number 34
_symmetry_cell_setting 'orthorhombic'
loop_
_space_group_symop_operation_xyz
x,y,z
-x,-y,z
1/2-x,1/2+y,1/2+z
1/2+x,1/2-y,1/2+z
loop_
_atom_site_type_symbol
_atom_site_label
_atom_site_fract_x
_atom_site_fract_y
_atom_site_fract_z
Si Si1 0.942734 0.041670 0.161040
Si Si2 0.842481 0.916078 0.302040
Si Si3 0.557326 0.041177 0.505435
Si Si4 0.198239 0.576134 0.409348
Si Si5 0.662433 0.030169 0.380247
Si Si6 0.731917 0.266085 0.588026
Si Si7 0.703411 0.504006 0.259888
O O1 0.897093 0.981420 0.247431
O O2 0.937927 0.330710 0.108707
O O3 0.938379 0.831064 0.057515
O O4 0.000000 0.000000 0.209443
O O5 0.826780 0.143916 0.389344
O O6 0.840250 0.648888 0.372708
O O7 0.802641 0.878504 0.192819
O O8 0.604276 0.992789 0.420686
O O9 0.500000 0.000000 0.456926
O O10 0.232243 0.525249 0.522636
O O11 0.242964 0.579533 0.315115
O O12 0.695313 0.126200 0.493078
O O13 0.666543 0.264040 0.287735
O O14 0.684280 0.765234 0.325235
O O15 0.776854 0.078203 0.634726
#
# Coordination Sequence:
#
# PCOD9347333 Si02
#       7
#     4   4   4   4   4   4   4
#     4  10  20  34  53  77 103 136 171 209 266 317
#     4  11  21  34  52  75 105 139 170 209 259 304
#     4  10  20  34  53  77 103 136 171 209 266 317
#     4  10  22  33  48  76 101 140 180 201 250 314
#     4  11  21  34  52  75 105 139 170 209 259 304
#     4  10  20  34  52  70 112 138 168 212 250 294
#     4  10  22  33  48  76 101 140 180 201 250 314
#
# _framework density 18.023129999999998
#
# number of rings (size 3 to 8) (size 9 to 14) (size 15 to 20)
#    0.000    1.714    1.429    5.143    4.000    5.714 
#    0.000    0.000    0.000    0.000    0.000    4.000 
#    0.000    0.000    0.000    0.000    0.000    0.000 
#
# Total GULP energy -156022.439871 kJ/mol
# GULP energy per Si atom -5572.229995 kJ/mol
# Density = 1.798211 g / cm^3
# Si number density = 18.023130 Si / 1000 Ang^3
#
#
#
# Elastic Constant Matrix: (Units=GPa)
#
#
# Indices 1 2 3 4 5 6 
#
# 1 116.2155 14.9098 30.7202 0.0000 0.0000 0.0000
# 2 14.9098 80.7236 11.0408 0.0000 0.0000 0.0000
# 3 30.7202 11.0408 33.3440 0.0000 0.0000 0.0000
# 4 0.0000 0.0000 0.0000 18.1565 0.0000 0.0000
# 5 0.0000 0.0000 0.0000 0.0000 18.4221 0.0000
# 6 0.0000 0.0000 0.0000 0.0000 0.0000 19.6377
#
#
#
# Elastic Compliance Matrix: (Units=1/GPa)
#
#
# Indices 1 2 3 4 5 6 
#
# 1 0.011413 -0.000702 -0.010282 0.000000 0.000000 0.000000
# 2 -0.000702 0.013019 -0.003664 0.000000 0.000000 0.000000
# 3 -0.010282 -0.003664 0.040677 0.000000 0.000000 0.000000
# 4 0.000000 0.000000 0.000000 0.055077 0.000000 0.000000
# 5 0.000000 0.000000 0.000000 0.000000 0.054283 0.000000
# 6 0.000000 0.000000 0.000000 0.000000 0.000000 0.050922
#
#
# Mechanical properties :
#
#
# Convention : Reuss Voigt Hill
#
# Bulk Modulus (GPa) = 27.92374 38.18052 33.05213
# Shear Modulus (GPa) = 18.75299 22.81741 20.78520
#
# Velocity S-wave (km/s) = 3.22917 3.56196 3.39964
# Velocity P-wave (km/s) = 5.42497 6.17632 5.81280
#
# Compressibility (1/GPa) = 0.03581182
#
# Stress axis : x y z
#
# Youngs Moduli (GPa) = 87.62140 76.81245 24.58393
#
# Poissons Ratio (x) = 0.05389 0.25278
# Poissons Ratio (y) = 0.06148 0.09008
# Poissons Ratio (z) = 0.90095 0.28147
#
# Static dielectric constant tensor:
#      x y z
#    x 1.610960 0.000000 0.000000 
#    y 0.000000 1.704790 0.000000 
#    z 0.000000 0.000000 1.677740 
# 
# From -- ./inp_files/4538.got.cif
#   From: 2010.05.17/outbox.cif.g08.bks.cpg/sg34_3_cif.got.tgz:4538.got - 2010.06.03 17:23:11.
