data_PCOD9347978
_publ_section_title
;
Structure prediction by ZEFSAII (Michael W. Deem and Ramdas Pophale) SiO2 
 PCOD9347978
Probable space group: P N N 2
;
_chemical_formula_sum "Si O2"
_cell_formula_units_Z 24
_cell_length_a 8.632920
_cell_length_b 7.501084
_cell_length_c 15.214950
_cell_angle_alpha 90.000000
_cell_angle_beta 90.000000
_cell_angle_gamma 90.000000
_cell_volume 985.263229
_symmetry_space_group_name_H-M "P N N 2"
_symmetry_group_IT_number 34
_symmetry_cell_setting 'orthorhombic'
loop_
_space_group_symop_operation_xyz
x,y,z
-x,-y,z
1/2-x,1/2+y,1/2+z
1/2+x,1/2-y,1/2+z
loop_
_atom_site_type_symbol
_atom_site_label
_atom_site_fract_x
_atom_site_fract_y
_atom_site_fract_z
Si Si1 0.332783 0.892923 0.817450
Si Si2 0.646759 0.749132 0.154207
Si Si3 0.865771 0.225495 0.969520
Si Si4 0.793793 0.648552 0.968400
Si Si5 0.296813 0.831515 0.152929
Si Si6 0.919641 0.160597 0.298970
O O1 0.247354 0.859109 0.725484
O O2 0.203856 0.899654 0.892477
O O3 0.417836 0.709125 0.844740
O O4 0.500000 0.000000 0.814560
O O5 0.460953 0.731447 0.158725
O O6 0.674890 0.959573 0.174809
O O7 0.699679 0.696735 0.056427
O O8 0.832074 0.438420 0.964490
O O9 0.051413 0.231528 0.971479
O O10 0.779878 0.169637 0.058084
O O11 0.698401 0.675499 0.879270
O O12 0.177756 0.746936 0.222013
O O13 0.000000 0.000000 0.244563
#
# Coordination Sequence:
#
# PCOD9347978 Si02
#       6
#     4   4   4   4   4   4
#     4  12  27  45  69 101 144 182 238 292 351 418
#     4  11  25  45  71 103 142 186 233 294 351 422
#     4  11  25  45  71 103 142 186 233 294 351 422
#     4  11  25  44  72 103 140 185 237 287 357 418
#     4  11  25  44  72 103 140 185 237 287 357 418
#     4  12  23  45  71  97 136 188 229 288 350 423
#
# _framework density 24.358972999999999
#
# number of rings (size 3 to 8) (size 9 to 14) (size 15 to 20)
#    0.000    0.667    3.333    3.000    9.333    2.667 
#    0.000    1.667    0.000    0.000    0.000    0.000 
#    0.000    0.000    0.000    0.000    0.000    0.000 
#
# Total GULP energy -133738.879899 kJ/mol
# GULP energy per Si atom -5572.453329 kJ/mol
# Density = 2.430353 g / cm^3
# Si number density = 24.358973 Si / 1000 Ang^3
#
#
#
# Elastic Constant Matrix: (Units=GPa)
#
#
# Indices 1 2 3 4 5 6 
#
# 1 195.9787 54.4679 67.1545 0.0000 0.0000 0.0000
# 2 54.4679 57.5113 22.8575 0.0000 0.0000 0.0000
# 3 67.1545 22.8575 142.4069 0.0000 0.0000 0.0000
# 4 0.0000 0.0000 0.0000 29.6387 0.0000 0.0000
# 5 0.0000 0.0000 0.0000 0.0000 53.7297 0.0000
# 6 0.0000 0.0000 0.0000 0.0000 0.0000 69.4565
#
#
#
# Elastic Compliance Matrix: (Units=1/GPa)
#
#
# Indices 1 2 3 4 5 6 
#
# 1 0.007760 -0.006297 -0.002649 0.000000 0.000000 0.000000
# 2 -0.006297 0.023682 -0.000832 0.000000 0.000000 0.000000
# 3 -0.002649 -0.000832 0.008405 0.000000 0.000000 0.000000
# 4 0.000000 0.000000 0.000000 0.033740 0.000000 0.000000
# 5 0.000000 0.000000 0.000000 0.000000 0.018612 0.000000
# 6 0.000000 0.000000 0.000000 0.000000 0.000000 0.014397
#
#
# Mechanical properties :
#
#
# Convention : Reuss Voigt Hill
#
# Bulk Modulus (GPa) = 49.27997 76.09519 62.68758
# Shear Modulus (GPa) = 37.61802 47.32613 42.47208
#
# Velocity S-wave (km/s) = 3.93405 4.41257 4.18016
# Velocity P-wave (km/s) = 6.39611 7.56756 7.00636
#
# Compressibility (1/GPa) = 0.02029222
#
# Stress axis : x y z
#
# Youngs Moduli (GPa) = 128.86059 42.22594 118.98062
#
# Poissons Ratio (x) = 0.26589 0.31516
# Poissons Ratio (y) = 0.81142 0.09896
# Poissons Ratio (z) = 0.34133 0.03512
#
# Static dielectric constant tensor:
#      x y z
#    x 1.743410 0.000000 0.000000 
#    y 0.000000 0.246260 0.000000 
#    z 0.000000 0.000000 1.829940 
# 
# From -- ./inp_files/6402.got.cif
#   From: 2010.05.17/outbox.cif.g08.bks.cpg/sg34_4_cif.got.tgz:6402.got - 2010.06.03 17:23:11.
