data_PCOD9347923
_publ_section_title
;
Structure prediction by ZEFSAII (Michael W. Deem and Ramdas Pophale) SiO2 
 PCOD9347923
Probable space group: P N N 2
;
_chemical_formula_sum "Si O2"
_cell_formula_units_Z 32
_cell_length_a 10.295422
_cell_length_b 9.369632
_cell_length_c 15.940105
_cell_angle_alpha 90.000000
_cell_angle_beta 90.000000
_cell_angle_gamma 90.000000
_cell_volume 1537.651317
_symmetry_space_group_name_H-M "P N N 2"
_symmetry_group_IT_number 34
_symmetry_cell_setting 'orthorhombic'
loop_
_space_group_symop_operation_xyz
x,y,z
-x,-y,z
1/2-x,1/2+y,1/2+z
1/2+x,1/2-y,1/2+z
loop_
_atom_site_type_symbol
_atom_site_label
_atom_site_fract_x
_atom_site_fract_y
_atom_site_fract_z
Si Si1 0.026066 0.667484 0.808630
Si Si2 0.296565 0.185858 0.473887
Si Si3 0.874107 0.086004 0.477472
Si Si4 0.605107 0.621339 0.168429
Si Si5 0.203435 0.185858 0.905605
Si Si6 0.105106 0.378661 0.211064
Si Si7 0.374108 0.913996 0.902021
Si Si8 0.026066 0.167484 0.070863
O O1 0.128436 0.685252 0.884754
O O2 0.078466 0.741226 0.725145
O O3 0.000000 0.500000 0.798569
O O4 0.897190 0.751925 0.838484
O O5 0.176206 0.293292 0.464022
O O6 0.397191 0.248075 0.541009
O O7 0.242185 0.028564 0.489960
O O8 0.904357 0.148989 0.569172
O O9 0.823795 0.206708 0.415471
O O10 0.000000 0.000000 0.447253
O O11 0.500000 0.500000 0.188951
O O12 0.750000 0.569971 0.189746
O O13 0.257815 0.028564 0.889533
O O14 0.128436 0.185253 0.994739
O O15 0.095643 0.351012 0.310321
O O16 0.000000 0.500000 0.190540
O O17 0.078466 0.241225 0.154347
O O18 0.500000 0.000000 0.932240
O O19 0.000000 0.000000 0.080923
#
# Coordination Sequence:
#
# PCOD9347923 Si02
#       8
#     4   4   4   4   4   4   4   4
#     4  11  23  40  68  99 128 178 228 288 327 402
#     4  11  22  41  68  99 132 174 235 273 334 408
#     4  11  23  41  66  98 137 179 218 283 344 407
#     4  11  23  42  66  97 137 176 222 281 349 406
#     4  11  22  41  68  99 132 174 235 273 334 408
#     4  11  23  42  66  97 137 176 222 281 349 406
#     4  11  23  41  66  98 137 179 218 283 344 407
#     4  11  23  40  68  99 128 178 228 288 327 402
#
# _framework density 20.810959
#
# number of rings (size 3 to 8) (size 9 to 14) (size 15 to 20)
#    0.000    1.000    5.000    2.250    0.000    0.000 
#    0.000   12.500    0.000    0.000    0.000    0.000 
#    0.000    0.000    0.000    0.000    0.000    0.000 
#
# Total GULP energy -179048.435883 kJ/mol
# GULP energy per Si atom -5595.263621 kJ/mol
# Density = 2.076359 g / cm^3
# Si number density = 20.810959 Si / 1000 Ang^3
#
#
#
# Elastic Constant Matrix: (Units=GPa)
#
#
# Indices 1 2 3 4 5 6 
#
# 1 89.3171 22.9306 19.5730 0.0000 0.0000 0.0000
# 2 22.9306 89.0684 29.4324 0.0000 0.0000 0.0000
# 3 19.5730 29.4324 63.8804 0.0000 0.0000 0.0000
# 4 0.0000 0.0000 0.0000 22.6465 0.0000 0.0000
# 5 0.0000 0.0000 0.0000 0.0000 20.1923 0.0000
# 6 0.0000 0.0000 0.0000 0.0000 0.0000 38.1358
#
#
#
# Elastic Compliance Matrix: (Units=1/GPa)
#
#
# Indices 1 2 3 4 5 6 
#
# 1 0.012383 -0.002282 -0.002743 0.000000 0.000000 0.000000
# 2 -0.002282 0.013664 -0.005597 0.000000 0.000000 0.000000
# 3 -0.002743 -0.005597 0.019073 0.000000 0.000000 0.000000
# 4 0.000000 0.000000 0.000000 0.044157 0.000000 0.000000
# 5 0.000000 0.000000 0.000000 0.000000 0.049524 0.000000
# 6 0.000000 0.000000 0.000000 0.000000 0.000000 0.026222
#
#
# Mechanical properties :
#
#
# Convention : Reuss Voigt Hill
#
# Bulk Modulus (GPa) = 41.87926 42.90420 42.39173
# Shear Modulus (GPa) = 25.74340 27.55025 26.64683
#
# Velocity S-wave (km/s) = 3.52093 3.64240 3.58218
# Velocity P-wave (km/s) = 6.05778 6.19277 6.12564
#
# Compressibility (1/GPa) = 0.02387817
#
# Stress axis : x y z
#
# Youngs Moduli (GPa) = 80.75647 73.18457 52.42940
#
# Poissons Ratio (x) = 0.16698 0.14381
# Poissons Ratio (y) = 0.18425 0.29342
# Poissons Ratio (z) = 0.22151 0.40958
#
# Static dielectric constant tensor:
#      x y z
#    x 1.794550 0.000000 0.000000 
#    y 0.000000 1.710750 0.000000 
#    z 0.000000 0.000000 1.708560 
# 
# From -- ./inp_files/6820.got.cif
#   From: 2010.05.17/outbox.cif.g08.bks.cpg/sg34_4_cif.got.tgz:6820.got - 2010.06.03 17:23:11.
