data_PCOD9347162
_publ_section_title
;
Structure prediction by ZEFSAII (Michael W. Deem and Ramdas Pophale) SiO2 
 PCOD9347162
Probable space group: P N N 2
;
_chemical_formula_sum "Si O2"
_cell_formula_units_Z 30
_cell_length_a 5.397674
_cell_length_b 19.482583
_cell_length_c 12.800722
_cell_angle_alpha 90.000000
_cell_angle_beta 90.000000
_cell_angle_gamma 90.000000
_cell_volume 1346.132012
_symmetry_space_group_name_H-M "P N N 2"
_symmetry_group_IT_number 34
_symmetry_cell_setting 'orthorhombic'
loop_
_space_group_symop_operation_xyz
x,y,z
-x,-y,z
1/2-x,1/2+y,1/2+z
1/2+x,1/2-y,1/2+z
loop_
_atom_site_type_symbol
_atom_site_label
_atom_site_fract_x
_atom_site_fract_y
_atom_site_fract_z
Si Si1 0.681546 0.711893 0.574700
Si Si2 0.632585 0.932045 0.053435
Si Si3 0.500594 0.860904 0.235301
Si Si4 0.517336 0.081137 0.457093
Si Si5 0.618579 0.255320 0.766701
Si Si6 0.000000 0.000000 0.894425
Si Si7 0.508696 0.332302 0.974745
Si Si8 0.751520 0.129931 0.889431
O O1 0.782422 0.654132 0.654880
O O2 0.481661 0.746363 0.649416
O O3 0.899320 0.765995 0.542575
O O4 0.583816 0.679053 0.466275
O O5 0.708104 0.890360 0.155287
O O6 0.500000 0.000000 0.096389
O O7 0.448185 0.894398 0.974091
O O8 0.836828 0.957691 0.975230
O O9 0.452671 0.910072 0.331302
O O10 0.607953 0.788390 0.272069
O O11 0.252243 0.118221 0.479071
O O12 0.757489 0.124620 0.499494
O O13 0.500000 0.000000 0.484482
O O14 0.480095 0.301079 0.856210
O O15 0.627908 0.178451 0.806454
O O16 0.860180 0.061324 0.837510
#
# Coordination Sequence:
#
# PCOD9347162 Si02
#       8
#     4   4   4   4   4   2   4   4
#     4  10  20  37  59  85 124 157 204 267 323 382
#     4   9  18  33  52  82 115 155 185 243 307 392
#     4  10  20  34  58  89 121 151 203 253 328 373
#     4  11  22  41  62  92 128 169 208 264 317 397
#     4  10  20  36  55  89 118 157 203 264 316 378
#     4  10  18  34  54  80 114 156 204 242 316 388
#     4  10  23  39  62  92 125 165 215 256 327 385
#     4   9  20  34  54  83 116 155 202 249 318 381
#
# _framework density 22.286076000000001
#
# number of rings (size 3 to 8) (size 9 to 14) (size 15 to 20)
#    0.000    2.133    1.333    1.600    1.867    1.067 
#   12.000    0.000    0.000    4.000    0.000    0.000 
#    0.000    0.000    0.000    0.000    0.000    0.000 
#
# Total GULP energy -167050.512665 kJ/mol
# GULP energy per Si atom -5568.350422 kJ/mol
# Density = 2.223535 g / cm^3
# Si number density = 22.286076 Si / 1000 Ang^3
#
#
#
# Elastic Constant Matrix: (Units=GPa)
#
#
# Indices 1 2 3 4 5 6 
#
# 1 76.0020 38.8079 8.7360 0.0000 0.0000 0.0000
# 2 38.8079 126.2485 18.7628 0.0000 0.0000 0.0000
# 3 8.7360 18.7628 37.8546 0.0000 0.0000 0.0000
# 4 0.0000 0.0000 0.0000 -8.2842 0.0000 0.0000
# 5 0.0000 0.0000 0.0000 0.0000 122.3450 0.0000
# 6 0.0000 0.0000 0.0000 0.0000 0.0000 34.8468
#
#
#
# Elastic Compliance Matrix: (Units=1/GPa)
#
#
# Indices 1 2 3 4 5 6 
#
# 1 0.015669 -0.004619 -0.001326 0.000000 0.000000 0.000000
# 2 -0.004619 0.009913 -0.003847 0.000000 0.000000 0.000000
# 3 -0.001326 -0.003847 0.028630 0.000000 0.000000 0.000000
# 4 0.000000 0.000000 0.000000 -0.120711 0.000000 0.000000
# 5 0.000000 0.000000 0.000000 0.000000 0.008174 0.000000
# 6 0.000000 0.000000 0.000000 0.000000 0.000000 0.028697
#
#
# Mechanical properties :
#
#
# Convention : Reuss Voigt Hill
#
# Bulk Modulus (GPa) = 28.88058 41.41316 35.14687
# Shear Modulus (GPa) = 3337.32814 41.36806 1689.34810
#
# Velocity S-wave (km/s) = 38.73946 4.31307 27.56219
# Velocity P-wave (km/s) = 44.87740 6.58986 32.07341
#
# Compressibility (1/GPa) = 0.03462534
#
# Stress axis : x y z
#
# Youngs Moduli (GPa) = 63.82141 100.88167 34.92859
#
# Poissons Ratio (x) = 0.46601 0.04633
# Poissons Ratio (y) = 0.29481 0.13438
# Poissons Ratio (z) = 0.08465 0.38811
#
# Static dielectric constant tensor:
#      x y z
#    x 2.050130 0.000000 0.000000 
#    y 0.000000 2.318790 0.000000 
#    z 0.000000 0.000000 1.848770 
# 
# From -- ./inp_files/6167.got.cif
#   From: 2010.05.17/outbox.cif.g08.bks.cpg/sg34_4_cif.got.tgz:6167.got - 2010.06.03 17:23:11.
