data_PCOD9347850
_publ_section_title
;
Structure prediction by ZEFSAII (Michael W. Deem and Ramdas Pophale) SiO2 
 PCOD9347850
Probable space group: P N N 2
;
_chemical_formula_sum "Si O2"
_cell_formula_units_Z 20
_cell_length_a 11.374020
_cell_length_b 9.353245
_cell_length_c 6.143978
_cell_angle_alpha 90.000000
_cell_angle_beta 90.000000
_cell_angle_gamma 90.000000
_cell_volume 653.620929
_symmetry_space_group_name_H-M "P N N 2"
_symmetry_group_IT_number 34
_symmetry_cell_setting 'orthorhombic'
loop_
_space_group_symop_operation_xyz
x,y,z
-x,-y,z
1/2-x,1/2+y,1/2+z
1/2+x,1/2-y,1/2+z
loop_
_atom_site_type_symbol
_atom_site_label
_atom_site_fract_x
_atom_site_fract_y
_atom_site_fract_z
Si Si1 0.873932 0.350882 0.775150
Si Si2 0.293276 0.601008 0.188941
Si Si3 0.126068 0.350881 0.000640
Si Si4 0.500000 0.315904 0.887895
Si Si5 0.706724 0.601008 0.586847
O O1 0.916114 0.272563 0.553704
O O2 0.668067 0.500001 0.387894
O O3 0.795022 0.257528 0.952311
O O4 1.000000 0.363885 0.887895
O O5 0.189623 0.494226 0.093413
O O6 0.295022 0.757528 0.323480
O O7 0.407063 0.606451 0.038672
O O8 0.083885 0.272564 0.222086
O O9 0.189624 0.505774 0.682376
O O10 0.407063 0.393549 0.737117
#
# Coordination Sequence:
#
# PCOD9347850 Si02
#       5
#     4   4   4   4   4
#     4   9  21  41  72 109 147 206 272 331 425 502
#     4  11  27  47  74 118 158 216 286 351 432 523
#     4   9  21  41  72 109 147 206 272 331 425 502
#     4  10  24  48  80 104 166 214 272 358 424 516
#     4  11  27  47  74 118 158 216 286 351 432 523
#
# _framework density 30.598776999999998
#
# number of rings (size 3 to 8) (size 9 to 14) (size 15 to 20)
#    0.000    2.000    0.000    0.000    5.600   23.200 
#    0.000    0.000    0.000    0.000    0.000    0.000 
#    0.000    0.000    0.000    0.000    0.000    0.000 
#
# Total GULP energy -111919.711212 kJ/mol
# GULP energy per Si atom -5595.985561 kJ/mol
# Density = 3.052913 g / cm^3
# Si number density = 30.598777 Si / 1000 Ang^3
#
#
#
# Elastic Constant Matrix: (Units=GPa)
#
#
# Indices 1 2 3 4 5 6 
#
# 1 346.8118 149.4566 162.4094 0.0000 0.0000 0.0000
# 2 149.4566 243.6549 121.1683 0.0000 0.0000 0.0000
# 3 162.4094 121.1683 268.2652 0.0000 0.0000 0.0000
# 4 0.0000 0.0000 0.0000 -153.2741 0.0000 0.0000
# 5 0.0000 0.0000 0.0000 0.0000 139.7780 0.0000
# 6 0.0000 0.0000 0.0000 0.0000 0.0000 89.3456
#
#
#
# Elastic Compliance Matrix: (Units=1/GPa)
#
#
# Indices 1 2 3 4 5 6 
#
# 1 0.004591 -0.001849 -0.001944 0.000000 0.000000 0.000000
# 2 -0.001849 0.006038 -0.001608 0.000000 0.000000 0.000000
# 3 -0.001944 -0.001608 0.005631 0.000000 0.000000 0.000000
# 4 0.000000 0.000000 0.000000 -0.006524 0.000000 0.000000
# 5 0.000000 0.000000 0.000000 0.000000 0.007154 0.000000
# 6 0.000000 0.000000 0.000000 0.000000 0.000000 0.011192
#
#
# Mechanical properties :
#
#
# Convention : Reuss Voigt Hill
#
# Bulk Modulus (GPa) = 183.22986 191.64449 187.43717
# Shear Modulus (GPa) = 122.84242 43.54972 83.19607
#
# Velocity S-wave (km/s) = 6.34298 3.77669 5.22000
# Velocity P-wave (km/s) = 10.66095 9.04352 9.88537
#
# Compressibility (1/GPa) = 0.00545763
#
# Stress axis : x y z
#
# Youngs Moduli (GPa) = 217.83437 165.62022 177.59746
#
# Poissons Ratio (x) = 0.30625 0.34525
# Poissons Ratio (y) = 0.40281 0.28552
# Poissons Ratio (z) = 0.42347 0.26627
#
# Static dielectric constant tensor:
#      x y z
#    x 2.226980 0.000000 0.000000 
#    y 0.000000 2.933740 0.000000 
#    z 0.000000 0.000000 2.659550 
# 
# From -- ./inp_files/855.got.cif
#   From: 2010.05.17/outbox.cif.g08.bks.cpg/sg34_1_cif.got.tgz:855.got - 2010.06.03 17:23:11.
