data_PCOD9347244
_publ_section_title
;
Structure prediction by ZEFSAII (Michael W. Deem and Ramdas Pophale) SiO2 
 PCOD9347244
Probable space group: P N N 2
;
_chemical_formula_sum "Si O2"
_cell_formula_units_Z 32
_cell_length_a 12.261449
_cell_length_b 10.452531
_cell_length_c 12.225538
_cell_angle_alpha 90.000000
_cell_angle_beta 90.000000
_cell_angle_gamma 90.000000
_cell_volume 1566.863776
_symmetry_space_group_name_H-M "P N N 2"
_symmetry_group_IT_number 34
_symmetry_cell_setting 'orthorhombic'
loop_
_space_group_symop_operation_xyz
x,y,z
-x,-y,z
1/2-x,1/2+y,1/2+z
1/2+x,1/2-y,1/2+z
loop_
_atom_site_type_symbol
_atom_site_label
_atom_site_fract_x
_atom_site_fract_y
_atom_site_fract_z
Si Si1 0.742160 0.501929 0.268040
Si Si2 0.879700 0.437271 0.704651
Si Si3 0.668233 0.325139 0.091369
Si Si4 0.188756 0.541573 0.939688
Si Si5 0.251572 0.451142 0.516941
Si Si6 0.584776 0.115160 0.625932
Si Si7 0.470143 0.336040 0.250856
Si Si8 0.539672 0.705148 0.491416
O O1 0.748465 0.376953 0.189603
O O2 0.768669 0.495679 0.395436
O O3 0.823058 0.607388 0.217058
O O4 0.617940 0.551028 0.255322
O O5 0.824664 0.493957 0.814090
O O6 0.798013 0.453956 0.604903
O O7 0.899873 0.290763 0.731572
O O8 0.000000 0.500000 0.687546
O O9 0.691389 0.182926 0.048314
O O10 0.552310 0.333682 0.149585
O O11 0.694836 0.419376 0.990351
O O12 0.114534 0.668185 0.965280
O O13 0.139638 0.429392 0.012455
O O14 0.378483 0.410162 0.519448
O O15 0.530516 0.249096 0.594467
O O16 0.500000 0.000000 0.653521
O O17 0.518148 0.323466 0.374746
#
# Coordination Sequence:
#
# PCOD9347244 Si02
#       8
#     4   4   4   4   4   4   4   4
#     4  10  22  38  59  88 118 158 201 254 305 373
#     4  11  19  34  59  89 119 157 202 249 304 368
#     4  10  19  37  61  83 116 156 198 250 310 358
#     4   8  16  29  55  86 106 140 195 245 289 351
#     4  10  21  36  57  89 122 156 198 255 304 360
#     4   9  16  32  58  82 106 145 198 244 290 359
#     4  10  19  35  59  86 114 155 203 249 302 368
#     4   8  16  32  55  80 108 148 193 241 290 350
#
# _framework density 20.422962999999999
#
# number of rings (size 3 to 8) (size 9 to 14) (size 15 to 20)
#    0.000    2.500    1.250    3.750    0.000    0.500 
#    2.250    0.000    8.250    0.000    0.000    0.000 
#    0.000    0.000    0.000    0.000    0.000    0.000 
#
# Total GULP energy -178322.228194 kJ/mol
# GULP energy per Si atom -5572.569631 kJ/mol
# Density = 2.037648 g / cm^3
# Si number density = 20.422963 Si / 1000 Ang^3
#
#
#
# Elastic Constant Matrix: (Units=GPa)
#
#
# Indices 1 2 3 4 5 6 
#
# 1 62.6652 -15.9749 39.7135 0.0000 0.0000 0.0000
# 2 -15.9749 35.0649 0.5666 0.0000 0.0000 0.0000
# 3 39.7135 0.5666 115.4737 0.0000 0.0000 0.0000
# 4 0.0000 0.0000 0.0000 17.8235 0.0000 0.0000
# 5 0.0000 0.0000 0.0000 0.0000 33.1359 0.0000
# 6 0.0000 0.0000 0.0000 0.0000 0.0000 17.9746
#
#
#
# Elastic Compliance Matrix: (Units=1/GPa)
#
#
# Indices 1 2 3 4 5 6 
#
# 1 0.024067 0.011099 -0.008332 0.000000 0.000000 0.000000
# 2 0.011099 0.033639 -0.003982 0.000000 0.000000 0.000000
# 3 -0.008332 -0.003982 0.011545 0.000000 0.000000 0.000000
# 4 0.000000 0.000000 0.000000 0.056106 0.000000 0.000000
# 5 0.000000 0.000000 0.000000 0.000000 0.030179 0.000000
# 6 0.000000 0.000000 0.000000 0.000000 0.000000 0.055634
#
#
# Mechanical properties :
#
#
# Convention : Reuss Voigt Hill
#
# Bulk Modulus (GPa) = 14.96503 29.09047 22.02775
# Shear Modulus (GPa) = 21.19777 26.38005 23.78891
#
# Velocity S-wave (km/s) = 3.22520 3.59790 3.41664
# Velocity P-wave (km/s) = 4.60572 5.61558 5.13554
#
# Compressibility (1/GPa) = 0.06682247
#
# Stress axis : x y z
#
# Youngs Moduli (GPa) = 41.54992 29.72697 86.61802
#
# Poissons Ratio (x) = -0.32995 0.72167
# Poissons Ratio (y) = -0.46118 0.34494
# Poissons Ratio (z) = 0.34618 0.11838
#
# Static dielectric constant tensor:
#      x y z
#    x 1.793110 0.000000 0.000000 
#    y 0.000000 1.804920 0.000000 
#    z 0.000000 0.000000 1.713560 
# 
# From -- ./inp_files/5475.got.cif
#   From: 2010.05.17/outbox.cif.g08.bks.cpg/sg34_3_cif.got.tgz:5475.got - 2010.06.03 17:23:11.
