data_PCOD9347353
_publ_section_title
;
Structure prediction by ZEFSAII (Michael W. Deem and Ramdas Pophale) SiO2 
 PCOD9347353
Probable space group: P N N 2
;
_chemical_formula_sum "Si O2"
_cell_formula_units_Z 26
_cell_length_a 5.438905
_cell_length_b 16.173010
_cell_length_c 11.921479
_cell_angle_alpha 90.000000
_cell_angle_beta 90.000000
_cell_angle_gamma 90.000000
_cell_volume 1048.654600
_symmetry_space_group_name_H-M "P N N 2"
_symmetry_group_IT_number 34
_symmetry_cell_setting 'orthorhombic'
loop_
_space_group_symop_operation_xyz
x,y,z
-x,-y,z
1/2-x,1/2+y,1/2+z
1/2+x,1/2-y,1/2+z
loop_
_atom_site_type_symbol
_atom_site_label
_atom_site_fract_x
_atom_site_fract_y
_atom_site_fract_z
Si Si1 0.733525 0.162948 0.921050
Si Si2 0.000000 0.000000 0.205170
Si Si3 0.718871 0.381415 0.534690
Si Si4 0.322351 0.872032 0.353478
Si Si5 0.000000 0.500000 0.043354
Si Si6 0.427981 0.676977 0.005404
Si Si7 0.338616 0.249204 0.209198
Si Si8 0.500000 0.500000 0.075778
O O1 0.768421 0.255164 0.974073
O O2 0.704722 0.187694 0.791614
O O3 0.486811 0.125466 0.976599
O O4 0.986042 0.116232 0.950586
O O5 0.153989 0.933563 0.278209
O O6 0.807731 0.955838 0.122340
O O7 0.687821 0.301844 0.617125
O O8 0.446671 0.925277 0.453812
O O9 0.146150 0.806708 0.416244
O O10 0.511163 0.821555 0.276421
O O11 0.766255 0.511962 0.126502
O O12 0.483539 0.694946 0.134169
O O13 0.423643 0.578336 0.999945
#
# Coordination Sequence:
#
# PCOD9347353 Si02
#       8
#     4   2   4   4   2   4   4   2
#     4  11  24  44  65  97 136 177 224 275 332 408
#     4  12  23  42  71 104 136 176 227 286 351 402
#     4  11  26  43  69 100 133 174 225 281 335 400
#     4  11  21  39  67 102 135 173 224 286 342 401
#     4  10  20  36  58  88 124 158 202 268 334 382
#     4  10  22  40  65  96 130 166 220 273 330 395
#     4  11  22  40  67  96 134 182 221 271 342 405
#     4  10  21  38  59  86 124 164 205 270 331 382
#
# _framework density 24.793671
#
# number of rings (size 3 to 8) (size 9 to 14) (size 15 to 20)
#    0.000    1.231    0.000    8.308    0.000    6.769 
#    0.000    0.769    0.000    9.231    0.000    0.000 
#    0.000    0.000    0.000    0.000    0.000    0.000 
#
# Total GULP energy -144937.432474 kJ/mol
# GULP energy per Si atom -5574.516634 kJ/mol
# Density = 2.473724 g / cm^3
# Si number density = 24.793671 Si / 1000 Ang^3
#
#
#
# Elastic Constant Matrix: (Units=GPa)
#
#
# Indices 1 2 3 4 5 6 
#
# 1 145.4920 15.5808 29.6713 0.0000 0.0000 0.0000
# 2 15.5808 63.9645 6.8170 0.0000 0.0000 0.0000
# 3 29.6713 6.8170 73.5292 0.0000 0.0000 0.0000
# 4 0.0000 0.0000 0.0000 29.3559 0.0000 0.0000
# 5 0.0000 0.0000 0.0000 0.0000 -76.0858 0.0000
# 6 0.0000 0.0000 0.0000 0.0000 0.0000 33.3851
#
#
#
# Elastic Compliance Matrix: (Units=1/GPa)
#
#
# Indices 1 2 3 4 5 6 
#
# 1 0.007638 -0.001547 -0.002939 0.000000 0.000000 0.000000
# 2 -0.001547 0.016103 -0.000869 0.000000 0.000000 0.000000
# 3 -0.002939 -0.000869 0.014866 0.000000 0.000000 0.000000
# 4 0.000000 0.000000 0.000000 0.034065 0.000000 0.000000
# 5 0.000000 0.000000 0.000000 0.000000 -0.013143 0.000000
# 6 0.000000 0.000000 0.000000 0.000000 0.000000 0.029953
#
#
# Mechanical properties :
#
#
# Convention : Reuss Voigt Hill
#
# Bulk Modulus (GPa) = 35.84431 43.01378 39.42905
# Shear Modulus (GPa) = 45.66546 12.72548 29.19547
#
# Velocity S-wave (km/s) = 4.29630 2.26797 3.43525
# Velocity P-wave (km/s) = 6.25295 4.92388 5.62779
#
# Compressibility (1/GPa) = 0.02789843
#
# Stress axis : x y z
#
# Youngs Moduli (GPa) = 130.91962 62.09962 67.26548
#
# Poissons Ratio (x) = 0.09609 0.19768
# Poissons Ratio (y) = 0.20258 0.05842
# Poissons Ratio (z) = 0.38475 0.05394
#
# Static dielectric constant tensor:
#      x y z
#    x 2.279580 0.000000 0.000000 
#    y 0.000000 2.096560 0.000000 
#    z 0.000000 0.000000 1.969730 
# 
# From -- ./inp_files/4472.got.cif
#   From: 2010.05.17/outbox.cif.g08.bks.cpg/sg34_3_cif.got.tgz:4472.got - 2010.06.03 17:23:11.
