data_PCOD9347036
_publ_section_title
;
Structure prediction by ZEFSAII (Michael W. Deem and Ramdas Pophale) SiO2 
 PCOD9347036
Probable space group: P N A 21
;
_chemical_formula_sum "Si O2"
_cell_formula_units_Z 16
_cell_length_a 22.741423
_cell_length_b 4.972506
_cell_length_c 5.345174
_cell_angle_alpha 90.000000
_cell_angle_beta 90.000000
_cell_angle_gamma 90.000000
_cell_volume 604.442230
_symmetry_space_group_name_H-M "P N A 21"
_symmetry_group_IT_number 33
_symmetry_cell_setting 'orthorhombic'
loop_
_space_group_symop_operation_xyz
x,y,z
-x,-y,1/2+z
1/2-x,1/2+y,1/2+z
1/2+x,1/2-y,z
loop_
_atom_site_type_symbol
_atom_site_label
_atom_site_fract_x
_atom_site_fract_y
_atom_site_fract_z
Si Si1 0.191795 0.080297 0.115590
Si Si2 0.000152 0.323830 0.533245
Si Si3 0.098463 0.957572 0.752576
Si Si4 0.323645 0.080285 0.938024
O O1 0.171710 0.281738 0.332194
O O2 0.125296 0.703726 0.606875
O O3 0.181202 0.775346 0.198015
O O4 0.260820 0.118687 0.072875
O O5 0.991814 0.501462 0.781784
O O6 0.055015 0.129996 0.582336
O O7 0.942756 0.145478 0.477995
O O8 0.152386 0.123930 0.870886
#
# Coordination Sequence:
#
# PCOD9347036 Si02
#       4
#     4   4   4   4
#     4  12  29  52  85 129 174 229 291 365 450 536
#     4  12  32  56  86 126 180 240 306 374 448 532
#     4  12  32  52  84 128 176 234 304 366 454 534
#     4  12  29  52  85 129 174 229 291 365 450 536
#
# _framework density 26.470683999999999
#
# number of rings (size 3 to 8) (size 9 to 14) (size 15 to 20)
#    0.000    0.000    2.500    3.000   17.500    0.000 
#    0.000    0.000    0.000    0.000    0.000    0.000 
#    0.000    0.000    0.000    0.000    0.000    0.000 
#
# Total GULP energy -89991.336472 kJ/mol
# GULP energy per Si atom -5624.458530 kJ/mol
# Density = 2.641044 g / cm^3
# Si number density = 26.470684 Si / 1000 Ang^3
#
#
#
# Elastic Constant Matrix: (Units=GPa)
#
#
# Indices 1 2 3 4 5 6 
#
# 1 146.4551 29.2737 38.0471 0.0000 0.0000 0.0000
# 2 29.2737 71.0745 32.6730 0.0000 0.0000 0.0000
# 3 38.0471 32.6730 140.6794 0.0000 0.0000 0.0000
# 4 0.0000 0.0000 0.0000 67.7833 0.0000 0.0000
# 5 0.0000 0.0000 0.0000 0.0000 65.9846 0.0000
# 6 0.0000 0.0000 0.0000 0.0000 0.0000 38.7721
#
#
#
# Elastic Compliance Matrix: (Units=1/GPa)
#
#
# Indices 1 2 3 4 5 6 
#
# 1 0.007717 -0.002484 -0.001510 0.000000 0.000000 0.000000
# 2 -0.002484 0.016551 -0.003172 0.000000 0.000000 0.000000
# 3 -0.001510 -0.003172 0.008254 0.000000 0.000000 0.000000
# 4 0.000000 0.000000 0.000000 0.014753 0.000000 0.000000
# 5 0.000000 0.000000 0.000000 0.000000 0.015155 0.000000
# 6 0.000000 0.000000 0.000000 0.000000 0.000000 0.025792
#
#
# Mechanical properties :
#
#
# Convention : Reuss Voigt Hill
#
# Bulk Modulus (GPa) = 54.97936 62.02183 58.50059
# Shear Modulus (GPa) = 46.03329 51.72234 48.87782
#
# Velocity S-wave (km/s) = 4.17469 4.42514 4.30174
# Velocity P-wave (km/s) = 6.63720 7.04205 6.84262
#
# Compressibility (1/GPa) = 0.01818864
#
# Stress axis : x y z
#
# Youngs Moduli (GPa) = 129.58613 60.41874 121.16051
#
# Poissons Ratio (x) = 0.15009 0.18296
# Poissons Ratio (y) = 0.32192 0.38434
# Poissons Ratio (z) = 0.19569 0.19166
#
# Static dielectric constant tensor:
#      x y z
#    x 2.021900 0.000000 0.000000 
#    y 0.000000 2.032770 0.000000 
#    z 0.000000 0.000000 2.033100 
# 
# From -- ./inp_files/1928.got.cif
#   From: 2010.05.17/outbox.cif.g08.bks.cpg/sg33_1_cif.got.tgz:1928.got - 2010.06.03 17:15:25.
