data_PCOD9347414
_publ_section_title
;
Structure prediction by ZEFSAII (Michael W. Deem and Ramdas Pophale) SiO2 
 PCOD9347414
Probable space group: P N N 2
;
_chemical_formula_sum "Si O2"
_cell_formula_units_Z 26
_cell_length_a 24.641294
_cell_length_b 5.135275
_cell_length_c 8.583301
_cell_angle_alpha 90.000000
_cell_angle_beta 90.000000
_cell_angle_gamma 90.000000
_cell_volume 1086.129373
_symmetry_space_group_name_H-M "P N N 2"
_symmetry_group_IT_number 34
_symmetry_cell_setting 'orthorhombic'
loop_
_space_group_symop_operation_xyz
x,y,z
-x,-y,z
1/2-x,1/2+y,1/2+z
1/2+x,1/2-y,1/2+z
loop_
_atom_site_type_symbol
_atom_site_label
_atom_site_fract_x
_atom_site_fract_y
_atom_site_fract_z
Si Si1 0.090849 0.353112 0.666510
Si Si2 0.000000 0.000000 0.321174
Si Si3 0.257107 0.217981 0.835457
Si Si4 0.144913 0.343376 0.983743
Si Si5 0.500000 0.500000 0.327990
Si Si6 0.500000 0.000000 0.003961
Si Si7 0.917314 0.180883 0.070537
Si Si8 0.802166 0.796874 0.494556
O O1 0.123695 0.445679 0.816562
O O2 0.136344 0.239968 0.553142
O O3 0.045018 0.154588 0.730497
O O4 0.053921 0.580590 0.596532
O O5 0.019919 0.251356 0.411809
O O6 0.950382 0.111074 0.222953
O O7 0.207253 0.288461 0.952248
O O8 0.233726 0.200066 0.657852
O O9 0.297092 0.453470 0.881401
O O10 0.281856 0.946784 0.892600
O O11 0.121201 0.569755 0.092172
O O12 0.117745 0.068895 0.022154
O O13 0.533991 0.695169 0.441587
#
# Coordination Sequence:
#
# PCOD9347414 Si02
#       8
#     4   2   4   4   2   2   4   4
#     4  10  23  41  68  96 130 173 221 275 331 400
#     4  11  25  40  54  88 143 169 200 270 312 419
#     4  11  24  46  69 102 138 179 232 298 340 413
#     4  10  21  40  69  94 118 168 228 277 321 385
#     4   9  19  38  70  98 123 167 228 278 326 395
#     4  12  24  42  58  90 132 174 212 254 334 394
#     4  10  20  39  63  94 125 167 220 268 330 377
#     4  11  25  47  71 102 141 179 235 288 354 407
#
# _framework density 23.938216000000001
#
# number of rings (size 3 to 8) (size 9 to 14) (size 15 to 20)
#    0.000    1.538    0.000    4.154    0.000   14.154 
#   16.615    0.000    0.000    0.000    0.000    0.000 
#    0.000    0.000    0.000    0.000    0.000    0.000 
#
# Total GULP energy -145358.730792 kJ/mol
# GULP energy per Si atom -5590.720415 kJ/mol
# Density = 2.388373 g / cm^3
# Si number density = 23.938216 Si / 1000 Ang^3
#
#
#
# Elastic Constant Matrix: (Units=GPa)
#
#
# Indices 1 2 3 4 5 6 
#
# 1 61.8592 9.3679 15.3564 0.0000 0.0000 0.0000
# 2 9.3679 98.2682 26.2164 0.0000 0.0000 0.0000
# 3 15.3564 26.2164 66.7618 0.0000 0.0000 0.0000
# 4 0.0000 0.0000 0.0000 17.5526 0.0000 0.0000
# 5 0.0000 0.0000 0.0000 0.0000 -16.5398 0.0000
# 6 0.0000 0.0000 0.0000 0.0000 0.0000 26.5043
#
#
#
# Elastic Compliance Matrix: (Units=1/GPa)
#
#
# Indices 1 2 3 4 5 6 
#
# 1 0.017182 -0.000652 -0.003696 0.000000 0.000000 0.000000
# 2 -0.000652 0.011392 -0.004323 0.000000 0.000000 0.000000
# 3 -0.003696 -0.004323 0.017527 0.000000 0.000000 0.000000
# 4 0.000000 0.000000 0.000000 0.056972 0.000000 0.000000
# 5 0.000000 0.000000 0.000000 0.000000 -0.060460 0.000000
# 6 0.000000 0.000000 0.000000 0.000000 0.000000 0.037730
#
#
# Mechanical properties :
#
#
# Convention : Reuss Voigt Hill
#
# Bulk Modulus (GPa) = 34.77369 36.53007 35.65188
# Shear Modulus (GPa) = 46.61111 17.23331 31.92221
#
# Velocity S-wave (km/s) = 4.41743 2.68602 3.65571
# Velocity P-wave (km/s) = 6.36995 4.99128 5.72229
#
# Compressibility (1/GPa) = 0.02875737
#
# Stress axis : x y z
#
# Youngs Moduli (GPa) = 58.20033 87.78244 57.05619
#
# Poissons Ratio (x) = 0.05722 0.21089
# Poissons Ratio (y) = 0.03794 0.24668
# Poissons Ratio (z) = 0.21512 0.37952
#
# Static dielectric constant tensor:
#      x y z
#    x 2.976870 0.000000 0.000000 
#    y 0.000000 2.449030 0.000000 
#    z 0.000000 0.000000 2.045630 
# 
# From -- ./inp_files/2133.got.cif
#   From: 2010.05.17/outbox.cif.g08.bks.cpg/sg34_2_cif.got.tgz:2133.got - 2010.06.03 17:23:11.
