data_PCOD9347319
_publ_section_title
;
Structure prediction by ZEFSAII (Michael W. Deem and Ramdas Pophale) SiO2 
 PCOD9347319
Probable space group: P N N 2
;
_chemical_formula_sum "Si O2"
_cell_formula_units_Z 32
_cell_length_a 15.447453
_cell_length_b 9.440264
_cell_length_c 11.476038
_cell_angle_alpha 90.000000
_cell_angle_beta 90.000000
_cell_angle_gamma 90.000000
_cell_volume 1673.528065
_symmetry_space_group_name_H-M "P N N 2"
_symmetry_group_IT_number 34
_symmetry_cell_setting 'orthorhombic'
loop_
_space_group_symop_operation_xyz
x,y,z
-x,-y,z
1/2-x,1/2+y,1/2+z
1/2+x,1/2-y,1/2+z
loop_
_atom_site_type_symbol
_atom_site_label
_atom_site_fract_x
_atom_site_fract_y
_atom_site_fract_z
Si Si1 0.025754 0.333455 0.973430
Si Si2 0.523797 0.150915 0.811427
Si Si3 0.257829 0.513282 0.011180
Si Si4 0.321407 0.780072 0.650768
Si Si5 0.434679 0.874775 0.205413
Si Si6 0.257780 0.471294 0.733399
Si Si7 0.946331 0.859282 0.518018
Si Si8 0.619752 0.766776 0.619069
O O1 0.049681 0.333286 0.839197
O O2 0.000000 0.500000 0.000514
O O3 0.107939 0.280244 0.046584
O O4 0.944310 0.236641 0.010270
O O5 0.619573 0.151832 0.753487
O O6 0.449851 0.176365 0.713903
O O7 0.500000 0.000000 0.866089
O O8 0.523849 0.277055 0.902775
O O9 0.254022 0.378134 0.097463
O O10 0.346617 0.597551 0.012050
O O11 0.184542 0.616070 0.065825
O O12 0.247533 0.470695 0.874860
O O13 0.287538 0.627707 0.692246
O O14 0.336664 0.927589 0.187289
O O15 0.456472 0.743916 0.125386
O O16 0.500000 0.000000 0.177689
O O17 0.326680 0.358767 0.680521
O O18 0.000000 0.000000 0.531230
#
# Coordination Sequence:
#
# PCOD9347319 Si02
#       8
#     4   4   4   4   4   4   4   4
#     4  10  19  42  73  95 134 184 232 281 343 415
#     4  11  22  43  72 105 135 183 231 283 348 426
#     4  12  22  46  68 100 141 177 229 289 352 415
#     4  11  22  40  70 104 131 176 230 281 348 420
#     4  11  24  46  65  95 138 188 228 282 358 424
#     4  12  25  42  70 105 140 175 230 296 354 413
#     4  12  27  45  64  99 144 182 227 296 358 416
#     4  11  22  43  73 102 133 179 231 284 336 422
#
# _framework density 19.121281
#
# number of rings (size 3 to 8) (size 9 to 14) (size 15 to 20)
#    0.000    0.750    6.250    2.625    1.750    1.500 
#    4.500    2.500    0.000    0.000    0.000    0.000 
#    0.000    0.000    0.000    0.000    0.000    0.000 
#
# Total GULP energy -178585.729731 kJ/mol
# GULP energy per Si atom -5580.804054 kJ/mol
# Density = 1.907776 g / cm^3
# Si number density = 19.121281 Si / 1000 Ang^3
#
#
#
# Elastic Constant Matrix: (Units=GPa)
#
#
# Indices 1 2 3 4 5 6 
#
# 1 70.3492 14.2282 41.8447 0.0000 0.0000 0.0000
# 2 14.2282 75.4237 63.1823 0.0000 0.0000 0.0000
# 3 41.8447 63.1823 95.0200 0.0000 0.0000 0.0000
# 4 0.0000 0.0000 0.0000 -159.6851 0.0000 0.0000
# 5 0.0000 0.0000 0.0000 0.0000 78.6965 0.0000
# 6 0.0000 0.0000 0.0000 0.0000 0.0000 29.1099
#
#
#
# Elastic Compliance Matrix: (Units=1/GPa)
#
#
# Indices 1 2 3 4 5 6 
#
# 1 0.021557 0.008772 -0.015326 0.000000 0.000000 0.000000
# 2 0.008772 0.033499 -0.026138 0.000000 0.000000 0.000000
# 3 -0.015326 -0.026138 0.034653 0.000000 0.000000 0.000000
# 4 0.000000 0.000000 0.000000 -0.006262 0.000000 0.000000
# 5 0.000000 0.000000 0.000000 0.000000 0.012707 0.000000
# 6 0.000000 0.000000 0.000000 0.000000 0.000000 0.034353
#
#
# Mechanical properties :
#
#
# Convention : Reuss Voigt Hill
#
# Bulk Modulus (GPa) = 41.10879 53.25592 47.18236
# Shear Modulus (GPa) = 24.50989 -2.27325 11.11832
#
# Velocity S-wave (km/s) = 3.58412 -1.09153 2.41397
# Velocity P-wave (km/s) = 6.21881 5.13065 5.70075
#
# Compressibility (1/GPa) = 0.02432570
#
# Stress axis : x y z
#
# Youngs Moduli (GPa) = 46.38914 29.85130 28.85718
#
# Poissons Ratio (x) = -0.26185 0.44226
# Poissons Ratio (y) = -0.40692 0.75427
# Poissons Ratio (z) = 0.71096 0.78025
#
# Static dielectric constant tensor:
#      x y z
#    x 1.682480 0.000000 0.000000 
#    y 0.000000 1.658830 0.000000 
#    z 0.000000 0.000000 1.672040 
# 
# From -- ./inp_files/5088.got.cif
#   From: 2010.05.17/outbox.cif.g08.bks.cpg/sg34_3_cif.got.tgz:5088.got - 2010.06.03 17:23:11.
