data_PCOD9347243
_publ_section_title
;
Structure prediction by ZEFSAII (Michael W. Deem and Ramdas Pophale) SiO2 
 PCOD9347243
Probable space group: P N N 2
;
_chemical_formula_sum "Si O2"
_cell_formula_units_Z 30
_cell_length_a 13.941264
_cell_length_b 6.074693
_cell_length_c 17.287429
_cell_angle_alpha 90.000000
_cell_angle_beta 90.000000
_cell_angle_gamma 90.000000
_cell_volume 1464.053326
_symmetry_space_group_name_H-M "P N N 2"
_symmetry_group_IT_number 34
_symmetry_cell_setting 'orthorhombic'
loop_
_space_group_symop_operation_xyz
x,y,z
-x,-y,z
1/2-x,1/2+y,1/2+z
1/2+x,1/2-y,1/2+z
loop_
_atom_site_type_symbol
_atom_site_label
_atom_site_fract_x
_atom_site_fract_y
_atom_site_fract_z
Si Si1 0.402563 0.123942 0.308340
Si Si2 0.248209 0.862006 0.213584
Si Si3 0.891637 0.024884 0.685751
Si Si4 0.149063 0.330262 0.468998
Si Si5 0.844679 0.302692 0.355593
Si Si6 0.807732 0.544462 0.950934
Si Si7 0.000000 0.000000 0.439169
Si Si8 0.245006 0.670230 0.582935
O O1 0.401555 0.368743 0.272450
O O2 0.500000 0.000000 0.281813
O O3 0.306227 0.026570 0.269693
O O4 0.390381 0.067338 0.399155
O O5 0.331593 0.698168 0.186105
O O6 0.172955 0.727111 0.264982
O O7 0.206438 0.002600 0.143166
O O8 0.829275 0.183251 0.631539
O O9 0.000000 0.000000 0.658179
O O10 0.133782 0.453888 0.386895
O O11 0.178690 0.520523 0.527495
O O12 0.056029 0.185560 0.486968
O O13 0.234632 0.155689 0.465287
O O14 0.745730 0.225973 0.397122
O O15 0.923647 0.132165 0.387085
O O16 0.815270 0.676601 0.031772
#
# Coordination Sequence:
#
# PCOD9347243 Si02
#       8
#     4   4   4   4   4   4   2   4
#     4  10  19  35  59  85 111 142 192 246 287 342
#     4  10  20  37  55  79 113 149 187 230 292 345
#     4  11  21  36  54  85 117 152 189 235 297 358
#     4  10  19  38  52  80 113 149 188 229 292 342
#     4   9  19  35  57  78 107 144 184 238 278 338
#     4   9  19  36  55  79 111 148 191 232 285 342
#     4  10  20  36  56  86 106 140 190 240 284 330
#     4  10  22  37  52  79 113 158 185 231 284 358
#
# _framework density 20.491056
#
# number of rings (size 3 to 8) (size 9 to 14) (size 15 to 20)
#    0.000    2.133    1.333    2.000    0.000    1.067 
#   28.800    0.000    0.000    3.200    0.000    0.000 
#    0.000    0.000    0.000    0.000    0.000    0.000 
#
# Total GULP energy -167211.184336 kJ/mol
# GULP energy per Si atom -5573.706145 kJ/mol
# Density = 2.044442 g / cm^3
# Si number density = 20.491056 Si / 1000 Ang^3
#
#
#
# Elastic Constant Matrix: (Units=GPa)
#
#
# Indices 1 2 3 4 5 6 
#
# 1 13.0832 -5.5787 10.9191 0.0000 0.0000 0.0000
# 2 -5.5787 77.4494 37.7990 0.0000 0.0000 0.0000
# 3 10.9191 37.7990 106.7774 0.0000 0.0000 0.0000
# 4 0.0000 0.0000 0.0000 11.4422 0.0000 0.0000
# 5 0.0000 0.0000 0.0000 0.0000 8.2859 0.0000
# 6 0.0000 0.0000 0.0000 0.0000 0.0000 15.3242
#
#
#
# Elastic Compliance Matrix: (Units=1/GPa)
#
#
# Indices 1 2 3 4 5 6 
#
# 1 0.094567 0.013940 -0.014605 0.000000 0.000000 0.000000
# 2 0.013940 0.017663 -0.007678 0.000000 0.000000 0.000000
# 3 -0.014605 -0.007678 0.013577 0.000000 0.000000 0.000000
# 4 0.000000 0.000000 0.000000 0.087396 0.000000 0.000000
# 5 0.000000 0.000000 0.000000 0.000000 0.120687 0.000000
# 6 0.000000 0.000000 0.000000 0.000000 0.000000 0.065256
#
#
# Mechanical properties :
#
#
# Convention : Reuss Voigt Hill
#
# Bulk Modulus (GPa) = 9.16422 31.50987 20.33704
# Shear Modulus (GPa) = 11.05691 17.28851 14.17271
#
# Velocity S-wave (km/s) = 2.32544 2.90782 2.63278
# Velocity P-wave (km/s) = 3.41939 5.16572 4.38046
#
# Compressibility (1/GPa) = 0.10912003
#
# Stress axis : x y z
#
# Youngs Moduli (GPa) = 10.57447 56.61544 73.65479
#
# Poissons Ratio (x) = -0.78920 1.07574
# Poissons Ratio (y) = -0.14740 0.56553
# Poissons Ratio (z) = 0.15444 0.43470
#
# Static dielectric constant tensor:
#      x y z
#    x 1.717690 0.000000 0.000000 
#    y 0.000000 1.761430 0.000000 
#    z 0.000000 0.000000 1.835290 
# 
# From -- ./inp_files/6959.got.cif
#   From: 2010.05.17/outbox.cif.g08.bks.cpg/sg34_4_cif.got.tgz:6959.got - 2010.06.03 17:23:11.
