data_PCOD9347110
_publ_section_title
;
Structure prediction by ZEFSAII (Michael W. Deem and Ramdas Pophale) SiO2 
 PCOD9347110
Probable space group: P N N 2
;
_chemical_formula_sum "Si O2"
_cell_formula_units_Z 26
_cell_length_a 15.509972
_cell_length_b 13.072862
_cell_length_c 5.181946
_cell_angle_alpha 90.000000
_cell_angle_beta 90.000000
_cell_angle_gamma 90.000000
_cell_volume 1050.689939
_symmetry_space_group_name_H-M "P N N 2"
_symmetry_group_IT_number 34
_symmetry_cell_setting 'orthorhombic'
loop_
_space_group_symop_operation_xyz
x,y,z
-x,-y,z
1/2-x,1/2+y,1/2+z
1/2+x,1/2-y,1/2+z
loop_
_atom_site_type_symbol
_atom_site_label
_atom_site_fract_x
_atom_site_fract_y
_atom_site_fract_z
Si Si1 0.957313 0.721407 0.726260
Si Si2 0.243619 0.959807 0.237174
Si Si3 0.678433 0.010898 0.726086
Si Si4 0.333471 0.606344 0.379374
Si Si5 0.973332 0.367229 0.233490
Si Si6 0.500000 0.500000 0.514264
Si Si7 0.921628 0.160665 0.391355
O O1 0.874602 0.784329 0.822799
O O2 0.956561 0.664345 0.450433
O O3 0.030487 0.809381 0.657363
O O4 0.991962 0.646720 0.946544
O O5 0.321250 0.950550 0.435850
O O6 0.166912 0.899268 0.373072
O O7 0.278557 0.924315 0.956867
O O8 0.205850 0.072304 0.157473
O O9 0.585566 0.964733 0.787046
O O10 0.751985 0.921777 0.705424
O O11 0.413672 0.526029 0.355676
O O12 0.907814 0.271378 0.266132
O O13 0.514302 0.595689 0.708498
#
# Coordination Sequence:
#
# PCOD9347110 Si02
#       7
#     4   4   4   4   4   2   4
#     4  10  20  30  50  68  99 134 168 200 238 300
#     4   9  21  30  50  69  99 132 169 201 238 297
#     4  10  21  34  46  67 104 139 166 203 247 296
#     4   9  20  28  48  70 100 129 166 193 242 294
#     4  10  21  34  46  67 103 142 164 202 248 298
#     4  10  16  32  44  80 100 134 158 204 234 306
#     4   9  21  29  50  72 103 132 166 196 244 301
#
# _framework density 24.745643999999999
#
# number of rings (size 3 to 8) (size 9 to 14) (size 15 to 20)
#    1.846    0.615    1.538    0.923   10.769    0.000 
#    0.000    0.000    0.000    0.000    0.000    0.000 
#    0.000    7.385    0.000    0.000    0.000    0.000 
#
# Total GULP energy -144823.363488 kJ/mol
# GULP energy per Si atom -5570.129365 kJ/mol
# Density = 2.468932 g / cm^3
# Si number density = 24.745644 Si / 1000 Ang^3
#
#
#
# Elastic Constant Matrix: (Units=GPa)
#
#
# Indices 1 2 3 4 5 6 
#
# 1 104.5890 18.5136 42.4511 0.0000 0.0000 0.0000
# 2 18.5136 80.4113 27.8745 0.0000 0.0000 0.0000
# 3 42.4511 27.8745 125.3704 0.0000 0.0000 0.0000
# 4 0.0000 0.0000 0.0000 -4.5210 0.0000 0.0000
# 5 0.0000 0.0000 0.0000 0.0000 -5.9754 0.0000
# 6 0.0000 0.0000 0.0000 0.0000 0.0000 27.6230
#
#
#
# Elastic Compliance Matrix: (Units=1/GPa)
#
#
# Indices 1 2 3 4 5 6 
#
# 1 0.011223 -0.001372 -0.003495 0.000000 0.000000 0.000000
# 2 -0.001372 0.013642 -0.002569 0.000000 0.000000 0.000000
# 3 -0.003495 -0.002569 0.009731 0.000000 0.000000 0.000000
# 4 0.000000 0.000000 0.000000 -0.221191 0.000000 0.000000
# 5 0.000000 0.000000 0.000000 0.000000 -0.167352 0.000000
# 6 0.000000 0.000000 0.000000 0.000000 0.000000 0.036202
#
#
# Mechanical properties :
#
#
# Convention : Reuss Voigt Hill
#
# Bulk Modulus (GPa) = 50.69886 54.22768 52.46327
# Shear Modulus (GPa) = -16.87486 18.19408 0.65961
#
# Velocity S-wave (km/s) = -2.61422 2.71448 0.51685
# Velocity P-wave (km/s) = 3.37939 5.63792 4.64793
#
# Compressibility (1/GPa) = 0.01972431
#
# Stress axis : x y z
#
# Youngs Moduli (GPa) = 89.10515 73.30080 102.76595
#
# Poissons Ratio (x) = 0.10059 0.35916
# Poissons Ratio (y) = 0.12228 0.26396
# Poissons Ratio (z) = 0.31142 0.18828
#
# Static dielectric constant tensor:
#      x y z
#    x 1.955960 0.000000 0.000000 
#    y 0.000000 2.082370 0.000000 
#    z 0.000000 0.000000 1.997290 
# 
# From -- ./inp_files/1616.got.cif
#   From: 2010.05.17/outbox.cif.g08.bks.cpg/sg34_1_cif.got.tgz:1616.got - 2010.06.03 17:23:11.
