data_PCOD9347525
_publ_section_title
;
Structure prediction by ZEFSAII (Michael W. Deem and Ramdas Pophale) SiO2 
 PCOD9347525
Probable space group: P N N 2
;
_chemical_formula_sum "Si O2"
_cell_formula_units_Z 30
_cell_length_a 8.264781
_cell_length_b 12.830788
_cell_length_c 14.384174
_cell_angle_alpha 90.000000
_cell_angle_beta 90.000000
_cell_angle_gamma 90.000000
_cell_volume 1525.350355
_symmetry_space_group_name_H-M "P N N 2"
_symmetry_group_IT_number 34
_symmetry_cell_setting 'orthorhombic'
loop_
_space_group_symop_operation_xyz
x,y,z
-x,-y,z
1/2-x,1/2+y,1/2+z
1/2+x,1/2-y,1/2+z
loop_
_atom_site_type_symbol
_atom_site_label
_atom_site_fract_x
_atom_site_fract_y
_atom_site_fract_z
Si Si1 0.024298 0.792144 0.338310
Si Si2 0.085520 0.098987 0.812037
Si Si3 0.225647 0.742079 0.165173
Si Si4 0.148047 0.577933 0.011909
Si Si5 0.028604 0.617792 0.646641
Si Si6 0.000000 0.000000 0.458326
Si Si7 0.648955 0.783417 0.334061
Si Si8 0.637473 0.912246 0.943960
O O1 0.837669 0.760653 0.335659
O O2 0.101654 0.797917 0.235762
O O3 0.105024 0.698792 0.395623
O O4 0.038574 0.900230 0.393617
O O5 0.184874 0.159260 0.732764
O O6 0.197552 0.054738 0.894538
O O7 0.961153 0.183371 0.852703
O O8 0.000000 0.000000 0.767362
O O9 0.148729 0.674702 0.083195
O O10 0.359275 0.822839 0.126644
O O11 0.000000 0.500000 0.033502
O O12 0.330849 0.528055 0.011427
O O13 0.118852 0.626395 0.909596
O O14 0.000000 0.500000 0.678437
O O15 0.107965 0.678517 0.730938
O O16 0.134170 0.608764 0.553664
O O17 0.500000 0.000000 0.926348
#
# Coordination Sequence:
#
# PCOD9347525 Si02
#       8
#     4   4   4   4   4   2   4   4
#     4  10  22  41  65  90 132 163 215 270 328 396
#     4  10  22  39  63  88 126 167 216 266 327 393
#     4  10  24  41  60  99 128 166 217 274 331 406
#     4  11  25  42  68  97 135 174 226 277 339 406
#     4  10  21  38  63  87 125 164 211 264 326 386
#     4  10  24  42  70  96 132 182 220 276 338 404
#     4  10  22  39  61  94 122 170 216 266 324 400
#     4  10  21  39  62  88 123 171 206 268 328 383
#
# _framework density 19.667612999999999
#
# number of rings (size 3 to 8) (size 9 to 14) (size 15 to 20)
#    0.000    1.867    0.000    2.800   10.267    5.333 
#    2.400    0.000    1.467    0.000    0.000    0.000 
#    0.000    0.000    0.000    0.000    0.000    0.000 
#
# Total GULP energy -167397.729334 kJ/mol
# GULP energy per Si atom -5579.924311 kJ/mol
# Density = 1.962285 g / cm^3
# Si number density = 19.667613 Si / 1000 Ang^3
#
#
#
# Elastic Constant Matrix: (Units=GPa)
#
#
# Indices 1 2 3 4 5 6 
#
# 1 44.6037 13.8724 5.8652 0.0000 0.0000 0.0000
# 2 13.8724 74.3868 5.4377 0.0000 0.0000 0.0000
# 3 5.8652 5.4377 42.9104 0.0000 0.0000 0.0000
# 4 0.0000 0.0000 0.0000 23.1276 0.0000 0.0000
# 5 0.0000 0.0000 0.0000 0.0000 -12.6320 0.0000
# 6 0.0000 0.0000 0.0000 0.0000 0.0000 37.1903
#
#
#
# Elastic Compliance Matrix: (Units=1/GPa)
#
#
# Indices 1 2 3 4 5 6 
#
# 1 0.024118 -0.004297 -0.002752 0.000000 0.000000 0.000000
# 2 -0.004297 0.014334 -0.001229 0.000000 0.000000 0.000000
# 3 -0.002752 -0.001229 0.023836 0.000000 0.000000 0.000000
# 4 0.000000 0.000000 0.000000 0.043238 0.000000 0.000000
# 5 0.000000 0.000000 0.000000 0.000000 -0.079164 0.000000
# 6 0.000000 0.000000 0.000000 0.000000 0.000000 0.026889
#
#
# Mechanical properties :
#
#
# Convention : Reuss Voigt Hill
#
# Bulk Modulus (GPa) = 21.86614 23.58351 22.72482
# Shear Modulus (GPa) = 58.78778 18.65223 38.72000
#
# Velocity S-wave (km/s) = 5.47317 3.08291 4.44184
# Velocity P-wave (km/s) = 7.14722 4.96885 6.15517
#
# Compressibility (1/GPa) = 0.04573282
#
# Stress axis : x y z
#
# Youngs Moduli (GPa) = 41.46311 69.76246 41.95275
#
# Poissons Ratio (x) = 0.29974 0.11546
# Poissons Ratio (y) = 0.17815 0.05157
# Poissons Ratio (z) = 0.11411 0.08575
#
# Static dielectric constant tensor:
#      x y z
#    x 1.797130 0.000000 0.000000 
#    y 0.000000 1.677000 0.000000 
#    z 0.000000 0.000000 1.679810 
# 
# From -- ./inp_files/6517.got.cif
#   From: 2010.05.17/outbox.cif.g08.bks.cpg/sg34_4_cif.got.tgz:6517.got - 2010.06.03 17:23:11.
