data_PCOD9347399
_publ_section_title
;
Structure prediction by ZEFSAII (Michael W. Deem and Ramdas Pophale) SiO2 
 PCOD9347399
Probable space group: P N N 2
;
_chemical_formula_sum "Si O2"
_cell_formula_units_Z 30
_cell_length_a 7.142924
_cell_length_b 20.447466
_cell_length_c 8.823790
_cell_angle_alpha 90.000000
_cell_angle_beta 90.000000
_cell_angle_gamma 90.000000
_cell_volume 1288.755963
_symmetry_space_group_name_H-M "P N N 2"
_symmetry_group_IT_number 34
_symmetry_cell_setting 'orthorhombic'
loop_
_space_group_symop_operation_xyz
x,y,z
-x,-y,z
1/2-x,1/2+y,1/2+z
1/2+x,1/2-y,1/2+z
loop_
_atom_site_type_symbol
_atom_site_label
_atom_site_fract_x
_atom_site_fract_y
_atom_site_fract_z
Si Si1 0.210896 0.297297 0.981410
Si Si2 0.340726 0.049927 0.702778
Si Si3 0.734403 0.814736 0.774199
Si Si4 0.354012 0.356263 0.282808
Si Si5 0.000000 0.000000 0.491283
Si Si6 0.284738 0.480661 0.477293
Si Si7 0.215715 0.903949 0.260951
Si Si8 0.154038 0.784006 0.057624
O O1 0.326494 0.237463 0.901966
O O2 0.159161 0.354290 0.860161
O O3 0.314310 0.336073 0.113548
O O4 0.031529 0.258798 0.041133
O O5 0.388752 0.126989 0.703761
O O6 0.314455 0.037349 0.883720
O O7 0.156245 0.033607 0.601259
O O8 0.500000 0.000000 0.647182
O O9 0.925561 0.850840 0.818843
O O10 0.792579 0.763504 0.644618
O O11 0.287928 0.425394 0.345520
O O12 0.266866 0.303459 0.395861
O O13 0.905667 0.053550 0.379120
O O14 0.500000 0.500000 0.510973
O O15 0.201761 0.452873 0.633660
O O16 0.112487 0.850297 0.152440
#
# Coordination Sequence:
#
# PCOD9347399 Si02
#       8
#     4   4   4   4   2   4   4   4
#     4  10  21  38  61  92 123 163 217 264 330 389
#     4  12  26  42  66 100 129 179 223 271 337 400
#     4  10  21  40  56  89 128 153 213 264 316 394
#     4  10  20  38  65  85 119 168 205 256 329 386
#     4  12  24  44  74  96 138 176 226 282 330 410
#     4  11  20  42  66  87 125 171 220 263 331 402
#     4  10  22  39  68  96 124 176 220 272 344 393
#     4   9  22  38  61  93 126 163 212 266 326 401
#
# _framework density 23.278264
#
# number of rings (size 3 to 8) (size 9 to 14) (size 15 to 20)
#    0.000    1.600    2.667    1.600    3.733    3.200 
#    7.200    0.667    0.000    0.000    0.000    0.000 
#    0.000    0.000    0.000    0.000    0.000    0.000 
#
# Total GULP energy -167247.191212 kJ/mol
# GULP energy per Si atom -5574.906374 kJ/mol
# Density = 2.322528 g / cm^3
# Si number density = 23.278264 Si / 1000 Ang^3
#
#
#
# Elastic Constant Matrix: (Units=GPa)
#
#
# Indices 1 2 3 4 5 6 
#
# 1 37.4877 12.9934 8.0882 0.0000 0.0000 0.0000
# 2 12.9934 133.4991 63.2633 0.0000 0.0000 0.0000
# 3 8.0882 63.2633 133.5561 0.0000 0.0000 0.0000
# 4 0.0000 0.0000 0.0000 30.6421 0.0000 0.0000
# 5 0.0000 0.0000 0.0000 0.0000 17.4627 0.0000
# 6 0.0000 0.0000 0.0000 0.0000 0.0000 25.4190
#
#
#
# Elastic Compliance Matrix: (Units=1/GPa)
#
#
# Indices 1 2 3 4 5 6 
#
# 1 0.027634 -0.002446 -0.000515 0.000000 0.000000 0.000000
# 2 -0.002446 0.009875 -0.004530 0.000000 0.000000 0.000000
# 3 -0.000515 -0.004530 0.009664 0.000000 0.000000 0.000000
# 4 0.000000 0.000000 0.000000 0.032635 0.000000 0.000000
# 5 0.000000 0.000000 0.000000 0.000000 0.057265 0.000000
# 6 0.000000 0.000000 0.000000 0.000000 0.000000 0.039341
#
#
# Mechanical properties :
#
#
# Convention : Reuss Voigt Hill
#
# Bulk Modulus (GPa) = 31.06247 52.58138 41.82192
# Shear Modulus (GPa) = 24.73706 29.38461 27.06084
#
# Velocity S-wave (km/s) = 3.26340 3.55677 3.41324
# Velocity P-wave (km/s) = 5.25096 6.28528 5.79126
#
# Compressibility (1/GPa) = 0.03219319
#
# Stress axis : x y z
#
# Youngs Moduli (GPa) = 36.18704 101.26339 103.47363
#
# Poissons Ratio (x) = 0.24764 0.05330
# Poissons Ratio (y) = 0.08850 0.46870
# Poissons Ratio (z) = 0.01864 0.45869
#
# Static dielectric constant tensor:
#      x y z
#    x 1.931560 0.000000 0.000000 
#    y 0.000000 1.913160 0.000000 
#    z 0.000000 0.000000 1.929870 
# 
# From -- ./inp_files/2886.got.cif
#   From: 2010.05.17/outbox.cif.g08.bks.cpg/sg34_2_cif.got.tgz:2886.got - 2010.06.03 17:23:11.
