data_PCOD9347402
_publ_section_title
;
Structure prediction by ZEFSAII (Michael W. Deem and Ramdas Pophale) SiO2 
 PCOD9347402
Probable space group: P N N 2
;
_chemical_formula_sum "Si O2"
_cell_formula_units_Z 24
_cell_length_a 8.257193
_cell_length_b 5.546509
_cell_length_c 24.832964
_cell_angle_alpha 90.000000
_cell_angle_beta 90.000000
_cell_angle_gamma 90.000000
_cell_volume 1137.314868
_symmetry_space_group_name_H-M "P N N 2"
_symmetry_group_IT_number 34
_symmetry_cell_setting 'orthorhombic'
loop_
_space_group_symop_operation_xyz
x,y,z
-x,-y,z
1/2-x,1/2+y,1/2+z
1/2+x,1/2-y,1/2+z
loop_
_atom_site_type_symbol
_atom_site_label
_atom_site_fract_x
_atom_site_fract_y
_atom_site_fract_z
Si Si1 0.000000 0.500000 0.168211
Si Si2 0.312294 0.445879 0.937053
Si Si3 0.179025 0.877658 0.109696
Si Si4 0.500000 0.500000 0.262551
Si Si5 0.808559 0.056069 0.988405
Si Si6 0.678337 0.121645 0.319177
Si Si7 0.253299 0.148655 0.213574
O O1 0.137574 0.609464 0.129406
O O2 0.092730 0.307164 0.204430
O O3 0.500000 0.500000 0.945074
O O4 0.221929 0.688541 0.958340
O O5 0.271227 0.411774 0.874195
O O6 0.269581 0.188863 0.964715
O O7 0.272893 0.999598 0.158754
O O8 0.247188 0.904166 0.050254
O O9 0.000000 0.000000 0.108244
O O10 0.637082 0.392836 0.301563
O O11 0.411958 0.306313 0.225480
O O12 0.000000 0.000000 0.987640
O O13 0.500000 0.000000 0.325125
O O14 0.763807 0.009863 0.267024
#
# Coordination Sequence:
#
# PCOD9347402 Si02
#       7
#     2   4   4   2   4   4   4
#     4  10  20  38  66  98 132 170 220 284 336 408
#     4  12  28  47  69 106 144 179 233 300 357 404
#     4   9  21  38  66  98 128 174 230 275 332 409
#     4  10  22  40  64  96 132 174 224 278 334 424
#     4  11  25  47  76 101 136 191 241 281 340 424
#     4  10  23  42  65  95 128 182 234 274 338 422
#     4  10  21  39  63 101 130 169 218 278 338 407
#
# _framework density 21.102336999999999
#
# number of rings (size 3 to 8) (size 9 to 14) (size 15 to 20)
#    0.000    1.667    0.000    3.000   12.833    3.333 
#    1.500    5.000    0.000    0.000    0.000    0.000 
#    0.000    0.000    0.000    0.000    0.000    0.000 
#
# Total GULP energy -134023.693106 kJ/mol
# GULP energy per Si atom -5584.320546 kJ/mol
# Density = 2.105431 g / cm^3
# Si number density = 21.102337 Si / 1000 Ang^3
#
#
#
# Elastic Constant Matrix: (Units=GPa)
#
#
# Indices 1 2 3 4 5 6 
#
# 1 50.9179 27.8687 39.6593 0.0000 0.0000 0.0000
# 2 27.8687 132.6033 90.3398 0.0000 0.0000 0.0000
# 3 39.6593 90.3398 193.3452 0.0000 0.0000 0.0000
# 4 0.0000 0.0000 0.0000 11.5766 0.0000 0.0000
# 5 0.0000 0.0000 0.0000 0.0000 29.8507 0.0000
# 6 0.0000 0.0000 0.0000 0.0000 0.0000 37.1467
#
#
#
# Elastic Compliance Matrix: (Units=1/GPa)
#
#
# Indices 1 2 3 4 5 6 
#
# 1 0.023913 -0.002470 -0.003751 0.000000 0.000000 0.000000
# 2 -0.002470 0.011318 -0.004782 0.000000 0.000000 0.000000
# 3 -0.003751 -0.004782 0.008176 0.000000 0.000000 0.000000
# 4 0.000000 0.000000 0.000000 0.086381 0.000000 0.000000
# 5 0.000000 0.000000 0.000000 0.000000 0.033500 0.000000
# 6 0.000000 0.000000 0.000000 0.000000 0.000000 0.026920
#
#
# Mechanical properties :
#
#
# Convention : Reuss Voigt Hill
#
# Bulk Modulus (GPa) = 46.72635 76.95576 61.84105
# Shear Modulus (GPa) = 22.79487 30.31471 26.55479
#
# Velocity S-wave (km/s) = 3.29021 3.79431 3.55122
# Velocity P-wave (km/s) = 6.05184 7.46611 6.79586
#
# Compressibility (1/GPa) = 0.02140120
#
# Stress axis : x y z
#
# Youngs Moduli (GPa) = 41.81828 88.35422 122.31439
#
# Poissons Ratio (x) = 0.21827 0.45878
# Poissons Ratio (y) = 0.10331 0.58486
# Poissons Ratio (z) = 0.15685 0.42248
#
# Static dielectric constant tensor:
#      x y z
#    x 1.758600 0.000000 0.000000 
#    y 0.000000 1.862510 0.000000 
#    z 0.000000 0.000000 1.735940 
# 
# From -- ./inp_files/8398.got.cif
#   From: 2010.05.17/outbox.cif.g08.bks.cpg/sg34_5_cif.got.tgz:8398.got - 2010.06.03 17:23:11.
