data_PCOD9347751
_publ_section_title
;
Structure prediction by ZEFSAII (Michael W. Deem and Ramdas Pophale) SiO2 
 PCOD9347751
Probable space group: P N N 2
;
_chemical_formula_sum "Si O2"
_cell_formula_units_Z 30
_cell_length_a 18.721549
_cell_length_b 9.812851
_cell_length_c 8.519015
_cell_angle_alpha 90.000000
_cell_angle_beta 90.000000
_cell_angle_gamma 90.000000
_cell_volume 1565.043331
_symmetry_space_group_name_H-M "P N N 2"
_symmetry_group_IT_number 34
_symmetry_cell_setting 'orthorhombic'
loop_
_space_group_symop_operation_xyz
x,y,z
-x,-y,z
1/2-x,1/2+y,1/2+z
1/2+x,1/2-y,1/2+z
loop_
_atom_site_type_symbol
_atom_site_label
_atom_site_fract_x
_atom_site_fract_y
_atom_site_fract_z
Si Si1 0.753483 0.566508 0.697470
Si Si2 0.584510 0.758600 0.354619
Si Si3 0.179965 0.511576 0.006579
Si Si4 0.448366 0.804947 0.547396
Si Si5 0.500000 0.000000 0.822719
Si Si6 0.873836 0.971571 0.992430
Si Si7 0.253897 0.144322 0.786567
Si Si8 0.629073 0.880883 0.029195
O O1 0.677316 0.524693 0.630399
O O2 0.763564 0.726853 0.680300
O O3 0.818357 0.491516 0.609148
O O4 0.761549 0.524704 0.877970
O O5 0.641538 0.848755 0.452956
O O6 0.508052 0.813753 0.412196
O O7 0.591123 0.601473 0.406995
O O8 0.599650 0.788107 0.171470
O O9 0.120653 0.394038 0.004179
O O10 0.212817 0.527433 0.178135
O O11 0.478663 0.875382 0.705706
O O12 0.425713 0.646769 0.554776
O O13 0.565353 0.950539 0.931530
O O14 0.816833 0.903888 0.873476
O O15 0.316270 0.189121 0.907275
#
# Coordination Sequence:
#
# PCOD9347751 Si02
#       8
#     4   4   4   4   2   4   4   4
#     4  10  23  40  63  98 128 168 211 273 328 395
#     4  11  23  42  64  92 131 175 213 276 327 397
#     4  11  21  39  69  89 124 172 217 266 329 389
#     4  12  23  42  65  95 124 179 222 264 332 403
#     4  12  24  42  70  96 130 174 230 284 312 408
#     4  11  25  40  66  95 134 168 215 274 336 392
#     4  11  21  41  62  95 133 163 218 270 333 393
#     4  10  25  39  65  96 127 169 224 270 328 389
#
# _framework density 19.168799
#
# number of rings (size 3 to 8) (size 9 to 14) (size 15 to 20)
#    0.000    1.067    5.333    0.400    5.600    2.133 
#    0.000    0.000    2.933    0.000    0.000    0.000 
#    0.000    0.000    0.000    0.000    0.000    0.000 
#
# Total GULP energy -167488.295619 kJ/mol
# GULP energy per Si atom -5582.943187 kJ/mol
# Density = 1.912517 g / cm^3
# Si number density = 19.168799 Si / 1000 Ang^3
#
#
#
# Elastic Constant Matrix: (Units=GPa)
#
#
# Indices 1 2 3 4 5 6 
#
# 1 65.1393 33.8126 44.3520 0.0000 0.0000 0.0000
# 2 33.8126 108.8467 30.5778 0.0000 0.0000 0.0000
# 3 44.3520 30.5778 99.6685 0.0000 0.0000 0.0000
# 4 0.0000 0.0000 0.0000 20.3597 0.0000 0.0000
# 5 0.0000 0.0000 0.0000 0.0000 7.5534 0.0000
# 6 0.0000 0.0000 0.0000 0.0000 0.0000 15.0415
#
#
#
# Elastic Compliance Matrix: (Units=1/GPa)
#
#
# Indices 1 2 3 4 5 6 
#
# 1 0.024214 -0.004919 -0.009266 0.000000 0.000000 0.000000
# 2 -0.004919 0.011053 -0.001202 0.000000 0.000000 0.000000
# 3 -0.009266 -0.001202 0.014525 0.000000 0.000000 0.000000
# 4 0.000000 0.000000 0.000000 0.049117 0.000000 0.000000
# 5 0.000000 0.000000 0.000000 0.000000 0.132390 0.000000
# 6 0.000000 0.000000 0.000000 0.000000 0.000000 0.066483
#
#
# Mechanical properties :
#
#
# Convention : Reuss Voigt Hill
#
# Bulk Modulus (GPa) = 52.58083 54.57103 53.57593
# Shear Modulus (GPa) = 14.93003 19.58506 17.25755
#
# Velocity S-wave (km/s) = 2.79385 3.19990 3.00374
# Velocity P-wave (km/s) = 6.15609 6.49484 6.32773
#
# Compressibility (1/GPa) = 0.01901834
#
# Stress axis : x y z
#
# Youngs Moduli (GPa) = 41.29830 90.47355 68.84488
#
# Poissons Ratio (x) = 0.44503 0.63792
# Poissons Ratio (y) = 0.20314 0.08276
# Poissons Ratio (z) = 0.38267 0.10876
#
# Static dielectric constant tensor:
#      x y z
#    x 1.656890 0.000000 0.000000 
#    y 0.000000 1.690100 0.000000 
#    z 0.000000 0.000000 1.675500 
# 
# From -- ./inp_files/3997.got.cif
#   From: 2010.05.17/outbox.cif.g08.bks.cpg/sg34_2_cif.got.tgz:3997.got - 2010.06.03 17:23:11.
