data_PCOD9347390
_publ_section_title
;
Structure prediction by ZEFSAII (Michael W. Deem and Ramdas Pophale) SiO2 
 PCOD9347390
Probable space group: P N N 2
;
_chemical_formula_sum "Si O2"
_cell_formula_units_Z 24
_cell_length_a 5.198526
_cell_length_b 20.435109
_cell_length_c 11.675468
_cell_angle_alpha 90.000000
_cell_angle_beta 90.000000
_cell_angle_gamma 90.000000
_cell_volume 1240.313517
_symmetry_space_group_name_H-M "P N N 2"
_symmetry_group_IT_number 34
_symmetry_cell_setting 'orthorhombic'
loop_
_space_group_symop_operation_xyz
x,y,z
-x,-y,z
1/2-x,1/2+y,1/2+z
1/2+x,1/2-y,1/2+z
loop_
_atom_site_type_symbol
_atom_site_label
_atom_site_fract_x
_atom_site_fract_y
_atom_site_fract_z
Si Si1 0.000000 0.500000 0.181530
Si Si2 0.500000 0.500000 0.022394
Si Si3 0.949325 0.317428 0.778127
Si Si4 0.717427 0.732094 0.094414
Si Si5 0.969054 0.811455 0.918796
Si Si6 0.055315 0.360357 0.297169
Si Si7 0.439837 0.365714 0.887691
O O1 0.250203 0.503320 0.102048
O O2 0.985554 0.566175 0.254521
O O3 0.484388 0.434816 0.947272
O O4 0.986820 0.277316 0.661043
O O5 0.951575 0.258022 0.867242
O O6 0.674906 0.349501 0.803497
O O7 0.179722 0.364065 0.814026
O O8 0.856779 0.684590 0.187446
O O9 0.599846 0.687964 0.991539
O O10 0.902852 0.788946 0.045999
O O11 0.207574 0.857183 0.886760
O O12 0.706873 0.834486 0.855374
#
# Coordination Sequence:
#
# PCOD9347390 Si02
#       7
#     2   2   4   4   4   4   4
#     4  12  24  40  62  86 122 164 194 250 304 360
#     4  12  24  40  62  86 122 164 194 250 304 360
#     4  10  22  36  57  88 120 157 191 246 297 351
#     4  10  20  38  60  88 122 152 192 248 298 358
#     4  10  22  36  57  88 120 157 191 246 297 351
#     4  11  23  38  58  90 121 152 200 240 300 355
#     4  11  23  38  58  90 121 152 200 240 300 355
#
# _framework density 19.349945999999999
#
# number of rings (size 3 to 8) (size 9 to 14) (size 15 to 20)
#    0.000    1.333    1.667    6.000    4.667    6.667 
#    0.000    0.000    0.000    4.000    0.000    0.000 
#    0.000    0.000    0.000    0.000    0.000    0.000 
#
# Total GULP energy -133848.130795 kJ/mol
# GULP energy per Si atom -5577.005450 kJ/mol
# Density = 1.930590 g / cm^3
# Si number density = 19.349946 Si / 1000 Ang^3
#
#
#
# Elastic Constant Matrix: (Units=GPa)
#
#
# Indices 1 2 3 4 5 6 
#
# 1 125.3250 38.0279 19.2662 0.0000 0.0000 0.0000
# 2 38.0279 119.0000 38.5226 0.0000 0.0000 0.0000
# 3 19.2662 38.5226 48.4702 0.0000 0.0000 0.0000
# 4 0.0000 0.0000 0.0000 38.1031 0.0000 0.0000
# 5 0.0000 0.0000 0.0000 0.0000 56.1137 0.0000
# 6 0.0000 0.0000 0.0000 0.0000 0.0000 19.8864
#
#
#
# Elastic Compliance Matrix: (Units=1/GPa)
#
#
# Indices 1 2 3 4 5 6 
#
# 1 0.008942 -0.002298 -0.001728 0.000000 0.000000 0.000000
# 2 -0.002298 0.011905 -0.008548 0.000000 0.000000 0.000000
# 3 -0.001728 -0.008548 0.028112 0.000000 0.000000 0.000000
# 4 0.000000 0.000000 0.000000 0.026245 0.000000 0.000000
# 5 0.000000 0.000000 0.000000 0.000000 0.017821 0.000000
# 6 0.000000 0.000000 0.000000 0.000000 0.000000 0.050286
#
#
# Mechanical properties :
#
#
# Convention : Reuss Voigt Hill
#
# Bulk Modulus (GPa) = 41.99823 53.82540 47.91181
# Shear Modulus (GPa) = 28.34536 35.95253 32.14895
#
# Velocity S-wave (km/s) = 3.83153 4.31515 4.08051
# Velocity P-wave (km/s) = 6.42852 7.25979 6.85676
#
# Compressibility (1/GPa) = 0.02381053
#
# Stress axis : x y z
#
# Youngs Moduli (GPa) = 111.82865 83.99821 35.57219
#
# Poissons Ratio (x) = 0.19305 0.06146
# Poissons Ratio (y) = 0.25701 0.30408
# Poissons Ratio (z) = 0.19322 0.71803
#
# Static dielectric constant tensor:
#      x y z
#    x 1.750760 0.000000 0.000000 
#    y 0.000000 1.640830 0.000000 
#    z 0.000000 0.000000 1.769180 
# 
# From -- ./inp_files/4462.got.cif
#   From: 2010.05.17/outbox.cif.g08.bks.cpg/sg34_3_cif.got.tgz:4462.got - 2010.06.03 17:23:11.
