data_PCOD9347249
_publ_section_title
;
Structure prediction by ZEFSAII (Michael W. Deem and Ramdas Pophale) SiO2 
 PCOD9347249
Probable space group: P N N 2
;
_chemical_formula_sum "Si O2"
_cell_formula_units_Z 24
_cell_length_a 10.992735
_cell_length_b 11.883541
_cell_length_c 8.409433
_cell_angle_alpha 90.000000
_cell_angle_beta 90.000000
_cell_angle_gamma 90.000000
_cell_volume 1098.546241
_symmetry_space_group_name_H-M "P N N 2"
_symmetry_group_IT_number 34
_symmetry_cell_setting 'orthorhombic'
loop_
_space_group_symop_operation_xyz
x,y,z
-x,-y,z
1/2-x,1/2+y,1/2+z
1/2+x,1/2-y,1/2+z
loop_
_atom_site_type_symbol
_atom_site_label
_atom_site_fract_x
_atom_site_fract_y
_atom_site_fract_z
Si Si1 0.712969 0.654798 0.376590
Si Si2 0.509694 0.237707 0.546214
Si Si3 0.285928 0.924999 0.524646
Si Si4 0.445306 0.383633 0.825978
Si Si5 0.338405 0.653565 0.059838
Si Si6 0.624021 0.427390 0.407400
O O1 0.586745 0.720520 0.414382
O O2 0.736875 0.629536 0.191163
O O3 0.805665 0.731266 0.473559
O O4 0.713887 0.528635 0.447287
O O5 0.577225 0.121547 0.515571
O O6 0.453145 0.272921 0.715257
O O7 0.616197 0.332052 0.538117
O O8 0.192868 0.891723 0.384833
O O9 0.266037 0.059463 0.527529
O O10 0.500000 0.500000 0.746174
O O11 0.533896 0.377974 0.978155
O O12 0.350705 0.641762 0.247456
O O13 0.500000 0.500000 0.381334
#
# Coordination Sequence:
#
# PCOD9347249 Si02
#       6
#     4   4   4   4   4   4
#     4  10  20  37  57  83 118 154 190 242 291 352
#     4  11  21  36  59  88 114 150 196 244 291 354
#     4  10  22  38  57  88 117 149 199 243 286 357
#     4  10  19  35  60  86 112 152 198 239 286 346
#     4  10  19  36  61  82 116 157 188 239 301 345
#     4   9  19  36  56  83 115 150 199 243 283 350
#
# _framework density 21.847055000000001
#
# number of rings (size 3 to 8) (size 9 to 14) (size 15 to 20)
#    0.000    2.000    1.667    5.000    2.333    0.667 
#    0.000    0.000    0.000    1.000    0.000    0.000 
#    0.000    0.000    0.000    0.000    0.000    0.000 
#
# Total GULP energy -133658.437348 kJ/mol
# GULP energy per Si atom -5569.101556 kJ/mol
# Density = 2.179733 g / cm^3
# Si number density = 21.847055 Si / 1000 Ang^3
#
#
#
# Elastic Constant Matrix: (Units=GPa)
#
#
# Indices 1 2 3 4 5 6 
#
# 1 25.8689 -1.5509 -2.3607 0.0000 0.0000 0.0000
# 2 -1.5509 63.1061 24.3273 0.0000 0.0000 0.0000
# 3 -2.3607 24.3273 49.6437 0.0000 0.0000 0.0000
# 4 0.0000 0.0000 0.0000 24.3391 0.0000 0.0000
# 5 0.0000 0.0000 0.0000 0.0000 22.9173 0.0000
# 6 0.0000 0.0000 0.0000 0.0000 0.0000 30.9562
#
#
#
# Elastic Compliance Matrix: (Units=1/GPa)
#
#
# Indices 1 2 3 4 5 6 
#
# 1 0.038830 0.000299 0.001700 0.000000 0.000000 0.000000
# 2 0.000299 0.019539 -0.009561 0.000000 0.000000 0.000000
# 3 0.001700 -0.009561 0.024910 0.000000 0.000000 0.000000
# 4 0.000000 0.000000 0.000000 0.041086 0.000000 0.000000
# 5 0.000000 0.000000 0.000000 0.000000 0.043635 0.000000
# 6 0.000000 0.000000 0.000000 0.000000 0.000000 0.032304
#
#
# Mechanical properties :
#
#
# Convention : Reuss Voigt Hill
#
# Bulk Modulus (GPa) = 14.67251 19.93890 17.30571
# Shear Modulus (GPa) = 20.99557 23.52272 22.25914
#
# Velocity S-wave (km/s) = 3.10340 3.28487 3.19543
# Velocity P-wave (km/s) = 4.42403 4.85114 4.64250
#
# Compressibility (1/GPa) = 0.06815464
#
# Stress axis : x y z
#
# Youngs Moduli (GPa) = 25.75357 51.17878 40.14527
#
# Poissons Ratio (x) = -0.01530 -0.06824
# Poissons Ratio (y) = -0.00770 0.38382
# Poissons Ratio (z) = -0.04378 0.48931
#
# Static dielectric constant tensor:
#      x y z
#    x 1.903550 0.000000 0.000000 
#    y 0.000000 1.862340 0.000000 
#    z 0.000000 0.000000 1.809740 
# 
# From -- ./inp_files/3150.got.cif
#   From: 2010.05.17/outbox.cif.g08.bks.cpg/sg34_2_cif.got.tgz:3150.got - 2010.06.03 17:23:11.
