data_PCOD9347633
_publ_section_title
;
Structure prediction by ZEFSAII (Michael W. Deem and Ramdas Pophale) SiO2 
 PCOD9347633
Probable space group: P N N 2
;
_chemical_formula_sum "Si O2"
_cell_formula_units_Z 24
_cell_length_a 13.075041
_cell_length_b 5.430773
_cell_length_c 18.269550
_cell_angle_alpha 90.000000
_cell_angle_beta 90.000000
_cell_angle_gamma 90.000000
_cell_volume 1297.276527
_symmetry_space_group_name_H-M "P N N 2"
_symmetry_group_IT_number 34
_symmetry_cell_setting 'orthorhombic'
loop_
_space_group_symop_operation_xyz
x,y,z
-x,-y,z
1/2-x,1/2+y,1/2+z
1/2+x,1/2-y,1/2+z
loop_
_atom_site_type_symbol
_atom_site_label
_atom_site_fract_x
_atom_site_fract_y
_atom_site_fract_z
Si Si1 0.785389 1.000000 0.161030
Si Si2 0.817386 0.500000 0.504458
Si Si3 0.211282 0.000002 0.849501
Si Si4 0.879093 0.500000 0.222315
Si Si5 1.000000 0.751586 0.445542
Si Si6 0.880129 0.499998 0.788356
O O1 0.744752 0.999999 0.078359
O O2 0.846889 0.750125 0.179610
O O3 0.687099 0.999999 0.214707
O O4 0.846889 0.249876 0.179610
O O5 0.746788 0.500000 0.433205
O O6 0.898766 0.724289 0.494776
O O7 0.898766 0.275711 0.494776
O O8 0.310656 0.000001 0.796298
O O9 0.150474 0.250329 0.831167
O O10 0.150473 0.749676 0.831166
O O11 0.000000 0.500000 0.233533
O O12 0.000000 0.500000 0.400543
O O13 0.000000 0.000000 0.401480
O O14 0.000000 0.500000 0.772798
#
# Coordination Sequence:
#
# PCOD9347633 Si02
#       6
#     4   4   4   4   4   4
#     4  10  22  38  61  85 112 153 184 241 279 333
#     4   9  22  36  59  86 118 136 199 234 287 326
#     4  10  22  38  61  85 112 153 184 241 279 333
#     4  10  22  40  58  82 117 152 192 224 283 341
#     4   8  20  32  52  86 114 146 170 232 302 318
#     4  10  22  40  58  82 117 152 192 224 283 341
#
# _framework density 18.500295000000001
#
# number of rings (size 3 to 8) (size 9 to 14) (size 15 to 20)
#    1.000    1.333    0.000    1.000    9.333    0.000 
#    0.000    5.000    0.000    0.000    0.000    0.000 
#    0.000    0.000    0.000    0.000    0.000    0.000 
#
# Total GULP energy -133615.609727 kJ/mol
# GULP energy per Si atom -5567.317072 kJ/mol
# Density = 1.845819 g / cm^3
# Si number density = 18.500295 Si / 1000 Ang^3
#
#
#
# Elastic Constant Matrix: (Units=GPa)
#
#
# Indices 1 2 3 4 5 6 
#
# 1 138.3636 61.3027 45.2596 0.0000 0.0000 0.0000
# 2 61.3027 188.1401 47.6565 0.0000 0.0000 0.0000
# 3 45.2596 47.6565 120.1705 0.0000 0.0000 0.0000
# 4 0.0000 0.0000 0.0000 6.9183 0.0000 0.0000
# 5 0.0000 0.0000 0.0000 0.0000 15.1027 0.0000
# 6 0.0000 0.0000 0.0000 0.0000 0.0000 -12.8730
#
#
#
# Elastic Compliance Matrix: (Units=1/GPa)
#
#
# Indices 1 2 3 4 5 6 
#
# 1 0.009073 -0.002324 -0.002496 0.000000 0.000000 0.000000
# 2 -0.002324 0.006504 -0.001704 0.000000 0.000000 0.000000
# 3 -0.002496 -0.001704 0.009937 0.000000 0.000000 0.000000
# 4 0.000000 0.000000 0.000000 0.144544 0.000000 0.000000
# 5 0.000000 0.000000 0.000000 0.000000 0.066213 0.000000
# 6 0.000000 0.000000 0.000000 0.000000 0.000000 -0.077682
#
#
# Mechanical properties :
#
#
# Convention : Reuss Voigt Hill
#
# Bulk Modulus (GPa) = 80.21131 83.90131 82.05631
# Shear Modulus (GPa) = 28.44249 21.32663 24.88456
#
# Velocity S-wave (km/s) = 3.92523 3.39893 3.67153
# Velocity P-wave (km/s) = 7.99964 7.80086 7.90087
#
# Compressibility (1/GPa) = 0.01246707
#
# Stress axis : x y z
#
# Youngs Moduli (GPa) = 110.21172 153.74791 100.63242
#
# Poissons Ratio (x) = 0.35736 0.25113
# Poissons Ratio (y) = 0.25617 0.17147
# Poissons Ratio (z) = 0.27504 0.26198
#
# Static dielectric constant tensor:
#      x y z
#    x 1.634430 0.000000 0.000000 
#    y 0.000000 1.715310 0.000000 
#    z 0.000000 0.000000 1.586770 
# 
# From -- ./inp_files/7668.got.cif
#   From: 2010.05.17/outbox.cif.g08.bks.cpg/sg34_4_cif.got.tgz:7668.got - 2010.06.03 17:23:11.
