data_PCOD9347655
_publ_section_title
;
Structure prediction by ZEFSAII (Michael W. Deem and Ramdas Pophale) SiO2 
 PCOD9347655
Probable space group: P N N 2
;
_chemical_formula_sum "Si O2"
_cell_formula_units_Z 26
_cell_length_a 7.830167
_cell_length_b 15.136821
_cell_length_c 10.362711
_cell_angle_alpha 90.000000
_cell_angle_beta 90.000000
_cell_angle_gamma 90.000000
_cell_volume 1228.228262
_symmetry_space_group_name_H-M "P N N 2"
_symmetry_group_IT_number 34
_symmetry_cell_setting 'orthorhombic'
loop_
_space_group_symop_operation_xyz
x,y,z
-x,-y,z
1/2-x,1/2+y,1/2+z
1/2+x,1/2-y,1/2+z
loop_
_atom_site_type_symbol
_atom_site_label
_atom_site_fract_x
_atom_site_fract_y
_atom_site_fract_z
Si Si1 0.691325 0.534498 0.917500
Si Si2 0.719638 0.207879 0.295713
Si Si3 0.858424 0.323939 0.514642
Si Si4 0.500000 0.000000 0.891355
Si Si5 0.669758 0.860534 0.295377
Si Si6 0.824616 0.796714 0.550774
Si Si7 0.302994 0.511967 0.187548
O O1 0.500000 0.500000 0.930815
O O2 0.676169 0.624626 0.842536
O O3 0.802027 0.461209 0.842756
O O4 0.750710 0.548882 0.064967
O O5 0.745400 0.289125 0.395037
O O6 0.526299 0.171028 0.297458
O O7 0.771270 0.233771 0.151418
O O8 0.968250 0.410661 0.473772
O O9 0.766519 0.347102 0.649246
O O10 0.985779 0.242773 0.545854
O O11 0.667272 0.003450 0.799811
O O12 0.760674 0.803050 0.405543
O O13 0.803534 0.891428 0.619929
O O14 0.500000 0.500000 0.229801
#
# Coordination Sequence:
#
# PCOD9347655 Si02
#       7
#     4   4   4   2   4   4   4
#     4  10  22  40  65  98 132 176 226 279 343 418
#     4  11  22  39  67  94 130 168 231 280 330 416
#     4  11  25  43  65  97 142 173 228 295 341 410
#     4  12  26  42  70 100 142 190 228 288 366 414
#     4  10  24  41  68  94 134 177 223 281 351 406
#     4  10  23  44  64  98 128 179 227 282 342 416
#     4  10  22  44  69  99 137 178 235 281 346 424
#
# _framework density 21.168704000000002
#
# number of rings (size 3 to 8) (size 9 to 14) (size 15 to 20)
#    0.000    1.538    1.538    3.231    8.615    6.154 
#    0.000    0.769    0.000    0.000    0.000    0.000 
#    0.000    0.000    0.000    0.000    0.000    0.000 
#
# Total GULP energy -145077.258954 kJ/mol
# GULP energy per Si atom -5579.894575 kJ/mol
# Density = 2.112052 g / cm^3
# Si number density = 21.168704 Si / 1000 Ang^3
#
#
#
# Elastic Constant Matrix: (Units=GPa)
#
#
# Indices 1 2 3 4 5 6 
#
# 1 40.8559 10.8116 31.1103 0.0000 0.0000 0.0000
# 2 10.8116 88.8035 45.6882 0.0000 0.0000 0.0000
# 3 31.1103 45.6882 157.9003 0.0000 0.0000 0.0000
# 4 0.0000 0.0000 0.0000 36.5344 0.0000 0.0000
# 5 0.0000 0.0000 0.0000 0.0000 22.4398 0.0000
# 6 0.0000 0.0000 0.0000 0.0000 0.0000 33.3111
#
#
#
# Elastic Compliance Matrix: (Units=1/GPa)
#
#
# Indices 1 2 3 4 5 6 
#
# 1 0.028833 -0.000690 -0.005481 0.000000 0.000000 0.000000
# 2 -0.000690 0.013247 -0.003697 0.000000 0.000000 0.000000
# 3 -0.005481 -0.003697 0.008483 0.000000 0.000000 0.000000
# 4 0.000000 0.000000 0.000000 0.027371 0.000000 0.000000
# 5 0.000000 0.000000 0.000000 0.000000 0.044564 0.000000
# 6 0.000000 0.000000 0.000000 0.000000 0.000000 0.030020
#
#
# Mechanical properties :
#
#
# Convention : Reuss Voigt Hill
#
# Bulk Modulus (GPa) = 32.44067 51.41998 41.93032
# Shear Modulus (GPa) = 27.39289 31.78703 29.58996
#
# Velocity S-wave (km/s) = 3.60116 3.87926 3.74279
# Velocity P-wave (km/s) = 5.71395 6.66395 6.20715
#
# Compressibility (1/GPa) = 0.03082551
#
# Stress axis : x y z
#
# Youngs Moduli (GPa) = 34.68306 75.48936 117.88710
#
# Poissons Ratio (x) = 0.05212 0.64613
# Poissons Ratio (y) = 0.02395 0.43582
# Poissons Ratio (z) = 0.19010 0.27908
#
# Static dielectric constant tensor:
#      x y z
#    x 1.789260 0.000000 0.000000 
#    y 0.000000 1.758140 0.000000 
#    z 0.000000 0.000000 1.820570 
# 
# From -- ./inp_files/2776.got.cif
#   From: 2010.05.17/outbox.cif.g08.bks.cpg/sg34_2_cif.got.tgz:2776.got - 2010.06.03 17:23:11.
