data_PCOD9347644
_publ_section_title
;
Structure prediction by ZEFSAII (Michael W. Deem and Ramdas Pophale) SiO2 
 PCOD9347644
Probable space group: P N N 2
;
_chemical_formula_sum "Si O2"
_cell_formula_units_Z 32
_cell_length_a 13.939832
_cell_length_b 17.462748
_cell_length_c 5.710468
_cell_angle_alpha 90.000000
_cell_angle_beta 90.000000
_cell_angle_gamma 90.000000
_cell_volume 1390.086510
_symmetry_space_group_name_H-M "P N N 2"
_symmetry_group_IT_number 34
_symmetry_cell_setting 'orthorhombic'
loop_
_space_group_symop_operation_xyz
x,y,z
-x,-y,z
1/2-x,1/2+y,1/2+z
1/2+x,1/2-y,1/2+z
loop_
_atom_site_type_symbol
_atom_site_label
_atom_site_fract_x
_atom_site_fract_y
_atom_site_fract_z
Si Si1 0.154454 0.854329 0.683460
Si Si2 0.690802 0.478758 0.181537
Si Si3 0.041117 0.610355 0.747047
Si Si4 0.840253 0.808573 0.685943
Si Si5 0.638840 0.769238 0.535286
Si Si6 0.201142 0.494255 0.676046
Si Si7 0.497393 0.753677 0.921993
Si Si8 0.852449 0.651358 0.908791
O O1 0.074014 0.803704 0.549044
O O2 0.263558 0.849749 0.586412
O O3 0.128920 0.943594 0.680272
O O4 0.158995 0.813356 0.931834
O O5 0.638483 0.397524 0.214964
O O6 0.753310 0.486357 0.422728
O O7 0.744989 0.480136 0.923374
O O8 0.096989 0.534351 0.681305
O O9 0.999318 0.661723 0.536120
O O10 0.955084 0.608523 0.938334
O O11 0.124894 0.666358 0.841121
O O12 0.726300 0.798267 0.689974
O O13 0.874188 0.739985 0.853167
O O14 0.892573 0.782428 0.446836
O O15 0.540778 0.761928 0.670452
O O16 0.189915 0.402898 0.702286
#
# Coordination Sequence:
#
# PCOD9347644 Si02
#       8
#     4   4   4   4   4   4   4   4
#     4  10  23  41  65  92 136 179 228 288 344 421
#     4  11  25  42  70  97 136 181 233 278 353 403
#     4  10  22  39  63 100 137 175 227 285 347 421
#     4  11  22  41  69  98 130 182 231 290 343 418
#     4  11  21  40  66  97 134 180 225 298 340 421
#     4  11  23  45  65 104 136 180 224 284 349 421
#     4  10  23  41  66  97 133 180 240 274 358 406
#     4  10  22  41  67  96 136 180 227 281 356 419
#
# _framework density 23.020149
#
# number of rings (size 3 to 8) (size 9 to 14) (size 15 to 20)
#    0.000    1.500    2.500    1.875    5.250    0.500 
#    6.750    2.500    0.000    0.000    0.000    0.000 
#    0.000    0.000    0.000    0.000    0.000    0.000 
#
# Total GULP energy -178234.829937 kJ/mol
# GULP energy per Si atom -5569.838436 kJ/mol
# Density = 2.296775 g / cm^3
# Si number density = 23.020149 Si / 1000 Ang^3
#
#
#
# Elastic Constant Matrix: (Units=GPa)
#
#
# Indices 1 2 3 4 5 6 
#
# 1 54.1052 6.1175 25.4997 0.0000 0.0000 0.0000
# 2 6.1175 135.5636 34.9067 0.0000 0.0000 0.0000
# 3 25.4997 34.9067 74.5868 0.0000 0.0000 0.0000
# 4 0.0000 0.0000 0.0000 18.3649 0.0000 0.0000
# 5 0.0000 0.0000 0.0000 0.0000 38.4993 0.0000
# 6 0.0000 0.0000 0.0000 0.0000 0.0000 36.4788
#
#
#
# Elastic Compliance Matrix: (Units=1/GPa)
#
#
# Indices 1 2 3 4 5 6 
#
# 1 0.022171 0.001082 -0.008086 0.000000 0.000000 0.000000
# 2 0.001082 0.008440 -0.004320 0.000000 0.000000 0.000000
# 3 -0.008086 -0.004320 0.018193 0.000000 0.000000 0.000000
# 4 0.000000 0.000000 0.000000 0.054452 0.000000 0.000000
# 5 0.000000 0.000000 0.000000 0.000000 0.025975 0.000000
# 6 0.000000 0.000000 0.000000 0.000000 0.000000 0.027413
#
#
# Mechanical properties :
#
#
# Convention : Reuss Voigt Hill
#
# Bulk Modulus (GPa) = 38.23193 44.14482 41.18838
# Shear Modulus (GPa) = 26.59415 31.85071 29.22243
#
# Velocity S-wave (km/s) = 3.40259 3.72371 3.56677
# Velocity P-wave (km/s) = 5.66400 6.14055 5.90708
#
# Compressibility (1/GPa) = 0.02615614
#
# Stress axis : x y z
#
# Youngs Moduli (GPa) = 45.10363 118.48186 54.96522
#
# Poissons Ratio (x) = -0.12815 0.44445
# Poissons Ratio (y) = -0.04878 0.23744
# Poissons Ratio (z) = 0.36471 0.51181
#
# Static dielectric constant tensor:
#      x y z
#    x 1.914680 0.000000 0.000000 
#    y 0.000000 1.876820 0.000000 
#    z 0.000000 0.000000 1.942730 
# 
# From -- ./inp_files/1323.got.cif
#   From: 2010.05.17/outbox.cif.g08.bks.cpg/sg34_1_cif.got.tgz:1323.got - 2010.06.03 17:23:11.
