data_PCOD9347223
_publ_section_title
;
Structure prediction by ZEFSAII (Michael W. Deem and Ramdas Pophale) SiO2 
 PCOD9347223
Probable space group: P N N 2
;
_chemical_formula_sum "Si O2"
_cell_formula_units_Z 32
_cell_length_a 23.499397
_cell_length_b 8.217368
_cell_length_c 9.054504
_cell_angle_alpha 90.000000
_cell_angle_beta 90.000000
_cell_angle_gamma 90.000000
_cell_volume 1748.453633
_symmetry_space_group_name_H-M "P N N 2"
_symmetry_group_IT_number 34
_symmetry_cell_setting 'orthorhombic'
loop_
_space_group_symop_operation_xyz
x,y,z
-x,-y,z
1/2-x,1/2+y,1/2+z
1/2+x,1/2-y,1/2+z
loop_
_atom_site_type_symbol
_atom_site_label
_atom_site_fract_x
_atom_site_fract_y
_atom_site_fract_z
Si Si1 0.060520 0.553662 0.694980
Si Si2 0.294996 0.475484 0.696150
Si Si3 0.294996 0.524516 0.037721
Si Si4 0.939480 0.553662 0.038891
Si Si5 0.829392 0.639845 0.680616
Si Si6 0.130905 0.160488 0.961744
Si Si7 0.170608 0.639845 0.053255
Si Si8 0.130905 0.839512 0.772127
O O1 0.114556 0.456494 0.632156
O O2 0.077909 0.743164 0.700659
O O3 0.000000 0.500000 0.629332
O O4 0.058030 0.500000 0.866936
O O5 0.226897 0.469661 0.675611
O O6 0.325291 0.601898 0.586651
O O7 0.317389 0.297206 0.651652
O O8 0.307895 0.500000 0.866936
O O9 0.317389 0.702794 0.082219
O O10 0.226897 0.530339 0.058260
O O11 0.325291 0.398102 0.147220
O O12 0.885444 0.456494 0.101715
O O13 0.000000 0.500000 0.104540
O O14 0.922091 0.743164 0.033212
O O15 0.840259 0.714476 0.844867
O O16 0.114572 1.000000 0.866936
O O17 0.159741 0.714476 0.889004
#
# Coordination Sequence:
#
# PCOD9347223 Si02
#       8
#     4   4   4   4   4   4   4   4
#     4   9  17  32  53  75  99 129 169 213 253 294
#     4  10  19  32  51  75 103 134 166 205 256 307
#     4  10  19  32  51  75 103 134 166 205 256 307
#     4   9  17  32  53  75  99 129 169 213 253 294
#     4   9  19  33  50  75 103 129 166 211 254 301
#     4   9  18  33  52  77 103 130 166 209 254 303
#     4   9  19  33  50  75 103 129 166 211 254 301
#     4   9  18  33  52  77 103 130 166 209 254 303
#
# _framework density 18.301888000000002
#
# number of rings (size 3 to 8) (size 9 to 14) (size 15 to 20)
#    0.000    2.750    0.000    2.250    0.000    4.000 
#    0.000   25.000    0.000    4.500    0.000    0.000 
#    0.000    0.000    0.000    0.000    0.000    0.000 
#
# Total GULP energy -178337.413255 kJ/mol
# GULP energy per Si atom -5573.044164 kJ/mol
# Density = 1.826023 g / cm^3
# Si number density = 18.301888 Si / 1000 Ang^3
#
#
#
# Elastic Constant Matrix: (Units=GPa)
#
#
# Indices 1 2 3 4 5 6 
#
# 1 155.4048 81.1360 39.4870 0.0000 0.0000 0.0000
# 2 81.1360 98.8316 29.2166 0.0000 0.0000 0.0000
# 3 39.4870 29.2166 69.1452 0.0000 0.0000 0.0000
# 4 0.0000 0.0000 0.0000 19.7040 0.0000 0.0000
# 5 0.0000 0.0000 0.0000 0.0000 15.0713 0.0000
# 6 0.0000 0.0000 0.0000 0.0000 0.0000 23.9152
#
#
#
# Elastic Compliance Matrix: (Units=1/GPa)
#
#
# Indices 1 2 3 4 5 6 
#
# 1 0.011789 -0.008785 -0.003020 0.000000 0.000000 0.000000
# 2 -0.008785 0.018110 -0.002635 0.000000 0.000000 0.000000
# 3 -0.003020 -0.002635 0.017300 0.000000 0.000000 0.000000
# 4 0.000000 0.000000 0.000000 0.050751 0.000000 0.000000
# 5 0.000000 0.000000 0.000000 0.000000 0.066351 0.000000
# 6 0.000000 0.000000 0.000000 0.000000 0.000000 0.041814
#
#
# Mechanical properties :
#
#
# Convention : Reuss Voigt Hill
#
# Bulk Modulus (GPa) = 54.59120 69.22900 61.91010
# Shear Modulus (GPa) = 20.73804 23.30756 22.02280
#
# Velocity S-wave (km/s) = 3.36982 3.57249 3.47264
# Velocity P-wave (km/s) = 6.71073 7.41115 7.06962
#
# Compressibility (1/GPa) = 0.01831797
#
# Stress axis : x y z
#
# Youngs Moduli (GPa) = 84.82467 55.21953 57.80202
#
# Poissons Ratio (x) = 0.48512 0.17458
# Poissons Ratio (y) = 0.74522 0.15230
# Poissons Ratio (z) = 0.25619 0.14550
#
# Static dielectric constant tensor:
#      x y z
#    x 1.659620 0.000000 0.000000 
#    y 0.000000 1.661710 0.000000 
#    z 0.000000 0.000000 1.628200 
# 
# From -- ./inp_files/4083.got.cif
#   From: 2010.05.17/outbox.cif.g08.bks.cpg/sg34_3_cif.got.tgz:4083.got - 2010.06.03 17:23:11.
