data_PCOD9347322
_publ_section_title
;
Structure prediction by ZEFSAII (Michael W. Deem and Ramdas Pophale) SiO2 
 PCOD9347322
Probable space group: P N N 2
;
_chemical_formula_sum "Si O2"
_cell_formula_units_Z 16
_cell_length_a 5.568323
_cell_length_b 17.029220
_cell_length_c 6.791656
_cell_angle_alpha 90.000000
_cell_angle_beta 90.000000
_cell_angle_gamma 90.000000
_cell_volume 644.013329
_symmetry_space_group_name_H-M "P N N 2"
_symmetry_group_IT_number 34
_symmetry_cell_setting 'orthorhombic'
loop_
_space_group_symop_operation_xyz
x,y,z
-x,-y,z
1/2-x,1/2+y,1/2+z
1/2+x,1/2-y,1/2+z
loop_
_atom_site_type_symbol
_atom_site_label
_atom_site_fract_x
_atom_site_fract_y
_atom_site_fract_z
Si Si1 0.499999 0.830274 0.475180
Si Si2 0.999999 0.620044 0.551121
Si Si3 0.000001 0.206439 0.649389
Si Si4 0.750718 0.500000 0.303892
O O1 0.499999 0.886912 0.286349
O O2 0.750026 0.835551 0.593203
O O3 0.499999 0.744313 0.366846
O O4 0.249972 0.835551 0.593203
O O5 0.999999 0.712995 0.518037
O O6 0.780443 0.573972 0.451088
O O7 0.219556 0.573972 0.451088
O O8 0.500000 0.500000 0.198557
O O9 0.000000 0.500000 0.183758
#
# Coordination Sequence:
#
# PCOD9347322 Si02
#       4
#     4   4   4   4
#     4  10  20  31  50  73 108 130 160 202 250 302
#     4   7  20  28  50  72 102 119 174 200 248 279
#     4  10  20  31  50  73 108 130 160 202 250 302
#     4   8  16  28  48  68  92 126 166 220 224 266
#
# _framework density 24.844207999999998
#
# number of rings (size 3 to 8) (size 9 to 14) (size 15 to 20)
#    3.000    0.000    0.000    1.500    7.000    0.000 
#    0.000    0.000    0.000    0.000    0.000   42.000 
#    0.000    0.000    0.000    0.000    0.000    0.000 
#
# Total GULP energy -89125.167700 kJ/mol
# GULP energy per Si atom -5570.322981 kJ/mol
# Density = 2.478766 g / cm^3
# Si number density = 24.844208 Si / 1000 Ang^3
#
#
#
# Elastic Constant Matrix: (Units=GPa)
#
#
# Indices 1 2 3 4 5 6 
#
# 1 262.0960 25.4065 60.1056 0.0000 0.0000 0.0000
# 2 25.4065 99.3861 24.3199 0.0000 0.0000 0.0000
# 3 60.1056 24.3199 121.0466 0.0000 0.0000 0.0000
# 4 0.0000 0.0000 0.0000 25.6021 0.0000 0.0000
# 5 0.0000 0.0000 0.0000 0.0000 26.2147 0.0000
# 6 0.0000 0.0000 0.0000 0.0000 0.0000 29.5605
#
#
#
# Elastic Compliance Matrix: (Units=1/GPa)
#
#
# Indices 1 2 3 4 5 6 
#
# 1 0.004341 -0.000612 -0.002032 0.000000 0.000000 0.000000
# 2 -0.000612 0.010668 -0.001839 0.000000 0.000000 0.000000
# 3 -0.002032 -0.001839 0.009640 0.000000 0.000000 0.000000
# 4 0.000000 0.000000 0.000000 0.039059 0.000000 0.000000
# 5 0.000000 0.000000 0.000000 0.000000 0.038147 0.000000
# 6 0.000000 0.000000 0.000000 0.000000 0.000000 0.033829
#
#
# Mechanical properties :
#
#
# Convention : Reuss Voigt Hill
#
# Bulk Modulus (GPa) = 63.77134 78.02141 70.89638
# Shear Modulus (GPa) = 33.36017 41.12191 37.24104
#
# Velocity S-wave (km/s) = 3.66836 4.07282 3.87587
# Velocity P-wave (km/s) = 6.60808 7.32049 6.97339
#
# Compressibility (1/GPa) = 0.01568103
#
# Stress axis : x y z
#
# Youngs Moduli (GPa) = 230.37023 93.73479 103.73415
#
# Poissons Ratio (x) = 0.05740 0.21083
# Poissons Ratio (y) = 0.14106 0.19081
# Poissons Ratio (z) = 0.46821 0.17241
#
# Static dielectric constant tensor:
#      x y z
#    x 1.952690 0.000000 0.000000 
#    y 0.000000 2.068670 0.000000 
#    z 0.000000 0.000000 1.894520 
# 
# From -- ./inp_files/1983.got.cif
#   From: 2010.05.17/outbox.cif.g08.bks.cpg/sg34_1_cif.got.tgz:1983.got - 2010.06.03 17:23:11.
