data_PCOD9347620
_publ_section_title
;
Structure prediction by ZEFSAII (Michael W. Deem and Ramdas Pophale) SiO2 
 PCOD9347620
Probable space group: P N N 2
;
_chemical_formula_sum "Si O2"
_cell_formula_units_Z 30
_cell_length_a 13.450462
_cell_length_b 18.656216
_cell_length_c 5.248358
_cell_angle_alpha 90.000000
_cell_angle_beta 90.000000
_cell_angle_gamma 90.000000
_cell_volume 1316.995268
_symmetry_space_group_name_H-M "P N N 2"
_symmetry_group_IT_number 34
_symmetry_cell_setting 'orthorhombic'
loop_
_space_group_symop_operation_xyz
x,y,z
-x,-y,z
1/2-x,1/2+y,1/2+z
1/2+x,1/2-y,1/2+z
loop_
_atom_site_type_symbol
_atom_site_label
_atom_site_fract_x
_atom_site_fract_y
_atom_site_fract_z
Si Si1 0.227668 0.497577 0.018710
Si Si2 0.239759 0.829569 0.529582
Si Si3 0.932274 0.732510 0.783855
Si Si4 0.286664 0.711280 0.861873
Si Si5 0.500000 0.000000 0.622816
Si Si6 0.888510 0.250686 0.115800
Si Si7 0.467153 0.128365 0.963883
Si Si8 0.243340 0.079756 0.030745
O O1 0.272182 0.543821 0.254833
O O2 0.107633 0.509996 0.994236
O O3 0.248963 0.413522 0.060828
O O4 0.274783 0.522388 0.753066
O O5 0.343701 0.789461 0.470268
O O6 0.224155 0.784927 0.789732
O O7 0.164974 0.806454 0.304386
O O8 0.877785 0.772311 0.548266
O O9 0.971580 0.653756 0.704454
O O10 0.026589 0.771084 0.910594
O O11 0.305386 0.653425 0.640151
O O12 0.193108 0.687191 0.036945
O O13 0.519839 0.068086 0.802525
O O14 0.954894 0.298629 0.309300
O O15 0.359368 0.099955 0.030902
#
# Coordination Sequence:
#
# PCOD9347620 Si02
#       8
#     4   4   4   4   2   4   4   4
#     4  11  26  39  61  97 138 187 223 280 361 425
#     4  11  25  39  65  97 139 180 239 293 349 446
#     4  11  23  35  65  94 137 174 242 289 354 422
#     4  11  22  40  65  95 134 181 236 294 347 430
#     4  10  22  34  58  88 144 176 214 264 348 452
#     4  11  21  41  63  92 138 179 235 295 347 415
#     4  11  22  39  59  96 135 182 214 272 351 429
#     4  11  24  41  65  90 142 182 227 282 359 428
#
# _framework density 22.779123999999999
#
# number of rings (size 3 to 8) (size 9 to 14) (size 15 to 20)
#    0.000    1.067    2.667    4.000   11.200    0.533 
#    0.000    0.000    0.000    0.000    0.000   14.000 
#    0.000    0.000    0.000    0.000    0.000    0.000 
#
# Total GULP energy -167323.785177 kJ/mol
# GULP energy per Si atom -5577.459506 kJ/mol
# Density = 2.272728 g / cm^3
# Si number density = 22.779124 Si / 1000 Ang^3
#
#
#
# Elastic Constant Matrix: (Units=GPa)
#
#
# Indices 1 2 3 4 5 6 
#
# 1 92.5017 15.4966 24.6807 0.0000 0.0000 0.0000
# 2 15.4966 116.9612 26.7022 0.0000 0.0000 0.0000
# 3 24.6807 26.7022 63.4245 0.0000 0.0000 0.0000
# 4 0.0000 0.0000 0.0000 10.4990 0.0000 0.0000
# 5 0.0000 0.0000 0.0000 0.0000 26.0422 0.0000
# 6 0.0000 0.0000 0.0000 0.0000 0.0000 8.8799
#
#
#
# Elastic Compliance Matrix: (Units=1/GPa)
#
#
# Indices 1 2 3 4 5 6 
#
# 1 0.012099 -0.000584 -0.004462 0.000000 0.000000 0.000000
# 2 -0.000584 0.009487 -0.003767 0.000000 0.000000 0.000000
# 3 -0.004462 -0.003767 0.019089 0.000000 0.000000 0.000000
# 4 0.000000 0.000000 0.000000 0.095248 0.000000 0.000000
# 5 0.000000 0.000000 0.000000 0.000000 0.038399 0.000000
# 6 0.000000 0.000000 0.000000 0.000000 0.000000 0.112613
#
#
# Mechanical properties :
#
#
# Convention : Reuss Voigt Hill
#
# Bulk Modulus (GPa) = 43.38640 45.18293 44.28467
# Shear Modulus (GPa) = 16.01307 22.81809 19.41558
#
# Velocity S-wave (km/s) = 2.65424 3.16841 2.92265
# Velocity P-wave (km/s) = 5.33678 5.76745 5.55629
#
# Compressibility (1/GPa) = 0.02304870
#
# Stress axis : x y z
#
# Youngs Moduli (GPa) = 82.65094 105.40497 52.38614
#
# Poissons Ratio (x) = 0.06159 0.23376
# Poissons Ratio (y) = 0.04830 0.19733
# Poissons Ratio (z) = 0.36880 0.39704
#
# Static dielectric constant tensor:
#      x y z
#    x 1.698530 0.000000 0.000000 
#    y 0.000000 2.326070 0.000000 
#    z 0.000000 0.000000 2.131130 
# 
# From -- ./inp_files/1303.got.cif
#   From: 2010.05.17/outbox.cif.g08.bks.cpg/sg34_1_cif.got.tgz:1303.got - 2010.06.03 17:23:11.
