data_PCOD9347595
_publ_section_title
;
Structure prediction by ZEFSAII (Michael W. Deem and Ramdas Pophale) SiO2 
 PCOD9347595
Probable space group: P N N 2
;
_chemical_formula_sum "Si O2"
_cell_formula_units_Z 32
_cell_length_a 17.823789
_cell_length_b 13.390002
_cell_length_c 5.509162
_cell_angle_alpha 90.000000
_cell_angle_beta 90.000000
_cell_angle_gamma 90.000000
_cell_volume 1314.819745
_symmetry_space_group_name_H-M "P N N 2"
_symmetry_group_IT_number 34
_symmetry_cell_setting 'orthorhombic'
loop_
_space_group_symop_operation_xyz
x,y,z
-x,-y,z
1/2-x,1/2+y,1/2+z
1/2+x,1/2-y,1/2+z
loop_
_atom_site_type_symbol
_atom_site_label
_atom_site_fract_x
_atom_site_fract_y
_atom_site_fract_z
Si Si1 0.705144 0.781604 0.195580
Si Si2 0.965974 0.261759 0.849448
Si Si3 0.278253 0.003199 0.320219
Si Si4 0.589017 0.128549 0.538886
Si Si5 0.618614 0.484921 0.004378
Si Si6 0.997367 0.154903 0.368026
Si Si7 0.672987 0.310005 0.321953
Si Si8 0.687394 0.136406 0.929764
O O1 0.617729 0.768494 0.244265
O O2 0.748733 0.680035 0.254775
O O3 0.721976 0.879037 0.358282
O O4 0.744682 0.814830 0.944333
O O5 0.008826 0.226746 0.602453
O O6 0.005942 0.364866 0.936239
O O7 0.968548 0.197685 0.106702
O O8 0.351420 0.948715 0.427790
O O9 0.196779 0.972984 0.411086
O O10 0.282945 0.964222 0.046486
O O11 0.619604 0.242673 0.496184
O O12 0.605565 0.114657 0.820763
O O13 0.561283 0.576901 0.993001
O O14 0.574995 0.405546 0.832682
O O15 0.638439 0.415929 0.239188
O O16 0.680537 0.229941 0.107362
#
# Coordination Sequence:
#
# PCOD9347595 Si02
#       8
#     4   4   4   4   4   4   4   4
#     4  11  26  40  73 105 146 194 259 317 380 463
#     4  12  27  49  72 102 157 203 259 311 403 467
#     4  11  25  41  71 107 139 191 262 316 378 463
#     4  10  24  44  70  96 145 201 248 312 385 466
#     4  11  23  44  72 111 157 188 264 324 401 469
#     4  11  28  45  73 112 152 208 246 328 403 472
#     4  10  21  42  70 102 143 192 238 311 389 461
#     4  10  22  44  68 104 140 191 252 306 390 448
#
# _framework density 24.337937
#
# number of rings (size 3 to 8) (size 9 to 14) (size 15 to 20)
#    0.000    1.250    2.500    1.500   12.250    3.500 
#    0.000    0.000    0.000    0.000    0.000    0.000 
#    0.000    0.000    0.000    0.000    0.000    0.000 
#
# Total GULP energy -178214.254665 kJ/mol
# GULP energy per Si atom -5569.195458 kJ/mol
# Density = 2.428254 g / cm^3
# Si number density = 24.337937 Si / 1000 Ang^3
#
#
#
# Elastic Constant Matrix: (Units=GPa)
#
#
# Indices 1 2 3 4 5 6 
#
# 1 103.4463 -3.3809 17.0767 0.0000 0.0000 0.0000
# 2 -3.3809 43.9162 20.5499 0.0000 0.0000 0.0000
# 3 17.0767 20.5499 68.5112 0.0000 0.0000 0.0000
# 4 0.0000 0.0000 0.0000 25.3403 0.0000 0.0000
# 5 0.0000 0.0000 0.0000 0.0000 39.3275 0.0000
# 6 0.0000 0.0000 0.0000 0.0000 0.0000 38.4613
#
#
#
# Elastic Compliance Matrix: (Units=1/GPa)
#
#
# Indices 1 2 3 4 5 6 
#
# 1 0.010280 0.002315 -0.003257 0.000000 0.000000 0.000000
# 2 0.002315 0.027010 -0.008679 0.000000 0.000000 0.000000
# 3 -0.003257 -0.008679 0.018011 0.000000 0.000000 0.000000
# 4 0.000000 0.000000 0.000000 0.039463 0.000000 0.000000
# 5 0.000000 0.000000 0.000000 0.000000 0.025427 0.000000
# 6 0.000000 0.000000 0.000000 0.000000 0.000000 0.026000
#
#
# Mechanical properties :
#
#
# Convention : Reuss Voigt Hill
#
# Bulk Modulus (GPa) = 27.73093 31.59615 29.66354
# Shear Modulus (GPa) = 28.17655 32.73434 30.45544
#
# Velocity S-wave (km/s) = 3.40622 3.67139 3.54129
# Velocity P-wave (km/s) = 5.18543 5.56620 5.37918
#
# Compressibility (1/GPa) = 0.03606082
#
# Stress axis : x y z
#
# Youngs Moduli (GPa) = 97.27468 37.02336 55.52121
#
# Poissons Ratio (x) = -0.08572 0.18083
# Poissons Ratio (y) = -0.22523 0.48186
# Poissons Ratio (z) = 0.31681 0.32132
#
# Static dielectric constant tensor:
#      x y z
#    x 2.022380 0.000000 0.000000 
#    y 0.000000 1.936790 0.000000 
#    z 0.000000 0.000000 2.093800 
# 
# From -- ./inp_files/1512.got.cif
#   From: 2010.05.17/outbox.cif.g08.bks.cpg/sg34_1_cif.got.tgz:1512.got - 2010.06.03 17:23:11.
