data_PCOD9347896
_publ_section_title
;
Structure prediction by ZEFSAII (Michael W. Deem and Ramdas Pophale) SiO2 
 PCOD9347896
Probable space group: P N N 2
;
_chemical_formula_sum "Si O2"
_cell_formula_units_Z 24
_cell_length_a 8.754725
_cell_length_b 8.995460
_cell_length_c 16.843981
_cell_angle_alpha 90.000000
_cell_angle_beta 90.000000
_cell_angle_gamma 90.000000
_cell_volume 1326.510306
_symmetry_space_group_name_H-M "P N N 2"
_symmetry_group_IT_number 34
_symmetry_cell_setting 'orthorhombic'
loop_
_space_group_symop_operation_xyz
x,y,z
-x,-y,z
1/2-x,1/2+y,1/2+z
1/2+x,1/2-y,1/2+z
loop_
_atom_site_type_symbol
_atom_site_label
_atom_site_fract_x
_atom_site_fract_y
_atom_site_fract_z
Si Si1 0.565920 0.838001 0.267230
Si Si2 0.608790 0.354239 0.397923
Si Si3 0.055254 0.661350 0.453486
Si Si4 0.150916 0.408342 0.004571
Si Si5 0.389960 0.357709 0.111716
Si Si6 0.146949 0.090923 0.375950
O O1 0.452463 0.750133 0.326953
O O2 0.590640 0.736917 0.190435
O O3 0.723714 0.868185 0.313343
O O4 0.500000 0.000000 0.246886
O O5 0.500000 0.500000 0.399355
O O6 0.794047 0.368473 0.398339
O O7 0.598513 0.255657 0.477614
O O8 0.086198 0.754492 0.533903
O O9 0.000000 0.500000 0.477397
O O10 0.924998 0.758004 0.410654
O O11 0.220114 0.414446 0.092295
O O12 0.000000 0.500000 0.996565
O O13 0.272703 0.486003 0.943341
O O14 0.500000 0.500000 0.111776
O O15 0.000000 0.000000 0.344869
#
# Coordination Sequence:
#
# PCOD9347896 Si02
#       6
#     4   4   4   4   4   4
#     4  12  23  40  62  94 127 169 209 268 326 385
#     4  11  21  37  61  95 122 162 215 264 307 386
#     4  11  22  37  64  94 121 165 221 265 307 388
#     4  11  20  41  68  90 119 173 219 262 317 394
#     4  11  23  41  61  90 129 167 210 264 330 384
#     4  12  19  41  69  90 120 172 221 260 319 389
#
# _framework density 18.092583000000001
#
# number of rings (size 3 to 8) (size 9 to 14) (size 15 to 20)
#    0.000    0.667    8.333    2.000    0.000    0.000 
#    0.000    9.167    0.000    0.000    0.000    0.000 
#    0.000    0.000    0.000    0.000    0.000    0.000 
#
# Total GULP energy -133718.732169 kJ/mol
# GULP energy per Si atom -5571.613840 kJ/mol
# Density = 1.805140 g / cm^3
# Si number density = 18.092583 Si / 1000 Ang^3
#
#
#
# Elastic Constant Matrix: (Units=GPa)
#
#
# Indices 1 2 3 4 5 6 
#
# 1 103.1242 41.3745 49.7152 0.0000 0.0000 0.0000
# 2 41.3745 129.0242 38.7894 0.0000 0.0000 0.0000
# 3 49.7152 38.7894 95.6442 0.0000 0.0000 0.0000
# 4 0.0000 0.0000 0.0000 32.6397 0.0000 0.0000
# 5 0.0000 0.0000 0.0000 0.0000 18.1705 0.0000
# 6 0.0000 0.0000 0.0000 0.0000 0.0000 25.0693
#
#
#
# Elastic Compliance Matrix: (Units=1/GPa)
#
#
# Indices 1 2 3 4 5 6 
#
# 1 0.013641 -0.002554 -0.006054 0.000000 0.000000 0.000000
# 2 -0.002554 0.009305 -0.002446 0.000000 0.000000 0.000000
# 3 -0.006054 -0.002446 0.014595 0.000000 0.000000 0.000000
# 4 0.000000 0.000000 0.000000 0.030638 0.000000 0.000000
# 5 0.000000 0.000000 0.000000 0.000000 0.055034 0.000000
# 6 0.000000 0.000000 0.000000 0.000000 0.000000 0.039889
#
#
# Mechanical properties :
#
#
# Convention : Reuss Voigt Hill
#
# Bulk Modulus (GPa) = 64.80545 65.28341 65.04443
# Shear Modulus (GPa) = 26.26685 28.37013 27.31849
#
# Velocity S-wave (km/s) = 3.81439 3.96416 3.88999
# Velocity P-wave (km/s) = 7.43612 7.55738 7.49700
#
# Compressibility (1/GPa) = 0.01543080
#
# Stress axis : x y z
#
# Youngs Moduli (GPa) = 73.31103 107.47073 68.51871
#
# Poissons Ratio (x) = 0.27447 0.41484
# Poissons Ratio (y) = 0.18723 0.16761
# Poissons Ratio (z) = 0.44386 0.26289
#
# Static dielectric constant tensor:
#      x y z
#    x 1.696360 0.000000 0.000000 
#    y 0.000000 1.660270 0.000000 
#    z 0.000000 0.000000 1.596610 
# 
# From -- ./inp_files/6385.got.cif
#   From: 2010.05.17/outbox.cif.g08.bks.cpg/sg34_4_cif.got.tgz:6385.got - 2010.06.03 17:23:11.
