data_PCOD9347274
_publ_section_title
;
Structure prediction by ZEFSAII (Michael W. Deem and Ramdas Pophale) SiO2 
 PCOD9347274
Probable space group: P N N 2
;
_chemical_formula_sum "Si O2"
_cell_formula_units_Z 28
_cell_length_a 17.785277
_cell_length_b 9.787784
_cell_length_c 8.622290
_cell_angle_alpha 90.000000
_cell_angle_beta 90.000000
_cell_angle_gamma 90.000000
_cell_volume 1500.954876
_symmetry_space_group_name_H-M "P N N 2"
_symmetry_group_IT_number 34
_symmetry_cell_setting 'orthorhombic'
loop_
_space_group_symop_operation_xyz
x,y,z
-x,-y,z
1/2-x,1/2+y,1/2+z
1/2+x,1/2-y,1/2+z
loop_
_atom_site_type_symbol
_atom_site_label
_atom_site_fract_x
_atom_site_fract_y
_atom_site_fract_z
Si Si1 0.659109 0.603432 0.292630
Si Si2 0.263070 0.928660 0.066068
Si Si3 0.500000 0.000000 0.068814
Si Si4 0.000000 0.500000 0.082093
Si Si5 0.346694 0.718368 0.290704
Si Si6 0.888820 0.601868 0.333527
Si Si7 0.286195 0.719300 0.641474
Si Si8 0.021209 0.706336 0.809727
O O1 0.692841 0.624055 0.465828
O O2 0.660895 0.442709 0.256903
O O3 0.714996 0.684730 0.178624
O O4 0.576282 0.666600 0.294923
O O5 0.300468 0.814086 0.173157
O O6 0.238698 0.062854 0.157878
O O7 0.322532 0.970887 0.930340
O O8 0.451624 0.092765 0.184701
O O9 0.544738 0.104052 0.959109
O O10 0.927496 0.527482 0.188993
O O11 0.980684 0.371305 0.973805
O O12 0.317357 0.739319 0.467162
O O13 0.434481 0.756766 0.279507
O O14 0.850553 0.736917 0.264211
#
# Coordination Sequence:
#
# PCOD9347274 Si02
#       8
#     4   4   2   2   4   4   4   4
#     4  10  24  38  63  90 124 158 202 259 312 364
#     4  10  22  40  63  87 125 166 201 254 307 371
#     4  10  20  34  62  92 120 158 202 252 300 364
#     4  10  22  34  66  92 122 162 206 256 304 372
#     4  11  22  42  61  88 123 162 204 253 306 372
#     4  10  19  37  57  92 123 157 203 253 300 362
#     4  10  22  38  60  90 120 158 206 250 306 365
#     4  11  21  39  63  93 120 165 207 253 309 374
#
# _framework density 18.654789999999998
#
# number of rings (size 3 to 8) (size 9 to 14) (size 15 to 20)
#    0.000    1.714    2.857    1.286    2.000    5.714 
#    0.000    0.000    0.000    1.714    0.000    0.000 
#    0.000    0.000    0.000    0.000    0.000    0.000 
#
# Total GULP energy -156086.407863 kJ/mol
# GULP energy per Si atom -5574.514567 kJ/mol
# Density = 1.861233 g / cm^3
# Si number density = 18.654790 Si / 1000 Ang^3
#
#
#
# Elastic Constant Matrix: (Units=GPa)
#
#
# Indices 1 2 3 4 5 6 
#
# 1 89.5030 67.5383 45.9298 0.0000 0.0000 0.0000
# 2 67.5383 129.1920 64.7986 0.0000 0.0000 0.0000
# 3 45.9298 64.7986 90.6634 0.0000 0.0000 0.0000
# 4 0.0000 0.0000 0.0000 22.1457 0.0000 0.0000
# 5 0.0000 0.0000 0.0000 0.0000 29.1625 0.0000
# 6 0.0000 0.0000 0.0000 0.0000 0.0000 34.7398
#
#
#
# Elastic Compliance Matrix: (Units=1/GPa)
#
#
# Indices 1 2 3 4 5 6 
#
# 1 0.019343 -0.008101 -0.004009 0.000000 0.000000 0.000000
# 2 -0.008101 0.015459 -0.006944 0.000000 0.000000 0.000000
# 3 -0.004009 -0.006944 0.018024 0.000000 0.000000 0.000000
# 4 0.000000 0.000000 0.000000 0.045155 0.000000 0.000000
# 5 0.000000 0.000000 0.000000 0.000000 0.034291 0.000000
# 6 0.000000 0.000000 0.000000 0.000000 0.000000 0.028785
#
#
# Mechanical properties :
#
#
# Convention : Reuss Voigt Hill
#
# Bulk Modulus (GPa) = 67.95175 73.98800 70.96988
# Shear Modulus (GPa) = 24.50100 25.94904 25.22502
#
# Velocity S-wave (km/s) = 3.62800 3.73367 3.68122
# Velocity P-wave (km/s) = 7.35220 7.63773 7.49632
#
# Compressibility (1/GPa) = 0.01471632
#
# Stress axis : x y z
#
# Youngs Moduli (GPa) = 51.69718 64.68826 55.48115
#
# Poissons Ratio (x) = 0.52407 0.22243
# Poissons Ratio (y) = 0.41882 0.38529
# Poissons Ratio (z) = 0.20726 0.44923
#
# Static dielectric constant tensor:
#      x y z
#    x 1.680690 0.000000 0.000000 
#    y 0.000000 1.633920 0.000000 
#    z 0.000000 0.000000 1.651640 
# 
# From -- ./inp_files/2788.got.cif
#   From: 2010.05.17/outbox.cif.g08.bks.cpg/sg34_2_cif.got.tgz:2788.got - 2010.06.03 17:23:11.
