data_PCOD9347351
_publ_section_title
;
Structure prediction by ZEFSAII (Michael W. Deem and Ramdas Pophale) SiO2 
 PCOD9347351
Probable space group: P N N 2
;
_chemical_formula_sum "Si O2"
_cell_formula_units_Z 12
_cell_length_a 5.193887
_cell_length_b 6.856942
_cell_length_c 13.340440
_cell_angle_alpha 90.000000
_cell_angle_beta 90.000000
_cell_angle_gamma 90.000000
_cell_volume 475.108857
_symmetry_space_group_name_H-M "P N N 2"
_symmetry_group_IT_number 34
_symmetry_cell_setting 'orthorhombic'
loop_
_space_group_symop_operation_xyz
x,y,z
-x,-y,z
1/2-x,1/2+y,1/2+z
1/2+x,1/2-y,1/2+z
loop_
_atom_site_type_symbol
_atom_site_label
_atom_site_fract_x
_atom_site_fract_y
_atom_site_fract_z
Si Si1 0.250367 0.137074 0.045720
Si Si2 0.078392 0.730114 0.333958
Si Si3 0.921921 0.220834 0.750760
O O1 0.282332 0.270521 0.143555
O O2 0.500000 0.000000 0.049560
O O3 0.285011 0.249658 0.941076
O O4 0.000000 0.000000 0.044701
O O5 0.288223 0.805111 0.253479
O O6 0.000000 0.500000 0.319316
O O7 0.789752 0.812199 0.325338
O O8 0.000000 0.000000 0.779065
#
# Coordination Sequence:
#
# PCOD9347351 Si02
#       3
#     4   4   4
#     4  11  21  36  58  85 113 148 191 237 285 341
#     4   9  18  34  56  78 108 149 188 223 278 350
#     4  10  20  36  57  81 109 147 190 232 278 337
#
# _framework density 25.257370999999999
#
# number of rings (size 3 to 8) (size 9 to 14) (size 15 to 20)
#    0.000    2.000    0.000    7.000    0.000    0.000 
#    0.000    5.000    0.000    0.000    0.000    0.000 
#    0.000    0.000    0.000    0.000    0.000    0.000 
#
# Total GULP energy -66944.221940 kJ/mol
# GULP energy per Si atom -5578.685162 kJ/mol
# Density = 2.519988 g / cm^3
# Si number density = 25.257371 Si / 1000 Ang^3
#
#
#
# Elastic Constant Matrix: (Units=GPa)
#
#
# Indices 1 2 3 4 5 6 
#
# 1 259.5782 25.2587 71.7882 0.0000 0.0000 0.0000
# 2 25.2587 56.2158 -4.6832 0.0000 0.0000 0.0000
# 3 71.7882 -4.6832 147.5100 0.0000 0.0000 0.0000
# 4 0.0000 0.0000 0.0000 29.9929 0.0000 0.0000
# 5 0.0000 0.0000 0.0000 0.0000 39.9276 0.0000
# 6 0.0000 0.0000 0.0000 0.0000 0.0000 12.4992
#
#
#
# Elastic Compliance Matrix: (Units=1/GPa)
#
#
# Indices 1 2 3 4 5 6 
#
# 1 0.004737 -0.002326 -0.002379 0.000000 0.000000 0.000000
# 2 -0.002326 0.018978 0.001735 0.000000 0.000000 0.000000
# 3 -0.002379 0.001735 0.007992 0.000000 0.000000 0.000000
# 4 0.000000 0.000000 0.000000 0.033341 0.000000 0.000000
# 5 0.000000 0.000000 0.000000 0.000000 0.025045 0.000000
# 6 0.000000 0.000000 0.000000 0.000000 0.000000 0.080005
#
#
# Mechanical properties :
#
#
# Convention : Reuss Voigt Hill
#
# Bulk Modulus (GPa) = 38.81133 72.00348 55.40740
# Shear Modulus (GPa) = 27.08132 41.21330 34.14731
#
# Velocity S-wave (km/s) = 3.27802 4.04385 3.68091
# Velocity P-wave (km/s) = 5.45224 7.09743 6.32852
#
# Compressibility (1/GPa) = 0.02576567
#
# Stress axis : x y z
#
# Youngs Moduli (GPa) = 211.11574 52.69136 125.12365
#
# Poissons Ratio (x) = 0.12259 0.29768
# Poissons Ratio (y) = 0.49116 -0.21706
# Poissons Ratio (z) = 0.50226 -0.09141
#
# Static dielectric constant tensor:
#      x y z
#    x 2.102090 0.000000 0.000000 
#    y 0.000000 2.175840 0.000000 
#    z 0.000000 0.000000 2.092070 
# 
# From -- ./inp_files/1885.got.cif
#   From: 2010.05.17/outbox.cif.g08.bks.cpg/sg34_1_cif.got.tgz:1885.got - 2010.06.03 17:23:11.
