data_PCOD9347607
_publ_section_title
;
Structure prediction by ZEFSAII (Michael W. Deem and Ramdas Pophale) SiO2 
 PCOD9347607
Probable space group: P N N 2
;
_chemical_formula_sum "Si O2"
_cell_formula_units_Z 26
_cell_length_a 15.299654
_cell_length_b 11.983249
_cell_length_c 6.441418
_cell_angle_alpha 90.000000
_cell_angle_beta 90.000000
_cell_angle_gamma 90.000000
_cell_volume 1180.966764
_symmetry_space_group_name_H-M "P N N 2"
_symmetry_group_IT_number 34
_symmetry_cell_setting 'orthorhombic'
loop_
_space_group_symop_operation_xyz
x,y,z
-x,-y,z
1/2-x,1/2+y,1/2+z
1/2+x,1/2-y,1/2+z
loop_
_atom_site_type_symbol
_atom_site_label
_atom_site_fract_x
_atom_site_fract_y
_atom_site_fract_z
Si Si1 0.613550 0.392492 0.901630
Si Si2 0.779103 0.728451 0.168142
Si Si3 0.585623 0.279627 0.296127
Si Si4 0.000000 0.500000 0.339393
Si Si5 0.473500 0.241529 0.653032
Si Si6 0.342641 0.916102 0.036457
Si Si7 0.675634 0.628591 0.817659
O O1 0.704188 0.332669 0.823749
O O2 0.536086 0.320304 0.796055
O O3 0.615651 0.519757 0.835662
O O4 0.604292 0.383874 0.149626
O O5 0.807934 0.626448 0.314602
O O6 0.843020 0.761389 0.976628
O O7 0.696848 0.683014 0.041104
O O8 0.495883 0.274015 0.417738
O O9 0.595832 0.177725 0.138652
O O10 0.001520 0.613238 0.202336
O O11 0.087616 0.510777 0.480306
O O12 0.374280 0.274545 0.695325
O O13 0.261258 0.916631 0.194145
#
# Coordination Sequence:
#
# PCOD9347607 Si02
#       7
#     4   4   4   2   4   4   4
#     4  10  21  44  66  95 145 182 230 298 349 430
#     4   9  20  42  60  96 138 170 228 286 349 419
#     4   9  18  43  67  92 132 179 228 279 345 417
#     4  12  22  46  70  96 146 182 236 300 352 430
#     4  11  24  43  68 104 136 185 239 288 363 435
#     4  10  22  44  65 102 137 181 232 292 353 423
#     4  11  25  41  70 106 138 187 238 292 369 425
#
# _framework density 22.01586
#
# number of rings (size 3 to 8) (size 9 to 14) (size 15 to 20)
#    0.000    1.846    4.615    0.462    2.154    4.308 
#    5.538    3.077    0.000    0.000    0.000    0.000 
#    0.000    0.000    0.000    0.000    0.000    0.000 
#
# Total GULP energy -144776.914573 kJ/mol
# GULP energy per Si atom -5568.342868 kJ/mol
# Density = 2.196575 g / cm^3
# Si number density = 22.015860 Si / 1000 Ang^3
#
#
#
# Elastic Constant Matrix: (Units=GPa)
#
#
# Indices 1 2 3 4 5 6 
#
# 1 57.8403 34.1648 33.3878 0.0000 0.0000 0.0000
# 2 34.1648 86.0014 13.3740 0.0000 0.0000 0.0000
# 3 33.3878 13.3740 116.8635 0.0000 0.0000 0.0000
# 4 0.0000 0.0000 0.0000 4.0571 0.0000 0.0000
# 5 0.0000 0.0000 0.0000 0.0000 35.4082 0.0000
# 6 0.0000 0.0000 0.0000 0.0000 0.0000 23.2516
#
#
#
# Elastic Compliance Matrix: (Units=1/GPa)
#
#
# Indices 1 2 3 4 5 6 
#
# 1 0.026737 -0.009605 -0.006540 0.000000 0.000000 0.000000
# 2 -0.009605 0.015289 0.000994 0.000000 0.000000 0.000000
# 3 -0.006540 0.000994 0.010312 0.000000 0.000000 0.000000
# 4 0.000000 0.000000 0.000000 0.246483 0.000000 0.000000
# 5 0.000000 0.000000 0.000000 0.000000 0.028242 0.000000
# 6 0.000000 0.000000 0.000000 0.000000 0.000000 0.043008
#
#
# Mechanical properties :
#
#
# Convention : Reuss Voigt Hill
#
# Bulk Modulus (GPa) = 45.37696 46.95094 46.16395
# Shear Modulus (GPa) = 12.26346 24.52862 18.39604
#
# Velocity S-wave (km/s) = 2.36271 3.34149 2.89378
# Velocity P-wave (km/s) = 5.30084 6.02160 5.67268
#
# Compressibility (1/GPa) = 0.02203762
#
# Stress axis : x y z
#
# Youngs Moduli (GPa) = 37.40125 65.40831 96.97860
#
# Poissons Ratio (x) = 0.62822 0.63420
# Poissons Ratio (y) = 0.35922 -0.09643
# Poissons Ratio (z) = 0.24459 -0.06504
#
# Static dielectric constant tensor:
#      x y z
#    x 1.908850 0.000000 0.000000 
#    y 0.000000 1.820950 0.000000 
#    z 0.000000 0.000000 1.829730 
# 
# From -- ./inp_files/1449.got.cif
#   From: 2010.05.17/outbox.cif.g08.bks.cpg/sg34_1_cif.got.tgz:1449.got - 2010.06.03 17:23:11.
