data_PCOD9347087
_publ_section_title
;
Structure prediction by ZEFSAII (Michael W. Deem and Ramdas Pophale) SiO2 
 PCOD9347087
Probable space group: P N A 21
;
_chemical_formula_sum "Si O2"
_cell_formula_units_Z 28
_cell_length_a 9.000000
_cell_length_b 12.000000
_cell_length_c 12.000000
_cell_angle_alpha 90.000000
_cell_angle_beta 90.000000
_cell_angle_gamma 90.000000
_cell_volume 1296.000000
_symmetry_space_group_name_H-M "P N A 21"
_symmetry_group_IT_number 33
_symmetry_cell_setting 'orthorhombic'
loop_
_space_group_symop_operation_xyz
x,y,z
-x,-y,1/2+z
1/2-x,1/2+y,1/2+z
1/2+x,1/2-y,z
loop_
_atom_site_type_symbol
_atom_site_label
_atom_site_fract_x
_atom_site_fract_y
_atom_site_fract_z
Si Si1 0.336021 0.519371 0.440340
Si Si2 0.480534 0.953872 0.248651
Si Si3 0.952130 0.621477 0.927096
Si Si4 0.096620 0.129041 0.388542
Si Si5 0.791209 0.385489 0.592808
Si Si6 0.338796 0.483525 0.680879
Si Si7 0.068839 0.200553 0.763788
O O1 0.169369 0.474762 0.444948
O O2 0.428089 0.412646 0.398005
O O3 0.389144 0.536107 0.565699
O O4 0.366393 0.627412 0.365781
O O5 0.633279 0.970610 0.179820
O O6 0.333236 0.952342 0.174834
O O7 0.481774 0.825678 0.293996
O O8 0.458325 0.056418 0.331712
O O9 0.884034 0.738923 0.891508
O O10 0.062749 0.655383 0.027280
O O11 0.183996 0.076829 0.493946
O O12 0.146165 0.074535 0.275343
O O13 0.694435 0.302301 0.667491
O O14 0.435861 0.376188 0.715595
#
# Coordination Sequence:
#
# PCOD9347087 Si02
#       7
#     4   4   4   4   4   4   4
#     4  11  24  44  67  96 135 178 220 272 337 403
#     4  12  25  42  68 102 135 174 226 275 332 397
#     4  12  25  42  68 102 135 174 226 275 332 397
#     4  11  25  43  68 101 132 175 225 274 338 398
#     4  12  22  42  70 102 130 168 226 282 320 390
#     4  11  24  44  67  96 135 178 220 272 337 403
#     4  11  25  43  68 101 132 175 225 274 338 398
#
# _framework density 21.604938000000001
#
# number of rings (size 3 to 8) (size 9 to 14) (size 15 to 20)
#    0.000    0.571    5.714    2.571    4.000    0.000 
#    2.571    0.000    0.000    0.000    0.000    0.000 
#    0.000    0.000    0.000    0.000    0.000    0.000 
#
# Total GULP energy -156010.196539 kJ/mol
# GULP energy per Si atom -5571.792734 kJ/mol
# Density = 2.155576 g / cm^3
# Si number density = 21.604938 Si / 1000 Ang^3
#
#
#
# Elastic Constant Matrix: (Units=GPa)
#
#
# Indices 1 2 3 4 5 6 
#
# 1 93.0102 9.7493 30.4789 0.0000 0.0000 0.0000
# 2 9.7493 64.8199 56.1588 0.0000 0.0000 0.0000
# 3 30.4789 56.1588 110.3542 0.0000 0.0000 0.0000
# 4 0.0000 0.0000 0.0000 10.2351 0.0000 0.0000
# 5 0.0000 0.0000 0.0000 0.0000 30.7406 0.0000
# 6 0.0000 0.0000 0.0000 0.0000 0.0000 -31.9264
#
#
#
# Elastic Compliance Matrix: (Units=1/GPa)
#
#
# Indices 1 2 3 4 5 6 
#
# 1 0.011951 0.001900 -0.004268 0.000000 0.000000 0.000000
# 2 0.001900 0.027895 -0.014720 0.000000 0.000000 0.000000
# 3 -0.004268 -0.014720 0.017732 0.000000 0.000000 0.000000
# 4 0.000000 0.000000 0.000000 0.097703 0.000000 0.000000
# 5 0.000000 0.000000 0.000000 0.000000 0.032530 0.000000
# 6 0.000000 0.000000 0.000000 0.000000 0.000000 -0.031322
#
#
# Mechanical properties :
#
#
# Convention : Reuss Voigt Hill
#
# Bulk Modulus (GPa) = 42.73277 51.21758 46.97518
# Shear Modulus (GPa) = 25.19329 13.26302 19.22816
#
# Velocity S-wave (km/s) = 3.41851 2.48037 2.98650
# Velocity P-wave (km/s) = 5.95010 5.65339 5.80364
#
# Compressibility (1/GPa) = 0.02340125
#
# Stress axis : x y z
#
# Youngs Moduli (GPa) = 83.67631 35.84859 56.39667
#
# Poissons Ratio (x) = -0.06811 0.24068
# Poissons Ratio (y) = -0.15897 0.83018
# Poissons Ratio (z) = 0.35709 0.52771
#
# Static dielectric constant tensor:
#      x y z
#    x 1.905970 0.000000 0.000000 
#    y 0.000000 1.700470 0.000000 
#    z 0.000000 0.000000 1.865940 
# 
# From -- ./inp_files/5844.got.cif
#   From: 2010.05.17/outbox.ucp.g08.bks.cvg/sg33_3_cif.got.tgz:5844.got - 2010.06.11 10:35:07.
