data_PCOD9347139
_publ_section_title
;
Structure prediction by ZEFSAII (Michael W. Deem and Ramdas Pophale) SiO2 
 PCOD9347139
Probable space group: P N N 2
;
_chemical_formula_sum "Si O2"
_cell_formula_units_Z 32
_cell_length_a 5.561495
_cell_length_b 30.957315
_cell_length_c 8.789387
_cell_angle_alpha 90.000000
_cell_angle_beta 90.000000
_cell_angle_gamma 90.000000
_cell_volume 1513.259554
_symmetry_space_group_name_H-M "P N N 2"
_symmetry_group_IT_number 34
_symmetry_cell_setting 'orthorhombic'
loop_
_space_group_symop_operation_xyz
x,y,z
-x,-y,z
1/2-x,1/2+y,1/2+z
1/2+x,1/2-y,1/2+z
loop_
_atom_site_type_symbol
_atom_site_label
_atom_site_fract_x
_atom_site_fract_y
_atom_site_fract_z
Si Si1 0.937194 0.272327 0.085220
Si Si2 0.921359 0.322676 0.380139
Si Si3 0.807452 0.105760 0.958476
Si Si4 0.752447 0.478232 0.211615
Si Si5 0.059266 0.814912 0.472518
Si Si6 0.059671 0.179475 0.119856
Si Si7 0.403705 0.612141 0.182491
Si Si8 0.743761 0.011422 0.061800
O O1 0.974608 0.283388 0.265435
O O2 0.675860 0.290116 0.038342
O O3 0.176681 0.294074 0.007637
O O4 0.925625 0.221420 0.051712
O O5 0.820912 0.311459 0.546956
O O6 0.728421 0.351014 0.283035
O O7 0.129212 0.356437 0.410492
O O8 0.721435 0.062520 0.035402
O O9 0.912522 0.090352 0.798956
O O10 0.992375 0.131788 0.063751
O O11 0.500000 0.500000 0.160881
O O12 0.764767 0.428622 0.153248
O O13 0.755222 0.485007 0.398548
O O14 0.000000 0.500000 0.160131
O O15 0.999596 0.818705 0.295676
O O16 0.037652 0.862267 0.550083
O O17 0.500000 0.000000 0.147226
O O18 0.000000 0.000000 0.133345
#
# Coordination Sequence:
#
# PCOD9347139 Si02
#       8
#     4   4   4   4   4   4   4   4
#     4  11  25  44  66  90 128 173 229 267 321 392
#     4  10  22  40  64  91 127 166 217 274 314 386
#     4  11  21  38  62  96 127 167 216 269 330 383
#     4  10  18  29  56  92 117 155 203 269 306 369
#     4  11  26  44  66  95 132 175 215 277 334 398
#     4  11  27  39  64  95 132 175 215 276 335 400
#     4  10  20  38  61  95 127 164 216 265 326 384
#     4  10  19  32  56  91 120 154 205 269 311 371
#
# _framework density 21.146408000000001
#
# number of rings (size 3 to 8) (size 9 to 14) (size 15 to 20)
#    0.000    1.500    3.750    2.250    7.000    0.000 
#    0.000    0.000    0.000    0.750    0.000    0.875 
#    0.000    0.000    0.000    0.000    0.000    0.000 
#
# Total GULP energy -178182.472473 kJ/mol
# GULP energy per Si atom -5568.202265 kJ/mol
# Density = 2.109828 g / cm^3
# Si number density = 21.146408 Si / 1000 Ang^3
#
#
#
# Elastic Constant Matrix: (Units=GPa)
#
#
# Indices 1 2 3 4 5 6 
#
# 1 104.1570 11.8538 7.1810 0.0000 0.0000 0.0000
# 2 11.8538 107.0634 9.8236 0.0000 0.0000 0.0000
# 3 7.1810 9.8236 47.5160 0.0000 0.0000 0.0000
# 4 0.0000 0.0000 0.0000 5.7835 0.0000 0.0000
# 5 0.0000 0.0000 0.0000 0.0000 3.8610 0.0000
# 6 0.0000 0.0000 0.0000 0.0000 0.0000 24.9331
#
#
#
# Elastic Compliance Matrix: (Units=1/GPa)
#
#
# Indices 1 2 3 4 5 6 
#
# 1 0.009799 -0.000967 -0.001281 0.000000 0.000000 0.000000
# 2 -0.000967 0.009616 -0.001842 0.000000 0.000000 0.000000
# 3 -0.001281 -0.001842 0.021620 0.000000 0.000000 0.000000
# 4 0.000000 0.000000 0.000000 0.172907 0.000000 0.000000
# 5 0.000000 0.000000 0.000000 0.000000 0.259002 0.000000
# 6 0.000000 0.000000 0.000000 0.000000 0.000000 0.040107
#
#
# Mechanical properties :
#
#
# Convention : Reuss Voigt Hill
#
# Bulk Modulus (GPa) = 30.43674 35.16149 32.79912
# Shear Modulus (GPa) = 9.39525 22.24071 15.81798
#
# Velocity S-wave (km/s) = 2.11012 3.24659 2.73797
# Velocity P-wave (km/s) = 4.51236 5.54234 5.05366
#
# Compressibility (1/GPa) = 0.03285503
#
# Stress axis : x y z
#
# Youngs Moduli (GPa) = 102.04808 103.98929 46.25361
#
# Poissons Ratio (x) = 0.10060 0.05925
# Poissons Ratio (y) = 0.09872 0.08520
# Poissons Ratio (z) = 0.13072 0.19154
#
# Static dielectric constant tensor:
#      x y z
#    x 1.910390 0.000000 0.000000 
#    y 0.000000 2.151920 0.000000 
#    z 0.000000 0.000000 1.762920 
# 
# From -- ./inp_files/2222.got.cif
#   From: 2010.05.17/outbox.cif.g08.bks.cpg/sg34_2_cif.got.tgz:2222.got - 2010.06.03 17:23:11.
