data_PCOD9347650
_publ_section_title
;
Structure prediction by ZEFSAII (Michael W. Deem and Ramdas Pophale) SiO2 
 PCOD9347650
Probable space group: P N N 2
;
_chemical_formula_sum "Si O2"
_cell_formula_units_Z 20
_cell_length_a 13.976041
_cell_length_b 5.181005
_cell_length_c 11.477473
_cell_angle_alpha 90.000000
_cell_angle_beta 90.000000
_cell_angle_gamma 90.000000
_cell_volume 831.083112
_symmetry_space_group_name_H-M "P N N 2"
_symmetry_group_IT_number 34
_symmetry_cell_setting 'orthorhombic'
loop_
_space_group_symop_operation_xyz
x,y,z
-x,-y,z
1/2-x,1/2+y,1/2+z
1/2+x,1/2-y,1/2+z
loop_
_atom_site_type_symbol
_atom_site_label
_atom_site_fract_x
_atom_site_fract_y
_atom_site_fract_z
Si Si1 0.358088 0.414327 0.662960
Si Si2 0.103259 0.989411 0.606312
Si Si3 0.232396 0.743650 0.947955
Si Si4 0.853959 0.526585 0.748395
Si Si5 0.595414 0.085313 0.789356
O O1 0.327451 0.436062 0.529495
O O2 0.257084 0.419584 0.728275
O O3 0.413459 0.645808 0.722490
O O4 0.396269 0.132907 0.691372
O O5 0.193808 0.070478 0.526164
O O6 0.096025 0.210604 0.707363
O O7 0.118892 0.710114 0.663127
O O8 0.000000 0.000000 0.543263
O O9 0.152189 0.581074 0.878756
O O10 0.307739 0.894977 0.865205
O O11 0.500000 0.000000 0.858771
#
# Coordination Sequence:
#
# PCOD9347650 Si02
#       5
#     4   4   4   4   4
#     4  10  22  40  62  91 127 164 203 251 306 371
#     4  11  24  41  63  96 127 156 205 266 307 351
#     4  10  22  40  68  90 120 172 212 240 304 380
#     4  10  22  40  62  91 127 164 203 251 306 371
#     4  11  24  41  63  96 127 156 205 266 307 351
#
# _framework density 24.064982000000001
#
# number of rings (size 3 to 8) (size 9 to 14) (size 15 to 20)
#    0.000    1.600    0.000    6.000    0.000   20.800 
#    0.000    4.000    0.000    0.000    0.000    0.000 
#    0.000    0.000    0.000    0.000    0.000    0.000 
#
# Total GULP energy -111650.997317 kJ/mol
# GULP energy per Si atom -5582.549866 kJ/mol
# Density = 2.401021 g / cm^3
# Si number density = 24.064982 Si / 1000 Ang^3
#
#
#
# Elastic Constant Matrix: (Units=GPa)
#
#
# Indices 1 2 3 4 5 6 
#
# 1 52.2807 20.4378 -10.8657 0.0000 0.0000 0.0000
# 2 20.4378 140.3534 15.2711 0.0000 0.0000 0.0000
# 3 -10.8657 15.2711 65.5432 0.0000 0.0000 0.0000
# 4 0.0000 0.0000 0.0000 112.9479 0.0000 0.0000
# 5 0.0000 0.0000 0.0000 0.0000 -2.0651 0.0000
# 6 0.0000 0.0000 0.0000 0.0000 0.0000 31.5823
#
#
#
# Elastic Compliance Matrix: (Units=1/GPa)
#
#
# Indices 1 2 3 4 5 6 
#
# 1 0.021449 -0.003601 0.004395 0.000000 0.000000 0.000000
# 2 -0.003601 0.007915 -0.002441 0.000000 0.000000 0.000000
# 3 0.004395 -0.002441 0.016554 0.000000 0.000000 0.000000
# 4 0.000000 0.000000 0.000000 0.008854 0.000000 0.000000
# 5 0.000000 0.000000 0.000000 0.000000 -0.484232 0.000000
# 6 0.000000 0.000000 0.000000 0.000000 0.000000 0.031663
#
#
# Mechanical properties :
#
#
# Convention : Reuss Voigt Hill
#
# Bulk Modulus (GPa) = 23.46170 34.20709 28.83440
# Shear Modulus (GPa) = -13.14772 44.04862 15.45045
#
# Velocity S-wave (km/s) = -2.33993 4.28296 2.53658
# Velocity P-wave (km/s) = 1.57165 6.22123 4.53728
#
# Compressibility (1/GPa) = 0.04262266
#
# Stress axis : x y z
#
# Youngs Moduli (GPa) = 46.62262 126.34363 60.40663
#
# Poissons Ratio (x) = 0.45503 -0.26548
# Poissons Ratio (y) = 0.16791 0.14746
# Poissons Ratio (z) = -0.20490 0.30843
#
# Static dielectric constant tensor:
#      x y z
#    x 2.017460 0.000000 0.000000 
#    y 0.000000 1.803250 0.000000 
#    z 0.000000 0.000000 2.021310 
# 
# From -- ./inp_files/5542.got.cif
#   From: 2010.05.17/outbox.cif.g08.bks.cpg/sg34_3_cif.got.tgz:5542.got - 2010.06.03 17:23:11.
