data_PCOD9347058
_publ_section_title
;
Structure prediction by ZEFSAII (Michael W. Deem and Ramdas Pophale) SiO2 
 PCOD9347058
Probable space group: P N A 21
;
_chemical_formula_sum "Si O2"
_cell_formula_units_Z 32
_cell_length_a 9.000000
_cell_length_b 12.000000
_cell_length_c 15.000000
_cell_angle_alpha 90.000000
_cell_angle_beta 90.000000
_cell_angle_gamma 90.000000
_cell_volume 1620.000000
_symmetry_space_group_name_H-M "P N A 21"
_symmetry_group_IT_number 33
_symmetry_cell_setting 'orthorhombic'
loop_
_space_group_symop_operation_xyz
x,y,z
-x,-y,1/2+z
1/2-x,1/2+y,1/2+z
1/2+x,1/2-y,z
loop_
_atom_site_type_symbol
_atom_site_label
_atom_site_fract_x
_atom_site_fract_y
_atom_site_fract_z
Si Si1 0.307528 0.884591 0.319940
Si Si2 0.595524 0.081264 0.027230
Si Si3 0.161694 0.162469 0.456078
Si Si4 0.609564 0.494919 0.604704
Si Si5 0.497530 0.296933 0.727784
Si Si6 0.477569 0.154112 0.546543
Si Si7 0.454876 0.724426 0.658373
Si Si8 0.682776 0.864260 0.763839
O O1 0.335887 0.906343 0.426792
O O2 0.409993 0.779121 0.295569
O O3 0.146277 0.846728 0.279900
O O4 0.346322 0.001884 0.269187
O O5 0.723314 0.038037 0.094105
O O6 0.540552 0.194750 0.072032
O O7 0.482610 0.976477 0.034128
O O8 0.309937 0.167415 0.514257
O O9 0.222710 0.151365 0.356050
O O10 0.073225 0.273717 0.477603
O O11 0.073430 0.061657 0.507226
O O12 0.580279 0.400996 0.679737
O O13 0.525654 0.606487 0.632009
O O14 0.478454 0.210725 0.644037
O O15 0.535106 0.792457 0.740014
O O16 0.291641 0.686224 0.688918
#
# Coordination Sequence:
#
# PCOD9347058 Si02
#       8
#     4   4   4   4   4   4   4   4
#     4  12  25  43  67 100 131 171 225 278 330 387
#     4  11  24  43  66  93 139 171 217 273 333 395
#     4  10  21  40  66  91 127 168 211 276 319 387
#     4  10  21  43  66  89 130 176 210 265 339 385
#     4  11  24  42  70  96 129 173 223 273 326 398
#     4  10  20  42  66  90 127 171 212 265 335 384
#     4  12  25  42  69  94 132 181 213 270 334 403
#     4  12  24  41  68  99 133 169 229 268 330 393
#
# _framework density 19.753086
#
# number of rings (size 3 to 8) (size 9 to 14) (size 15 to 20)
#    0.000    1.000    5.000    3.750    1.750    0.000 
#    0.000    0.000    0.000    0.000    0.000    0.000 
#    0.000    0.000    0.000    0.000    0.000    0.000 
#
# Total GULP energy -178190.047083 kJ/mol
# GULP energy per Si atom -5568.438971 kJ/mol
# Density = 1.970813 g / cm^3
# Si number density = 19.753086 Si / 1000 Ang^3
#
#
#
# Elastic Constant Matrix: (Units=GPa)
#
#
# Indices 1 2 3 4 5 6 
#
# 1 26.7508 19.0777 13.3712 0.0000 0.0000 0.0000
# 2 19.0777 156.6138 54.0332 0.0000 0.0000 0.0000
# 3 13.3712 54.0332 90.2542 0.0000 0.0000 0.0000
# 4 0.0000 0.0000 0.0000 31.6969 0.0000 0.0000
# 5 0.0000 0.0000 0.0000 0.0000 30.0272 0.0000
# 6 0.0000 0.0000 0.0000 0.0000 0.0000 34.8495
#
#
#
# Elastic Compliance Matrix: (Units=1/GPa)
#
#
# Indices 1 2 3 4 5 6 
#
# 1 0.042046 -0.003747 -0.003986 0.000000 0.000000 0.000000
# 2 -0.003747 0.008381 -0.004463 0.000000 0.000000 0.000000
# 3 -0.003986 -0.004463 0.014342 0.000000 0.000000 0.000000
# 4 0.000000 0.000000 0.000000 0.031549 0.000000 0.000000
# 5 0.000000 0.000000 0.000000 0.000000 0.033303 0.000000
# 6 0.000000 0.000000 0.000000 0.000000 0.000000 0.028695
#
#
# Mechanical properties :
#
#
# Convention : Reuss Voigt Hill
#
# Bulk Modulus (GPa) = 24.76541 49.62035 37.19288
# Shear Modulus (GPa) = 25.48854 31.79050 28.63952
#
# Velocity S-wave (km/s) = 3.59605 4.01608 3.81185
# Velocity P-wave (km/s) = 5.45956 6.83228 6.18413
#
# Compressibility (1/GPa) = 0.04037890
#
# Stress axis : x y z
#
# Youngs Moduli (GPa) = 23.78325 119.31562 69.72524
#
# Poissons Ratio (x) = 0.44702 0.27794
# Poissons Ratio (y) = 0.08910 0.31115
# Poissons Ratio (z) = 0.09481 0.53245
#
# Static dielectric constant tensor:
#      x y z
#    x 1.850940 0.000000 0.000000 
#    y 0.000000 1.783680 0.000000 
#    z 0.000000 0.000000 1.739950 
# 
# From -- ./inp_files/7643.got.cif
#   From: 2010.05.17/outbox.ucp.g08.bks.cvg/sg33_4_cif.got.tgz:7643.got - 2010.06.11 10:35:07.
