data_PCOD9347988
_publ_section_title
;
Structure prediction by ZEFSAII (Michael W. Deem and Ramdas Pophale) SiO2 
 PCOD9347988
Probable space group: P N N 2
;
_chemical_formula_sum "Si O2"
_cell_formula_units_Z 24
_cell_length_a 14.208801
_cell_length_b 5.819146
_cell_length_c 12.577538
_cell_angle_alpha 90.000000
_cell_angle_beta 90.000000
_cell_angle_gamma 90.000000
_cell_volume 1039.949675
_symmetry_space_group_name_H-M "P N N 2"
_symmetry_group_IT_number 34
_symmetry_cell_setting 'orthorhombic'
loop_
_space_group_symop_operation_xyz
x,y,z
-x,-y,z
1/2-x,1/2+y,1/2+z
1/2+x,1/2-y,1/2+z
loop_
_atom_site_type_symbol
_atom_site_label
_atom_site_fract_x
_atom_site_fract_y
_atom_site_fract_z
Si Si1 0.500000 0.000000 0.404990
Si Si2 0.500000 0.500000 0.983648
Si Si3 0.000000 0.000000 0.133768
Si Si4 0.654463 0.816739 0.074968
Si Si5 0.353167 0.820979 0.912168
Si Si6 0.500000 0.000000 0.754871
Si Si7 0.853167 0.820979 0.976470
Si Si8 0.845537 0.183261 0.813670
O O1 0.420041 0.894878 0.477837
O O2 0.557942 0.815025 0.337970
O O3 0.420041 0.605122 0.910802
O O4 0.557942 0.684975 0.050669
O O5 0.000305 0.750000 0.194319
O O6 0.906226 0.993612 0.057945
O O7 0.747778 0.757770 0.007050
O O8 0.678937 0.750000 0.194319
O O9 0.641635 0.076088 0.031770
O O10 0.247778 0.757770 0.881588
O O11 0.406226 0.993612 0.830693
O O12 0.858365 0.923913 0.856869
#
# Coordination Sequence:
#
# PCOD9347988 Si02
#       8
#     2   2   2   4   4   2   4   4
#     4  12  23  45  76 100 150 198 235 321 374 458
#     4  12  23  45  76 100 150 198 235 321 374 458
#     4  12  25  45  80 110 152 206 261 319 392 452
#     4  11  26  45  73 107 146 197 250 306 390 460
#     4  11  25  48  69 109 147 191 254 317 372 459
#     4  12  25  45  80 110 152 206 261 319 392 452
#     4  11  25  48  69 109 147 191 254 317 372 459
#     4  11  26  45  73 107 146 197 250 306 390 460
#
# _framework density 23.078039
#
# number of rings (size 3 to 8) (size 9 to 14) (size 15 to 20)
#    0.000    0.667    3.333    3.000    4.667    0.000 
#   12.000    0.000    0.000    0.000    0.000    0.000 
#    0.000    0.000    0.000    0.000    0.000    0.000 
#
# Total GULP energy -133834.139307 kJ/mol
# GULP energy per Si atom -5576.422471 kJ/mol
# Density = 2.302551 g / cm^3
# Si number density = 23.078039 Si / 1000 Ang^3
#
#
#
# Elastic Constant Matrix: (Units=GPa)
#
#
# Indices 1 2 3 4 5 6 
#
# 1 151.8009 19.1654 -4.3588 0.0000 0.0000 0.0000
# 2 19.1654 56.7323 29.0966 0.0000 0.0000 0.0000
# 3 -4.3588 29.0966 88.4600 0.0000 0.0000 0.0000
# 4 0.0000 0.0000 0.0000 -4.6522 0.0000 0.0000
# 5 0.0000 0.0000 0.0000 0.0000 18.9842 0.0000
# 6 0.0000 0.0000 0.0000 0.0000 0.0000 32.7394
#
#
#
# Elastic Compliance Matrix: (Units=1/GPa)
#
#
# Indices 1 2 3 4 5 6 
#
# 1 0.007013 -0.003063 0.001353 0.000000 0.000000 0.000000
# 2 -0.003063 0.022542 -0.007565 0.000000 0.000000 0.000000
# 3 0.001353 -0.007565 0.013860 0.000000 0.000000 0.000000
# 4 0.000000 0.000000 0.000000 -0.214951 0.000000 0.000000
# 5 0.000000 0.000000 0.000000 0.000000 0.052675 0.000000
# 6 0.000000 0.000000 0.000000 0.000000 0.000000 0.030544
#
#
# Mechanical properties :
#
#
# Convention : Reuss Voigt Hill
#
# Bulk Modulus (GPa) = 40.21962 42.75550 41.48756
# Shear Modulus (GPa) = -81.32977 26.28696 -27.52140
#
# Velocity S-wave (km/s) = -5.94287 3.37864 -3.45706
# Velocity P-wave (km/s) = 5.44286 5.81266 1.44260
#
# Compressibility (1/GPa) = 0.02486349
#
# Stress axis : x y z
#
# Youngs Moduli (GPa) = 142.58898 44.36251 72.15194
#
# Poissons Ratio (x) = 0.13589 -0.09763
# Poissons Ratio (y) = 0.43678 0.54586
# Poissons Ratio (z) = -0.19294 0.33562
#
# Static dielectric constant tensor:
#      x y z
#    x 1.840570 0.000000 0.000000 
#    y 0.000000 1.953810 0.000000 
#    z 0.000000 0.000000 1.963790 
# 
# From -- ./inp_files/6876.got.cif
#   From: 2010.05.17/outbox.cif.g08.bks.cpg/sg34_4_cif.got.tgz:6876.got - 2010.06.03 17:23:11.
