data_PCOD9347697
_publ_section_title
;
Structure prediction by ZEFSAII (Michael W. Deem and Ramdas Pophale) SiO2 
 PCOD9347697
Probable space group: P N N 2
;
_chemical_formula_sum "Si O2"
_cell_formula_units_Z 32
_cell_length_a 5.071321
_cell_length_b 14.936560
_cell_length_c 17.620709
_cell_angle_alpha 90.000000
_cell_angle_beta 90.000000
_cell_angle_gamma 90.000000
_cell_volume 1334.735058
_symmetry_space_group_name_H-M "P N N 2"
_symmetry_group_IT_number 34
_symmetry_cell_setting 'orthorhombic'
loop_
_space_group_symop_operation_xyz
x,y,z
-x,-y,z
1/2-x,1/2+y,1/2+z
1/2+x,1/2-y,1/2+z
loop_
_atom_site_type_symbol
_atom_site_label
_atom_site_fract_x
_atom_site_fract_y
_atom_site_fract_z
Si Si1 0.058851 0.397605 0.255880
Si Si2 0.001789 0.309225 0.844849
Si Si3 0.806481 0.755479 0.696054
Si Si4 0.740606 0.057007 0.449658
Si Si5 0.055246 0.401992 0.541204
Si Si6 0.051335 0.098860 0.144374
Si Si7 0.585519 0.607553 0.104752
Si Si8 0.022846 0.284456 0.396387
O O1 0.228203 0.387576 0.179025
O O2 0.150189 0.351646 0.333467
O O3 0.000000 0.500000 0.268761
O O4 0.793558 0.344364 0.238043
O O5 0.995607 0.293286 0.754609
O O6 0.129324 0.401147 0.872762
O O7 0.223622 0.241293 0.877105
O O8 0.720288 0.298779 0.885072
O O9 0.566052 0.685084 0.687802
O O10 0.901764 0.804723 0.619627
O O11 0.801092 0.122249 0.520527
O O12 0.500000 0.000000 0.482554
O O13 0.000000 0.000000 0.435146
O O14 0.349486 0.402780 0.573419
O O15 0.027744 0.329073 0.477309
O O16 0.000000 0.500000 0.507702
O O17 0.845811 0.391886 0.610825
O O18 0.000000 0.000000 0.181264
O O19 0.500000 0.500000 0.104139
#
# Coordination Sequence:
#
# PCOD9347697 Si02
#       8
#     4   4   4   4   4   4   4   4
#     4  11  22  39  64  98 142 180 228 287 356 440
#     4  11  25  44  66 103 137 178 239 285 352 435
#     4  11  25  42  69 101 140 184 235 299 363 426
#     4  11  26  47  71 100 142 190 241 301 364 431
#     4  10  22  43  63  94 131 177 228 282 348 427
#     4  10  24  43  66  96 134 180 242 292 350 420
#     4  11  23  42  68 103 142 186 238 299 368 439
#     4  11  23  40  65 100 137 178 222 286 357 425
#
# _framework density 23.974796999999999
#
# number of rings (size 3 to 8) (size 9 to 14) (size 15 to 20)
#    0.000    1.250    2.500    2.250    5.250    1.500 
#    0.000    3.750    0.000    0.000    0.000    0.000 
#    0.000    0.000    0.000    0.000    0.000    0.000 
#
# Total GULP energy -178615.201594 kJ/mol
# GULP energy per Si atom -5581.725050 kJ/mol
# Density = 2.392023 g / cm^3
# Si number density = 23.974797 Si / 1000 Ang^3
#
#
#
# Elastic Constant Matrix: (Units=GPa)
#
#
# Indices 1 2 3 4 5 6 
#
# 1 70.5414 13.1156 14.4064 0.0000 0.0000 0.0000
# 2 13.1156 101.7893 37.1878 0.0000 0.0000 0.0000
# 3 14.4064 37.1878 71.1644 0.0000 0.0000 0.0000
# 4 0.0000 0.0000 0.0000 71.1678 0.0000 0.0000
# 5 0.0000 0.0000 0.0000 0.0000 10.6401 0.0000
# 6 0.0000 0.0000 0.0000 0.0000 0.0000 36.9843
#
#
#
# Elastic Compliance Matrix: (Units=1/GPa)
#
#
# Indices 1 2 3 4 5 6 
#
# 1 0.014871 -0.001009 -0.002483 0.000000 0.000000 0.000000
# 2 -0.001009 0.012211 -0.006177 0.000000 0.000000 0.000000
# 3 -0.002483 -0.006177 0.017782 0.000000 0.000000 0.000000
# 4 0.000000 0.000000 0.000000 0.014051 0.000000 0.000000
# 5 0.000000 0.000000 0.000000 0.000000 0.093984 0.000000
# 6 0.000000 0.000000 0.000000 0.000000 0.000000 0.027039
#
#
# Mechanical properties :
#
#
# Convention : Reuss Voigt Hill
#
# Bulk Modulus (GPa) = 39.17510 41.43496 40.30503
# Shear Modulus (GPa) = 24.06341 35.67745 29.87043
#
# Velocity S-wave (km/s) = 3.17155 3.86180 3.53357
# Velocity P-wave (km/s) = 5.45777 6.09959 5.78758
#
# Compressibility (1/GPa) = 0.02552642
#
# Stress axis : x y z
#
# Youngs Moduli (GPa) = 67.24587 81.89475 56.23558
#
# Poissons Ratio (x) = 0.08262 0.13965
# Poissons Ratio (y) = 0.06784 0.34735
# Poissons Ratio (z) = 0.16699 0.50583
#
# Static dielectric constant tensor:
#      x y z
#    x 1.937890 0.000000 0.000000 
#    y 0.000000 1.991100 0.000000 
#    z 0.000000 0.000000 1.924120 
# 
# From -- ./inp_files/7268.got.cif
#   From: 2010.05.17/outbox.cif.g08.bks.cpg/sg34_4_cif.got.tgz:7268.got - 2010.06.03 17:23:11.
