data_PCOD9347546
_publ_section_title
;
Structure prediction by ZEFSAII (Michael W. Deem and Ramdas Pophale) SiO2 
 PCOD9347546
Probable space group: P N N 2
;
_chemical_formula_sum "Si O2"
_cell_formula_units_Z 24
_cell_length_a 10.779044
_cell_length_b 16.572470
_cell_length_c 5.010479
_cell_angle_alpha 90.000000
_cell_angle_beta 90.000000
_cell_angle_gamma 90.000000
_cell_volume 895.048837
_symmetry_space_group_name_H-M "P N N 2"
_symmetry_group_IT_number 34
_symmetry_cell_setting 'orthorhombic'
loop_
_space_group_symop_operation_xyz
x,y,z
-x,-y,z
1/2-x,1/2+y,1/2+z
1/2+x,1/2-y,1/2+z
loop_
_atom_site_type_symbol
_atom_site_label
_atom_site_fract_x
_atom_site_fract_y
_atom_site_fract_z
Si Si1 0.918472 0.111721 0.853400
Si Si2 0.339148 0.057178 0.288467
Si Si3 0.163084 0.729963 0.520237
Si Si4 0.076325 0.276203 0.192497
Si Si5 0.424442 0.611930 0.880791
Si Si6 0.653789 0.042290 0.795173
O O1 0.881396 0.198479 0.720283
O O2 0.799903 0.058040 0.806344
O O3 0.029981 0.085718 0.665368
O O4 0.969324 0.110362 0.153828
O O5 0.369148 0.145338 0.169544
O O6 0.190113 0.060286 0.287994
O O7 0.374272 0.028410 0.584094
O O8 0.378770 0.986961 0.088992
O O9 0.074475 0.728664 0.256094
O O10 0.312342 0.748067 0.479158
O O11 0.115774 0.205960 0.400264
O O12 0.101067 0.370143 0.226106
#
# Coordination Sequence:
#
# PCOD9347546 Si02
#       6
#     4   4   4   4   4   4
#     4  10  21  39  65  93 126 175 233 292 350 420
#     4  11  24  40  62  96 137 179 225 287 364 438
#     4   9  21  43  68  96 133 182 240 297 360 439
#     4   9  21  43  68  96 133 182 240 297 360 439
#     4  10  21  39  65  93 126 175 233 292 350 420
#     4  11  24  40  62  96 137 179 225 287 364 438
#
# _framework density 26.81418
#
# number of rings (size 3 to 8) (size 9 to 14) (size 15 to 20)
#    0.000    2.000    0.000    2.000    0.000   10.000 
#    0.000   21.667    0.000    0.000    0.000    0.000 
#    0.000    0.000    0.000    0.000    0.000    0.000 
#
# Total GULP energy -133875.211536 kJ/mol
# GULP energy per Si atom -5578.133814 kJ/mol
# Density = 2.675315 g / cm^3
# Si number density = 26.814180 Si / 1000 Ang^3
#
#
#
# Elastic Constant Matrix: (Units=GPa)
#
#
# Indices 1 2 3 4 5 6 
#
# 1 158.2171 37.9160 23.6827 0.0000 0.0000 0.0000
# 2 37.9160 138.2394 20.0720 0.0000 0.0000 0.0000
# 3 23.6827 20.0720 98.4793 0.0000 0.0000 0.0000
# 4 0.0000 0.0000 0.0000 -6.2304 0.0000 0.0000
# 5 0.0000 0.0000 0.0000 0.0000 -344.2797 0.0000
# 6 0.0000 0.0000 0.0000 0.0000 0.0000 35.4151
#
#
#
# Elastic Compliance Matrix: (Units=1/GPa)
#
#
# Indices 1 2 3 4 5 6 
#
# 1 0.006927 -0.001709 -0.001318 0.000000 0.000000 0.000000
# 2 -0.001709 0.007876 -0.001194 0.000000 0.000000 0.000000
# 3 -0.001318 -0.001194 0.010715 0.000000 0.000000 0.000000
# 4 0.000000 0.000000 0.000000 -0.160503 0.000000 0.000000
# 5 0.000000 0.000000 0.000000 0.000000 -0.002905 0.000000
# 6 0.000000 0.000000 0.000000 0.000000 0.000000 0.028237
#
#
# Mechanical properties :
#
#
# Convention : Reuss Voigt Hill
#
# Bulk Modulus (GPa) = 58.55999 62.03081 60.29540
# Shear Modulus (GPa) = -52.34494 -42.13466 -47.23980
#
# Velocity S-wave (km/s) = -4.42309 -3.96834 -4.20187
# Velocity P-wave (km/s) = 2.04900 1.47881 1.00287
#
# Compressibility (1/GPa) = 0.01707651
#
# Stress axis : x y z
#
# Youngs Moduli (GPa) = 144.36009 126.96977 93.32963
#
# Poissons Ratio (x) = 0.21695 0.12297
# Poissons Ratio (y) = 0.24666 0.11147
# Poissons Ratio (z) = 0.19021 0.15165
#
# Static dielectric constant tensor:
#      x y z
#    x 2.363540 0.000000 0.000000 
#    y 0.000000 2.165290 0.000000 
#    z 0.000000 0.000000 2.016390 
# 
# From -- ./inp_files/915.got.cif
#   From: 2010.05.17/outbox.cif.g08.bks.cpg/sg34_1_cif.got.tgz:915.got - 2010.06.03 17:23:11.
