data_PCOD9347477
_publ_section_title
;
Structure prediction by ZEFSAII (Michael W. Deem and Ramdas Pophale) SiO2 
 PCOD9347477
Probable space group: P N N 2
;
_chemical_formula_sum "Si O2"
_cell_formula_units_Z 20
_cell_length_a 10.127517
_cell_length_b 10.257002
_cell_length_c 7.627549
_cell_angle_alpha 90.000000
_cell_angle_beta 90.000000
_cell_angle_gamma 90.000000
_cell_volume 792.334246
_symmetry_space_group_name_H-M "P N N 2"
_symmetry_group_IT_number 34
_symmetry_cell_setting 'orthorhombic'
loop_
_space_group_symop_operation_xyz
x,y,z
-x,-y,z
1/2-x,1/2+y,1/2+z
1/2+x,1/2-y,1/2+z
loop_
_atom_site_type_symbol
_atom_site_label
_atom_site_fract_x
_atom_site_fract_y
_atom_site_fract_z
Si Si1 0.699102 0.510064 0.481260
Si Si2 0.151925 0.024271 0.593906
Si Si3 0.389764 0.230563 0.512341
Si Si4 0.855958 0.263109 0.607775
Si Si5 0.053792 0.356447 0.326517
O O1 0.639660 0.451944 0.303635
O O2 0.614521 0.617653 0.580779
O O3 0.763062 0.390433 0.584529
O O4 0.802273 0.619432 0.403967
O O5 0.209298 0.877417 0.570243
O O6 0.262296 0.131933 0.539032
O O7 0.000000 0.000000 0.530578
O O8 0.414577 0.231716 0.303849
O O9 0.509530 0.179374 0.631952
O O10 0.971493 0.274220 0.465745
O O11 0.000000 0.500000 0.347941
#
# Coordination Sequence:
#
# PCOD9347477 Si02
#       5
#     4   4   4   4   4
#     4  10  23  46  65 101 137 170 227 274 332 402
#     4  11  23  44  65  97 137 172 219 279 330 397
#     4  11  23  41  70  99 130 181 219 269 339 398
#     4  10  23  41  65 101 125 175 221 264 341 389
#     4  10  20  43  66  91 137 169 217 280 317 393
#
# _framework density 25.241872999999998
#
# number of rings (size 3 to 8) (size 9 to 14) (size 15 to 20)
#    0.000    1.600    4.000    1.200    2.800    2.400 
#   14.400    0.000    0.000    0.000    0.000    0.000 
#    0.000    0.000    0.000    0.000    0.000    0.000 
#
# Total GULP energy -111385.600217 kJ/mol
# GULP energy per Si atom -5569.280011 kJ/mol
# Density = 2.518442 g / cm^3
# Si number density = 25.241873 Si / 1000 Ang^3
#
#
#
# Elastic Constant Matrix: (Units=GPa)
#
#
# Indices 1 2 3 4 5 6 
#
# 1 77.3255 40.2271 27.3266 0.0000 0.0000 0.0000
# 2 40.2271 176.7769 35.5595 0.0000 0.0000 0.0000
# 3 27.3266 35.5595 111.0192 0.0000 0.0000 0.0000
# 4 0.0000 0.0000 0.0000 12.7391 0.0000 0.0000
# 5 0.0000 0.0000 0.0000 0.0000 -32.6085 0.0000
# 6 0.0000 0.0000 0.0000 0.0000 0.0000 285.7492
#
#
#
# Elastic Compliance Matrix: (Units=1/GPa)
#
#
# Indices 1 2 3 4 5 6 
#
# 1 0.015478 -0.002946 -0.002866 0.000000 0.000000 0.000000
# 2 -0.002946 0.006607 -0.001391 0.000000 0.000000 0.000000
# 3 -0.002866 -0.001391 0.010159 0.000000 0.000000 0.000000
# 4 0.000000 0.000000 0.000000 0.078499 0.000000 0.000000
# 5 0.000000 0.000000 0.000000 0.000000 -0.030667 0.000000
# 6 0.000000 0.000000 0.000000 0.000000 0.000000 0.003500
#
#
# Mechanical properties :
#
#
# Convention : Reuss Voigt Hill
#
# Bulk Modulus (GPa) = 56.06257 63.48313 59.77285
# Shear Modulus (GPa) = 48.11107 70.64318 59.37713
#
# Velocity S-wave (km/s) = 4.37052 5.29597 4.85534
# Velocity P-wave (km/s) = 6.90847 7.91207 7.42724
#
# Compressibility (1/GPa) = 0.01783721
#
# Stress axis : x y z
#
# Youngs Moduli (GPa) = 64.60945 151.35536 98.43917
#
# Poissons Ratio (x) = 0.44582 0.28215
# Poissons Ratio (y) = 0.19031 0.13695
# Poissons Ratio (z) = 0.18519 0.21057
#
# Static dielectric constant tensor:
#      x y z
#    x 1.726940 0.000000 0.000000 
#    y 0.000000 2.355350 0.000000 
#    z 0.000000 0.000000 1.950340 
# 
# From -- ./inp_files/3118.got.cif
#   From: 2010.05.17/outbox.cif.g08.bks.cpg/sg34_2_cif.got.tgz:3118.got - 2010.06.03 17:23:11.
