data_PCOD9347969
_publ_section_title
;
Structure prediction by ZEFSAII (Michael W. Deem and Ramdas Pophale) SiO2 
 PCOD9347969
Probable space group: P N N 2
;
_chemical_formula_sum "Si O2"
_cell_formula_units_Z 30
_cell_length_a 16.310500
_cell_length_b 13.720028
_cell_length_c 5.313576
_cell_angle_alpha 90.000000
_cell_angle_beta 90.000000
_cell_angle_gamma 90.000000
_cell_volume 1189.074783
_symmetry_space_group_name_H-M "P N N 2"
_symmetry_group_IT_number 34
_symmetry_cell_setting 'orthorhombic'
loop_
_space_group_symop_operation_xyz
x,y,z
-x,-y,z
1/2-x,1/2+y,1/2+z
1/2+x,1/2-y,1/2+z
loop_
_atom_site_type_symbol
_atom_site_label
_atom_site_fract_x
_atom_site_fract_y
_atom_site_fract_z
Si Si1 0.620723 0.344493 0.548990
Si Si2 0.723576 0.381479 0.050779
Si Si3 0.161538 0.751445 0.757123
Si Si4 0.558691 0.627464 0.601405
Si Si5 0.608594 0.146321 0.256210
Si Si6 0.276627 0.405279 0.876169
Si Si7 0.000000 0.500000 0.047073
Si Si8 0.538542 0.827930 0.900534
O O1 0.682256 0.376934 0.325028
O O2 0.534887 0.404292 0.553601
O O3 0.601863 0.234469 0.456497
O O4 0.660823 0.354014 0.823099
O O5 0.795013 0.303083 0.989977
O O6 0.747210 0.493617 0.007001
O O7 0.217891 0.814289 0.569516
O O8 0.110556 0.670416 0.606411
O O9 0.096463 0.832785 0.843498
O O10 0.635747 0.577155 0.740893
O O11 0.547844 0.725167 0.765917
O O12 0.702515 0.124032 0.191546
O O13 0.550399 0.171858 0.026968
O O14 0.566959 0.052984 0.379382
O O15 0.957546 0.418866 0.218203
#
# Coordination Sequence:
#
# PCOD9347969 Si02
#       8
#     4   4   4   4   4   4   2   4
#     4  12  26  53  79 108 158 209 268 319 399 480
#     4  12  30  50  79 119 154 213 267 332 398 488
#     4  11  25  50  76 110 158 203 259 335 402 469
#     4  11  25  49  76 106 152 209 259 327 400 466
#     4  12  25  49  73 117 156 204 263 333 408 484
#     4  11  29  48  76 116 159 207 264 339 402 483
#     4  12  26  38  74 118 148 210 260 332 402 492
#     4  11  24  44  74 112 155 204 257 322 404 489
#
# _framework density 25.229700999999999
#
# number of rings (size 3 to 8) (size 9 to 14) (size 15 to 20)
#    0.000    0.533    4.000    2.000   11.200    1.600 
#    0.000    0.000    0.000    0.000    0.000    0.000 
#    0.000    0.000    0.000    0.000    0.000    0.000 
#
# Total GULP energy -168051.710942 kJ/mol
# GULP energy per Si atom -5601.723698 kJ/mol
# Density = 2.517228 g / cm^3
# Si number density = 25.229701 Si / 1000 Ang^3
#
#
#
# Elastic Constant Matrix: (Units=GPa)
#
#
# Indices 1 2 3 4 5 6 
#
# 1 118.5822 19.9387 9.6769 0.0000 0.0000 0.0000
# 2 19.9387 77.9508 1.8925 0.0000 0.0000 0.0000
# 3 9.6769 1.8925 62.0413 0.0000 0.0000 0.0000
# 4 0.0000 0.0000 0.0000 23.1382 0.0000 0.0000
# 5 0.0000 0.0000 0.0000 0.0000 37.2769 0.0000
# 6 0.0000 0.0000 0.0000 0.0000 0.0000 39.2074
#
#
#
# Elastic Compliance Matrix: (Units=1/GPa)
#
#
# Indices 1 2 3 4 5 6 
#
# 1 0.008919 -0.002249 -0.001323 0.000000 0.000000 0.000000
# 2 -0.002249 0.013405 -0.000058 0.000000 0.000000 0.000000
# 3 -0.001323 -0.000058 0.016326 0.000000 0.000000 0.000000
# 4 0.000000 0.000000 0.000000 0.043219 0.000000 0.000000
# 5 0.000000 0.000000 0.000000 0.000000 0.026826 0.000000
# 6 0.000000 0.000000 0.000000 0.000000 0.000000 0.025505
#
#
# Mechanical properties :
#
#
# Convention : Reuss Voigt Hill
#
# Bulk Modulus (GPa) = 31.85628 35.73229 33.79429
# Shear Modulus (GPa) = 32.91110 35.06225 33.98667
#
# Velocity S-wave (km/s) = 3.61565 3.73194 3.67425
# Velocity P-wave (km/s) = 5.48493 5.72393 5.60570
#
# Compressibility (1/GPa) = 0.03139098
#
# Stress axis : x y z
#
# Youngs Moduli (GPa) = 112.11902 74.59708 61.25068
#
# Poissons Ratio (x) = 0.16779 0.08101
# Poissons Ratio (y) = 0.25219 0.00356
# Poissons Ratio (z) = 0.14828 0.00433
#
# Static dielectric constant tensor:
#      x y z
#    x 2.082390 0.000000 0.000000 
#    y 0.000000 1.980400 0.000000 
#    z 0.000000 0.000000 1.968010 
# 
# From -- ./inp_files/1484.got.cif
#   From: 2010.05.17/outbox.cif.g08.bks.cpg/sg34_1_cif.got.tgz:1484.got - 2010.06.03 17:23:11.
