data_PCOD9347786
_publ_section_title
;
Structure prediction by ZEFSAII (Michael W. Deem and Ramdas Pophale) SiO2 
 PCOD9347786
Probable space group: P N N 2
;
_chemical_formula_sum "Si O2"
_cell_formula_units_Z 22
_cell_length_a 6.421416
_cell_length_b 10.648416
_cell_length_c 13.634561
_cell_angle_alpha 90.000000
_cell_angle_beta 90.000000
_cell_angle_gamma 90.000000
_cell_volume 932.302770
_symmetry_space_group_name_H-M "P N N 2"
_symmetry_group_IT_number 34
_symmetry_cell_setting 'orthorhombic'
loop_
_space_group_symop_operation_xyz
x,y,z
-x,-y,z
1/2-x,1/2+y,1/2+z
1/2+x,1/2-y,1/2+z
loop_
_atom_site_type_symbol
_atom_site_label
_atom_site_fract_x
_atom_site_fract_y
_atom_site_fract_z
Si Si1 0.430641 0.372647 0.192180
Si Si2 0.694828 0.702533 0.751190
Si Si3 0.671809 0.180484 0.868841
Si Si4 0.990713 0.638365 0.922269
Si Si5 0.137855 0.179193 0.092675
Si Si6 0.500000 0.000000 0.031964
O O1 0.500000 0.500000 0.142959
O O2 0.629942 0.284798 0.198907
O O3 0.331872 0.395602 0.299784
O O4 0.251344 0.299417 0.138359
O O5 0.542311 0.792332 0.812927
O O6 0.826734 0.625240 0.832085
O O7 0.549788 0.644918 0.666186
O O8 0.784104 0.314869 0.884390
O O9 0.614069 0.103460 0.964613
O O10 0.000000 0.500000 0.970250
O O11 0.931212 0.760229 0.988833
O O12 0.315322 0.073289 0.086692
#
# Coordination Sequence:
#
# PCOD9347786 Si02
#       6
#     4   4   4   4   4   2
#     4  10  23  43  72 103 140 188 252 303 366 445
#     4  10  23  50  67 106 142 191 244 300 384 431
#     4  10  23  45  72 101 137 194 237 304 367 433
#     4  11  26  48  71 107 147 193 251 303 383 455
#     4  11  27  44  72 108 144 196 248 307 379 447
#     4  12  24  48  72 110 148 186 260 302 370 468
#
# _framework density 23.597484000000001
#
# number of rings (size 3 to 8) (size 9 to 14) (size 15 to 20)
#    0.000    1.455    1.818    1.091    7.636    2.182 
#   18.000    0.000    0.000    0.000    0.000    0.000 
#    0.000    0.000    0.000    0.000    0.000    0.000 
#
# Total GULP energy -122938.468832 kJ/mol
# GULP energy per Si atom -5588.112220 kJ/mol
# Density = 2.354378 g / cm^3
# Si number density = 23.597484 Si / 1000 Ang^3
#
#
#
# Elastic Constant Matrix: (Units=GPa)
#
#
# Indices 1 2 3 4 5 6 
#
# 1 114.9598 22.5275 37.4522 0.0000 0.0000 0.0000
# 2 22.5275 77.2108 18.1749 0.0000 0.0000 0.0000
# 3 37.4522 18.1749 77.2416 0.0000 0.0000 0.0000
# 4 0.0000 0.0000 0.0000 18.3318 0.0000 0.0000
# 5 0.0000 0.0000 0.0000 0.0000 32.0876 0.0000
# 6 0.0000 0.0000 0.0000 0.0000 0.0000 29.8154
#
#
#
# Elastic Compliance Matrix: (Units=1/GPa)
#
#
# Indices 1 2 3 4 5 6 
#
# 1 0.010613 -0.001996 -0.004676 0.000000 0.000000 0.000000
# 2 -0.001996 0.014086 -0.002347 0.000000 0.000000 0.000000
# 3 -0.004676 -0.002347 0.015766 0.000000 0.000000 0.000000
# 4 0.000000 0.000000 0.000000 0.054550 0.000000 0.000000
# 5 0.000000 0.000000 0.000000 0.000000 0.031165 0.000000
# 6 0.000000 0.000000 0.000000 0.000000 0.000000 0.033540
#
#
# Mechanical properties :
#
#
# Convention : Reuss Voigt Hill
#
# Bulk Modulus (GPa) = 44.58802 47.30238 45.94520
# Shear Modulus (GPa) = 26.99287 28.79746 27.89516
#
# Velocity S-wave (km/s) = 3.38581 3.49716 3.44193
# Velocity P-wave (km/s) = 5.84989 6.03290 5.94210
#
# Compressibility (1/GPa) = 0.02242755
#
# Stress axis : x y z
#
# Youngs Moduli (GPa) = 94.22119 70.99105 63.42734
#
# Poissons Ratio (x) = 0.14168 0.29662
# Poissons Ratio (y) = 0.18805 0.14885
# Poissons Ratio (z) = 0.44062 0.16660
#
# Static dielectric constant tensor:
#      x y z
#    x 1.843320 0.000000 0.000000 
#    y 0.000000 1.901900 0.000000 
#    z 0.000000 0.000000 1.991300 
# 
# From -- ./inp_files/6056.got.cif
#   From: 2010.05.17/outbox.cif.g08.bks.cpg/sg34_4_cif.got.tgz:6056.got - 2010.06.03 17:23:11.
