data_PCOD9347277
_publ_section_title
;
Structure prediction by ZEFSAII (Michael W. Deem and Ramdas Pophale) SiO2 
 PCOD9347277
Probable space group: P N N 2
;
_chemical_formula_sum "Si O2"
_cell_formula_units_Z 24
_cell_length_a 7.627260
_cell_length_b 17.319417
_cell_length_c 7.607153
_cell_angle_alpha 90.000000
_cell_angle_beta 90.000000
_cell_angle_gamma 90.000000
_cell_volume 1004.902603
_symmetry_space_group_name_H-M "P N N 2"
_symmetry_group_IT_number 34
_symmetry_cell_setting 'orthorhombic'
loop_
_space_group_symop_operation_xyz
x,y,z
-x,-y,z
1/2-x,1/2+y,1/2+z
1/2+x,1/2-y,1/2+z
loop_
_atom_site_type_symbol
_atom_site_label
_atom_site_fract_x
_atom_site_fract_y
_atom_site_fract_z
Si Si1 0.225193 0.178301 0.814940
Si Si2 0.631255 0.156918 0.419898
Si Si3 0.283019 0.994234 0.508664
Si Si4 0.757229 0.835541 0.405954
Si Si5 0.405848 0.828548 0.835932
Si Si6 0.103152 0.932224 0.868868
O O1 0.222229 0.263114 0.890898
O O2 0.255092 0.187795 0.609270
O O3 0.402464 0.142808 0.892142
O O4 0.048353 0.130945 0.834729
O O5 0.735205 0.079048 0.379804
O O6 0.440688 0.165482 0.331656
O O7 0.612530 0.150256 0.630867
O O8 0.184662 0.976221 0.694413
O O9 0.500000 0.000000 0.529571
O O10 0.205360 0.072718 0.424298
O O11 0.872584 0.764388 0.335232
O O12 0.260869 0.878676 0.937480
O O13 0.000000 0.000000 0.970023
#
# Coordination Sequence:
#
# PCOD9347277 Si02
#       6
#     4   4   4   4   4   4
#     4  11  22  36  59  89 119 153 199 240 294 348
#     4   9  20  37  57  87 119 155 193 243 293 353
#     4   9  19  35  60  89 119 150 202 246 283 349
#     4  10  19  37  59  88 115 154 202 243 287 349
#     4  10  23  36  59  88 121 153 197 244 294 349
#     4  11  21  35  59  86 115 152 196 239 290 342
#
# _framework density 23.882909999999999
#
# number of rings (size 3 to 8) (size 9 to 14) (size 15 to 20)
#    0.000    2.000    3.333    1.000    4.667    0.000 
#    0.000    0.000    3.667    0.000    0.000    0.000 
#    0.000    0.000    0.000    0.000    0.000    0.000 
#
# Total GULP energy -133629.000651 kJ/mol
# GULP energy per Si atom -5567.875027 kJ/mol
# Density = 2.382855 g / cm^3
# Si number density = 23.882910 Si / 1000 Ang^3
#
#
#
# Elastic Constant Matrix: (Units=GPa)
#
#
# Indices 1 2 3 4 5 6 
#
# 1 124.0987 21.0497 -1.5038 0.0000 0.0000 0.0000
# 2 21.0497 106.2304 1.3977 0.0000 0.0000 0.0000
# 3 -1.5038 1.3977 19.3776 0.0000 0.0000 0.0000
# 4 0.0000 0.0000 0.0000 110.1890 0.0000 0.0000
# 5 0.0000 0.0000 0.0000 0.0000 8.5041 0.0000
# 6 0.0000 0.0000 0.0000 0.0000 0.0000 56.7922
#
#
#
# Elastic Compliance Matrix: (Units=1/GPa)
#
#
# Indices 1 2 3 4 5 6 
#
# 1 0.008350 -0.001665 0.000768 0.000000 0.000000 0.000000
# 2 -0.001665 0.009754 -0.000833 0.000000 0.000000 0.000000
# 3 0.000768 -0.000833 0.051726 0.000000 0.000000 0.000000
# 4 0.000000 0.000000 0.000000 0.009075 0.000000 0.000000
# 5 0.000000 0.000000 0.000000 0.000000 0.117590 0.000000
# 6 0.000000 0.000000 0.000000 0.000000 0.000000 0.017608
#
#
# Mechanical properties :
#
#
# Convention : Reuss Voigt Hill
#
# Bulk Modulus (GPa) = 15.06681 32.39932 23.73306
# Shear Modulus (GPa) = 20.86068 50.34794 35.60431
#
# Velocity S-wave (km/s) = 2.95864 4.59640 3.86526
# Velocity P-wave (km/s) = 4.24190 6.46255 5.46618
#
# Compressibility (1/GPa) = 0.06637107
#
# Stress axis : x y z
#
# Youngs Moduli (GPa) = 119.76386 102.51885 19.33278
#
# Poissons Ratio (x) = 0.17066 -0.01485
# Poissons Ratio (y) = 0.19936 0.01610
# Poissons Ratio (z) = -0.09199 0.08537
#
# Static dielectric constant tensor:
#      x y z
#    x 2.012960 0.000000 0.000000 
#    y 0.000000 1.994780 0.000000 
#    z 0.000000 0.000000 1.903830 
# 
# From -- ./inp_files/2712.got.cif
#   From: 2010.05.17/outbox.cif.g08.bks.cpg/sg34_2_cif.got.tgz:2712.got - 2010.06.03 17:23:11.
