data_PCOD9347479
_publ_section_title
;
Structure prediction by ZEFSAII (Michael W. Deem and Ramdas Pophale) SiO2 
 PCOD9347479
Probable space group: P N N 2
;
_chemical_formula_sum "Si O2"
_cell_formula_units_Z 24
_cell_length_a 12.992742
_cell_length_b 13.015383
_cell_length_c 6.626790
_cell_angle_alpha 90.000000
_cell_angle_beta 90.000000
_cell_angle_gamma 90.000000
_cell_volume 1120.626725
_symmetry_space_group_name_H-M "P N N 2"
_symmetry_group_IT_number 34
_symmetry_cell_setting 'orthorhombic'
loop_
_space_group_symop_operation_xyz
x,y,z
-x,-y,z
1/2-x,1/2+y,1/2+z
1/2+x,1/2-y,1/2+z
loop_
_atom_site_type_symbol
_atom_site_label
_atom_site_fract_x
_atom_site_fract_y
_atom_site_fract_z
Si Si1 0.791852 0.962779 0.723510
Si Si2 0.468894 0.280887 0.681207
Si Si3 0.000000 0.500000 0.516142
Si Si4 0.725161 0.795745 0.445570
Si Si5 0.652327 0.145302 0.782368
Si Si6 0.145932 0.668809 0.524864
Si Si7 0.500000 0.500000 0.474861
O O1 0.784473 0.895888 0.520336
O O2 0.737811 0.072094 0.683758
O O3 0.901241 0.978226 0.831249
O O4 0.720576 0.893259 0.873327
O O5 0.385944 0.223483 0.539607
O O6 0.580085 0.226708 0.667221
O O7 0.920771 0.246834 0.402405
O O8 0.477455 0.399032 0.611941
O O9 0.070497 0.434707 0.368627
O O10 0.070497 0.583343 0.625447
O O11 0.797915 0.698225 0.481221
O O12 0.712238 0.788276 0.205980
#
# Coordination Sequence:
#
# PCOD9347479 Si02
#       7
#     4   4   2   4   4   4   2
#     4  10  23  42  67  95 144 179 230 298 366 437
#     4  10  23  41  69  93 141 178 231 299 369 431
#     4   8  18  36  68  86 126 164 220 276 346 424
#     4  11  22  42  66  99 136 180 233 297 362 438
#     4  10  20  44  64  96 133 179 232 293 351 451
#     4   9  20  41  64  99 124 180 227 285 354 441
#     4  12  22  44  68 102 140 190 238 312 384 442
#
# _framework density 21.416588000000001
#
# number of rings (size 3 to 8) (size 9 to 14) (size 15 to 20)
#    0.000    2.000    1.667    2.000    0.000    4.000 
#    6.000    3.333    0.000    0.000    0.000    0.000 
#    0.000    0.000    0.000    0.000    0.000    0.000 
#
# Total GULP energy -133722.762304 kJ/mol
# GULP energy per Si atom -5571.781763 kJ/mol
# Density = 2.136784 g / cm^3
# Si number density = 21.416588 Si / 1000 Ang^3
#
#
#
# Elastic Constant Matrix: (Units=GPa)
#
#
# Indices 1 2 3 4 5 6 
#
# 1 139.9512 59.8789 28.9138 0.0000 0.0000 0.0000
# 2 59.8789 144.8703 45.8031 0.0000 0.0000 0.0000
# 3 28.9138 45.8031 63.6437 0.0000 0.0000 0.0000
# 4 0.0000 0.0000 0.0000 40.1640 0.0000 0.0000
# 5 0.0000 0.0000 0.0000 0.0000 23.9033 0.0000
# 6 0.0000 0.0000 0.0000 0.0000 0.0000 39.4890
#
#
#
# Elastic Compliance Matrix: (Units=1/GPa)
#
#
# Indices 1 2 3 4 5 6 
#
# 1 0.008836 -0.003085 -0.001794 0.000000 0.000000 0.000000
# 2 -0.003085 0.010013 -0.005805 0.000000 0.000000 0.000000
# 3 -0.001794 -0.005805 0.020705 0.000000 0.000000 0.000000
# 4 0.000000 0.000000 0.000000 0.024898 0.000000 0.000000
# 5 0.000000 0.000000 0.000000 0.000000 0.041835 0.000000
# 6 0.000000 0.000000 0.000000 0.000000 0.000000 0.025324
#
#
# Mechanical properties :
#
#
# Convention : Reuss Voigt Hill
#
# Bulk Modulus (GPa) = 54.98534 68.62853 61.80693
# Shear Modulus (GPa) = 31.43859 34.96922 33.20391
#
# Velocity S-wave (km/s) = 3.83555 4.04519 3.94176
# Velocity P-wave (km/s) = 6.73388 7.34385 7.04547
#
# Compressibility (1/GPa) = 0.01818667
#
# Stress axis : x y z
#
# Youngs Moduli (GPa) = 113.17480 99.86964 48.29736
#
# Poissons Ratio (x) = 0.30809 0.08665
# Poissons Ratio (y) = 0.34913 0.28035
# Poissons Ratio (z) = 0.20304 0.57971
#
# Static dielectric constant tensor:
#      x y z
#    x 1.866240 0.000000 0.000000 
#    y 0.000000 1.966100 0.000000 
#    z 0.000000 0.000000 1.770540 
# 
# From -- ./inp_files/3202.got.cif
#   From: 2010.05.17/outbox.cif.g08.bks.cpg/sg34_2_cif.got.tgz:3202.got - 2010.06.03 17:23:11.
