data_PCOD9347038
_publ_section_title
;
Structure prediction by ZEFSAII (Michael W. Deem and Ramdas Pophale) SiO2 
 PCOD9347038
Probable space group: P N A 21
;
_chemical_formula_sum "Si O2"
_cell_formula_units_Z 20
_cell_length_a 8.997864
_cell_length_b 7.047963
_cell_length_c 11.377892
_cell_angle_alpha 90.000000
_cell_angle_beta 90.000000
_cell_angle_gamma 90.000000
_cell_volume 721.547369
_symmetry_space_group_name_H-M "P N A 21"
_symmetry_group_IT_number 33
_symmetry_cell_setting 'orthorhombic'
loop_
_space_group_symop_operation_xyz
x,y,z
-x,-y,1/2+z
1/2-x,1/2+y,1/2+z
1/2+x,1/2-y,z
loop_
_atom_site_type_symbol
_atom_site_label
_atom_site_fract_x
_atom_site_fract_y
_atom_site_fract_z
Si Si1 0.037638 0.598084 0.174070
Si Si2 0.781891 0.316020 0.236858
Si Si3 0.458117 0.517321 0.584704
Si Si4 0.292505 0.547964 0.355663
Si Si5 0.763380 0.550698 0.460162
O O1 0.130549 0.566313 0.294648
O O2 0.129407 0.533097 0.059227
O O3 0.892644 0.470563 0.184141
O O4 0.146882 0.888768 0.763906
O O5 0.636948 0.328612 0.156349
O O6 0.731233 0.392552 0.363170
O O7 0.342247 0.461796 0.479964
O O8 0.490236 0.322012 0.654793
O O9 0.605784 0.596243 0.521528
O O10 0.325315 0.768421 0.387406
#
# Coordination Sequence:
#
# PCOD9347038 Si02
#       5
#     4   4   4   4   4
#     4  12  29  55  89 127 177 233 290 363 443 526
#     4  12  30  55  87 126 173 226 289 362 436 524
#     4  12  29  55  89 127 177 233 290 363 443 526
#     4  12  30  52  88 124 174 228 292 360 438 516
#     4  12  30  55  87 126 173 226 289 362 436 524
#
# _framework density 27.718209000000002
#
# number of rings (size 3 to 8) (size 9 to 14) (size 15 to 20)
#    0.000    0.000    4.000    2.400   11.200    3.200 
#    0.000    0.000    0.000    0.000    0.000    0.000 
#    0.000    0.000    0.000    0.000    0.000    0.000 
#
# Total GULP energy -112020.209998 kJ/mol
# GULP energy per Si atom -5601.010500 kJ/mol
# Density = 2.765512 g / cm^3
# Si number density = 27.718209 Si / 1000 Ang^3
#
#
#
# Elastic Constant Matrix: (Units=GPa)
#
#
# Indices 1 2 3 4 5 6 
#
# 1 111.5522 52.9591 54.7984 0.0000 0.0000 0.0000
# 2 52.9591 218.2432 53.9144 0.0000 0.0000 0.0000
# 3 54.7984 53.9144 142.0054 0.0000 0.0000 0.0000
# 4 0.0000 0.0000 0.0000 62.7591 0.0000 0.0000
# 5 0.0000 0.0000 0.0000 0.0000 43.4243 0.0000
# 6 0.0000 0.0000 0.0000 0.0000 0.0000 47.9404
#
#
#
# Elastic Compliance Matrix: (Units=1/GPa)
#
#
# Indices 1 2 3 4 5 6 
#
# 1 0.011740 -0.001909 -0.003806 0.000000 0.000000 0.000000
# 2 -0.001909 0.005367 -0.001301 0.000000 0.000000 0.000000
# 3 -0.003806 -0.001301 0.009004 0.000000 0.000000 0.000000
# 4 0.000000 0.000000 0.000000 0.015934 0.000000 0.000000
# 5 0.000000 0.000000 0.000000 0.000000 0.023029 0.000000
# 6 0.000000 0.000000 0.000000 0.000000 0.000000 0.020859
#
#
# Mechanical properties :
#
#
# Convention : Reuss Voigt Hill
#
# Bulk Modulus (GPa) = 82.77849 88.34939 85.56394
# Shear Modulus (GPa) = 48.08135 51.50003 49.79069
#
# Velocity S-wave (km/s) = 4.16943 4.31511 4.24290
# Velocity P-wave (km/s) = 7.28752 7.53460 7.41209
#
# Compressibility (1/GPa) = 0.01208043
#
# Stress axis : x y z
#
# Youngs Moduli (GPa) = 85.17844 186.33788 111.05565
#
# Poissons Ratio (x) = 0.35566 0.42264
# Poissons Ratio (y) = 0.16258 0.14448
# Poissons Ratio (z) = 0.32416 0.24242
#
# Static dielectric constant tensor:
#      x y z
#    x 2.086600 0.000000 0.000000 
#    y 0.000000 2.157380 0.000000 
#    z 0.000000 0.000000 2.177720 
# 
# From -- ./inp_files/3036.got.cif
#   From: 2010.05.17/outbox.cif.g08.bks.cpg/sg33_2_cif.got.tgz:3036.got - 2010.06.03 17:15:25.
