data_PCOD9347515
_publ_section_title
;
Structure prediction by ZEFSAII (Michael W. Deem and Ramdas Pophale) SiO2 
 PCOD9347515
Probable space group: P N N 2
;
_chemical_formula_sum "Si O2"
_cell_formula_units_Z 30
_cell_length_a 5.160877
_cell_length_b 18.051777
_cell_length_c 12.116067
_cell_angle_alpha 90.000000
_cell_angle_beta 90.000000
_cell_angle_gamma 90.000000
_cell_volume 1128.769159
_symmetry_space_group_name_H-M "P N N 2"
_symmetry_group_IT_number 34
_symmetry_cell_setting 'orthorhombic'
loop_
_space_group_symop_operation_xyz
x,y,z
-x,-y,z
1/2-x,1/2+y,1/2+z
1/2+x,1/2-y,1/2+z
loop_
_atom_site_type_symbol
_atom_site_label
_atom_site_fract_x
_atom_site_fract_y
_atom_site_fract_z
Si Si1 0.523646 0.766872 0.710070
Si Si2 0.554911 0.365381 0.287115
Si Si3 0.220147 0.277420 0.440785
Si Si4 0.849966 0.586715 0.584770
Si Si5 0.133825 0.093871 0.216922
Si Si6 0.000000 0.000000 0.910737
Si Si7 0.805091 0.606795 0.096364
Si Si8 0.797675 0.898717 0.465430
O O1 0.797095 0.810855 0.703033
O O2 0.465831 0.792019 0.836554
O O3 0.432920 0.682370 0.713107
O O4 0.357878 0.805061 0.613177
O O5 0.478513 0.311070 0.386932
O O6 0.664766 0.438695 0.343573
O O7 0.319052 0.404487 0.217255
O O8 0.161148 0.326776 0.547318
O O9 0.227135 0.190415 0.456831
O O10 0.651517 0.566619 0.683340
O O11 0.712666 0.545017 0.482686
O O12 0.140889 0.576397 0.628483
O O13 0.225489 0.074265 0.339745
O O14 0.583488 0.585985 0.010682
O O15 0.076740 0.576167 0.051185
#
# Coordination Sequence:
#
# PCOD9347515 Si02
#       8
#     4   4   4   4   4   2   4   4
#     4  10  21  37  64 101 143 179 227 304 367 455
#     4  10  22  43  65 105 139 188 241 303 371 444
#     4   9  22  33  60  96 136 178 227 283 370 430
#     4  11  24  45  64 102 134 195 241 301 362 435
#     4  11  25  39  66  98 144 183 245 291 365 440
#     4  10  26  50  76 102 148 192 252 314 366 470
#     4  11  21  38  61  96 131 180 225 284 369 422
#     4  11  22  37  63  94 139 180 221 291 358 446
#
# _framework density 26.57762
#
# number of rings (size 3 to 8) (size 9 to 14) (size 15 to 20)
#    0.000    1.600    1.333    2.400   13.067    0.533 
#    4.800    0.000    0.000    4.800    0.000    0.000 
#    0.000    0.000    0.000    0.000    0.000    0.000 
#
# Total GULP energy -167414.434039 kJ/mol
# GULP energy per Si atom -5580.481135 kJ/mol
# Density = 2.651713 g / cm^3
# Si number density = 26.577620 Si / 1000 Ang^3
#
#
#
# Elastic Constant Matrix: (Units=GPa)
#
#
# Indices 1 2 3 4 5 6 
#
# 1 140.1498 23.4777 25.8981 0.0000 0.0000 0.0000
# 2 23.4777 90.7302 -1.9516 0.0000 0.0000 0.0000
# 3 25.8981 -1.9516 98.6171 0.0000 0.0000 0.0000
# 4 0.0000 0.0000 0.0000 35.4485 0.0000 0.0000
# 5 0.0000 0.0000 0.0000 0.0000 36.2077 0.0000
# 6 0.0000 0.0000 0.0000 0.0000 0.0000 22.6979
#
#
#
# Elastic Compliance Matrix: (Units=1/GPa)
#
#
# Indices 1 2 3 4 5 6 
#
# 1 0.007874 -0.002083 -0.002109 0.000000 0.000000 0.000000
# 2 -0.002083 0.011577 0.000776 0.000000 0.000000 0.000000
# 3 -0.002109 0.000776 0.010709 0.000000 0.000000 0.000000
# 4 0.000000 0.000000 0.000000 0.028210 0.000000 0.000000
# 5 0.000000 0.000000 0.000000 0.000000 0.027618 0.000000
# 6 0.000000 0.000000 0.000000 0.000000 0.000000 0.044057
#
#
# Mechanical properties :
#
#
# Convention : Reuss Voigt Hill
#
# Bulk Modulus (GPa) = 42.86479 47.14950 45.00714
# Shear Modulus (GPa) = 34.56527 37.67568 36.12047
#
# Velocity S-wave (km/s) = 3.61021 3.76915 3.69054
# Velocity P-wave (km/s) = 5.79149 6.05977 5.92715
#
# Compressibility (1/GPa) = 0.02332917
#
# Stress axis : x y z
#
# Youngs Moduli (GPa) = 127.00262 86.37554 93.37557
#
# Poissons Ratio (x) = 0.17991 0.19693
# Poissons Ratio (y) = 0.26453 -0.07247
# Poissons Ratio (z) = 0.26785 -0.06704
#
# Static dielectric constant tensor:
#      x y z
#    x 2.217480 0.000000 0.000000 
#    y 0.000000 2.157300 0.000000 
#    z 0.000000 0.000000 2.069490 
# 
# From -- ./inp_files/4529.got.cif
#   From: 2010.05.17/outbox.cif.g08.bks.cpg/sg34_3_cif.got.tgz:4529.got - 2010.06.03 17:23:11.
