data_PCOD9347287
_publ_section_title
;
Structure prediction by ZEFSAII (Michael W. Deem and Ramdas Pophale) SiO2 
 PCOD9347287
Probable space group: P N N 2
;
_chemical_formula_sum "Si O2"
_cell_formula_units_Z 32
_cell_length_a 11.458049
_cell_length_b 12.103217
_cell_length_c 11.646268
_cell_angle_alpha 90.000000
_cell_angle_beta 90.000000
_cell_angle_gamma 90.000000
_cell_volume 1615.095752
_symmetry_space_group_name_H-M "P N N 2"
_symmetry_group_IT_number 34
_symmetry_cell_setting 'orthorhombic'
loop_
_space_group_symop_operation_xyz
x,y,z
-x,-y,z
1/2-x,1/2+y,1/2+z
1/2+x,1/2-y,1/2+z
loop_
_atom_site_type_symbol
_atom_site_label
_atom_site_fract_x
_atom_site_fract_y
_atom_site_fract_z
Si Si1 0.886316 0.749713 0.913270
Si Si2 0.125746 0.784331 0.035140
Si Si3 0.639326 0.341393 0.985979
Si Si4 0.722253 0.565031 0.929842
Si Si5 0.178171 0.540837 0.702938
Si Si6 0.018158 0.867448 0.277707
Si Si7 0.043058 0.320210 0.665851
Si Si8 0.638741 0.477245 0.515082
O O1 0.812689 0.654427 0.977274
O O2 0.893978 0.726169 0.778970
O O3 0.840535 0.873314 0.934199
O O4 0.017585 0.745897 0.959797
O O5 0.066091 0.811139 0.160354
O O6 0.178885 0.899647 0.986912
O O7 0.233025 0.701918 0.023446
O O8 0.651543 0.474028 0.001933
O O9 0.591773 0.325551 0.854379
O O10 0.554163 0.270258 0.066894
O O11 0.792371 0.493531 0.833130
O O12 0.628037 0.638078 0.862860
O O13 0.113467 0.434754 0.645636
O O14 0.297006 0.557121 0.632548
O O15 0.088837 0.641766 0.692680
O O16 0.000000 0.000000 0.262681
O O17 0.500000 0.500000 0.520517
#
# Coordination Sequence:
#
# PCOD9347287 Si02
#       8
#     4   4   4   4   4   4   4   4
#     4  10  22  37  61  88 123 162 204 255 326 377
#     4  11  20  41  63  92 123 158 219 269 312 376
#     4  11  23  37  63  92 129 160 206 263 320 378
#     4  10  21  39  62  93 118 163 212 261 311 388
#     4  10  19  37  66  84 114 157 223 254 296 372
#     4  10  21  39  64  91 118 166 218 258 305 382
#     4  10  21  39  57  92 122 157 203 266 316 382
#     4  10  20  35  64  90 113 157 206 262 305 367
#
# _framework density 19.813068000000001
#
# number of rings (size 3 to 8) (size 9 to 14) (size 15 to 20)
#    0.000    1.750    2.500    2.625    5.250    1.500 
#    0.000    6.875    0.000    1.500    0.000    0.000 
#    0.000    0.000    0.000    0.000    0.000    0.000 
#
# Total GULP energy -178160.171537 kJ/mol
# GULP energy per Si atom -5567.505361 kJ/mol
# Density = 1.976797 g / cm^3
# Si number density = 19.813068 Si / 1000 Ang^3
#
#
#
# Elastic Constant Matrix: (Units=GPa)
#
#
# Indices 1 2 3 4 5 6 
#
# 1 61.2867 17.0821 14.9023 0.0000 0.0000 0.0000
# 2 17.0821 89.8755 39.8581 0.0000 0.0000 0.0000
# 3 14.9023 39.8581 64.5956 0.0000 0.0000 0.0000
# 4 0.0000 0.0000 0.0000 29.3483 0.0000 0.0000
# 5 0.0000 0.0000 0.0000 0.0000 29.8248 0.0000
# 6 0.0000 0.0000 0.0000 0.0000 0.0000 35.8563
#
#
#
# Elastic Compliance Matrix: (Units=1/GPa)
#
#
# Indices 1 2 3 4 5 6 
#
# 1 0.017576 -0.002123 -0.002745 0.000000 0.000000 0.000000
# 2 -0.002123 0.015575 -0.009120 0.000000 0.000000 0.000000
# 3 -0.002745 -0.009120 0.021742 0.000000 0.000000 0.000000
# 4 0.000000 0.000000 0.000000 0.034074 0.000000 0.000000
# 5 0.000000 0.000000 0.000000 0.000000 0.033529 0.000000
# 6 0.000000 0.000000 0.000000 0.000000 0.000000 0.027889
#
#
# Mechanical properties :
#
#
# Convention : Reuss Voigt Hill
#
# Bulk Modulus (GPa) = 37.15294 39.93808 38.54551
# Shear Modulus (GPa) = 26.69045 28.60024 27.64535
#
# Velocity S-wave (km/s) = 3.67429 3.80347 3.73944
# Velocity P-wave (km/s) = 6.06572 6.28408 6.17587
#
# Compressibility (1/GPa) = 0.02691577
#
# Stress axis : x y z
#
# Youngs Moduli (GPa) = 56.89587 64.20627 45.99443
#
# Poissons Ratio (x) = 0.13633 0.12624
# Poissons Ratio (y) = 0.12081 0.41949
# Poissons Ratio (z) = 0.15616 0.58559
#
# Static dielectric constant tensor:
#      x y z
#    x 1.766600 0.000000 0.000000 
#    y 0.000000 1.726740 0.000000 
#    z 0.000000 0.000000 1.721650 
# 
# From -- ./inp_files/5480.got.cif
#   From: 2010.05.17/outbox.cif.g08.bks.cpg/sg34_3_cif.got.tgz:5480.got - 2010.06.03 17:23:11.
