data_PCOD9347581
_publ_section_title
;
Structure prediction by ZEFSAII (Michael W. Deem and Ramdas Pophale) SiO2 
 PCOD9347581
Probable space group: P N N 2
;
_chemical_formula_sum "Si O2"
_cell_formula_units_Z 30
_cell_length_a 8.271365
_cell_length_b 20.062156
_cell_length_c 8.185822
_cell_angle_alpha 90.000000
_cell_angle_beta 90.000000
_cell_angle_gamma 90.000000
_cell_volume 1358.366885
_symmetry_space_group_name_H-M "P N N 2"
_symmetry_group_IT_number 34
_symmetry_cell_setting 'orthorhombic'
loop_
_space_group_symop_operation_xyz
x,y,z
-x,-y,z
1/2-x,1/2+y,1/2+z
1/2+x,1/2-y,1/2+z
loop_
_atom_site_type_symbol
_atom_site_label
_atom_site_fract_x
_atom_site_fract_y
_atom_site_fract_z
Si Si1 0.821243 0.746750 0.474910
Si Si2 0.253819 0.366711 0.720963
Si Si3 0.435578 0.352278 0.037507
Si Si4 0.908066 0.361824 0.901802
Si Si5 0.602347 0.147304 0.730670
Si Si6 0.681233 0.982295 0.206323
Si Si7 0.669929 0.008564 0.841937
Si Si8 0.500000 0.500000 0.149800
O O1 0.741941 0.687057 0.577225
O O2 0.685713 0.792489 0.392135
O O3 0.934386 0.710608 0.341366
O O4 0.926419 0.799311 0.579480
O O5 0.385882 0.344476 0.850763
O O6 0.277914 0.447617 0.705779
O O7 0.072161 0.360716 0.795559
O O8 0.271209 0.340634 0.137551
O O9 0.482619 0.429586 0.060329
O O10 0.790524 0.419480 0.824933
O O11 0.969732 0.369050 0.090649
O O12 0.649564 0.088031 0.856926
O O13 0.500000 0.000000 0.261412
O O14 0.668709 0.968222 0.011873
O O15 0.835026 0.993885 0.752568
O O16 0.500000 0.000000 0.747299
#
# Coordination Sequence:
#
# PCOD9347581 Si02
#       8
#     4   4   4   4   4   4   4   2
#     4  12  22  40  64  98 130 182 222 277 348 429
#     4  10  21  42  65  88 139 174 217 286 347 400
#     4  10  24  40  62  94 137 171 215 291 343 402
#     4  10  23  38  66  97 126 174 236 279 337 427
#     4  10  22  42  63  95 134 174 226 279 349 409
#     4   9  19  40  65  95 123 173 231 284 338 420
#     4  10  21  41  71  96 130 183 223 285 351 410
#     4  10  24  44  62 108 140 172 242 294 340 426
#
# _framework density 22.085343999999999
#
# number of rings (size 3 to 8) (size 9 to 14) (size 15 to 20)
#    0.000    1.867    1.333    1.600    3.733    2.667 
#    2.400    2.667    0.000    0.000    0.000    0.000 
#    0.000    0.000    0.000    0.000    0.000    0.000 
#
# Total GULP energy -167055.592758 kJ/mol
# GULP energy per Si atom -5568.519759 kJ/mol
# Density = 2.203508 g / cm^3
# Si number density = 22.085344 Si / 1000 Ang^3
#
#
#
# Elastic Constant Matrix: (Units=GPa)
#
#
# Indices 1 2 3 4 5 6 
#
# 1 75.0557 24.9001 16.1482 0.0000 0.0000 0.0000
# 2 24.9001 150.6310 65.9055 0.0000 0.0000 0.0000
# 3 16.1482 65.9055 77.3190 0.0000 0.0000 0.0000
# 4 0.0000 0.0000 0.0000 41.2048 0.0000 0.0000
# 5 0.0000 0.0000 0.0000 0.0000 18.6240 0.0000
# 6 0.0000 0.0000 0.0000 0.0000 0.0000 29.3790
#
#
#
# Elastic Compliance Matrix: (Units=1/GPa)
#
#
# Indices 1 2 3 4 5 6 
#
# 1 0.014211 -0.001675 -0.001540 0.000000 0.000000 0.000000
# 2 -0.001675 0.010785 -0.008843 0.000000 0.000000 0.000000
# 3 -0.001540 -0.008843 0.020792 0.000000 0.000000 0.000000
# 4 0.000000 0.000000 0.000000 0.024269 0.000000 0.000000
# 5 0.000000 0.000000 0.000000 0.000000 0.053694 0.000000
# 6 0.000000 0.000000 0.000000 0.000000 0.000000 0.034038
#
#
# Mechanical properties :
#
#
# Convention : Reuss Voigt Hill
#
# Bulk Modulus (GPa) = 46.14306 57.43481 51.78893
# Shear Modulus (GPa) = 26.43704 30.91169 28.67437
#
# Velocity S-wave (km/s) = 3.46358 3.74524 3.60716
# Velocity P-wave (km/s) = 6.07730 6.69065 6.39134
#
# Compressibility (1/GPa) = 0.02167173
#
# Stress axis : x y z
#
# Youngs Moduli (GPa) = 70.37026 92.72435 48.09437
#
# Poissons Ratio (x) = 0.15535 0.07406
# Poissons Ratio (y) = 0.11789 0.42529
# Poissons Ratio (z) = 0.10836 0.81994
#
# Static dielectric constant tensor:
#      x y z
#    x 1.742850 0.000000 0.000000 
#    y 0.000000 1.887320 0.000000 
#    z 0.000000 0.000000 1.854120 
# 
# From -- ./inp_files/2889.got.cif
#   From: 2010.05.17/outbox.cif.g08.bks.cpg/sg34_2_cif.got.tgz:2889.got - 2010.06.03 17:23:11.
