data_PCOD9347658
_publ_section_title
;
Structure prediction by ZEFSAII (Michael W. Deem and Ramdas Pophale) SiO2 
 PCOD9347658
Probable space group: P N N 2
;
_chemical_formula_sum "Si O2"
_cell_formula_units_Z 20
_cell_length_a 8.766713
_cell_length_b 5.716479
_cell_length_c 18.257993
_cell_angle_alpha 90.000000
_cell_angle_beta 90.000000
_cell_angle_gamma 90.000000
_cell_volume 914.994403
_symmetry_space_group_name_H-M "P N N 2"
_symmetry_group_IT_number 34
_symmetry_cell_setting 'orthorhombic'
loop_
_space_group_symop_operation_xyz
x,y,z
-x,-y,z
1/2-x,1/2+y,1/2+z
1/2+x,1/2-y,1/2+z
loop_
_atom_site_type_symbol
_atom_site_label
_atom_site_fract_x
_atom_site_fract_y
_atom_site_fract_z
Si Si1 0.000000 0.500000 0.065431
Si Si2 0.144546 0.142147 0.949196
Si Si3 0.713745 0.731238 0.680094
Si Si4 0.586685 0.747172 0.842913
Si Si5 0.667908 0.897761 0.075159
Si Si6 0.000000 0.000000 0.632780
O O1 0.110697 0.639757 0.119854
O O2 0.082986 0.323562 0.009783
O O3 0.256288 0.246219 0.889083
O O4 0.254131 0.995918 0.003545
O O5 0.000000 0.000000 0.919932
O O6 0.632748 0.738843 0.757617
O O7 0.738413 0.471762 0.646911
O O8 0.884256 0.844724 0.681567
O O9 0.500000 0.500000 0.859983
O O10 0.500000 0.000000 0.855870
O O11 0.620283 0.629574 0.080086
O O12 0.500000 0.000000 0.079782
#
# Coordination Sequence:
#
# PCOD9347658 Si02
#       6
#     2   4   4   4   4   2
#     4  12  24  44  78 110 144 198 258 320 382 466
#     4  12  27  46  75 109 152 196 263 318 394 460
#     4  11  24  45  75 110 146 198 267 316 389 460
#     4  12  32  52  79 108 163 209 257 324 408 472
#     4  10  22  41  72 103 141 192 251 312 373 458
#     4  10  22  40  68 104 144 184 250 318 374 448
#
# _framework density 21.858059000000001
#
# number of rings (size 3 to 8) (size 9 to 14) (size 15 to 20)
#    0.000    0.800    5.000    0.600   11.200    0.000 
#    5.400    0.000    0.000    0.000    0.000    0.000 
#    0.000    0.000    0.000    0.000    0.000    0.000 
#
# Total GULP energy -111463.500700 kJ/mol
# GULP energy per Si atom -5573.175035 kJ/mol
# Density = 2.180831 g / cm^3
# Si number density = 21.858059 Si / 1000 Ang^3
#
#
#
# Elastic Constant Matrix: (Units=GPa)
#
#
# Indices 1 2 3 4 5 6 
#
# 1 143.1598 66.8889 64.6473 0.0000 0.0000 0.0000
# 2 66.8889 88.5134 39.0582 0.0000 0.0000 0.0000
# 3 64.6473 39.0582 118.3634 0.0000 0.0000 0.0000
# 4 0.0000 0.0000 0.0000 21.8923 0.0000 0.0000
# 5 0.0000 0.0000 0.0000 0.0000 19.3087 0.0000
# 6 0.0000 0.0000 0.0000 0.0000 0.0000 41.0645
#
#
#
# Elastic Compliance Matrix: (Units=1/GPa)
#
#
# Indices 1 2 3 4 5 6 
#
# 1 0.012437 -0.007492 -0.004320 0.000000 0.000000 0.000000
# 2 -0.007492 0.017736 -0.001761 0.000000 0.000000 0.000000
# 3 -0.004320 -0.001761 0.011389 0.000000 0.000000 0.000000
# 4 0.000000 0.000000 0.000000 0.045678 0.000000 0.000000
# 5 0.000000 0.000000 0.000000 0.000000 0.051790 0.000000
# 6 0.000000 0.000000 0.000000 0.000000 0.000000 0.024352
#
#
# Mechanical properties :
#
#
# Convention : Reuss Voigt Hill
#
# Bulk Modulus (GPa) = 69.36711 76.80280 73.08495
# Shear Modulus (GPa) = 25.59723 28.41593 27.00658
#
# Velocity S-wave (km/s) = 3.42580 3.60949 3.51884
# Velocity P-wave (km/s) = 6.88856 7.25152 7.07237
#
# Compressibility (1/GPa) = 0.01441605
#
# Stress axis : x y z
#
# Youngs Moduli (GPa) = 80.40799 56.38186 87.80165
#
# Poissons Ratio (x) = 0.42240 0.37934
# Poissons Ratio (y) = 0.60240 0.15461
# Poissons Ratio (z) = 0.34739 0.09928
#
# Static dielectric constant tensor:
#      x y z
#    x 2.609180 0.000000 0.000000 
#    y 0.000000 2.067040 0.000000 
#    z 0.000000 0.000000 1.752380 
# 
# From -- ./inp_files/7112.got.cif
#   From: 2010.05.17/outbox.cif.g08.bks.cpg/sg34_4_cif.got.tgz:7112.got - 2010.06.03 17:23:11.
