data_PCOD9347156
_publ_section_title
;
Structure prediction by ZEFSAII (Michael W. Deem and Ramdas Pophale) SiO2 
 PCOD9347156
Probable space group: P N N 2
;
_chemical_formula_sum "Si O2"
_cell_formula_units_Z 24
_cell_length_a 7.983013
_cell_length_b 7.110623
_cell_length_c 18.466356
_cell_angle_alpha 90.000000
_cell_angle_beta 90.000000
_cell_angle_gamma 90.000000
_cell_volume 1048.227849
_symmetry_space_group_name_H-M "P N N 2"
_symmetry_group_IT_number 34
_symmetry_cell_setting 'orthorhombic'
loop_
_space_group_symop_operation_xyz
x,y,z
-x,-y,z
1/2-x,1/2+y,1/2+z
1/2+x,1/2-y,1/2+z
loop_
_atom_site_type_symbol
_atom_site_label
_atom_site_fract_x
_atom_site_fract_y
_atom_site_fract_z
Si Si1 0.310527 0.295269 0.140950
Si Si2 0.640698 0.291606 0.071599
Si Si3 0.859302 0.791606 0.881514
Si Si4 0.810527 0.204731 0.812163
Si Si5 0.490884 0.770473 0.912993
Si Si6 0.009116 0.270473 0.040120
O O1 0.486531 0.205552 0.116313
O O2 0.324976 0.510058 0.111474
O O3 0.291998 0.291274 0.226556
O O4 0.147263 0.222007 0.099868
O O5 0.824078 0.203148 0.062192
O O6 0.569811 0.305287 0.990184
O O7 0.675922 0.703148 0.890921
O O8 0.013469 0.705552 0.836799
O O9 0.824976 0.989942 0.841639
O O10 0.930189 0.805287 0.962928
O O11 0.647263 0.277993 0.853245
O O12 0.500000 0.000000 0.920664
O O13 0.000000 0.500000 0.032449
#
# Coordination Sequence:
#
# PCOD9347156 Si02
#       6
#     4   4   4   4   4   4
#     4  10  21  35  56  83 107 136 185 233 269 306
#     4  10  18  33  52  79 110 143 174 222 266 318
#     4  10  18  33  52  79 110 143 174 222 266 318
#     4  10  21  35  56  83 107 136 185 233 269 306
#     4  10  20  32  54  82 109 142 184 216 267 324
#     4  10  20  32  54  82 109 142 184 216 267 324
#
# _framework density 22.895785
#
# number of rings (size 3 to 8) (size 9 to 14) (size 15 to 20)
#    0.000    2.000    3.333    2.000    0.000    7.333 
#    0.000    0.000    0.000    4.000    0.000    7.000 
#    0.000    0.000    0.000    0.000    0.000    0.000 
#
# Total GULP energy -134068.937470 kJ/mol
# GULP energy per Si atom -5586.205728 kJ/mol
# Density = 2.284367 g / cm^3
# Si number density = 22.895785 Si / 1000 Ang^3
#
#
#
# Elastic Constant Matrix: (Units=GPa)
#
#
# Indices 1 2 3 4 5 6 
#
# 1 146.5794 36.2124 61.2658 0.0000 0.0000 0.0000
# 2 36.2124 97.4656 44.3360 0.0000 0.0000 0.0000
# 3 61.2658 44.3360 221.3266 0.0000 0.0000 0.0000
# 4 0.0000 0.0000 0.0000 37.7157 0.0000 0.0000
# 5 0.0000 0.0000 0.0000 0.0000 42.4929 0.0000
# 6 0.0000 0.0000 0.0000 0.0000 0.0000 -5.1360
#
#
#
# Elastic Compliance Matrix: (Units=1/GPa)
#
#
# Indices 1 2 3 4 5 6 
#
# 1 0.008120 -0.002194 -0.001808 0.000000 0.000000 0.000000
# 2 -0.002194 0.011882 -0.001773 0.000000 0.000000 0.000000
# 3 -0.001808 -0.001773 0.005374 0.000000 0.000000 0.000000
# 4 0.000000 0.000000 0.000000 0.026514 0.000000 0.000000
# 5 0.000000 0.000000 0.000000 0.000000 0.023533 0.000000
# 6 0.000000 0.000000 0.000000 0.000000 0.000000 -0.194706
#
#
# Mechanical properties :
#
#
# Convention : Reuss Voigt Hill
#
# Bulk Modulus (GPa) = 72.33219 83.22222 77.77720
# Shear Modulus (GPa) = -48.48547 36.58503 -5.95022
#
# Velocity S-wave (km/s) = -4.60680 4.00170 -1.61384
# Velocity P-wave (km/s) = 1.83405 7.60123 5.52912
#
# Compressibility (1/GPa) = 0.01382510
#
# Stress axis : x y z
#
# Youngs Moduli (GPa) = 123.15065 84.16281 186.08689
#
# Poissons Ratio (x) = 0.18469 0.33647
# Poissons Ratio (y) = 0.27025 0.32987
# Poissons Ratio (z) = 0.22268 0.14919
#
# Static dielectric constant tensor:
#      x y z
#    x 1.891050 0.000000 0.000000 
#    y 0.000000 2.052310 0.000000 
#    z 0.000000 0.000000 1.745420 
# 
# From -- ./inp_files/4933.got.cif
#   From: 2010.05.17/outbox.cif.g08.bks.cpg/sg34_3_cif.got.tgz:4933.got - 2010.06.03 17:23:11.
