data_PCOD9347600
_publ_section_title
;
Structure prediction by ZEFSAII (Michael W. Deem and Ramdas Pophale) SiO2 
 PCOD9347600
Probable space group: P N N 2
;
_chemical_formula_sum "Si O2"
_cell_formula_units_Z 32
_cell_length_a 13.870899
_cell_length_b 6.452990
_cell_length_c 16.733317
_cell_angle_alpha 90.000000
_cell_angle_beta 90.000000
_cell_angle_gamma 90.000000
_cell_volume 1497.778665
_symmetry_space_group_name_H-M "P N N 2"
_symmetry_group_IT_number 34
_symmetry_cell_setting 'orthorhombic'
loop_
_space_group_symop_operation_xyz
x,y,z
-x,-y,z
1/2-x,1/2+y,1/2+z
1/2+x,1/2-y,1/2+z
loop_
_atom_site_type_symbol
_atom_site_label
_atom_site_fract_x
_atom_site_fract_y
_atom_site_fract_z
Si Si1 0.773143 0.731424 0.950600
Si Si2 0.237052 0.098705 0.645272
Si Si3 0.688550 0.516090 0.317377
Si Si4 0.577595 0.179410 0.668570
Si Si5 0.360000 0.449478 0.569262
Si Si6 0.592848 0.852591 0.429974
Si Si7 0.890326 0.973815 0.489333
Si Si8 0.591039 0.146205 0.848619
O O1 0.824246 0.509420 0.960331
O O2 0.660751 0.674222 0.949505
O O3 0.828627 0.820676 0.874029
O O4 0.788610 0.908352 0.016035
O O5 0.298843 0.309292 0.631493
O O6 0.169862 0.077878 0.568388
O O7 0.176892 0.057875 0.726443
O O8 0.318832 0.923097 0.651830
O O9 0.629987 0.713144 0.354177
O O10 0.803427 0.549291 0.332211
O O11 0.578205 0.381367 0.615573
O O12 0.565623 0.239626 0.761399
O O13 0.500000 0.000000 0.650121
O O14 0.415210 0.307095 0.504254
O O15 0.500000 0.000000 0.417374
O O16 0.891487 0.802044 0.420557
O O17 0.000000 0.000000 0.513381
O O18 0.500000 0.000000 0.866993
#
# Coordination Sequence:
#
# PCOD9347600 Si02
#       8
#     4   4   4   4   4   4   4   4
#     4  11  22  43  66 101 133 182 240 288 357 421
#     4  11  24  43  64 105 141 184 234 298 359 427
#     4  10  23  42  72  96 144 183 237 300 359 428
#     4  10  23  42  69 106 147 178 234 298 364 436
#     4  11  22  41  69  99 148 182 234 290 369 426
#     4  11  24  44  70  99 138 192 241 291 353 440
#     4  12  23  42  69  96 141 182 242 296 348 432
#     4  10  21  43  68 103 136 185 239 295 360 429
#
# _framework density 21.364971000000001
#
# number of rings (size 3 to 8) (size 9 to 14) (size 15 to 20)
#    0.000    1.250    3.750    1.500    1.750    5.500 
#    2.250    0.000    0.000    0.000    0.000    0.000 
#    0.000    0.000    0.000    0.000    0.000    0.000 
#
# Total GULP energy -178575.646781 kJ/mol
# GULP energy per Si atom -5580.488962 kJ/mol
# Density = 2.131634 g / cm^3
# Si number density = 21.364971 Si / 1000 Ang^3
#
#
#
# Elastic Constant Matrix: (Units=GPa)
#
#
# Indices 1 2 3 4 5 6 
#
# 1 98.5686 44.8292 49.7431 0.0000 0.0000 0.0000
# 2 44.8292 121.7340 93.8802 0.0000 0.0000 0.0000
# 3 49.7431 93.8802 151.6773 0.0000 0.0000 0.0000
# 4 0.0000 0.0000 0.0000 29.1161 0.0000 0.0000
# 5 0.0000 0.0000 0.0000 0.0000 25.4656 0.0000
# 6 0.0000 0.0000 0.0000 0.0000 0.0000 36.4328
#
#
#
# Elastic Compliance Matrix: (Units=1/GPa)
#
#
# Indices 1 2 3 4 5 6 
#
# 1 0.012633 -0.002788 -0.002418 0.000000 0.000000 0.000000
# 2 -0.002788 0.016332 -0.009194 0.000000 0.000000 0.000000
# 3 -0.002418 -0.009194 0.013077 0.000000 0.000000 0.000000
# 4 0.000000 0.000000 0.000000 0.034345 0.000000 0.000000
# 5 0.000000 0.000000 0.000000 0.000000 0.039269 0.000000
# 6 0.000000 0.000000 0.000000 0.000000 0.000000 0.027448
#
#
# Mechanical properties :
#
#
# Convention : Reuss Voigt Hill
#
# Bulk Modulus (GPa) = 75.51597 83.20943 79.36270
# Shear Modulus (GPa) = 28.35810 30.43806 29.39808
#
# Velocity S-wave (km/s) = 3.64719 3.77858 3.71346
# Velocity P-wave (km/s) = 7.29098 7.62024 7.45743
#
# Compressibility (1/GPa) = 0.01324223
#
# Stress axis : x y z
#
# Youngs Moduli (GPa) = 79.15674 61.23041 76.47286
#
# Poissons Ratio (x) = 0.17070 0.18488
# Poissons Ratio (y) = 0.22067 0.70311
# Poissons Ratio (z) = 0.19137 0.56297
#
# Static dielectric constant tensor:
#      x y z
#    x 1.830210 0.000000 0.000000 
#    y 0.000000 1.791310 0.000000 
#    z 0.000000 0.000000 1.828850 
# 
# From -- ./inp_files/7798.got.cif
#   From: 2010.05.17/outbox.cif.g08.bks.cpg/sg34_4_cif.got.tgz:7798.got - 2010.06.03 17:23:11.
