data_PCOD9347352
_publ_section_title
;
Structure prediction by ZEFSAII (Michael W. Deem and Ramdas Pophale) SiO2 
 PCOD9347352
Probable space group: P N N 2
;
_chemical_formula_sum "Si O2"
_cell_formula_units_Z 30
_cell_length_a 18.498186
_cell_length_b 10.696756
_cell_length_c 5.952830
_cell_angle_alpha 90.000000
_cell_angle_beta 90.000000
_cell_angle_gamma 90.000000
_cell_volume 1177.889937
_symmetry_space_group_name_H-M "P N N 2"
_symmetry_group_IT_number 34
_symmetry_cell_setting 'orthorhombic'
loop_
_space_group_symop_operation_xyz
x,y,z
-x,-y,z
1/2-x,1/2+y,1/2+z
1/2+x,1/2-y,1/2+z
loop_
_atom_site_type_symbol
_atom_site_label
_atom_site_fract_x
_atom_site_fract_y
_atom_site_fract_z
Si Si1 0.870092 0.970676 0.998560
Si Si2 0.824629 0.756133 0.266160
Si Si3 0.395771 0.121488 0.594998
Si Si4 0.500000 0.000000 0.294519
Si Si5 0.799964 0.504952 0.448222
Si Si6 0.403115 0.546613 0.986161
Si Si7 0.835092 0.269067 0.698895
Si Si8 0.021839 0.736637 0.473297
O O1 0.786028 0.012810 0.979369
O O2 0.902288 0.992668 0.750069
O O3 0.866885 0.819878 0.058654
O O4 0.905608 0.018179 0.234320
O O5 0.842677 0.633837 0.409351
O O6 0.829270 0.871533 0.442787
O O7 0.745280 0.720517 0.175275
O O8 0.430202 0.010062 0.452015
O O9 0.327883 0.075638 0.737542
O O10 0.367326 0.235535 0.445431
O O11 0.463416 0.170134 0.738940
O O12 0.498184 0.125761 0.146003
O O13 0.826303 0.417008 0.649242
O O14 0.467359 0.649406 0.976330
O O15 0.896864 0.219225 0.538594
#
# Coordination Sequence:
#
# PCOD9347352 Si02
#       8
#     4   4   4   2   4   4   4   4
#     4   9  22  38  56  86 118 146 202 239 294 350
#     4   9  21  34  60  84 117 153 201 238 302 361
#     4  10  21  32  55  76 124 152 183 239 300 366
#     4  10  22  30  50  84 120 146 196 228 296 380
#     4  10  20  36  57  86 114 158 187 254 296 357
#     4  10  22  37  58  84 117 152 195 243 290 363
#     4   9  20  38  51  84 117 155 197 245 301 367
#     4  10  22  33  53  80 115 157 196 238 304 357
#
# _framework density 25.469275
#
# number of rings (size 3 to 8) (size 9 to 14) (size 15 to 20)
#    0.800    1.600    0.000    1.200   13.067    0.000 
#    0.000    0.000    0.000    0.800    0.000    0.000 
#    0.000    0.000    0.000    0.000    0.000    0.000 
#
# Total GULP energy -167114.623458 kJ/mol
# GULP energy per Si atom -5570.487449 kJ/mol
# Density = 2.541131 g / cm^3
# Si number density = 25.469275 Si / 1000 Ang^3
#
#
#
# Elastic Constant Matrix: (Units=GPa)
#
#
# Indices 1 2 3 4 5 6 
#
# 1 105.2755 -3.5048 35.6554 0.0000 0.0000 0.0000
# 2 -3.5048 69.7366 49.2327 0.0000 0.0000 0.0000
# 3 35.6554 49.2327 138.8872 0.0000 0.0000 0.0000
# 4 0.0000 0.0000 0.0000 48.3628 0.0000 0.0000
# 5 0.0000 0.0000 0.0000 0.0000 24.5079 0.0000
# 6 0.0000 0.0000 0.0000 0.0000 0.0000 22.0037
#
#
#
# Elastic Compliance Matrix: (Units=1/GPa)
#
#
# Indices 1 2 3 4 5 6 
#
# 1 0.010972 0.003388 -0.004018 0.000000 0.000000 0.000000
# 2 0.003388 0.020172 -0.008020 0.000000 0.000000 0.000000
# 3 -0.004018 -0.008020 0.011075 0.000000 0.000000 0.000000
# 4 0.000000 0.000000 0.000000 0.020677 0.000000 0.000000
# 5 0.000000 0.000000 0.000000 0.000000 0.040803 0.000000
# 6 0.000000 0.000000 0.000000 0.000000 0.000000 0.045447
#
#
# Mechanical properties :
#
#
# Convention : Reuss Voigt Hill
#
# Bulk Modulus (GPa) = 40.13044 52.96288 46.54666
# Shear Modulus (GPa) = 28.61177 34.47593 31.54385
#
# Velocity S-wave (km/s) = 3.35533 3.68316 3.52306
# Velocity P-wave (km/s) = 5.54992 6.23919 5.90462
#
# Compressibility (1/GPa) = 0.02491874
#
# Stress axis : x y z
#
# Youngs Moduli (GPa) = 91.13727 49.57315 90.29653
#
# Poissons Ratio (x) = -0.16795 0.36280
# Poissons Ratio (y) = -0.30877 0.72421
# Poissons Ratio (z) = 0.36617 0.39760
#
# Static dielectric constant tensor:
#      x y z
#    x 2.039500 0.000000 0.000000 
#    y 0.000000 2.124100 0.000000 
#    z 0.000000 0.000000 2.055390 
# 
# From -- ./inp_files/1619.got.cif
#   From: 2010.05.17/outbox.cif.g08.bks.cpg/sg34_1_cif.got.tgz:1619.got - 2010.06.03 17:23:11.
