data_PCOD9347421
_publ_section_title
;
Structure prediction by ZEFSAII (Michael W. Deem and Ramdas Pophale) SiO2 
 PCOD9347421
Probable space group: P N N 2
;
_chemical_formula_sum "Si O2"
_cell_formula_units_Z 26
_cell_length_a 5.662012
_cell_length_b 8.760706
_cell_length_c 25.057557
_cell_angle_alpha 90.000000
_cell_angle_beta 90.000000
_cell_angle_gamma 90.000000
_cell_volume 1242.935575
_symmetry_space_group_name_H-M "P N N 2"
_symmetry_group_IT_number 34
_symmetry_cell_setting 'orthorhombic'
loop_
_space_group_symop_operation_xyz
x,y,z
-x,-y,z
1/2-x,1/2+y,1/2+z
1/2+x,1/2-y,1/2+z
loop_
_atom_site_type_symbol
_atom_site_label
_atom_site_fract_x
_atom_site_fract_y
_atom_site_fract_z
Si Si1 0.134256 0.836681 0.839450
Si Si2 0.748165 0.597279 0.223225
Si Si3 0.828292 0.745409 0.933668
Si Si4 0.000000 0.000000 0.483376
Si Si5 0.000000 0.500000 0.405198
Si Si6 0.674240 0.762194 0.533238
Si Si7 0.618081 0.339356 0.632929
Si Si8 0.000000 0.500000 0.560079
O O1 0.192196 0.808936 0.777802
O O2 0.378758 0.870351 0.869158
O O3 0.975378 0.732450 0.878402
O O4 0.000000 0.000000 0.837967
O O5 0.500000 0.500000 0.213223
O O6 0.800589 0.719694 0.177089
O O7 0.000000 0.500000 0.229619
O O8 0.705087 0.909941 0.934152
O O9 0.637155 0.616227 0.945198
O O10 0.992632 0.740535 0.985085
O O11 0.176454 0.087688 0.522571
O O12 0.557739 0.743575 0.591116
O O13 0.841353 0.615914 0.527446
O O14 0.500000 0.500000 0.652459
O O15 0.836372 0.395605 0.597253
#
# Coordination Sequence:
#
# PCOD9347421 Si02
#       8
#     4   4   4   2   2   4   4   2
#     4   9  20  40  68  99 132 178 235 289 347 421
#     4  11  25  46  78 111 145 187 253 312 366 430
#     4  11  24  40  66  98 139 181 231 288 360 427
#     4  12  26  42  62  94 150 182 230 300 358 438
#     4  10  20  39  70  94 126 176 221 282 336 428
#     4  11  25  44  65 100 137 182 232 287 365 435
#     4  10  25  46  72 102 144 188 240 294 374 441
#     4  10  24  45  68  94 132 186 223 288 348 456
#
# _framework density 20.918220000000002
#
# number of rings (size 3 to 8) (size 9 to 14) (size 15 to 20)
#    0.000    1.538    0.769    2.308    4.308   17.231 
#    1.385    0.000   16.923    0.000    0.000    0.000 
#    0.000    0.000    0.000    0.000    0.000    0.000 
#
# Total GULP energy -145175.711005 kJ/mol
# GULP energy per Si atom -5583.681192 kJ/mol
# Density = 2.087061 g / cm^3
# Si number density = 20.918220 Si / 1000 Ang^3
#
#
#
# Elastic Constant Matrix: (Units=GPa)
#
#
# Indices 1 2 3 4 5 6 
#
# 1 97.8860 39.5285 37.0839 0.0000 0.0000 0.0000
# 2 39.5285 82.2029 67.6263 0.0000 0.0000 0.0000
# 3 37.0839 67.6263 96.1884 0.0000 0.0000 0.0000
# 4 0.0000 0.0000 0.0000 41.7921 0.0000 0.0000
# 5 0.0000 0.0000 0.0000 0.0000 68.3461 0.0000
# 6 0.0000 0.0000 0.0000 0.0000 0.0000 42.2667
#
#
#
# Elastic Compliance Matrix: (Units=1/GPa)
#
#
# Indices 1 2 3 4 5 6 
#
# 1 0.012761 -0.004955 -0.001436 0.000000 0.000000 0.000000
# 2 -0.004955 0.030777 -0.019728 0.000000 0.000000 0.000000
# 3 -0.001436 -0.019728 0.024820 0.000000 0.000000 0.000000
# 4 0.000000 0.000000 0.000000 0.023928 0.000000 0.000000
# 5 0.000000 0.000000 0.000000 0.000000 0.014631 0.000000
# 6 0.000000 0.000000 0.000000 0.000000 0.000000 0.023659
#
#
# Mechanical properties :
#
#
# Convention : Reuss Voigt Hill
#
# Bulk Modulus (GPa) = 62.03437 62.75052 62.39244
# Shear Modulus (GPa) = 26.56902 39.28357 32.92629
#
# Velocity S-wave (km/s) = 3.56777 4.33824 3.97173
# Velocity P-wave (km/s) = 6.83315 7.42677 7.13614
#
# Compressibility (1/GPa) = 0.01612010
#
# Stress axis : x y z
#
# Youngs Moduli (GPa) = 78.36434 32.49130 40.28973
#
# Poissons Ratio (x) = 0.16098 0.05787
# Poissons Ratio (y) = 0.38826 0.79485
# Poissons Ratio (z) = 0.11256 0.64100
#
# Static dielectric constant tensor:
#      x y z
#    x 1.714620 0.000000 0.000000 
#    y 0.000000 1.735980 0.000000 
#    z 0.000000 0.000000 1.756020 
# 
# From -- ./inp_files/8564.got.cif
#   From: 2010.05.17/outbox.cif.g08.bks.cpg/sg34_5_cif.got.tgz:8564.got - 2010.06.03 17:23:11.
