data_PCOD9347554
_publ_section_title
;
Structure prediction by ZEFSAII (Michael W. Deem and Ramdas Pophale) SiO2 
 PCOD9347554
Probable space group: P N N 2
;
_chemical_formula_sum "Si O2"
_cell_formula_units_Z 28
_cell_length_a 27.655827
_cell_length_b 7.933463
_cell_length_c 4.020295
_cell_angle_alpha 90.000000
_cell_angle_beta 90.000000
_cell_angle_gamma 90.000000
_cell_volume 882.078775
_symmetry_space_group_name_H-M "P N N 2"
_symmetry_group_IT_number 34
_symmetry_cell_setting 'orthorhombic'
loop_
_space_group_symop_operation_xyz
x,y,z
-x,-y,z
1/2-x,1/2+y,1/2+z
1/2+x,1/2-y,1/2+z
loop_
_atom_site_type_symbol
_atom_site_label
_atom_site_fract_x
_atom_site_fract_y
_atom_site_fract_z
Si Si1 0.036986 0.867775 0.079620
Si Si2 0.611704 0.375425 0.648989
Si Si3 0.679922 0.645777 0.700736
Si Si4 0.248250 0.089500 0.657149
Si Si5 0.961350 0.617002 0.154983
Si Si6 0.604285 0.871869 0.116489
Si Si7 0.321175 0.864205 0.099238
O O1 0.071430 0.746319 0.854146
O O2 0.000705 0.750432 0.293648
O O3 0.000000 0.000000 0.907652
O O4 0.072365 0.990983 0.287460
O O5 0.648476 0.511134 0.492573
O O6 0.576381 0.240855 0.472426
O O7 0.644005 0.259118 0.886720
O O8 0.713092 0.777960 0.501801
O O9 0.715792 0.528997 0.922887
O O10 0.641065 0.756033 0.904437
O O11 0.211337 0.230911 0.804752
O O12 0.283102 0.976626 0.887908
O O13 0.929957 0.495441 0.392850
O O14 0.000000 0.500000 0.960627
O O15 0.642579 0.005053 0.276991
#
# Coordination Sequence:
#
# PCOD9347554 Si02
#       7
#     4   4   4   4   4   4   4
#     4  10  22  40  67  96 122 168 226 273 329 402
#     4   9  20  40  62  88 126 170 213 268 331 386
#     4  10  22  39  61  91 131 171 212 268 329 390
#     4  10  22  39  63  94 126 170 216 263 324 389
#     4  10  21  40  62  90 129 168 212 270 331 389
#     4  10  22  40  63  94 132 173 217 272 333 394
#     4   9  21  42  64  91 130 172 214 268 327 390
#
# _framework density 31.743200999999999
#
# number of rings (size 3 to 8) (size 9 to 14) (size 15 to 20)
#    0.000    2.286    0.000    0.857    0.000    9.714 
#    0.000    8.571    0.000    8.571    0.000    3.000 
#    0.000    0.000    0.000    0.000    0.000    0.000 
#
# Total GULP energy -156299.308070 kJ/mol
# GULP energy per Si atom -5582.118145 kJ/mol
# Density = 3.167095 g / cm^3
# Si number density = 31.743201 Si / 1000 Ang^3
#
#
#
# Elastic Constant Matrix: (Units=GPa)
#
#
# Indices 1 2 3 4 5 6 
#
# 1 261.5226 183.3949 96.2475 0.0000 0.0000 0.0000
# 2 183.3949 265.7420 88.4767 0.0000 0.0000 0.0000
# 3 96.2475 88.4767 76.0893 0.0000 0.0000 0.0000
# 4 0.0000 0.0000 0.0000 58.2739 0.0000 0.0000
# 5 0.0000 0.0000 0.0000 0.0000 75.7412 0.0000
# 6 0.0000 0.0000 0.0000 0.0000 0.0000 224.3335
#
#
#
# Elastic Compliance Matrix: (Units=1/GPa)
#
#
# Indices 1 2 3 4 5 6 
#
# 1 0.009225 -0.004049 -0.006961 0.000000 0.000000 0.000000
# 2 -0.004049 0.007917 -0.004085 0.000000 0.000000 0.000000
# 3 -0.006961 -0.004085 0.026697 0.000000 0.000000 0.000000
# 4 0.000000 0.000000 0.000000 0.017160 0.000000 0.000000
# 5 0.000000 0.000000 0.000000 0.000000 0.013203 0.000000
# 6 0.000000 0.000000 0.000000 0.000000 0.000000 0.004458
#
#
# Mechanical properties :
#
#
# Convention : Reuss Voigt Hill
#
# Bulk Modulus (GPa) = 73.25739 148.84357 111.05048
# Shear Modulus (GPa) = 44.09236 87.35204 65.72220
#
# Velocity S-wave (km/s) = 3.73102 5.25148 4.55514
# Velocity P-wave (km/s) = 6.45669 9.15218 7.91995
#
# Compressibility (1/GPa) = 0.01365050
#
# Stress axis : x y z
#
# Youngs Moduli (GPa) = 108.40518 126.30898 37.45716
#
# Poissons Ratio (x) = 0.51138 0.26073
# Poissons Ratio (y) = 0.43889 0.15300
# Poissons Ratio (z) = 0.75459 0.51595
#
# Static dielectric constant tensor:
#      x y z
#    x 2.446270 0.000000 0.000000 
#    y 0.000000 2.420600 0.000000 
#    z 0.000000 0.000000 2.557560 
# 
# From -- ./inp_files/4076.got.cif
#   From: 2010.05.17/outbox.cif.g08.bks.cpg/sg34_3_cif.got.tgz:4076.got - 2010.06.03 17:23:11.
