data_PCOD9347301
_publ_section_title
;
Structure prediction by ZEFSAII (Michael W. Deem and Ramdas Pophale) SiO2 
 PCOD9347301
Probable space group: P N N 2
;
_chemical_formula_sum "Si O2"
_cell_formula_units_Z 32
_cell_length_a 29.729290
_cell_length_b 8.928230
_cell_length_c 4.971481
_cell_angle_alpha 90.000000
_cell_angle_beta 90.000000
_cell_angle_gamma 90.000000
_cell_volume 1319.579898
_symmetry_space_group_name_H-M "P N N 2"
_symmetry_group_IT_number 34
_symmetry_cell_setting 'orthorhombic'
loop_
_space_group_symop_operation_xyz
x,y,z
-x,-y,z
1/2-x,1/2+y,1/2+z
1/2+x,1/2-y,1/2+z
loop_
_atom_site_type_symbol
_atom_site_label
_atom_site_fract_x
_atom_site_fract_y
_atom_site_fract_z
Si Si1 0.027887 0.143666 0.876270
Si Si2 0.626611 0.941852 0.852718
Si Si3 0.662239 0.634484 0.755305
Si Si4 0.887500 0.036314 0.775365
Si Si5 0.285520 0.960658 0.142195
Si Si6 0.750369 0.202514 0.612341
Si Si7 0.448477 0.192642 0.221589
Si Si8 0.955769 0.563512 0.170180
O O1 0.994726 0.222086 0.660608
O O2 0.077563 0.098804 0.786275
O O3 0.031275 0.269674 0.097044
O O4 0.000000 0.000000 0.970937
O O5 0.652177 0.810540 0.691218
O O6 0.663739 0.999253 0.057352
O O7 0.597792 0.074650 0.730425
O O8 0.582936 0.860485 0.980923
O O9 0.654371 0.541721 0.482557
O O10 0.707507 0.641279 0.933381
O O11 0.627921 0.566132 0.972583
O O12 0.917753 0.179779 0.862057
O O13 0.260842 0.874539 0.896145
O O14 0.260377 0.122390 0.168084
O O15 0.287587 0.854577 0.404154
O O16 0.454512 0.051984 0.417214
O O17 0.000000 0.500000 0.332292
#
# Coordination Sequence:
#
# PCOD9347301 Si02
#       8
#     4   4   4   4   4   4   4   4
#     4   9  20  39  59  90 134 173 215 276 336 389
#     4  10  22  39  68  95 121 179 229 278 324 413
#     4  10  21  40  70  90 131 173 223 261 342 414
#     4  10  19  39  61  96 124 172 217 272 325 404
#     4  11  25  45  75 103 143 180 235 288 360 425
#     4  11  24  46  69 104 137 183 226 290 355 425
#     4   9  19  38  61  86 125 167 225 270 324 389
#     4  10  20  38  61  88 124 169 222 271 319 387
#
# _framework density 24.250139999999998
#
# number of rings (size 3 to 8) (size 9 to 14) (size 15 to 20)
#    0.000    2.000    1.250    1.500    1.750    3.500 
#   13.500    1.875    0.000    0.000    0.000    0.000 
#    0.000    0.000    0.000    0.000    0.000    0.000 
#
# Total GULP energy -178390.377275 kJ/mol
# GULP energy per Si atom -5574.699290 kJ/mol
# Density = 2.419495 g / cm^3
# Si number density = 24.250140 Si / 1000 Ang^3
#
#
#
# Elastic Constant Matrix: (Units=GPa)
#
#
# Indices 1 2 3 4 5 6 
#
# 1 51.1808 8.1059 -15.7201 0.0000 0.0000 0.0000
# 2 8.1059 87.7517 19.7986 0.0000 0.0000 0.0000
# 3 -15.7201 19.7986 73.1086 0.0000 0.0000 0.0000
# 4 0.0000 0.0000 0.0000 17.7812 0.0000 0.0000
# 5 0.0000 0.0000 0.0000 0.0000 30.0601 0.0000
# 6 0.0000 0.0000 0.0000 0.0000 0.0000 18.7765
#
#
#
# Elastic Compliance Matrix: (Units=1/GPa)
#
#
# Indices 1 2 3 4 5 6 
#
# 1 0.021765 -0.003266 0.005564 0.000000 0.000000 0.000000
# 2 -0.003266 0.012627 -0.004122 0.000000 0.000000 0.000000
# 3 0.005564 -0.004122 0.015991 0.000000 0.000000 0.000000
# 4 0.000000 0.000000 0.000000 0.056239 0.000000 0.000000
# 5 0.000000 0.000000 0.000000 0.000000 0.033267 0.000000
# 6 0.000000 0.000000 0.000000 0.000000 0.000000 0.053258
#
#
# Mechanical properties :
#
#
# Convention : Reuss Voigt Hill
#
# Bulk Modulus (GPa) = 21.39651 26.26777 23.83214
# Shear Modulus (GPa) = 23.54347 26.64734 25.09541
#
# Velocity S-wave (km/s) = 3.11924 3.31849 3.22041
# Velocity P-wave (km/s) = 4.67068 5.05358 4.86590
#
# Compressibility (1/GPa) = 0.04673660
#
# Stress axis : x y z
#
# Youngs Moduli (GPa) = 45.94540 79.19238 62.53508
#
# Poissons Ratio (x) = 0.25864 -0.34797
# Poissons Ratio (y) = 0.15006 0.25776
# Poissons Ratio (z) = -0.25566 0.32642
#
# Static dielectric constant tensor:
#      x y z
#    x 2.127730 0.000000 0.000000 
#    y 0.000000 2.073890 0.000000 
#    z 0.000000 0.000000 2.019040 
# 
# From -- ./inp_files/1822.got.cif
#   From: 2010.05.17/outbox.cif.g08.bks.cpg/sg34_1_cif.got.tgz:1822.got - 2010.06.03 17:23:11.
