data_PCOD9347949
_publ_section_title
;
Structure prediction by ZEFSAII (Michael W. Deem and Ramdas Pophale) SiO2 
 PCOD9347949
Probable space group: P N N 2
;
_chemical_formula_sum "Si O2"
_cell_formula_units_Z 22
_cell_length_a 11.757439
_cell_length_b 8.358978
_cell_length_c 9.175139
_cell_angle_alpha 90.000000
_cell_angle_beta 90.000000
_cell_angle_gamma 90.000000
_cell_volume 901.734257
_symmetry_space_group_name_H-M "P N N 2"
_symmetry_group_IT_number 34
_symmetry_cell_setting 'orthorhombic'
loop_
_space_group_symop_operation_xyz
x,y,z
-x,-y,z
1/2-x,1/2+y,1/2+z
1/2+x,1/2-y,1/2+z
loop_
_atom_site_type_symbol
_atom_site_label
_atom_site_fract_x
_atom_site_fract_y
_atom_site_fract_z
Si Si1 0.000000 0.000000 0.931330
Si Si2 0.121615 0.636171 0.338158
Si Si3 0.368190 0.502250 0.859094
Si Si4 0.832167 0.988211 0.682324
Si Si5 0.725217 0.824113 0.116643
Si Si6 0.529646 0.178339 0.581644
O O1 0.095481 0.063691 0.820375
O O2 0.964527 0.160590 0.021968
O O3 0.162056 0.816557 0.365664
O O4 0.203618 0.555838 0.220899
O O5 0.153651 0.571491 0.499115
O O6 0.001453 0.657926 0.255428
O O7 0.500000 0.500000 0.812657
O O8 0.279403 0.578009 0.749002
O O9 0.363323 0.574244 0.022267
O O10 0.850760 0.179294 0.675807
O O11 0.840627 0.733399 0.062023
O O12 0.500000 0.000000 0.518812
#
# Coordination Sequence:
#
# PCOD9347949 Si02
#       6
#     2   4   4   4   4   4
#     4  12  26  46  74 104 150 200 236 308 382 432
#     4  11  24  41  66 104 135 181 246 296 360 442
#     4  11  23  43  70  99 139 195 239 297 372 443
#     4  11  25  43  66 102 144 181 249 305 357 448
#     4  11  24  42  70  98 138 192 238 299 371 433
#     4  12  24  44  73 106 142 186 244 301 368 443
#
# _framework density 24.397432999999999
#
# number of rings (size 3 to 8) (size 9 to 14) (size 15 to 20)
#    0.000    0.727    6.364    1.091    2.545    0.000 
#    0.000    0.000    0.000    0.000    0.000    0.000 
#    0.000    0.000    0.000    0.000    0.000    0.000 
#
# Total GULP energy -122588.275463 kJ/mol
# GULP energy per Si atom -5572.194339 kJ/mol
# Density = 2.434190 g / cm^3
# Si number density = 24.397433 Si / 1000 Ang^3
#
#
#
# Elastic Constant Matrix: (Units=GPa)
#
#
# Indices 1 2 3 4 5 6 
#
# 1 82.1382 -19.7473 38.9199 0.0000 0.0000 0.0000
# 2 -19.7473 77.6318 33.3867 0.0000 0.0000 0.0000
# 3 38.9199 33.3867 150.1493 0.0000 0.0000 0.0000
# 4 0.0000 0.0000 0.0000 24.3319 0.0000 0.0000
# 5 0.0000 0.0000 0.0000 0.0000 50.8180 0.0000
# 6 0.0000 0.0000 0.0000 0.0000 0.0000 26.0378
#
#
#
# Elastic Compliance Matrix: (Units=1/GPa)
#
#
# Indices 1 2 3 4 5 6 
#
# 1 0.016512 0.006680 -0.005765 0.000000 0.000000 0.000000
# 2 0.006680 0.016946 -0.005499 0.000000 0.000000 0.000000
# 3 -0.005765 -0.005499 0.009377 0.000000 0.000000 0.000000
# 4 0.000000 0.000000 0.000000 0.041098 0.000000 0.000000
# 5 0.000000 0.000000 0.000000 0.000000 0.019678 0.000000
# 6 0.000000 0.000000 0.000000 0.000000 0.000000 0.038406
#
#
# Mechanical properties :
#
#
# Convention : Reuss Voigt Hill
#
# Bulk Modulus (GPa) = 29.70432 46.11532 37.90982
# Shear Modulus (GPa) = 30.78644 37.39488 34.09066
#
# Velocity S-wave (km/s) = 3.55614 3.91927 3.74211
# Velocity P-wave (km/s) = 5.39102 6.27882 5.85178
#
# Compressibility (1/GPa) = 0.03366514
#
# Stress axis : x y z
#
# Youngs Moduli (GPa) = 60.56058 59.01252 106.64036
#
# Poissons Ratio (x) = -0.39419 0.61483
# Poissons Ratio (y) = -0.40453 0.58646
# Poissons Ratio (z) = 0.34916 0.32453
#
# Static dielectric constant tensor:
#      x y z
#    x 2.071200 0.000000 0.000000 
#    y 0.000000 2.100470 0.000000 
#    z 0.000000 0.000000 2.058690 
# 
# From -- ./inp_files/2571.got.cif
#   From: 2010.05.17/outbox.cif.g08.bks.cpg/sg34_2_cif.got.tgz:2571.got - 2010.06.03 17:23:11.
