data_PCOD9347045
_publ_section_title
;
Structure prediction by ZEFSAII (Michael W. Deem and Ramdas Pophale) SiO2 
 PCOD9347045
Probable space group: P N A 21
;
_chemical_formula_sum "Si O2"
_cell_formula_units_Z 20
_cell_length_a 5.660590
_cell_length_b 22.329858
_cell_length_c 5.116625
_cell_angle_alpha 90.000000
_cell_angle_beta 90.000000
_cell_angle_gamma 90.000000
_cell_volume 646.742274
_symmetry_space_group_name_H-M "P N A 21"
_symmetry_group_IT_number 33
_symmetry_cell_setting 'orthorhombic'
loop_
_space_group_symop_operation_xyz
x,y,z
-x,-y,1/2+z
1/2-x,1/2+y,1/2+z
1/2+x,1/2-y,z
loop_
_atom_site_type_symbol
_atom_site_label
_atom_site_fract_x
_atom_site_fract_y
_atom_site_fract_z
Si Si1 0.095727 0.825848 0.040690
Si Si2 0.594529 0.877320 0.848959
Si Si3 0.216507 0.477213 0.390601
Si Si4 0.571219 0.765785 0.554654
Si Si5 0.969830 0.078775 0.889751
O O1 0.062696 0.850858 0.341929
O O2 0.855176 0.860527 0.945579
O O3 0.081299 0.767868 0.842093
O O4 0.362816 0.848896 0.988496
O O5 0.541217 0.948064 0.864069
O O6 0.579388 0.837263 0.587705
O O7 0.273207 0.547397 0.377708
O O8 0.331552 0.453536 0.655677
O O9 0.349853 0.443363 0.154239
O O10 0.820408 0.748959 0.418024
#
# Coordination Sequence:
#
# PCOD9347045 Si02
#       5
#     4   4   4   4   4
#     4   9  17  32  54  80 111 147 188 234 284 339
#     4   9  17  32  54  80 111 147 188 234 284 339
#     4   9  18  35  58  84 115 152 193 238 289 345
#     4   8  14  26  50  76 106 142 184 230 280 334
#     4   9  18  35  58  84 115 152 193 238 289 345
#
# _framework density 30.924220999999999
#
# number of rings (size 3 to 8) (size 9 to 14) (size 15 to 20)
#    0.000    3.200    0.000    0.000    0.000    0.000 
#    0.000   24.000    0.000   38.400    0.000    0.000 
#    0.000    0.000    0.000    0.000    0.000    0.000 
#
# Total GULP energy -111678.214327 kJ/mol
# GULP energy per Si atom -5583.910716 kJ/mol
# Density = 3.085384 g / cm^3
# Si number density = 30.924221 Si / 1000 Ang^3
#
#
#
# Elastic Constant Matrix: (Units=GPa)
#
#
# Indices 1 2 3 4 5 6 
#
# 1 215.3112 62.0567 37.6636 0.0000 0.0000 0.0000
# 2 62.0567 181.0346 25.8185 0.0000 0.0000 0.0000
# 3 37.6636 25.8185 152.6923 0.0000 0.0000 0.0000
# 4 0.0000 0.0000 0.0000 41.0330 0.0000 0.0000
# 5 0.0000 0.0000 0.0000 0.0000 63.5002 0.0000
# 6 0.0000 0.0000 0.0000 0.0000 0.0000 74.9837
#
#
#
# Elastic Compliance Matrix: (Units=1/GPa)
#
#
# Indices 1 2 3 4 5 6 
#
# 1 0.005306 -0.001673 -0.001026 0.000000 0.000000 0.000000
# 2 -0.001673 0.006187 -0.000634 0.000000 0.000000 0.000000
# 3 -0.001026 -0.000634 0.006909 0.000000 0.000000 0.000000
# 4 0.000000 0.000000 0.000000 0.024371 0.000000 0.000000
# 5 0.000000 0.000000 0.000000 0.000000 0.015748 0.000000
# 6 0.000000 0.000000 0.000000 0.000000 0.000000 0.013336
#
#
# Mechanical properties :
#
#
# Convention : Reuss Voigt Hill
#
# Bulk Modulus (GPa) = 85.19017 88.90174 87.04595
# Shear Modulus (GPa) = 60.65401 64.13667 62.39534
#
# Velocity S-wave (km/s) = 4.43355 4.55905 4.49674
# Velocity P-wave (km/s) = 7.33596 7.51824 7.42766
#
# Compressibility (1/GPa) = 0.01173844
#
# Stress axis : x y z
#
# Youngs Moduli (GPa) = 188.46737 161.61626 144.73160
#
# Poissons Ratio (x) = 0.27030 0.14849
# Poissons Ratio (y) = 0.31521 0.09171
# Poissons Ratio (z) = 0.19336 0.10241
#
# Static dielectric constant tensor:
#      x y z
#    x 2.291180 0.000000 0.000000 
#    y 0.000000 2.531780 0.000000 
#    z 0.000000 0.000000 2.566910 
# 
# From -- ./inp_files/186.got.cif
#   From: 2010.05.17/outbox.cif.g08.bks.cpg/sg33_1_cif.got.tgz:186.got - 2010.06.03 17:15:25.
