data_PCOD9347821
_publ_section_title
;
Structure prediction by ZEFSAII (Michael W. Deem and Ramdas Pophale) SiO2 
 PCOD9347821
Probable space group: P N N 2
;
_chemical_formula_sum "Si O2"
_cell_formula_units_Z 32
_cell_length_a 16.079040
_cell_length_b 11.631509
_cell_length_c 8.243094
_cell_angle_alpha 90.000000
_cell_angle_beta 90.000000
_cell_angle_gamma 90.000000
_cell_volume 1541.652278
_symmetry_space_group_name_H-M "P N N 2"
_symmetry_group_IT_number 34
_symmetry_cell_setting 'orthorhombic'
loop_
_space_group_symop_operation_xyz
x,y,z
-x,-y,z
1/2-x,1/2+y,1/2+z
1/2+x,1/2-y,1/2+z
loop_
_atom_site_type_symbol
_atom_site_label
_atom_site_fract_x
_atom_site_fract_y
_atom_site_fract_z
Si Si1 0.106390 0.801444 0.950950
Si Si2 0.417431 0.725807 0.052573
Si Si3 0.795996 0.154199 0.467539
Si Si4 0.264326 0.861104 0.138364
Si Si5 0.170611 0.017479 0.738578
Si Si6 0.711754 0.905884 0.024021
Si Si7 0.474100 0.367429 0.774008
Si Si8 0.448694 0.111954 0.211203
O O1 0.095678 0.683191 0.853909
O O2 0.120416 0.915921 0.837048
O O3 0.189655 0.793906 0.056836
O O4 0.037378 0.822752 0.090228
O O5 0.343603 0.817615 0.042663
O O6 0.386552 0.617729 0.161739
O O7 0.490635 0.791275 0.142967
O O8 0.453475 0.690292 0.879358
O O9 0.727747 0.160128 0.327356
O O10 0.782234 0.272224 0.563600
O O11 0.886679 0.149433 0.375788
O O12 0.790410 0.048099 0.585929
O O13 0.244065 0.996463 0.129419
O O14 0.244421 0.069127 0.851081
O O15 0.614788 0.926095 0.068087
O O16 0.500000 0.500000 0.766485
O O17 0.500000 0.000000 0.264395
#
# Coordination Sequence:
#
# PCOD9347821 Si02
#       8
#     4   4   4   4   4   4   4   4
#     4  10  25  45  67  98 139 179 230 288 342 412
#     4  12  23  41  70  99 134 180 232 278 349 414
#     4  11  21  44  69  99 136 183 223 289 346 409
#     4  10  24  44  65 102 138 179 232 280 337 424
#     4  11  23  42  73 100 131 189 238 286 341 422
#     4  11  22  44  67  99 140 183 229 284 354 418
#     4  11  23  41  66 103 138 173 225 288 351 402
#     4  12  25  46  72  98 143 187 226 291 361 419
#
# _framework density 20.756948999999999
#
# number of rings (size 3 to 8) (size 9 to 14) (size 15 to 20)
#    0.000    1.000    6.250    0.000    1.750    1.000 
#    2.250    5.625    0.000    0.000    0.000    0.000 
#    0.000    0.000    0.000    0.000    0.000    0.000 
#
# Total GULP energy -178364.155811 kJ/mol
# GULP energy per Si atom -5573.879869 kJ/mol
# Density = 2.070971 g / cm^3
# Si number density = 20.756949 Si / 1000 Ang^3
#
#
#
# Elastic Constant Matrix: (Units=GPa)
#
#
# Indices 1 2 3 4 5 6 
#
# 1 70.7485 32.4767 43.2443 0.0000 0.0000 0.0000
# 2 32.4767 112.9284 46.5080 0.0000 0.0000 0.0000
# 3 43.2443 46.5080 86.2747 0.0000 0.0000 0.0000
# 4 0.0000 0.0000 0.0000 11.0646 0.0000 0.0000
# 5 0.0000 0.0000 0.0000 0.0000 15.9237 0.0000
# 6 0.0000 0.0000 0.0000 0.0000 0.0000 36.0244
#
#
#
# Elastic Compliance Matrix: (Units=1/GPa)
#
#
# Indices 1 2 3 4 5 6 
#
# 1 0.020783 -0.002168 -0.009248 0.000000 0.000000 0.000000
# 2 -0.002168 0.011608 -0.005171 0.000000 0.000000 0.000000
# 3 -0.009248 -0.005171 0.019014 0.000000 0.000000 0.000000
# 4 0.000000 0.000000 0.000000 0.090378 0.000000 0.000000
# 5 0.000000 0.000000 0.000000 0.000000 0.062800 0.000000
# 6 0.000000 0.000000 0.000000 0.000000 0.000000 0.027759
#
#
# Mechanical properties :
#
#
# Convention : Reuss Voigt Hill
#
# Bulk Modulus (GPa) = 54.85375 57.15661 56.00518
# Shear Modulus (GPa) = 18.40985 22.45070 20.43028
#
# Velocity S-wave (km/s) = 2.98136 3.29234 3.14070
# Velocity P-wave (km/s) = 6.19156 6.48448 6.33971
#
# Compressibility (1/GPa) = 0.01823029
#
# Stress axis : x y z
#
# Youngs Moduli (GPa) = 48.11673 86.14561 52.59262
#
# Poissons Ratio (x) = 0.18676 0.48640
# Poissons Ratio (y) = 0.10432 0.27195
# Poissons Ratio (z) = 0.44500 0.44546
#
# Static dielectric constant tensor:
#      x y z
#    x 1.807970 0.000000 0.000000 
#    y 0.000000 1.757930 0.000000 
#    z 0.000000 0.000000 1.766160 
# 
# From -- ./inp_files/3692.got.cif
#   From: 2010.05.17/outbox.cif.g08.bks.cpg/sg34_2_cif.got.tgz:3692.got - 2010.06.03 17:23:11.
