data_PCOD9347150
_publ_section_title
;
Structure prediction by ZEFSAII (Michael W. Deem and Ramdas Pophale) SiO2 
 PCOD9347150
Probable space group: P N N 2
;
_chemical_formula_sum "Si O2"
_cell_formula_units_Z 32
_cell_length_a 5.126228
_cell_length_b 13.581820
_cell_length_c 25.030558
_cell_angle_alpha 90.000000
_cell_angle_beta 90.000000
_cell_angle_gamma 90.000000
_cell_volume 1742.715204
_symmetry_space_group_name_H-M "P N N 2"
_symmetry_group_IT_number 34
_symmetry_cell_setting 'orthorhombic'
loop_
_space_group_symop_operation_xyz
x,y,z
-x,-y,z
1/2-x,1/2+y,1/2+z
1/2+x,1/2-y,1/2+z
loop_
_atom_site_type_symbol
_atom_site_label
_atom_site_fract_x
_atom_site_fract_y
_atom_site_fract_z
Si Si1 0.910256 0.317532 0.285180
Si Si2 0.430520 0.898572 0.361843
Si Si3 0.484393 0.617958 0.111951
Si Si4 0.031678 0.769301 0.945186
Si Si5 0.591822 0.612668 0.230653
Si Si6 0.430554 0.601802 0.793091
Si Si7 0.538204 0.882300 0.909232
Si Si8 0.516447 0.119225 0.543551
O O1 0.868528 0.098399 0.343641
O O2 0.609681 0.333373 0.270206
O O3 0.948922 0.343836 0.347577
O O4 0.996461 0.206887 0.269894
O O5 0.491038 0.802958 0.394996
O O6 0.632193 0.899115 0.312184
O O7 0.500000 0.000000 0.391955
O O8 0.500000 0.500000 0.116688
O O9 0.550916 0.655263 0.171138
O O10 0.702494 0.643055 0.068472
O O11 0.200404 0.640059 0.088866
O O12 0.298014 0.828021 0.937633
O O13 0.796318 0.847137 0.940441
O O14 0.029649 0.693605 0.994708
O O15 0.500000 0.500000 0.231077
O O16 0.887565 0.617914 0.250840
O O17 0.500000 0.500000 0.763248
O O18 0.500000 0.000000 0.908345
O O19 0.500000 0.000000 0.531240
#
# Coordination Sequence:
#
# PCOD9347150 Si02
#       8
#     4   4   4   4   4   4   4   4
#     4  12  21  37  55  81 110 153 195 219 271 326
#     4  10  18  32  51  74 105 138 175 215 261 316
#     4   9  19  36  54  83 118 142 174 228 287 333
#     4  12  21  37  55  81 109 150 185 221 272 334
#     4  11  22  35  57  83 113 149 186 228 272 332
#     4  10  20  34  51  74 106 143 177 221 269 311
#     4  12  25  38  53  77 116 155 191 235 262 307
#     4  10  20  35  59  87 115 142 174 225 287 347
#
# _framework density 18.36215
#
# number of rings (size 3 to 8) (size 9 to 14) (size 15 to 20)
#    0.000    1.250    2.500    4.875    0.000    2.000 
#    0.000    5.000    0.000    0.000    0.000   17.500 
#    0.000    0.000    0.000    0.000    0.000    0.000 
#
# Total GULP energy -178499.196857 kJ/mol
# GULP energy per Si atom -5578.099902 kJ/mol
# Density = 1.832036 g / cm^3
# Si number density = 18.362150 Si / 1000 Ang^3
#
#
#
# Elastic Constant Matrix: (Units=GPa)
#
#
# Indices 1 2 3 4 5 6 
#
# 1 65.8254 -1.9372 11.0260 0.0000 0.0000 0.0000
# 2 -1.9372 91.3826 12.7711 0.0000 0.0000 0.0000
# 3 11.0260 12.7711 62.2928 0.0000 0.0000 0.0000
# 4 0.0000 0.0000 0.0000 9.0791 0.0000 0.0000
# 5 0.0000 0.0000 0.0000 0.0000 9.3661 0.0000
# 6 0.0000 0.0000 0.0000 0.0000 0.0000 32.5857
#
#
#
# Elastic Compliance Matrix: (Units=1/GPa)
#
#
# Indices 1 2 3 4 5 6 
#
# 1 0.015705 0.000743 -0.002932 0.000000 0.000000 0.000000
# 2 0.000743 0.011301 -0.002448 0.000000 0.000000 0.000000
# 3 -0.002932 -0.002448 0.017074 0.000000 0.000000 0.000000
# 4 0.000000 0.000000 0.000000 0.110143 0.000000 0.000000
# 5 0.000000 0.000000 0.000000 0.000000 0.106768 0.000000
# 6 0.000000 0.000000 0.000000 0.000000 0.000000 0.030688
#
#
# Mechanical properties :
#
#
# Convention : Reuss Voigt Hill
#
# Bulk Modulus (GPa) = 28.73201 29.24672 28.98936
# Shear Modulus (GPa) = 15.99715 23.38224 19.68969
#
# Velocity S-wave (km/s) = 2.95482 3.57234 3.27815
# Velocity P-wave (km/s) = 5.22710 5.74262 5.49092
#
# Compressibility (1/GPa) = 0.03480439
#
# Stress axis : x y z
#
# Youngs Moduli (GPa) = 63.67520 88.48840 58.56802
#
# Poissons Ratio (x) = -0.06572 0.17172
# Poissons Ratio (y) = -0.04729 0.14339
# Poissons Ratio (z) = 0.18670 0.21665
#
# Static dielectric constant tensor:
#      x y z
#    x 1.648610 0.000000 0.000000 
#    y 0.000000 1.690840 0.000000 
#    z 0.000000 0.000000 1.634440 
# 
# From -- ./inp_files/8351.got.cif
#   From: 2010.05.17/outbox.cif.g08.bks.cpg/sg34_5_cif.got.tgz:8351.got - 2010.06.03 17:23:11.
