data_PCOD9347803
_publ_section_title
;
Structure prediction by ZEFSAII (Michael W. Deem and Ramdas Pophale) SiO2 
 PCOD9347803
Probable space group: P N N 2
;
_chemical_formula_sum "Si O2"
_cell_formula_units_Z 24
_cell_length_a 9.026696
_cell_length_b 18.981113
_cell_length_c 5.278040
_cell_angle_alpha 90.000000
_cell_angle_beta 90.000000
_cell_angle_gamma 90.000000
_cell_volume 904.322150
_symmetry_space_group_name_H-M "P N N 2"
_symmetry_group_IT_number 34
_symmetry_cell_setting 'orthorhombic'
loop_
_space_group_symop_operation_xyz
x,y,z
-x,-y,z
1/2-x,1/2+y,1/2+z
1/2+x,1/2-y,1/2+z
loop_
_atom_site_type_symbol
_atom_site_label
_atom_site_fract_x
_atom_site_fract_y
_atom_site_fract_z
Si Si1 0.093918 0.895493 0.205320
Si Si2 0.752757 0.649071 0.202247
Si Si3 0.011613 0.606541 0.483993
Si Si4 0.721500 0.448189 0.757579
Si Si5 0.268155 0.174372 0.628349
Si Si6 0.952294 0.722140 0.863773
O O1 0.142618 0.857944 0.464001
O O2 0.918857 0.903881 0.153996
O O3 0.161474 0.973021 0.258319
O O4 0.157304 0.860997 0.953109
O O5 0.888207 0.592699 0.268588
O O6 0.855252 0.714794 0.119440
O O7 0.125264 0.551289 0.603295
O O8 0.128399 0.662870 0.370986
O O9 0.930757 0.648610 0.709855
O O10 0.748081 0.404462 0.016004
O O11 0.122289 0.217037 0.699680
O O12 0.375978 0.217230 0.438252
#
# Coordination Sequence:
#
# PCOD9347803 Si02
#       6
#     4   4   4   4   4   4
#     4  11  26  46  77 106 150 195 250 312 379 458
#     4  11  24  47  72 107 142 189 249 307 368 460
#     4  10  23  47  66 108 144 186 253 303 375 446
#     4  10  26  46  70 111 148 196 250 313 382 448
#     4  10  24  43  73 102 150 193 250 311 376 459
#     4  10  23  46  70 107 144 193 250 308 378 451
#
# _framework density 26.539213
#
# number of rings (size 3 to 8) (size 9 to 14) (size 15 to 20)
#    0.000    1.667    1.667    0.000    4.667   11.333 
#    6.000    0.000    0.000    0.000    0.000    0.000 
#    0.000    0.000    0.000    0.000    0.000    0.000 
#
# Total GULP energy -134050.664289 kJ/mol
# GULP energy per Si atom -5585.444345 kJ/mol
# Density = 2.647881 g / cm^3
# Si number density = 26.539213 Si / 1000 Ang^3
#
#
#
# Elastic Constant Matrix: (Units=GPa)
#
#
# Indices 1 2 3 4 5 6 
#
# 1 137.3499 20.7292 63.8705 0.0000 0.0000 0.0000
# 2 20.7292 65.7481 29.6336 0.0000 0.0000 0.0000
# 3 63.8705 29.6336 148.5012 0.0000 0.0000 0.0000
# 4 0.0000 0.0000 0.0000 33.0977 0.0000 0.0000
# 5 0.0000 0.0000 0.0000 0.0000 41.0570 0.0000
# 6 0.0000 0.0000 0.0000 0.0000 0.0000 43.7496
#
#
#
# Elastic Compliance Matrix: (Units=1/GPa)
#
#
# Indices 1 2 3 4 5 6 
#
# 1 0.009190 -0.001226 -0.003708 0.000000 0.000000 0.000000
# 2 -0.001226 0.016876 -0.002840 0.000000 0.000000 0.000000
# 3 -0.003708 -0.002840 0.008896 0.000000 0.000000 0.000000
# 4 0.000000 0.000000 0.000000 0.030214 0.000000 0.000000
# 5 0.000000 0.000000 0.000000 0.000000 0.024356 0.000000
# 6 0.000000 0.000000 0.000000 0.000000 0.000000 0.022857
#
#
# Mechanical properties :
#
#
# Convention : Reuss Voigt Hill
#
# Bulk Modulus (GPa) = 51.51200 64.45177 57.98189
# Shear Modulus (GPa) = 37.19987 39.40526 38.30257
#
# Velocity S-wave (km/s) = 3.74798 3.85748 3.80313
# Velocity P-wave (km/s) = 6.17914 6.64669 6.41717
#
# Compressibility (1/GPa) = 0.01941295
#
# Stress axis : x y z
#
# Youngs Moduli (GPa) = 108.81384 59.25461 112.41616
#
# Poissons Ratio (x) = 0.07266 0.41683
# Poissons Ratio (y) = 0.13343 0.31929
# Poissons Ratio (z) = 0.40347 0.16830
#
# Static dielectric constant tensor:
#      x y z
#    x 2.137100 0.000000 0.000000 
#    y 0.000000 2.132400 0.000000 
#    z 0.000000 0.000000 2.093570 
# 
# From -- ./inp_files/497.got.cif
#   From: 2010.05.17/outbox.cif.g08.bks.cpg/sg34_1_cif.got.tgz:497.got - 2010.06.03 17:23:11.
