data_PCOD9347380
_publ_section_title
;
Structure prediction by ZEFSAII (Michael W. Deem and Ramdas Pophale) SiO2 
 PCOD9347380
Probable space group: P N N 2
;
_chemical_formula_sum "Si O2"
_cell_formula_units_Z 32
_cell_length_a 14.457220
_cell_length_b 8.994903
_cell_length_c 11.347101
_cell_angle_alpha 90.000000
_cell_angle_beta 90.000000
_cell_angle_gamma 90.000000
_cell_volume 1475.591669
_symmetry_space_group_name_H-M "P N N 2"
_symmetry_group_IT_number 34
_symmetry_cell_setting 'orthorhombic'
loop_
_space_group_symop_operation_xyz
x,y,z
-x,-y,z
1/2-x,1/2+y,1/2+z
1/2+x,1/2-y,1/2+z
loop_
_atom_site_type_symbol
_atom_site_label
_atom_site_fract_x
_atom_site_fract_y
_atom_site_fract_z
Si Si1 0.773637 0.188155 0.549600
Si Si2 0.200110 0.262087 0.453806
Si Si3 0.893469 0.865460 0.934717
Si Si4 0.589002 0.701068 0.491278
Si Si5 0.403226 0.225843 0.745585
Si Si6 0.600048 0.496013 0.879709
Si Si7 0.593518 0.937258 0.984734
Si Si8 0.207458 0.092954 0.695875
O O1 0.679765 0.259310 0.500445
O O2 0.821056 0.084103 0.450470
O O3 0.849074 0.319444 0.561753
O O4 0.764958 0.074358 0.657704
O O5 0.310979 0.248081 0.442429
O O6 0.164117 0.429572 0.455394
O O7 0.175685 0.185073 0.580365
O O8 0.140748 0.166646 0.360988
O O9 0.862007 0.907926 0.803500
O O10 0.993743 0.791021 0.921455
O O11 0.897416 0.022112 0.004910
O O12 0.567429 0.792683 0.611035
O O13 0.416268 0.400051 0.768545
O O14 0.439033 0.141269 0.861653
O O15 0.296440 0.179923 0.742769
O O16 0.500000 0.500000 0.943640
O O17 0.500000 0.000000 0.041200
#
# Coordination Sequence:
#
# PCOD9347380 Si02
#       8
#     4   4   4   4   4   4   4   4
#     4  10  21  41  67  96 131 178 228 280 351 413
#     4  10  20  40  65 100 135 177 231 281 347 412
#     4  11  21  45  64  95 139 175 228 282 347 418
#     4  10  23  40  62  95 133 182 222 281 336 426
#     4  10  21  41  64  97 131 175 225 281 355 400
#     4  10  20  37  65  97 130 169 223 289 342 406
#     4  11  21  40  66  97 134 161 232 304 335 407
#     4  10  21  41  71  92 135 187 216 282 350 423
#
# _framework density 21.686216999999999
#
# number of rings (size 3 to 8) (size 9 to 14) (size 15 to 20)
#    0.000    1.750    3.750    1.500    1.750    1.000 
#   18.000    5.000    0.000    0.000    0.000    0.000 
#    0.000    0.000    0.000    0.000    0.000    0.000 
#
# Total GULP energy -178399.114165 kJ/mol
# GULP energy per Si atom -5574.972318 kJ/mol
# Density = 2.163686 g / cm^3
# Si number density = 21.686217 Si / 1000 Ang^3
#
#
#
# Elastic Constant Matrix: (Units=GPa)
#
#
# Indices 1 2 3 4 5 6 
#
# 1 130.5469 38.1137 27.5574 0.0000 0.0000 0.0000
# 2 38.1137 105.6798 26.3053 0.0000 0.0000 0.0000
# 3 27.5574 26.3053 48.5444 0.0000 0.0000 0.0000
# 4 0.0000 0.0000 0.0000 24.0197 0.0000 0.0000
# 5 0.0000 0.0000 0.0000 0.0000 19.1153 0.0000
# 6 0.0000 0.0000 0.0000 0.0000 0.0000 34.2371
#
#
#
# Elastic Compliance Matrix: (Units=1/GPa)
#
#
# Indices 1 2 3 4 5 6 
#
# 1 0.009172 -0.002326 -0.003947 0.000000 0.000000 0.000000
# 2 -0.002326 0.011528 -0.004926 0.000000 0.000000 0.000000
# 3 -0.003947 -0.004926 0.025510 0.000000 0.000000 0.000000
# 4 0.000000 0.000000 0.000000 0.041632 0.000000 0.000000
# 5 0.000000 0.000000 0.000000 0.000000 0.052314 0.000000
# 6 0.000000 0.000000 0.000000 0.000000 0.000000 0.029208
#
#
# Mechanical properties :
#
#
# Convention : Reuss Voigt Hill
#
# Bulk Modulus (GPa) = 41.99540 52.08044 47.03792
# Shear Modulus (GPa) = 25.03775 28.32739 26.68257
#
# Velocity S-wave (km/s) = 3.40155 3.61811 3.51150
# Velocity P-wave (km/s) = 5.90207 6.44375 6.17885
#
# Compressibility (1/GPa) = 0.02381213
#
# Stress axis : x y z
#
# Youngs Moduli (GPa) = 109.02572 86.74881 39.20092
#
# Poissons Ratio (x) = 0.20174 0.15471
# Poissons Ratio (y) = 0.25355 0.19312
# Poissons Ratio (z) = 0.43028 0.42736
#
# Static dielectric constant tensor:
#      x y z
#    x 1.808920 0.000000 0.000000 
#    y 0.000000 1.836400 0.000000 
#    z 0.000000 0.000000 1.867680 
# 
# From -- ./inp_files/5672.got.cif
#   From: 2010.05.17/outbox.cif.g08.bks.cpg/sg34_3_cif.got.tgz:5672.got - 2010.06.03 17:23:11.
