data_PCOD9347493
_publ_section_title
;
Structure prediction by ZEFSAII (Michael W. Deem and Ramdas Pophale) SiO2 
 PCOD9347493
Probable space group: P N N 2
;
_chemical_formula_sum "Si O2"
_cell_formula_units_Z 24
_cell_length_a 5.066936
_cell_length_b 13.382113
_cell_length_c 17.587778
_cell_angle_alpha 90.000000
_cell_angle_beta 90.000000
_cell_angle_gamma 90.000000
_cell_volume 1192.562329
_symmetry_space_group_name_H-M "P N N 2"
_symmetry_group_IT_number 34
_symmetry_cell_setting 'orthorhombic'
loop_
_space_group_symop_operation_xyz
x,y,z
-x,-y,z
1/2-x,1/2+y,1/2+z
1/2+x,1/2-y,1/2+z
loop_
_atom_site_type_symbol
_atom_site_label
_atom_site_fract_x
_atom_site_fract_y
_atom_site_fract_z
Si Si1 0.000000 0.000000 0.997280
Si Si2 0.018626 0.811449 0.885579
Si Si3 0.821255 0.097670 0.656027
Si Si4 0.887809 0.713251 0.610504
Si Si5 0.013072 0.615382 0.304859
Si Si6 0.500000 0.000000 0.106121
Si Si7 0.633970 0.215552 0.528077
O O1 0.017566 0.903921 0.944292
O O2 0.750327 0.991554 0.051508
O O3 0.796862 0.839845 0.823939
O O4 0.301962 0.814770 0.847173
O O5 0.951625 0.718851 0.940749
O O6 0.594453 0.106510 0.718979
O O7 0.693841 0.111752 0.572009
O O8 0.010300 0.194863 0.660844
O O9 0.000000 0.000000 0.665404
O O10 0.945017 0.605543 0.647124
O O11 0.594407 0.732092 0.579547
O O12 0.090343 0.724597 0.538826
O O13 0.000000 0.500000 0.334422
#
# Coordination Sequence:
#
# PCOD9347493 Si02
#       7
#     2   4   4   4   4   2   4
#     4  12  18  30  52  82 128 156 174 244 312 400
#     4  12  21  35  54  91 123 155 203 249 326 382
#     4  10  25  42  60  87 131 170 215 250 314 391
#     4  10  21  34  58  87 115 161 204 260 310 360
#     4  12  24  35  58  89 128 167 194 256 335 390
#     4  12  18  34  58  88 124 148 202 260 322 368
#     4  10  22  37  59  86 119 166 211 253 307 371
#
# _framework density 20.124732000000002
#
# number of rings (size 3 to 8) (size 9 to 14) (size 15 to 20)
#    1.000    0.000    5.000    3.000    4.667    0.000 
#    0.000    0.000    0.000    0.000    4.333    0.000 
#    0.000    0.000    0.000    0.000    0.000    0.000 
#
# Total GULP energy -133800.130336 kJ/mol
# GULP energy per Si atom -5575.005431 kJ/mol
# Density = 2.007893 g / cm^3
# Si number density = 20.124732 Si / 1000 Ang^3
#
#
#
# Elastic Constant Matrix: (Units=GPa)
#
#
# Indices 1 2 3 4 5 6 
#
# 1 93.7490 12.4724 7.9562 0.0000 0.0000 0.0000
# 2 12.4724 87.3990 26.7428 0.0000 0.0000 0.0000
# 3 7.9562 26.7428 71.7818 0.0000 0.0000 0.0000
# 4 0.0000 0.0000 0.0000 18.6122 0.0000 0.0000
# 5 0.0000 0.0000 0.0000 0.0000 27.9201 0.0000
# 6 0.0000 0.0000 0.0000 0.0000 0.0000 20.9578
#
#
#
# Elastic Compliance Matrix: (Units=1/GPa)
#
#
# Indices 1 2 3 4 5 6 
#
# 1 0.010905 -0.001339 -0.000710 0.000000 0.000000 0.000000
# 2 -0.001339 0.013078 -0.004724 0.000000 0.000000 0.000000
# 3 -0.000710 -0.004724 0.015770 0.000000 0.000000 0.000000
# 4 0.000000 0.000000 0.000000 0.053728 0.000000 0.000000
# 5 0.000000 0.000000 0.000000 0.000000 0.035816 0.000000
# 6 0.000000 0.000000 0.000000 0.000000 0.000000 0.047715
#
#
# Mechanical properties :
#
#
# Convention : Reuss Voigt Hill
#
# Bulk Modulus (GPa) = 38.15707 38.58586 38.37147
# Shear Modulus (GPa) = 25.08850 27.21524 26.15187
#
# Velocity S-wave (km/s) = 3.53462 3.68139 3.60875
# Velocity P-wave (km/s) = 5.97156 6.10616 6.03923
#
# Compressibility (1/GPa) = 0.02620746
#
# Stress axis : x y z
#
# Youngs Moduli (GPa) = 91.69964 76.46230 63.41259
#
# Poissons Ratio (x) = 0.10239 0.04501
# Poissons Ratio (y) = 0.12279 0.29956
# Poissons Ratio (z) = 0.06509 0.36121
#
# Static dielectric constant tensor:
#      x y z
#    x 1.731010 0.000000 0.000000 
#    y 0.000000 1.773150 0.000000 
#    z 0.000000 0.000000 1.746990 
# 
# From -- ./inp_files/7187.got.cif
#   From: 2010.05.17/outbox.cif.g08.bks.cpg/sg34_4_cif.got.tgz:7187.got - 2010.06.03 17:23:11.
