data_PCOD9347811
_publ_section_title
;
Structure prediction by ZEFSAII (Michael W. Deem and Ramdas Pophale) SiO2 
 PCOD9347811
Probable space group: P N N 2
;
_chemical_formula_sum "Si O2"
_cell_formula_units_Z 24
_cell_length_a 10.062615
_cell_length_b 20.038114
_cell_length_c 5.127024
_cell_angle_alpha 90.000000
_cell_angle_beta 90.000000
_cell_angle_gamma 90.000000
_cell_volume 1033.791722
_symmetry_space_group_name_H-M "P N N 2"
_symmetry_group_IT_number 34
_symmetry_cell_setting 'orthorhombic'
loop_
_space_group_symop_operation_xyz
x,y,z
-x,-y,z
1/2-x,1/2+y,1/2+z
1/2+x,1/2-y,1/2+z
loop_
_atom_site_type_symbol
_atom_site_label
_atom_site_fract_x
_atom_site_fract_y
_atom_site_fract_z
Si Si1 0.463586 0.829995 0.174950
Si Si2 0.376452 0.696014 0.371614
Si Si3 0.742387 0.582438 0.833437
Si Si4 0.255583 0.152345 0.386056
Si Si5 0.470321 0.574364 0.100758
Si Si6 0.112513 0.445504 0.343088
O O1 0.470170 0.752201 0.242566
O O2 0.323395 0.848498 0.309261
O O3 0.595531 0.861623 0.299363
O O4 0.445205 0.870512 0.902737
O O5 0.317982 0.696445 0.662062
O O6 0.254879 0.689438 0.164296
O O7 0.455630 0.626601 0.334375
O O8 0.593295 0.592644 0.916822
O O9 0.772158 0.547419 0.559644
O O10 0.823386 0.546725 0.063215
O O11 0.165107 0.087031 0.438441
O O12 0.500000 0.500000 0.186508
O O13 0.000000 0.500000 0.387121
#
# Coordination Sequence:
#
# PCOD9347811 Si02
#       6
#     4   4   4   4   4   4
#     4  10  26  42  74  96 141 176 235 276 340 400
#     4  10  26  41  68 100 138 174 225 278 341 399
#     4  10  25  40  69  97 134 179 222 278 338 397
#     4  10  26  42  68 100 133 179 224 278 338 402
#     4  10  26  46  70 100 141 180 227 277 344 404
#     4  10  24  39  67  99 133 172 227 278 332 396
#
# _framework density 23.215509000000001
#
# number of rings (size 3 to 8) (size 9 to 14) (size 15 to 20)
#    2.000    0.000    0.000    0.500   11.667    3.333 
#    0.000    0.000    0.000    0.000    0.000    0.000 
#    0.000    0.000    0.000    0.000    0.000    0.000 
#
# Total GULP energy -133670.950390 kJ/mol
# GULP energy per Si atom -5569.622933 kJ/mol
# Density = 2.316267 g / cm^3
# Si number density = 23.215509 Si / 1000 Ang^3
#
#
#
# Elastic Constant Matrix: (Units=GPa)
#
#
# Indices 1 2 3 4 5 6 
#
# 1 61.8296 20.8461 -32.0026 0.0000 0.0000 0.0000
# 2 20.8461 94.4200 9.2147 0.0000 0.0000 0.0000
# 3 -32.0026 9.2147 52.9265 0.0000 0.0000 0.0000
# 4 0.0000 0.0000 0.0000 10.0415 0.0000 0.0000
# 5 0.0000 0.0000 0.0000 0.0000 18.0916 0.0000
# 6 0.0000 0.0000 0.0000 0.0000 0.0000 28.0651
#
#
#
# Elastic Compliance Matrix: (Units=1/GPa)
#
#
# Indices 1 2 3 4 5 6 
#
# 1 0.028604 -0.008142 0.018713 0.000000 0.000000 0.000000
# 2 -0.008142 0.013091 -0.007202 0.000000 0.000000 0.000000
# 3 0.018713 -0.007202 0.031463 0.000000 0.000000 0.000000
# 4 0.000000 0.000000 0.000000 0.099587 0.000000 0.000000
# 5 0.000000 0.000000 0.000000 0.000000 0.055274 0.000000
# 6 0.000000 0.000000 0.000000 0.000000 0.000000 0.035631
#
#
# Mechanical properties :
#
#
# Convention : Reuss Voigt Hill
#
# Bulk Modulus (GPa) = 12.51589 22.81027 17.66308
# Shear Modulus (GPa) = 17.63392 25.31418 21.47405
#
# Velocity S-wave (km/s) = 2.75903 3.30570 3.04466
# Velocity P-wave (km/s) = 3.94367 4.94136 4.47043
#
# Compressibility (1/GPa) = 0.07989840
#
# Stress axis : x y z
#
# Youngs Moduli (GPa) = 34.95973 76.38636 31.78308
#
# Poissons Ratio (x) = 0.62190 -0.59477
# Poissons Ratio (y) = 0.28463 0.22891
# Poissons Ratio (z) = -0.65421 0.55014
#
# Static dielectric constant tensor:
#      x y z
#    x 1.851660 0.000000 0.000000 
#    y 0.000000 1.985550 0.000000 
#    z 0.000000 0.000000 1.860490 
# 
# From -- ./inp_files/925.got.cif
#   From: 2010.05.17/outbox.cif.g08.bks.cpg/sg34_1_cif.got.tgz:925.got - 2010.06.03 17:23:11.
