data_PCOD9347315
_publ_section_title
;
Structure prediction by ZEFSAII (Michael W. Deem and Ramdas Pophale) SiO2 
 PCOD9347315
Probable space group: P N N 2
;
_chemical_formula_sum "Si O2"
_cell_formula_units_Z 24
_cell_length_a 7.439435
_cell_length_b 10.269994
_cell_length_c 12.402060
_cell_angle_alpha 90.000000
_cell_angle_beta 90.000000
_cell_angle_gamma 90.000000
_cell_volume 947.554005
_symmetry_space_group_name_H-M "P N N 2"
_symmetry_group_IT_number 34
_symmetry_cell_setting 'orthorhombic'
loop_
_space_group_symop_operation_xyz
x,y,z
-x,-y,z
1/2-x,1/2+y,1/2+z
1/2+x,1/2-y,1/2+z
loop_
_atom_site_type_symbol
_atom_site_label
_atom_site_fract_x
_atom_site_fract_y
_atom_site_fract_z
Si Si1 0.218891 0.495660 0.967990
Si Si2 0.693052 0.932996 0.239732
Si Si3 0.208706 0.968483 0.929845
Si Si4 0.655168 0.677629 0.620570
Si Si5 0.255649 0.219860 0.047357
Si Si6 0.299331 0.057682 0.702664
O O1 0.269639 0.573621 0.860458
O O2 0.000000 0.500000 0.970546
O O3 0.280435 0.345959 0.974433
O O4 0.284374 0.544081 0.083961
O O5 0.663544 0.804879 0.166684
O O6 0.500000 0.000000 0.247672
O O7 0.813979 0.037375 0.174922
O O8 0.222896 0.976483 0.801996
O O9 0.254232 0.844389 0.004329
O O10 0.000000 0.000000 0.952580
O O11 0.309886 0.094294 0.977377
O O12 0.455771 0.718526 0.582308
O O13 0.705863 0.785736 0.709421
O O14 0.500000 0.000000 0.696100
#
# Coordination Sequence:
#
# PCOD9347315 Si02
#       6
#     4   4   4   4   4   4
#     4  10  20  38  59  88 121 159 203 240 303 367
#     4  10  22  38  65  91 118 156 206 256 302 359
#     4   9  21  37  62  86 117 160 202 249 310 359
#     4  10  20  41  63  86 119 162 204 243 305 371
#     4  10  19  41  65  84 119 164 200 248 306 366
#     4  11  21  39  61  88 122 157 205 249 299 362
#
# _framework density 25.328368999999999
#
# number of rings (size 3 to 8) (size 9 to 14) (size 15 to 20)
#    0.000    2.000    3.333    2.500    0.000    4.000 
#    6.000    1.667    0.000    0.000    0.000    0.000 
#    0.000    0.000    0.000    0.000    0.000    0.000 
#
# Total GULP energy -133761.707819 kJ/mol
# GULP energy per Si atom -5573.404492 kJ/mol
# Density = 2.527072 g / cm^3
# Si number density = 25.328369 Si / 1000 Ang^3
#
#
#
# Elastic Constant Matrix: (Units=GPa)
#
#
# Indices 1 2 3 4 5 6 
#
# 1 50.0445 -2.7344 1.9616 0.0000 0.0000 0.0000
# 2 -2.7344 79.9817 25.6071 0.0000 0.0000 0.0000
# 3 1.9616 25.6071 195.6277 0.0000 0.0000 0.0000
# 4 0.0000 0.0000 0.0000 35.1635 0.0000 0.0000
# 5 0.0000 0.0000 0.0000 0.0000 18.8811 0.0000
# 6 0.0000 0.0000 0.0000 0.0000 0.0000 12.2383
#
#
#
# Elastic Compliance Matrix: (Units=1/GPa)
#
#
# Indices 1 2 3 4 5 6 
#
# 1 0.020037 0.000782 -0.000303 0.000000 0.000000 0.000000
# 2 0.000782 0.013080 -0.001720 0.000000 0.000000 0.000000
# 3 -0.000303 -0.001720 0.005340 0.000000 0.000000 0.000000
# 4 0.000000 0.000000 0.000000 0.028439 0.000000 0.000000
# 5 0.000000 0.000000 0.000000 0.000000 0.052963 0.000000
# 6 0.000000 0.000000 0.000000 0.000000 0.000000 0.081711
#
#
# Mechanical properties :
#
#
# Convention : Reuss Voigt Hill
#
# Bulk Modulus (GPa) = 27.79730 41.70248 34.74989
# Shear Modulus (GPa) = 23.14352 33.31123 28.22738
#
# Velocity S-wave (km/s) = 3.02609 3.63047 3.34197
# Velocity P-wave (km/s) = 4.81749 5.83731 5.35175
#
# Compressibility (1/GPa) = 0.03597471
#
# Stress axis : x y z
#
# Youngs Moduli (GPa) = 49.90806 76.45096 187.26820
#
# Poissons Ratio (x) = -0.05979 0.05680
# Poissons Ratio (y) = -0.03903 0.32210
# Poissons Ratio (z) = 0.01514 0.13150
#
# Static dielectric constant tensor:
#      x y z
#    x 2.067280 0.000000 0.000000 
#    y 0.000000 2.171490 0.000000 
#    z 0.000000 0.000000 2.061530 
# 
# From -- ./inp_files/4917.got.cif
#   From: 2010.05.17/outbox.cif.g08.bks.cpg/sg34_3_cif.got.tgz:4917.got - 2010.06.03 17:23:11.
