data_PCOD9348045
_publ_section_title
;
Structure prediction by ZEFSAII (Michael W. Deem and Ramdas Pophale) SiO2 
 PCOD9348045
Probable space group: P N N 2
;
_chemical_formula_sum "Si O2"
_cell_formula_units_Z 22
_cell_length_a 5.080786
_cell_length_b 13.730579
_cell_length_c 13.358634
_cell_angle_alpha 90.000000
_cell_angle_beta 90.000000
_cell_angle_gamma 90.000000
_cell_volume 931.926809
_symmetry_space_group_name_H-M "P N N 2"
_symmetry_group_IT_number 34
_symmetry_cell_setting 'orthorhombic'
loop_
_space_group_symop_operation_xyz
x,y,z
-x,-y,z
1/2-x,1/2+y,1/2+z
1/2+x,1/2-y,1/2+z
loop_
_atom_site_type_symbol
_atom_site_label
_atom_site_fract_x
_atom_site_fract_y
_atom_site_fract_z
Si Si1 0.639393 0.807270 0.930550
Si Si2 0.574571 0.267813 0.620562
Si Si3 0.923840 0.698572 0.753186
Si Si4 0.000000 0.500000 0.868256
Si Si5 0.500000 0.500000 0.181462
Si Si6 0.207988 0.131216 0.515899
Si Si7 0.500000 0.000000 0.824088
O O1 0.828166 0.769409 0.841753
O O2 0.501984 0.903453 0.890777
O O3 0.806604 0.830051 0.029897
O O4 0.439394 0.719912 0.960529
O O5 0.300467 0.300828 0.668617
O O6 0.795833 0.270255 0.706745
O O7 0.073020 0.408631 0.800269
O O8 0.517321 0.831016 0.564039
O O9 0.222720 0.544633 0.940398
O O10 0.460466 0.591247 0.107899
O O11 0.249569 0.495267 0.251883
#
# Coordination Sequence:
#
# PCOD9348045 Si02
#       7
#     4   4   4   2   2   4   2
#     4  12  29  54  81 119 167 214 271 338 406 482
#     4  12  28  51  81 114 165 217 262 328 413 476
#     4  12  28  49  84 117 168 207 270 335 412 477
#     4  12  27  51  80 128 156 214 270 340 404 476
#     4  12  30  48  80 124 154 210 282 330 402 478
#     4  12  27  52  84 118 161 215 272 351 389 488
#     4  12  33  51  82 116 168 212 272 330 408 486
#
# _framework density 23.607001
#
# number of rings (size 3 to 8) (size 9 to 14) (size 15 to 20)
#    0.000    0.000    3.636    3.818    7.636    4.364 
#    3.273    0.000    0.000    0.000    0.000    0.000 
#    0.000    0.000    0.000    0.000    0.000    0.000 
#
# Total GULP energy -123374.060372 kJ/mol
# GULP energy per Si atom -5607.911835 kJ/mol
# Density = 2.355327 g / cm^3
# Si number density = 23.607001 Si / 1000 Ang^3
#
#
#
# Elastic Constant Matrix: (Units=GPa)
#
#
# Indices 1 2 3 4 5 6 
#
# 1 159.7464 38.4540 49.5379 0.0000 0.0000 0.0000
# 2 38.4540 126.5825 40.8981 0.0000 0.0000 0.0000
# 3 49.5379 40.8981 117.9458 0.0000 0.0000 0.0000
# 4 0.0000 0.0000 0.0000 47.1406 0.0000 0.0000
# 5 0.0000 0.0000 0.0000 0.0000 18.5691 0.0000
# 6 0.0000 0.0000 0.0000 0.0000 0.0000 37.4608
#
#
#
# Elastic Compliance Matrix: (Units=1/GPa)
#
#
# Indices 1 2 3 4 5 6 
#
# 1 0.007412 -0.001403 -0.002627 0.000000 0.000000 0.000000
# 2 -0.001403 0.009162 -0.002588 0.000000 0.000000 0.000000
# 3 -0.002627 -0.002588 0.010479 0.000000 0.000000 0.000000
# 4 0.000000 0.000000 0.000000 0.021213 0.000000 0.000000
# 5 0.000000 0.000000 0.000000 0.000000 0.053853 0.000000
# 6 0.000000 0.000000 0.000000 0.000000 0.000000 0.026695
#
#
# Mechanical properties :
#
#
# Convention : Reuss Voigt Hill
#
# Bulk Modulus (GPa) = 72.36653 73.56164 72.96409
# Shear Modulus (GPa) = 34.09358 38.99308 36.54333
#
# Velocity S-wave (km/s) = 3.80441 4.06859 3.93872
# Velocity P-wave (km/s) = 7.07243 7.30068 7.18746
#
# Compressibility (1/GPa) = 0.01381854
#
# Stress axis : x y z
#
# Youngs Moduli (GPa) = 134.91278 109.14276 95.42895
#
# Poissons Ratio (x) = 0.15313 0.25066
# Poissons Ratio (y) = 0.18929 0.24695
# Poissons Ratio (z) = 0.35437 0.28244
#
# Static dielectric constant tensor:
#      x y z
#    x 1.928490 0.000000 0.000000 
#    y 0.000000 1.907530 0.000000 
#    z 0.000000 0.000000 1.894010 
# 
# From -- ./inp_files/4411.got.cif
#   From: 2010.05.17/outbox.cif.g08.bks.cpg/sg34_3_cif.got.tgz:4411.got - 2010.06.03 17:23:11.
