data_PCOD9348388
_publ_section_title
;
Structure prediction by ZEFSAII (Michael W. Deem and Ramdas Pophale) SiO2 
 PCOD9348388
Probable space group: C M M 2
;
_chemical_formula_sum "Si O2"
_cell_formula_units_Z 48
_cell_length_a 19.060942
_cell_length_b 8.546299
_cell_length_c 15.941576
_cell_angle_alpha 90.000000
_cell_angle_beta 90.000000
_cell_angle_gamma 90.000000
_cell_volume 2596.890853
_symmetry_space_group_name_H-M "C M M 2"
_symmetry_group_IT_number 35
_symmetry_cell_setting 'orthorhombic'
loop_
_space_group_symop_operation_xyz
x,y,z
-x,-y,z
-x,y,z
x,-y,z
1/2+x,1/2+y,z
1/2-x,1/2-y,z
1/2-x,1/2+y,z
1/2+x,1/2-y,z
loop_
_atom_site_type_symbol
_atom_site_label
_atom_site_fract_x
_atom_site_fract_y
_atom_site_fract_z
Si Si1 0.083779 0.685617 0.493030
Si Si2 0.670964 0.812608 0.824577
Si Si3 0.828956 0.310547 0.145618
Si Si4 0.580682 0.808973 0.984127
Si Si5 0.671944 0.315382 0.645078
Si Si6 0.580917 0.190835 0.304729
O O1 0.099011 0.500000 0.499419
O O2 0.123766 0.771826 0.566840
O O3 0.102693 0.739251 0.398618
O O4 0.000000 0.704743 0.500876
O O5 0.750000 0.750000 0.837049
O O6 0.620424 0.759217 0.899532
O O7 0.646353 0.757781 0.732894
O O8 0.673659 0.000000 0.825456
O O9 0.827632 0.500000 0.145890
O O10 0.750000 0.250000 0.140487
O O11 0.867891 0.257997 0.230741
O O12 0.874838 0.260303 0.065373
O O13 0.500000 0.756754 0.987583
O O14 0.579770 0.000000 0.984258
O O15 0.676284 0.500000 0.655875
O O16 0.750000 0.250000 0.630213
O O17 0.500000 0.239023 0.289676
O O18 0.580391 0.000000 0.305157
#
# Coordination Sequence:
#
# PCOD9348388 Si02
#       6
#     8   8   8   8   8   8
#     4   9  18  34  55  78 105 137 173 213 259 310
#     4  10  19  33  53  75 101 133 169 210 257 306
#     4  10  19  32  52  77 105 134 167 207 249 296
#     4   9  18  32  52  77 101 130 170 210 247 294
#     4  11  22  36  54  76 104 137 175 216 260 309
#     4   8  15  30  53  77 100 132 173 211 247 293
#
# _framework density 18.483643000000001
#
# number of rings (size 3 to 8) (size 9 to 14) (size 15 to 20)
#    0.000    2.500    0.000    5.000    0.000    3.667 
#    0.000    5.000    0.000    6.500    0.000    0.000 
#    0.000    0.000    0.000    0.000    0.000    0.000 
#
# Total GULP energy -133926.546551 kJ/mol
# GULP energy per Si atom -5580.272773 kJ/mol
# Density = 1.844157 g / cm^3
# Si number density = 18.483643 Si / 1000 Ang^3
#
#
#
# Elastic Constant Matrix: (Units=GPa)
#
#
# Indices 1 2 3 4 5 6 
#
# 1 106.7045 22.9382 101.4968 0.0000 0.0000 0.0000
# 2 22.9382 38.2181 33.6146 0.0000 0.0000 0.0000
# 3 101.4968 33.6146 181.2048 0.0000 0.0000 0.0000
# 4 0.0000 0.0000 0.0000 9.2497 0.0000 0.0000
# 5 0.0000 0.0000 0.0000 0.0000 39.3870 0.0000
# 6 0.0000 0.0000 0.0000 0.0000 0.0000 26.6651
#
#
#
# Elastic Compliance Matrix: (Units=1/GPa)
#
#
# Indices 1 2 3 4 5 6 
#
# 1 0.020273 -0.002605 -0.010872 0.000000 0.000000 0.000000
# 2 -0.002605 0.031602 -0.004403 0.000000 0.000000 0.000000
# 3 -0.010872 -0.004403 0.012425 0.000000 0.000000 0.000000
# 4 0.000000 0.000000 0.000000 0.108111 0.000000 0.000000
# 5 0.000000 0.000000 0.000000 0.000000 0.025389 0.000000
# 6 0.000000 0.000000 0.000000 0.000000 0.000000 0.037502
#
#
# Mechanical properties :
#
#
# Convention : Reuss Voigt Hill
#
# Bulk Modulus (GPa) = 35.03936 71.35853 53.19895
# Shear Modulus (GPa) = 17.82038 26.26554 22.04296
#
# Velocity S-wave (km/s) = 3.10839 3.77373 3.45710
# Velocity P-wave (km/s) = 5.64632 7.59461 6.69175
#
# Compressibility (1/GPa) = 0.02853933
#
# Stress axis : x y z
#
# Youngs Moduli (GPa) = 49.32576 31.64355 80.48148
#
# Poissons Ratio (x) = 0.08244 0.87502
# Poissons Ratio (y) = 0.12851 0.35437
# Poissons Ratio (z) = 0.53628 0.13933
#
# Static dielectric constant tensor:
#      x y z
#    x 1.607060 0.000000 0.000000 
#    y 0.000000 1.636410 0.000000 
#    z 0.000000 0.000000 1.637170 
# 
# From -- ./inp_files/17074.got.cif
#   From: 2010.05.17/outbox.cif.g08.bks.cpg/sg35_9_cif.got.tgz:17074.got - 2010.06.03 17:29:28.
