data_PCOD9348500
_publ_section_title
;
Structure prediction by ZEFSAII (Michael W. Deem and Ramdas Pophale) SiO2 
 PCOD9348500
Probable space group: C M M 2
;
_chemical_formula_sum "Si O2"
_cell_formula_units_Z 64
_cell_length_a 18.556089
_cell_length_b 25.943833
_cell_length_c 7.754500
_cell_angle_alpha 90.000000
_cell_angle_beta 90.000000
_cell_angle_gamma 90.000000
_cell_volume 3733.140947
_symmetry_space_group_name_H-M "C M M 2"
_symmetry_group_IT_number 35
_symmetry_cell_setting 'orthorhombic'
loop_
_space_group_symop_operation_xyz
x,y,z
-x,-y,z
-x,y,z
x,-y,z
1/2+x,1/2+y,z
1/2-x,1/2-y,z
1/2-x,1/2+y,z
1/2+x,1/2-y,z
loop_
_atom_site_type_symbol
_atom_site_label
_atom_site_fract_x
_atom_site_fract_y
_atom_site_fract_z
Si Si1 0.580324 0.365162 0.871080
Si Si2 0.229366 0.809430 0.871080
Si Si3 0.630949 0.560002 0.572771
Si Si4 0.222997 0.381543 0.564692
Si Si5 0.418892 0.059947 0.079756
Si Si6 0.277003 0.881543 0.177468
Si Si7 0.630949 0.439998 0.169389
Si Si8 0.418892 0.940053 0.662404
O O1 0.500000 0.343387 0.871080
O O2 0.644084 0.323064 0.871080
O O3 0.591368 0.401979 0.704376
O O4 0.591368 0.401979 0.037784
O O5 0.250000 0.750000 0.871080
O O6 0.262112 0.838075 0.704930
O O7 0.262112 0.838075 0.037230
O O8 0.618957 0.500000 0.614473
O O9 0.715628 0.574607 0.590720
O O10 0.611430 0.568032 0.371080
O O11 0.232109 0.361564 0.371080
O O12 0.144770 0.406147 0.587503
O O13 0.500000 0.075604 0.130428
O O14 0.355230 0.093853 0.154657
O O15 0.409356 0.000000 0.128607
O O16 0.414819 0.062441 0.871080
O O17 0.215628 0.925393 0.151440
O O18 0.618957 0.500000 0.127687
O O19 0.500000 0.924396 0.611732
O O20 0.409356 0.000000 0.613553
#
# Coordination Sequence:
#
# PCOD9348500 Si02
#       8
#     8   8   8   8   8   8   8   8
#     4  10  21  36  54  77 102 132 168 206 251 305
#     4  10  22  41  59  75  97 129 172 221 275 313
#     4   9  18  31  49  77 110 141 170 199 237 295
#     4  10  19  33  54  77 102 136 177 218 259 308
#     4   9  17  29  47  75 112 149 178 207 251 307
#     4  10  19  33  54  77 102 136 177 218 259 308
#     4   9  18  31  49  77 110 141 170 199 237 295
#     4   9  17  29  47  75 112 149 178 207 251 307
#
# _framework density 17.143740000000001
#
# number of rings (size 3 to 8) (size 9 to 14) (size 15 to 20)
#    0.000    2.500    1.250    1.875    0.000    4.000 
#    0.000    3.750    0.000    0.000    0.000    0.000 
#    0.000    0.000    0.000    0.000    0.000    0.000 
#
# Total GULP energy -178516.167480 kJ/mol
# GULP energy per Si atom -5578.630234 kJ/mol
# Density = 1.710472 g / cm^3
# Si number density = 17.143740 Si / 1000 Ang^3
#
#
#
# Elastic Constant Matrix: (Units=GPa)
#
#
# Indices 1 2 3 4 5 6 
#
# 1 118.0959 41.7527 36.8535 0.0000 0.0000 0.0000
# 2 41.7527 82.5330 39.7642 0.0000 0.0000 0.0000
# 3 36.8535 39.7642 76.3648 0.0000 0.0000 0.0000
# 4 0.0000 0.0000 0.0000 0.6925 0.0000 0.0000
# 5 0.0000 0.0000 0.0000 0.0000 11.3216 0.0000
# 6 0.0000 0.0000 0.0000 0.0000 0.0000 7.0310
#
#
#
# Elastic Compliance Matrix: (Units=1/GPa)
#
#
# Indices 1 2 3 4 5 6 
#
# 1 0.010861 -0.003963 -0.003177 0.000000 0.000000 0.000000
# 2 -0.003963 0.017620 -0.007263 0.000000 0.000000 0.000000
# 3 -0.003177 -0.007263 0.018410 0.000000 0.000000 0.000000
# 4 0.000000 0.000000 0.000000 1.444130 0.000000 0.000000
# 5 0.000000 0.000000 0.000000 0.000000 0.088327 0.000000
# 6 0.000000 0.000000 0.000000 0.000000 0.000000 0.142227
#
#
# Mechanical properties :
#
#
# Convention : Reuss Voigt Hill
#
# Bulk Modulus (GPa) = 55.29608 57.08158 56.18883
# Shear Modulus (GPa) = 2.84672 14.38390 8.61531
#
# Velocity S-wave (km/s) = 1.29000 2.89972 2.24416
# Velocity P-wave (km/s) = 5.87735 6.67678 6.28978
#
# Compressibility (1/GPa) = 0.01808446
#
# Stress axis : x y z
#
# Youngs Moduli (GPa) = 92.07675 56.75232 54.31779
#
# Poissons Ratio (x) = 0.22493 0.17259
# Poissons Ratio (y) = 0.36493 0.39448
# Poissons Ratio (z) = 0.29257 0.41216
#
# Static dielectric constant tensor:
#      x y z
#    x 1.591960 0.000000 0.000000 
#    y 0.000000 1.525870 0.000000 
#    z 0.000000 0.000000 1.607420 
# 
# From -- ./inp_files/8856.got.cif
#   From: 2010.05.17/outbox.cif.g08.bks.cpg/sg35_5_cif.got.tgz:8856.got - 2010.06.03 17:29:28.
