data_PCOD9348071
_publ_section_title
;
Structure prediction by ZEFSAII (Michael W. Deem and Ramdas Pophale) SiO2 
 PCOD9348071
Probable space group: C M M 2
;
_chemical_formula_sum "Si O2"
_cell_formula_units_Z 64
_cell_length_a 29.932988
_cell_length_b 8.619627
_cell_length_c 12.785231
_cell_angle_alpha 90.000000
_cell_angle_beta 90.000000
_cell_angle_gamma 90.000000
_cell_volume 3298.732685
_symmetry_space_group_name_H-M "C M M 2"
_symmetry_group_IT_number 35
_symmetry_cell_setting 'orthorhombic'
loop_
_space_group_symop_operation_xyz
x,y,z
-x,-y,z
-x,y,z
x,-y,z
1/2+x,1/2+y,z
1/2-x,1/2-y,z
1/2-x,1/2+y,z
1/2+x,1/2-y,z
loop_
_atom_site_type_symbol
_atom_site_label
_atom_site_fract_x
_atom_site_fract_y
_atom_site_fract_z
Si Si1 0.579691 0.177583 0.833740
Si Si2 0.201881 0.184810 0.134321
Si Si3 0.682432 0.822106 0.904557
Si Si4 0.047760 0.688914 0.047100
Si Si5 0.947682 0.188349 0.411268
Si Si6 0.386049 0.813140 0.224688
Si Si7 0.894544 0.814311 0.617671
Si Si8 0.703427 0.315022 0.680589
O O1 0.629359 0.173816 0.883684
O O2 0.582153 0.267978 0.726103
O O3 0.566147 0.000000 0.811813
O O4 0.550999 0.244917 0.928337
O O5 0.297911 0.500000 0.132825
O O6 0.250000 0.250000 0.165889
O O7 0.163323 0.245600 0.211716
O O8 0.192702 0.246263 0.015994
O O9 0.700618 0.734440 0.802593
O O10 0.698991 0.000000 0.905453
O O11 0.049915 0.500000 0.041839
O O12 0.087822 0.739212 0.119956
O O13 0.000000 0.731724 0.094328
O O14 0.916492 0.254230 0.319505
O O15 0.923797 0.238945 0.519453
O O16 0.000000 0.236131 0.404919
O O17 0.946990 0.000000 0.406832
O O18 0.383936 0.000000 0.226644
O O19 0.842813 0.757542 0.626544
O O20 0.892152 0.000000 0.611623
O O21 0.704248 0.500000 0.674349
O O22 0.750000 0.250000 0.637117
#
# Coordination Sequence:
#
# PCOD9348071 Si02
#       8
#     8   8   8   8   8   8   8   8
#     4   9  17  31  52  80 116 154 190 234 288 346
#     4  12  24  38  58  85 118 157 198 241 292 351
#     4  10  18  32  52  79 116 158 198 239 285 340
#     4   9  17  31  53  82 116 151 184 228 291 352
#     4  10  22  42  65  87 114 152 198 248 303 358
#     4  11  22  40  62  87 118 152 196 247 298 352
#     4   9  20  37  56  80 113 151 192 242 297 349
#     4  10  19  32  51  79 113 153 196 238 288 348
#
# _framework density 19.401389000000002
#
# number of rings (size 3 to 8) (size 9 to 14) (size 15 to 20)
#    0.000    2.000    1.250    3.000    0.000    2.750 
#    0.000    0.625    0.000    3.000    0.000    0.000 
#    0.000    0.000    0.000    0.000    0.000    0.000 
#
# Total GULP energy -178551.595928 kJ/mol
# GULP energy per Si atom -5579.737373 kJ/mol
# Density = 1.935723 g / cm^3
# Si number density = 19.401389 Si / 1000 Ang^3
#
#
#
# Elastic Constant Matrix: (Units=GPa)
#
#
# Indices 1 2 3 4 5 6 
#
# 1 146.0984 37.2086 74.0470 0.0000 0.0000 0.0000
# 2 37.2086 52.8340 26.1104 0.0000 0.0000 0.0000
# 3 74.0470 26.1104 111.4375 0.0000 0.0000 0.0000
# 4 0.0000 0.0000 0.0000 23.7351 0.0000 0.0000
# 5 0.0000 0.0000 0.0000 0.0000 18.4489 0.0000
# 6 0.0000 0.0000 0.0000 0.0000 0.0000 10.5971
#
#
#
# Elastic Compliance Matrix: (Units=1/GPa)
#
#
# Indices 1 2 3 4 5 6 
#
# 1 0.011305 -0.004806 -0.006386 0.000000 0.000000 0.000000
# 2 -0.004806 0.023449 -0.002301 0.000000 0.000000 0.000000
# 3 -0.006386 -0.002301 0.013756 0.000000 0.000000 0.000000
# 4 0.000000 0.000000 0.000000 0.042132 0.000000 0.000000
# 5 0.000000 0.000000 0.000000 0.000000 0.054204 0.000000
# 6 0.000000 0.000000 0.000000 0.000000 0.000000 0.094366
#
#
# Mechanical properties :
#
#
# Convention : Reuss Voigt Hill
#
# Bulk Modulus (GPa) = 46.45807 65.01135 55.73471
# Shear Modulus (GPa) = 18.29012 22.08980 20.18996
#
# Velocity S-wave (km/s) = 3.07371 3.37793 3.22940
# Velocity P-wave (km/s) = 6.04935 6.98536 6.53414
#
# Compressibility (1/GPa) = 0.02152479
#
# Stress axis : x y z
#
# Youngs Moduli (GPa) = 88.45424 42.64602 72.69531
#
# Poissons Ratio (x) = 0.20495 0.46423
# Poissons Ratio (y) = 0.42510 0.16726
# Poissons Ratio (z) = 0.56487 0.09812
#
# Static dielectric constant tensor:
#      x y z
#    x 1.731460 0.000000 0.000000 
#    y 0.000000 1.665470 0.000000 
#    z 0.000000 0.000000 1.660270 
# 
# From -- ./inp_files/14586.got.cif
#   From: 2010.05.17/outbox.cif.g08.bks.cpg/sg35_8_cif.got.tgz:14586.got - 2010.06.03 17:29:28.
