data_PCOD9348825
_publ_section_title
;
Structure prediction by ZEFSAII (Michael W. Deem and Ramdas Pophale) SiO2 
 PCOD9348825
Probable space group: C M M 2
;
_chemical_formula_sum "Si O2"
_cell_formula_units_Z 40
_cell_length_a 8.684043
_cell_length_b 27.330300
_cell_length_c 9.384671
_cell_angle_alpha 90.000000
_cell_angle_beta 90.000000
_cell_angle_gamma 90.000000
_cell_volume 2227.334357
_symmetry_space_group_name_H-M "C M M 2"
_symmetry_group_IT_number 35
_symmetry_cell_setting 'orthorhombic'
loop_
_space_group_symop_operation_xyz
x,y,z
-x,-y,z
-x,y,z
x,-y,z
1/2+x,1/2+y,z
1/2-x,1/2-y,z
1/2-x,1/2+y,z
1/2+x,1/2-y,z
loop_
_atom_site_type_symbol
_atom_site_label
_atom_site_fract_x
_atom_site_fract_y
_atom_site_fract_z
Si Si1 0.184241 0.799650 0.132480
Si Si2 0.312321 0.000000 0.630611
Si Si3 0.815205 0.500000 0.303484
Si Si4 0.316224 0.200731 0.810213
Si Si5 0.684461 0.592010 0.134254
Si Si6 0.813910 0.406889 0.813937
O O1 0.250000 0.750000 0.201182
O O2 0.226004 0.853391 0.191076
O O3 0.000000 0.795972 0.126621
O O4 0.250018 0.800458 0.971229
O O5 0.263164 0.951434 0.714789
O O6 0.500000 0.000000 0.630707
O O7 0.262300 0.000000 0.467361
O O8 0.755508 0.548305 0.224394
O O9 0.000000 0.500000 0.299736
O O10 0.500000 0.205043 0.816588
O O11 0.250000 0.250000 0.740579
O O12 0.275800 0.146965 0.751663
O O13 0.500000 0.588241 0.134351
O O14 0.743198 0.588341 0.971375
O O15 0.000000 0.408904 0.828666
#
# Coordination Sequence:
#
# PCOD9348825 Si02
#       6
#     8   4   4   8   8   8
#     4   9  16  26  43  68  98 127 154 190 235 281
#     4   9  19  35  52  70  92 121 162 207 244 282
#     4  11  22  35  52  70  92 129 170 205 244 290
#     4   9  15  23  40  67  97 125 152 187 232 280
#     4  10  20  33  50  75 104 129 158 200 245 288
#     4   9  17  31  52  75  97 124 161 201 239 284
#
# _framework density 17.958687999999999
#
# number of rings (size 3 to 8) (size 9 to 14) (size 15 to 20)
#    0.000    2.600    0.000    3.900    0.000    4.000 
#    0.000    2.000    0.000    1.200    0.000    5.600 
#    0.000    0.000    0.000    0.000    0.000    0.000 
#
# Total GULP energy -111410.787102 kJ/mol
# GULP energy per Si atom -5570.539355 kJ/mol
# Density = 1.791781 g / cm^3
# Si number density = 17.958688 Si / 1000 Ang^3
#
#
#
# Elastic Constant Matrix: (Units=GPa)
#
#
# Indices 1 2 3 4 5 6 
#
# 1 47.6445 57.6010 18.7144 0.0000 0.0000 0.0000
# 2 57.6010 239.0805 71.8388 0.0000 0.0000 0.0000
# 3 18.7144 71.8388 58.3286 0.0000 0.0000 0.0000
# 4 0.0000 0.0000 0.0000 -5.3787 0.0000 0.0000
# 5 0.0000 0.0000 0.0000 0.0000 2.4010 0.0000
# 6 0.0000 0.0000 0.0000 0.0000 0.0000 72.6334
#
#
#
# Elastic Compliance Matrix: (Units=1/GPa)
#
#
# Indices 1 2 3 4 5 6 
#
# 1 0.029662 -0.006805 -0.001135 0.000000 0.000000 0.000000
# 2 -0.006805 0.008201 -0.007917 0.000000 0.000000 0.000000
# 3 -0.001135 -0.007917 0.027260 0.000000 0.000000 0.000000
# 4 0.000000 0.000000 0.000000 -0.185918 0.000000 0.000000
# 5 0.000000 0.000000 0.000000 0.000000 0.416498 0.000000
# 6 0.000000 0.000000 0.000000 0.000000 0.000000 0.013768
#
#
# Mechanical properties :
#
#
# Convention : Reuss Voigt Hill
#
# Bulk Modulus (GPa) = 29.93384 71.26245 50.59814
# Shear Modulus (GPa) = 14.19154 27.05776 20.62465
#
# Velocity S-wave (km/s) = 2.81416 3.88579 3.39255
# Velocity P-wave (km/s) = 5.22146 7.73951 6.60165
#
# Compressibility (1/GPa) = 0.03340701
#
# Stress axis : x y z
#
# Youngs Moduli (GPa) = 33.71297 121.93195 36.68401
#
# Poissons Ratio (x) = 0.82978 0.04165
# Poissons Ratio (y) = 0.22943 0.29044
# Poissons Ratio (z) = 0.03828 0.96539
#
# Static dielectric constant tensor:
#      x y z
#    x 1.605730 0.000000 0.000000 
#    y 0.000000 1.690740 0.000000 
#    z 0.000000 0.000000 1.561500 
# 
# From -- ./inp_files/5042.got.cif
#   From: 2010.05.17/outbox.cif.g08.bks.cpg/sg35_3_cif.got.tgz:5042.got - 2010.06.03 17:29:28.
