data_PCOD9348671
_publ_section_title
;
Structure prediction by ZEFSAII (Michael W. Deem and Ramdas Pophale) SiO2 
 PCOD9348671
Probable space group: C M M 2
;
_chemical_formula_sum "Si O2"
_cell_formula_units_Z 56
_cell_length_a 17.413690
_cell_length_b 24.173802
_cell_length_c 6.868053
_cell_angle_alpha 90.000000
_cell_angle_beta 90.000000
_cell_angle_gamma 90.000000
_cell_volume 2891.141897
_symmetry_space_group_name_H-M "C M M 2"
_symmetry_group_IT_number 35
_symmetry_cell_setting 'orthorhombic'
loop_
_space_group_symop_operation_xyz
x,y,z
-x,-y,z
-x,y,z
x,-y,z
1/2+x,1/2+y,z
1/2-x,1/2-y,z
1/2-x,1/2+y,z
1/2+x,1/2-y,z
loop_
_atom_site_type_symbol
_atom_site_label
_atom_site_fract_x
_atom_site_fract_y
_atom_site_fract_z
Si Si1 0.188087 0.061626 0.935310
Si Si2 0.084443 0.937395 0.567487
Si Si3 0.321204 0.859535 0.392890
Si Si4 0.658925 0.239133 0.098050
Si Si5 0.646349 0.644433 0.270669
Si Si6 0.636917 0.936871 0.053773
Si Si7 0.412466 0.839334 0.786701
O O1 0.151364 0.069412 0.724860
O O2 0.165263 0.000000 0.002135
O O3 0.158429 0.107807 0.079434
O O4 0.279968 0.063790 0.947058
O O5 0.090604 0.889437 0.409707
O O6 0.000000 0.935015 0.662314
O O7 0.092556 0.000000 0.484634
O O8 0.347891 0.808249 0.260296
O O9 0.228777 0.855143 0.382391
O O10 0.347396 0.913973 0.272190
O O11 0.358351 0.853804 0.603893
O O12 0.750000 0.250000 0.060096
O O13 0.626095 0.294939 0.193047
O O14 0.619915 0.213559 0.906097
O O15 0.608337 0.000000 0.054305
O O16 0.589282 0.891547 0.934917
O O17 0.500000 0.829644 0.723294
#
# Coordination Sequence:
#
# PCOD9348671 Si02
#       7
#     8   8   8   8   8   8   8
#     4   9  18  34  56  81 110 145 186 233 281 328
#     4  10  21  34  50  79 117 151 184 230 288 340
#     4   9  20  37  57  83 113 146 183 229 279 326
#     4   9  21  39  59  82 109 145 190 233 271 321
#     4  10  19  35  59  82 105 144 195 236 271 323
#     4   9  19  37  60  84 110 145 191 233 268 323
#     4  11  23  38  58  85 118 150 178 222 285 337
#
# _framework density 19.369509000000001
#
# number of rings (size 3 to 8) (size 9 to 14) (size 15 to 20)
#    0.000    2.429    0.000    2.143    0.000    7.714 
#    0.000    2.857    0.000    0.000    0.000    0.000 
#    0.000    0.000    0.000    0.000    0.000    0.000 
#
# Total GULP energy -156122.082573 kJ/mol
# GULP energy per Si atom -5575.788663 kJ/mol
# Density = 1.932542 g / cm^3
# Si number density = 19.369509 Si / 1000 Ang^3
#
#
#
# Elastic Constant Matrix: (Units=GPa)
#
#
# Indices 1 2 3 4 5 6 
#
# 1 37.9168 38.4686 44.6429 0.0000 0.0000 0.0000
# 2 38.4686 120.9560 40.7895 0.0000 0.0000 0.0000
# 3 44.6429 40.7895 79.9501 0.0000 0.0000 0.0000
# 4 0.0000 0.0000 0.0000 31.1960 0.0000 0.0000
# 5 0.0000 0.0000 0.0000 0.0000 0.9448 0.0000
# 6 0.0000 0.0000 0.0000 0.0000 0.0000 17.1587
#
#
#
# Elastic Compliance Matrix: (Units=1/GPa)
#
#
# Indices 1 2 3 4 5 6 
#
# 1 0.094967 -0.014881 -0.045436 0.000000 0.000000 0.000000
# 2 -0.014881 0.012317 0.002025 0.000000 0.000000 0.000000
# 3 -0.045436 0.002025 0.036845 0.000000 0.000000 0.000000
# 4 0.000000 0.000000 0.000000 0.032055 0.000000 0.000000
# 5 0.000000 0.000000 0.000000 0.000000 1.058383 0.000000
# 6 0.000000 0.000000 0.000000 0.000000 0.000000 0.058279
#
#
# Mechanical properties :
#
#
# Convention : Reuss Voigt Hill
#
# Bulk Modulus (GPa) = 36.30289 54.06945 45.18617
# Shear Modulus (GPa) = 3.52457 17.52137 10.52297
#
# Velocity S-wave (km/s) = 1.35041 3.01090 2.33335
# Velocity P-wave (km/s) = 4.60591 6.32951 5.53521
#
# Compressibility (1/GPa) = 0.02754602
#
# Stress axis : x y z
#
# Youngs Moduli (GPa) = 10.52997 81.18720 27.14037
#
# Poissons Ratio (x) = 1.20814 1.23315
# Poissons Ratio (y) = 0.15669 -0.05496
# Poissons Ratio (z) = 0.47844 -0.16442
#
# Static dielectric constant tensor:
#      x y z
#    x 1.682520 0.000000 0.000000 
#    y 0.000000 1.673540 0.000000 
#    z 0.000000 0.000000 1.648570 
# 
# From -- ./inp_files/3083.got.cif
#   From: 2010.05.17/outbox.cif.g08.bks.cpg/sg35_2_cif.got.tgz:3083.got - 2010.06.03 17:29:28.
