data_PCOD9348295
_publ_section_title
;
Structure prediction by ZEFSAII (Michael W. Deem and Ramdas Pophale) SiO2 
 PCOD9348295
Probable space group: C M M 2
;
_chemical_formula_sum "Si O2"
_cell_formula_units_Z 40
_cell_length_a 7.918276
_cell_length_b 16.250109
_cell_length_c 15.236672
_cell_angle_alpha 90.000000
_cell_angle_beta 90.000000
_cell_angle_gamma 90.000000
_cell_volume 1960.545982
_symmetry_space_group_name_H-M "C M M 2"
_symmetry_group_IT_number 35
_symmetry_cell_setting 'orthorhombic'
loop_
_space_group_symop_operation_xyz
x,y,z
-x,-y,z
-x,y,z
x,-y,z
1/2+x,1/2+y,z
1/2-x,1/2-y,z
1/2-x,1/2+y,z
1/2+x,1/2-y,z
loop_
_atom_site_type_symbol
_atom_site_label
_atom_site_fract_x
_atom_site_fract_y
_atom_site_fract_z
Si Si1 0.683082 0.597990 0.027600
Si Si2 0.797391 0.653051 0.648093
Si Si3 0.500000 0.101611 0.140159
Si Si4 0.000000 0.403313 0.338789
Si Si5 0.195694 0.845616 0.459819
Si Si6 0.202418 0.653607 0.839923
O O1 0.500000 0.633435 0.050520
O O2 0.677970 0.500000 0.041489
O O3 0.835407 0.629895 0.086853
O O4 0.718590 0.612654 0.925081
O O5 0.750000 0.750000 0.651503
O O6 0.718382 0.619103 0.558590
O O7 0.745070 0.620025 0.743826
O O8 0.000000 0.646206 0.640303
O O9 0.500000 0.131803 0.240246
O O10 0.500000 0.000000 0.139101
O O11 0.167891 0.381498 0.393103
O O12 0.000000 0.500000 0.327907
O O13 0.250000 0.750000 0.466287
O O14 0.000000 0.852934 0.433375
O O15 0.250000 0.750000 0.843066
O O16 0.000000 0.645743 0.845290
#
# Coordination Sequence:
#
# PCOD9348295 Si02
#       6
#     8   8   4   4   8   8
#     4  10  20  36  59  82 107 147 194 231 277 346
#     4   9  16  29  51  83 113 152 192 231 274 342
#     4   9  20  40  61  79 109 150 191 236 294 355
#     4  11  24  42  63  91 122 150 197 262 309 351
#     4  11  20  37  65  89 119 159 203 241 294 360
#     4  10  19  31  53  82 118 149 186 231 282 331
#
# _framework density 20.402481000000002
#
# number of rings (size 3 to 8) (size 9 to 14) (size 15 to 20)
#    0.000    2.000    3.000    2.400    0.000    3.600 
#    0.000    4.000    0.000    0.000    0.000    0.000 
#    0.000    0.000    0.000    0.000    0.000    0.000 
#
# Total GULP energy -111580.198367 kJ/mol
# GULP energy per Si atom -5579.009918 kJ/mol
# Density = 2.035604 g / cm^3
# Si number density = 20.402481 Si / 1000 Ang^3
#
#
#
# Elastic Constant Matrix: (Units=GPa)
#
#
# Indices 1 2 3 4 5 6 
#
# 1 183.5098 8.2733 96.1355 0.0000 0.0000 0.0000
# 2 8.2733 4.0766 7.0382 0.0000 0.0000 0.0000
# 3 96.1355 7.0382 173.8221 0.0000 0.0000 0.0000
# 4 0.0000 0.0000 0.0000 25.4437 0.0000 0.0000
# 5 0.0000 0.0000 0.0000 0.0000 -69.3485 0.0000
# 6 0.0000 0.0000 0.0000 0.0000 0.0000 12.4191
#
#
#
# Elastic Compliance Matrix: (Units=1/GPa)
#
#
# Indices 1 2 3 4 5 6 
#
# 1 0.007982 -0.009222 -0.004041 0.000000 0.000000 0.000000
# 2 -0.009222 0.274391 -0.006010 0.000000 0.000000 0.000000
# 3 -0.004041 -0.006010 0.008231 0.000000 0.000000 0.000000
# 4 0.000000 0.000000 0.000000 0.039302 0.000000 0.000000
# 5 0.000000 0.000000 0.000000 0.000000 -0.014420 0.000000
# 6 0.000000 0.000000 0.000000 0.000000 0.000000 0.080521
#
#
# Mechanical properties :
#
#
# Convention : Reuss Voigt Hill
#
# Bulk Modulus (GPa) = 3.96733 64.92251 34.44492
# Shear Modulus (GPa) = 9.64181 10.36695 10.00438
#
# Velocity S-wave (km/s) = 2.17625 2.25660 2.21679
# Velocity P-wave (km/s) = 2.87463 6.21930 4.84475
#
# Compressibility (1/GPa) = 0.25205841
#
# Stress axis : x y z
#
# Youngs Moduli (GPa) = 125.27904 3.64443 121.48519
#
# Poissons Ratio (x) = 0.03361 0.49096
# Poissons Ratio (y) = 1.15535 0.73011
# Poissons Ratio (z) = 0.50629 0.02190
#
# Static dielectric constant tensor:
#      x y z
#    x 1.755530 0.000000 0.000000 
#    y 0.000000 1.741020 0.000000 
#    z 0.000000 0.000000 1.752950 
# 
# From -- ./inp_files/14822.got.cif
#   From: 2010.05.17/outbox.cif.g08.bks.cpg/sg35_8_cif.got.tgz:14822.got - 2010.06.03 17:29:28.
