data_PCOD9348824
_publ_section_title
;
Structure prediction by ZEFSAII (Michael W. Deem and Ramdas Pophale) SiO2 
 PCOD9348824
Probable space group: C M M 2
;
_chemical_formula_sum "Si O2"
_cell_formula_units_Z 56
_cell_length_a 8.886239
_cell_length_b 18.907832
_cell_length_c 18.539667
_cell_angle_alpha 90.000000
_cell_angle_beta 90.000000
_cell_angle_gamma 90.000000
_cell_volume 3115.025841
_symmetry_space_group_name_H-M "C M M 2"
_symmetry_group_IT_number 35
_symmetry_cell_setting 'orthorhombic'
loop_
_space_group_symop_operation_xyz
x,y,z
-x,-y,z
-x,y,z
x,-y,z
1/2+x,1/2+y,z
1/2-x,1/2-y,z
1/2-x,1/2+y,z
1/2+x,1/2-y,z
loop_
_atom_site_type_symbol
_atom_site_label
_atom_site_fract_x
_atom_site_fract_y
_atom_site_fract_z
Si Si1 0.678944 0.415915 0.761680
Si Si2 0.172966 0.585937 0.611290
Si Si3 0.816903 0.080932 0.184667
Si Si4 0.819254 0.082926 0.461495
Si Si5 0.319754 0.415961 0.020760
Si Si6 0.320770 0.172112 0.891582
Si Si7 0.182136 0.172474 0.320924
O O1 0.500000 0.406641 0.768251
O O2 0.711358 0.500000 0.770209
O O3 0.734068 0.393594 0.682138
O O4 0.762313 0.371735 0.822744
O O5 0.176179 0.500000 0.609682
O O6 0.243649 0.608875 0.535407
O O7 0.000000 0.608451 0.617812
O O8 0.773901 0.101239 0.103161
O O9 0.767238 0.132257 0.248288
O O10 0.000000 0.080182 0.185325
O O11 0.768431 0.000000 0.198123
O O12 0.774928 0.127446 0.391528
O O13 0.000000 0.086891 0.469593
O O14 0.781146 0.000000 0.450742
O O15 0.500000 0.404740 0.013752
O O16 0.293557 0.500000 0.009784
O O17 0.234633 0.369789 0.962292
O O18 0.500000 0.176848 0.890431
O O19 0.250000 0.250000 0.890916
O O20 0.250000 0.250000 0.324266
O O21 0.000000 0.176040 0.319610
#
# Coordination Sequence:
#
# PCOD9348824 Si02
#       7
#     8   8   8   8   8   8   8
#     4  10  20  36  59  84 110 140 176 218 264 316
#     4   9  17  30  51  80 109 135 169 216 267 314
#     4   8  15  31  56  81 103 133 175 218 258 305
#     4   9  17  31  52  75  99 132 176 221 262 308
#     4   9  18  35  59  84 109 138 175 219 267 319
#     4  12  25  39  55  77 109 145 181 220 264 316
#     4  10  20  33  50  74 105 139 175 215 260 311
#
# _framework density 17.977378999999999
#
# number of rings (size 3 to 8) (size 9 to 14) (size 15 to 20)
#    0.000    2.429    0.000    3.857    0.000    7.429 
#    0.000    2.857    0.000    3.857    0.000    0.000 
#    0.000    0.000    0.000    0.000    0.000    0.000 
#
# Total GULP energy -156253.345304 kJ/mol
# GULP energy per Si atom -5580.476618 kJ/mol
# Density = 1.793646 g / cm^3
# Si number density = 17.977379 Si / 1000 Ang^3
#
#
#
# Elastic Constant Matrix: (Units=GPa)
#
#
# Indices 1 2 3 4 5 6 
#
# 1 71.6842 57.8073 74.1789 0.0000 0.0000 0.0000
# 2 57.8073 91.1760 100.8717 0.0000 0.0000 0.0000
# 3 74.1789 100.8717 188.3663 0.0000 0.0000 0.0000
# 4 0.0000 0.0000 0.0000 -8.1327 0.0000 0.0000
# 5 0.0000 0.0000 0.0000 0.0000 17.2236 0.0000
# 6 0.0000 0.0000 0.0000 0.0000 0.0000 26.5647
#
#
#
# Elastic Compliance Matrix: (Units=1/GPa)
#
#
# Indices 1 2 3 4 5 6 
#
# 1 0.029699 -0.014453 -0.003955 0.000000 0.000000 0.000000
# 2 -0.014453 0.033946 -0.012486 0.000000 0.000000 0.000000
# 3 -0.003955 -0.012486 0.013553 0.000000 0.000000 0.000000
# 4 0.000000 0.000000 0.000000 -0.122961 0.000000 0.000000
# 5 0.000000 0.000000 0.000000 0.000000 0.058060 0.000000
# 6 0.000000 0.000000 0.000000 0.000000 0.000000 0.037644
#
#
# Mechanical properties :
#
#
# Convention : Reuss Voigt Hill
#
# Bulk Modulus (GPa) = 64.90622 90.77137 77.83880
# Shear Modulus (GPa) = 42.78383 15.02237 28.90310
#
# Velocity S-wave (km/s) = 4.88368 2.89386 4.01402
# Velocity P-wave (km/s) = 8.24520 7.85923 8.05452
#
# Compressibility (1/GPa) = 0.01540684
#
# Stress axis : x y z
#
# Youngs Moduli (GPa) = 33.67160 29.45873 73.78397
#
# Poissons Ratio (x) = 0.42578 0.29185
# Poissons Ratio (y) = 0.48667 0.92130
# Poissons Ratio (z) = 0.13319 0.36784
#
# Static dielectric constant tensor:
#      x y z
#    x 1.604910 0.000000 0.000000 
#    y 0.000000 1.588720 0.000000 
#    z 0.000000 0.000000 1.608400 
# 
# From -- ./inp_files/18258.got.cif
#   From: 2010.05.17/outbox.cif.g08.bks.cpg/sg35_10_cif.got.tgz:18258.got - 2010.06.03 17:29:28.
