data_PCOD9348652
_publ_section_title
;
Structure prediction by ZEFSAII (Michael W. Deem and Ramdas Pophale) SiO2 
 PCOD9348652
Probable space group: C M M 2
;
_chemical_formula_sum "Si O2"
_cell_formula_units_Z 48
_cell_length_a 36.285965
_cell_length_b 7.791656
_cell_length_c 8.041626
_cell_angle_alpha 90.000000
_cell_angle_beta 90.000000
_cell_angle_gamma 90.000000
_cell_volume 2273.590881
_symmetry_space_group_name_H-M "C M M 2"
_symmetry_group_IT_number 35
_symmetry_cell_setting 'orthorhombic'
loop_
_space_group_symop_operation_xyz
x,y,z
-x,-y,z
-x,y,z
x,-y,z
1/2+x,1/2+y,z
1/2-x,1/2-y,z
1/2-x,1/2+y,z
1/2+x,1/2-y,z
loop_
_atom_site_type_symbol
_atom_site_label
_atom_site_fract_x
_atom_site_fract_y
_atom_site_fract_z
Si Si1 0.000000 0.790210 0.336300
Si Si2 0.579346 0.189217 0.814336
Si Si3 0.422433 0.703634 0.178910
Si Si4 0.343502 0.792543 0.226550
Si Si5 0.341471 0.789034 0.839436
Si Si6 0.292818 0.793750 0.530775
Si Si7 0.500000 0.299590 0.701306
O O1 0.038714 0.741847 0.255173
O O2 0.000000 0.717289 0.520809
O O3 0.000000 0.000000 0.333810
O O4 0.618534 0.272539 0.769370
O O5 0.538858 0.262255 0.785726
O O6 0.578900 0.000000 0.739556
O O7 0.582939 0.189058 0.012578
O O8 0.424759 0.500000 0.139594
O O9 0.384760 0.734382 0.278119
O O10 0.314718 0.731894 0.366271
O O11 0.342779 0.000000 0.224227
O O12 0.336291 0.735294 0.033511
O O13 0.311099 0.734598 0.705070
O O14 0.342809 0.000000 0.842153
O O15 0.250000 0.750000 0.522454
O O16 0.296410 0.000000 0.530859
O O17 0.500000 0.500000 0.674918
#
# Coordination Sequence:
#
# PCOD9348652 Si02
#       7
#     4   8   8   8   8   8   4
#     4   9  21  35  48  74 112 147 178 223 276 322
#     4  10  20  36  56  79 106 142 188 231 273 327
#     4  10  19  35  57  79 107 146 186 227 277 327
#     4   9  19  36  57  80 110 146 183 227 278 328
#     4   8  17  35  56  78 107 141 179 223 273 327
#     4  10  21  37  57  81 110 143 177 223 281 334
#     4  11  22  35  50  76 112 147 182 227 278 322
#
# _framework density 21.111978000000001
#
# number of rings (size 3 to 8) (size 9 to 14) (size 15 to 20)
#    0.000    2.500    0.000    2.750    2.333    2.000 
#    0.000    7.917    0.000    0.000    0.000    0.000 
#    0.000    0.000    0.000    0.000    0.000    0.000 
#
# Total GULP energy -133701.370134 kJ/mol
# GULP energy per Si atom -5570.890422 kJ/mol
# Density = 2.106393 g / cm^3
# Si number density = 21.111978 Si / 1000 Ang^3
#
#
#
# Elastic Constant Matrix: (Units=GPa)
#
#
# Indices 1 2 3 4 5 6 
#
# 1 211.6261 1.4325 86.4936 0.0000 0.0000 0.0000
# 2 1.4325 30.8500 2.9686 0.0000 0.0000 0.0000
# 3 86.4936 2.9686 90.8377 0.0000 0.0000 0.0000
# 4 0.0000 0.0000 0.0000 6.5878 0.0000 0.0000
# 5 0.0000 0.0000 0.0000 0.0000 30.5784 0.0000
# 6 0.0000 0.0000 0.0000 0.0000 0.0000 11.2197
#
#
#
# Elastic Compliance Matrix: (Units=1/GPa)
#
#
# Indices 1 2 3 4 5 6 
#
# 1 0.007740 0.000351 -0.007381 0.000000 0.000000 0.000000
# 2 0.000351 0.032533 -0.001397 0.000000 0.000000 0.000000
# 3 -0.007381 -0.001397 0.018082 0.000000 0.000000 0.000000
# 4 0.000000 0.000000 0.000000 0.151795 0.000000 0.000000
# 5 0.000000 0.000000 0.000000 0.000000 0.032703 0.000000
# 6 0.000000 0.000000 0.000000 0.000000 0.000000 0.089129
#
#
# Mechanical properties :
#
#
# Convention : Reuss Voigt Hill
#
# Bulk Modulus (GPa) = 24.09626 57.23369 40.66497
# Shear Modulus (GPa) = 13.78665 25.83848 19.81257
#
# Velocity S-wave (km/s) = 2.55821 3.50219 3.06674
# Velocity P-wave (km/s) = 4.49046 6.59714 5.64298
#
# Compressibility (1/GPa) = 0.04150022
#
# Stress axis : x y z
#
# Youngs Moduli (GPa) = 129.20566 30.73797 55.30282
#
# Poissons Ratio (x) = -0.01078 0.40819
# Poissons Ratio (y) = -0.04533 0.07727
# Poissons Ratio (z) = 0.95366 0.04295
#
# Static dielectric constant tensor:
#      x y z
#    x 1.960730 0.000000 0.000000 
#    y 0.000000 1.790450 0.000000 
#    z 0.000000 0.000000 1.769910 
# 
# From -- ./inp_files/10485.got.cif
#   From: 2010.05.17/outbox.cif.g08.bks.cpg/sg35_6_cif.got.tgz:10485.got - 2010.06.03 17:29:28.
