data_PCOD9348562
_publ_section_title
;
Structure prediction by ZEFSAII (Michael W. Deem and Ramdas Pophale) SiO2 
 PCOD9348562
Probable space group: C M M 2
;
_chemical_formula_sum "Si O2"
_cell_formula_units_Z 48
_cell_length_a 8.496924
_cell_length_b 15.928850
_cell_length_c 17.909162
_cell_angle_alpha 90.000000
_cell_angle_beta 90.000000
_cell_angle_gamma 90.000000
_cell_volume 2423.937521
_symmetry_space_group_name_H-M "C M M 2"
_symmetry_group_IT_number 35
_symmetry_cell_setting 'orthorhombic'
loop_
_space_group_symop_operation_xyz
x,y,z
-x,-y,z
-x,y,z
x,-y,z
1/2+x,1/2+y,z
1/2-x,1/2-y,z
1/2-x,1/2+y,z
1/2+x,1/2-y,z
loop_
_atom_site_type_symbol
_atom_site_label
_atom_site_fract_x
_atom_site_fract_y
_atom_site_fract_z
Si Si1 0.312428 0.345648 0.922150
Si Si2 0.192193 0.000000 0.196289
Si Si3 0.310021 0.660926 0.291602
Si Si4 0.815127 0.656231 0.764548
Si Si5 0.807957 0.902046 0.450937
Si Si6 0.807472 0.000000 0.024412
Si Si7 0.678131 0.400093 0.611550
O O1 0.500000 0.340501 0.926378
O O2 0.250000 0.250000 0.931738
O O3 0.265764 0.377907 0.839438
O O4 0.256625 0.415149 0.981598
O O5 0.242283 0.083022 0.240877
O O6 0.242882 0.000000 0.110443
O O7 0.000000 0.000000 0.196838
O O8 0.500000 0.660766 0.292190
O O9 0.250000 0.750000 0.263740
O O10 0.255877 0.646224 0.377125
O O11 0.750000 0.750000 0.757247
O O12 0.775141 0.614115 0.686106
O O13 0.000000 0.656876 0.777472
O O14 0.755431 0.868522 0.532080
O O15 0.000000 0.900386 0.453535
O O16 0.762702 0.000000 0.441796
O O17 0.000000 0.000000 0.022993
O O18 0.500000 0.366795 0.623258
O O19 0.666072 0.500000 0.600517
#
# Coordination Sequence:
#
# PCOD9348562 Si02
#       7
#     8   4   8   8   8   4   8
#     4  10  20  37  58  82 111 144 183 228 276 329
#     4   9  18  36  59  82 111 146 182 221 265 333
#     4  10  19  33  57  84 111 145 186 225 270 322
#     4  11  22  36  53  75 106 142 182 226 275 324
#     4   8  14  29  52  76 103 143 189 226 261 316
#     4   9  20  36  59  86 109 142 184 221 271 333
#     4   9  18  32  52  77 107 143 184 225 268 318
#
# _framework density 19.802489999999999
#
# number of rings (size 3 to 8) (size 9 to 14) (size 15 to 20)
#    0.000    2.500    0.833    4.000    1.167    1.667 
#    0.000    4.167    0.000    4.000    0.000    0.000 
#    0.000    0.000    0.000    0.000    0.000    0.000 
#
# Total GULP energy -133842.358271 kJ/mol
# GULP energy per Si atom -5576.764928 kJ/mol
# Density = 1.975742 g / cm^3
# Si number density = 19.802490 Si / 1000 Ang^3
#
#
#
# Elastic Constant Matrix: (Units=GPa)
#
#
# Indices 1 2 3 4 5 6 
#
# 1 29.5354 14.6096 17.1671 0.0000 0.0000 0.0000
# 2 14.6096 104.7772 78.1884 0.0000 0.0000 0.0000
# 3 17.1671 78.1884 169.0998 0.0000 0.0000 0.0000
# 4 0.0000 0.0000 0.0000 -8.1448 0.0000 0.0000
# 5 0.0000 0.0000 0.0000 0.0000 -2.3311 0.0000
# 6 0.0000 0.0000 0.0000 0.0000 0.0000 20.2590
#
#
#
# Elastic Compliance Matrix: (Units=1/GPa)
#
#
# Indices 1 2 3 4 5 6 
#
# 1 0.036841 -0.003582 -0.002084 0.000000 0.000000 0.000000
# 2 -0.003582 0.014920 -0.006535 0.000000 0.000000 0.000000
# 3 -0.002084 -0.006535 0.009147 0.000000 0.000000 0.000000
# 4 0.000000 0.000000 0.000000 -0.122777 0.000000 0.000000
# 5 0.000000 0.000000 0.000000 0.000000 -0.428978 0.000000
# 6 0.000000 0.000000 0.000000 0.000000 0.000000 0.049361
#
#
# Mechanical properties :
#
#
# Convention : Reuss Voigt Hill
#
# Bulk Modulus (GPa) = 27.39269 58.14917 42.77093
# Shear Modulus (GPa) = -12.34825 14.85310 1.25243
#
# Velocity S-wave (km/s) = -2.49985 2.74170 0.79614
# Velocity P-wave (km/s) = 2.35174 6.28099 4.74244
#
# Compressibility (1/GPa) = 0.03650609
#
# Stress axis : x y z
#
# Youngs Moduli (GPa) = 27.14392 67.02284 109.32564
#
# Poissons Ratio (x) = 0.24006 0.22783
# Poissons Ratio (y) = 0.09722 0.71447
# Poissons Ratio (z) = 0.05657 0.43801
#
# Static dielectric constant tensor:
#      x y z
#    x 1.689220 0.000000 0.000000 
#    y 0.000000 1.695570 0.000000 
#    z 0.000000 0.000000 1.728710 
# 
# From -- ./inp_files/17858.got.cif
#   From: 2010.05.17/outbox.cif.g08.bks.cpg/sg35_9_cif.got.tgz:17858.got - 2010.06.03 17:29:28.
