data_PCOD9348811
_publ_section_title
;
Structure prediction by ZEFSAII (Michael W. Deem and Ramdas Pophale) SiO2 
 PCOD9348811
Probable space group: C M M 2
;
_chemical_formula_sum "Si O2"
_cell_formula_units_Z 56
_cell_length_a 19.128844
_cell_length_b 8.020333
_cell_length_c 18.938036
_cell_angle_alpha 90.000000
_cell_angle_beta 90.000000
_cell_angle_gamma 90.000000
_cell_volume 2905.467779
_symmetry_space_group_name_H-M "C M M 2"
_symmetry_group_IT_number 35
_symmetry_cell_setting 'orthorhombic'
loop_
_space_group_symop_operation_xyz
x,y,z
-x,-y,z
-x,y,z
x,-y,z
1/2+x,1/2+y,z
1/2-x,1/2-y,z
1/2-x,1/2+y,z
1/2+x,1/2-y,z
loop_
_atom_site_type_symbol
_atom_site_label
_atom_site_fract_x
_atom_site_fract_y
_atom_site_fract_z
Si Si1 0.920574 0.200679 0.671020
Si Si2 0.830611 0.298703 0.961603
Si Si3 0.580674 0.204329 0.095739
Si Si4 0.169335 0.698665 0.230558
Si Si5 0.919895 0.201388 0.365149
Si Si6 0.669871 0.801163 0.804278
Si Si7 0.585192 0.693121 0.519063
O O1 0.875618 0.240194 0.739165
O O2 0.893100 0.266160 0.594908
O O3 0.000000 0.261712 0.680857
O O4 0.923416 0.000000 0.663995
O O5 0.833524 0.500000 0.961035
O O6 0.750000 0.250000 0.974782
O O7 0.850629 0.238677 0.882807
O O8 0.880959 0.240199 0.024052
O O9 0.500000 0.256950 0.099480
O O10 0.625191 0.262131 0.163281
O O11 0.580961 0.000000 0.095835
O O12 0.166872 0.500000 0.227767
O O13 0.250000 0.750000 0.227539
O O14 0.131471 0.753058 0.302347
O O15 0.896552 0.266737 0.442591
O O16 0.000000 0.258280 0.351195
O O17 0.922486 0.000000 0.370170
O O18 0.750000 0.750000 0.793663
O O19 0.665395 0.000000 0.805671
O O20 0.500000 0.692021 0.520586
O O21 0.608721 0.500000 0.517956
#
# Coordination Sequence:
#
# PCOD9348811 Si02
#       7
#     8   8   8   8   8   8   8
#     4   9  17  31  52  76 102 132 166 205 250 299
#     4   9  18  33  53  73  96 129 165 202 244 293
#     4   9  18  33  53  76 100 127 161 201 246 296
#     4  11  22  35  52  74 102 135 170 206 246 294
#     4   9  17  32  55  79 102 129 164 206 250 298
#     4  10  20  33  50  73 101 134 171 208 248 295
#     4   7  12  26  49  74  98 128 164 200 244 298
#
# _framework density 19.274004000000001
#
# number of rings (size 3 to 8) (size 9 to 14) (size 15 to 20)
#    0.000    2.857    0.000    3.429    0.000    2.286 
#    0.000    3.571    0.000    4.714    0.000    0.000 
#    0.000    0.000    0.000    0.000    0.000    0.000 
#
# Total GULP energy -156065.444738 kJ/mol
# GULP energy per Si atom -5573.765884 kJ/mol
# Density = 1.923014 g / cm^3
# Si number density = 19.274004 Si / 1000 Ang^3
#
#
#
# Elastic Constant Matrix: (Units=GPa)
#
#
# Indices 1 2 3 4 5 6 
#
# 1 114.7415 7.5073 123.7651 0.0000 0.0000 0.0000
# 2 7.5073 16.4248 15.3047 0.0000 0.0000 0.0000
# 3 123.7651 15.3047 236.5548 0.0000 0.0000 0.0000
# 4 0.0000 0.0000 0.0000 17.7008 0.0000 0.0000
# 5 0.0000 0.0000 0.0000 0.0000 86.1392 0.0000
# 6 0.0000 0.0000 0.0000 0.0000 0.0000 4.0022
#
#
#
# Elastic Compliance Matrix: (Units=1/GPa)
#
#
# Indices 1 2 3 4 5 6 
#
# 1 0.020011 0.000648 -0.010512 0.000000 0.000000 0.000000
# 2 0.000648 0.064810 -0.004532 0.000000 0.000000 0.000000
# 3 -0.010512 -0.004532 0.010020 0.000000 0.000000 0.000000
# 4 0.000000 0.000000 0.000000 0.056495 0.000000 0.000000
# 5 0.000000 0.000000 0.000000 0.000000 0.011609 0.000000
# 6 0.000000 0.000000 0.000000 0.000000 0.000000 0.249863
#
#
# Mechanical properties :
#
#
# Convention : Reuss Voigt Hill
#
# Bulk Modulus (GPa) = 15.13996 73.43060 44.28528
# Shear Modulus (GPa) = 10.78476 36.31138 23.54807
#
# Velocity S-wave (km/s) = 2.36805 4.34517 3.49915
# Velocity P-wave (km/s) = 3.91778 7.95958 6.27311
#
# Compressibility (1/GPa) = 0.06605037
#
# Stress axis : x y z
#
# Youngs Moduli (GPa) = 49.97163 15.42963 99.79669
#
# Poissons Ratio (x) = -0.01000 1.04905
# Poissons Ratio (y) = -0.03240 0.45231
# Poissons Ratio (z) = 0.52529 0.06993
#
# Static dielectric constant tensor:
#      x y z
#    x 1.614100 0.000000 0.000000 
#    y 0.000000 1.694090 0.000000 
#    z 0.000000 0.000000 1.716610 
# 
# From -- ./inp_files/17412.got.cif
#   From: 2010.05.17/outbox.cif.g08.bks.cpg/sg35_9_cif.got.tgz:17412.got - 2010.06.03 17:29:28.
