data_PCOD9348881
_publ_section_title
;
Structure prediction by ZEFSAII (Michael W. Deem and Ramdas Pophale) SiO2 
 PCOD9348881
Probable space group: C M M 2
;
_chemical_formula_sum "Si O2"
_cell_formula_units_Z 56
_cell_length_a 8.659348
_cell_length_b 23.882720
_cell_length_c 15.877494
_cell_angle_alpha 90.000000
_cell_angle_beta 90.000000
_cell_angle_gamma 90.000000
_cell_volume 3283.605222
_symmetry_space_group_name_H-M "C M M 2"
_symmetry_group_IT_number 35
_symmetry_cell_setting 'orthorhombic'
loop_
_space_group_symop_operation_xyz
x,y,z
-x,-y,z
-x,y,z
x,-y,z
1/2+x,1/2+y,z
1/2-x,1/2-y,z
1/2-x,1/2+y,z
1/2+x,1/2-y,z
loop_
_atom_site_type_symbol
_atom_site_label
_atom_site_fract_x
_atom_site_fract_y
_atom_site_fract_z
Si Si1 0.315565 0.686492 0.281530
Si Si2 0.685253 0.186853 0.106482
Si Si3 0.311820 0.500000 0.693099
Si Si4 0.684444 0.882338 0.438303
Si Si5 0.814361 0.119222 0.763639
Si Si6 0.184460 0.686878 0.919534
Si Si7 0.814670 0.812408 0.594607
Si Si8 0.813872 0.000000 0.495487
O O1 0.500000 0.689463 0.283762
O O2 0.250000 0.750000 0.290370
O O3 0.259683 0.662698 0.191076
O O4 0.252278 0.648463 0.356555
O O5 0.500000 0.187495 0.115656
O O6 0.750000 0.250000 0.104090
O O7 0.724995 0.164492 0.013460
O O8 0.500000 0.500000 0.692550
O O9 0.261548 0.556553 0.739947
O O10 0.265966 0.500000 0.594589
O O11 0.500000 0.883342 0.433685
O O12 0.739308 0.847183 0.519342
O O13 0.750213 0.944501 0.451374
O O14 0.744114 0.146507 0.846691
O O15 0.778384 0.158045 0.683219
O O16 0.000000 0.118120 0.772700
O O17 0.250000 0.750000 0.909189
O O18 0.000000 0.691206 0.915431
O O19 0.750000 0.750000 0.593998
O O20 0.000000 0.812436 0.583910
O O21 0.000000 0.000000 0.493422
#
# Coordination Sequence:
#
# PCOD9348881 Si02
#       8
#     8   8   4   8   8   8   8   4
#     4  11  21  35  56  83 113 146 181 224 275 329
#     4   9  17  31  51  77 109 143 178 220 269 326
#     4   9  18  37  59  78 101 138 183 227 270 316
#     4  12  24  38  56  81 110 143 183 226 272 324
#     4  10  20  35  56  78 105 141 181 225 271 319
#     4  10  20  33  52  80 113 145 179 221 271 326
#     4  11  22  36  53  77 109 145 179 223 275 326
#     4  11  21  41  63  80 105 140 187 231 274 322
#
# _framework density 17.054425999999999
#
# number of rings (size 3 to 8) (size 9 to 14) (size 15 to 20)
#    0.000    1.571    1.429    5.786    0.000    4.000 
#    0.000    0.357    0.000    0.857    0.000    2.000 
#    0.000    0.000    0.000    0.000    0.000    0.000 
#
# Total GULP energy -156334.326629 kJ/mol
# GULP energy per Si atom -5583.368808 kJ/mol
# Density = 1.701561 g / cm^3
# Si number density = 17.054426 Si / 1000 Ang^3
#
#
#
# Elastic Constant Matrix: (Units=GPa)
#
#
# Indices 1 2 3 4 5 6 
#
# 1 97.6243 50.8971 74.6190 0.0000 0.0000 0.0000
# 2 50.8971 131.6494 83.4322 0.0000 0.0000 0.0000
# 3 74.6190 83.4322 184.2616 0.0000 0.0000 0.0000
# 4 0.0000 0.0000 0.0000 -5.2223 0.0000 0.0000
# 5 0.0000 0.0000 0.0000 0.0000 27.2025 0.0000
# 6 0.0000 0.0000 0.0000 0.0000 0.0000 18.7272
#
#
#
# Elastic Compliance Matrix: (Units=1/GPa)
#
#
# Indices 1 2 3 4 5 6 
#
# 1 0.015555 -0.002835 -0.005015 0.000000 0.000000 0.000000
# 2 -0.002835 0.011170 -0.003909 0.000000 0.000000 0.000000
# 3 -0.005015 -0.003909 0.009228 0.000000 0.000000 0.000000
# 4 0.000000 0.000000 0.000000 -0.191486 0.000000 0.000000
# 5 0.000000 0.000000 0.000000 0.000000 0.036761 0.000000
# 6 0.000000 0.000000 0.000000 0.000000 0.000000 0.053398
#
#
# Mechanical properties :
#
#
# Convention : Reuss Voigt Hill
#
# Bulk Modulus (GPa) = 80.43199 92.38131 86.40665
# Shear Modulus (GPa) = -132.59351 21.78062 -55.40645
#
# Velocity S-wave (km/s) = -8.82701 3.57756 -5.70601
# Velocity P-wave (km/s) = 7.52488 8.44698 2.71364
#
# Compressibility (1/GPa) = 0.01243286
#
# Stress axis : x y z
#
# Youngs Moduli (GPa) = 64.28775 89.52878 108.36298
#
# Poissons Ratio (x) = 0.25384 0.54349
# Poissons Ratio (y) = 0.18227 0.42363
# Poissons Ratio (z) = 0.32243 0.35000
#
# Static dielectric constant tensor:
#      x y z
#    x 1.574640 0.000000 0.000000 
#    y 0.000000 1.530320 0.000000 
#    z 0.000000 0.000000 1.590820 
# 
# From -- ./inp_files/15700.got.cif
#   From: 2010.05.17/outbox.cif.g08.bks.cpg/sg35_8_cif.got.tgz:15700.got - 2010.06.03 17:29:28.
