data_PCOD9348444
_publ_section_title
;
Structure prediction by ZEFSAII (Michael W. Deem and Ramdas Pophale) SiO2 
 PCOD9348444
Probable space group: C M M 2
;
_chemical_formula_sum "Si O2"
_cell_formula_units_Z 56
_cell_length_a 14.252918
_cell_length_b 14.530465
_cell_length_c 13.447393
_cell_angle_alpha 90.000000
_cell_angle_beta 90.000000
_cell_angle_gamma 90.000000
_cell_volume 2784.975613
_symmetry_space_group_name_H-M "C M M 2"
_symmetry_group_IT_number 35
_symmetry_cell_setting 'orthorhombic'
loop_
_space_group_symop_operation_xyz
x,y,z
-x,-y,z
-x,y,z
x,-y,z
1/2+x,1/2+y,z
1/2-x,1/2-y,z
1/2-x,1/2+y,z
1/2+x,1/2-y,z
loop_
_atom_site_type_symbol
_atom_site_label
_atom_site_fract_x
_atom_site_fract_y
_atom_site_fract_z
Si Si1 0.719799 0.894551 0.485430
Si Si2 0.266571 0.860532 0.709302
Si Si3 0.394279 0.624737 0.845881
Si Si4 0.739878 0.396730 0.031890
Si Si5 0.392847 0.610154 0.209238
Si Si6 0.109246 0.781716 0.415687
Si Si7 0.894759 0.340215 0.889118
O O1 0.698694 0.892907 0.602833
O O2 0.824065 0.850890 0.477057
O O3 0.653447 0.820313 0.429325
O O4 0.715035 0.000000 0.448816
O O5 0.250000 0.750000 0.702748
O O6 0.167181 0.897529 0.749215
O O7 0.339426 0.885220 0.797040
O O8 0.500000 0.592382 0.843519
O O9 0.399139 0.734722 0.856222
O O10 0.336463 0.597433 0.943521
O O11 0.773003 0.500000 0.054137
O O12 0.684449 0.362646 0.128115
O O13 0.828354 0.344513 0.985686
O O14 0.500000 0.619061 0.169907
O O15 0.381179 0.500000 0.233064
O O16 0.384983 0.675357 0.304986
O O17 0.000000 0.781651 0.445545
O O18 0.000000 0.375142 0.905240
#
# Coordination Sequence:
#
# PCOD9348444 Si02
#       7
#     8   8   8   8   8   8   8
#     4  11  23  40  62  94 127 159 206 262 316 370
#     4   9  17  34  53  82 116 163 202 248 295 358
#     4   9  18  33  54  81 114 154 198 241 285 346
#     4  10  19  32  54  84 119 152 187 241 300 354
#     4   9  18  35  61  90 117 152 202 254 307 369
#     4  10  22  42  65  89 120 163 207 257 315 373
#     4   9  19  35  55  81 116 161 205 236 275 347
#
# _framework density 20.107896
#
# number of rings (size 3 to 8) (size 9 to 14) (size 15 to 20)
#    0.000    2.429    1.429    2.143    0.000    5.714 
#    5.143    0.000    0.000    0.000    0.000    4.000 
#    0.000    0.000    0.000    0.000    0.000    0.000 
#
# Total GULP energy -156109.681219 kJ/mol
# GULP energy per Si atom -5575.345758 kJ/mol
# Density = 2.006213 g / cm^3
# Si number density = 20.107896 Si / 1000 Ang^3
#
#
#
# Elastic Constant Matrix: (Units=GPa)
#
#
# Indices 1 2 3 4 5 6 
#
# 1 154.3103 47.2596 48.2849 0.0000 0.0000 0.0000
# 2 47.2596 114.9886 24.7442 0.0000 0.0000 0.0000
# 3 48.2849 24.7442 77.0599 0.0000 0.0000 0.0000
# 4 0.0000 0.0000 0.0000 37.7072 0.0000 0.0000
# 5 0.0000 0.0000 0.0000 0.0000 18.7078 0.0000
# 6 0.0000 0.0000 0.0000 0.0000 0.0000 -675.6149
#
#
#
# Elastic Compliance Matrix: (Units=1/GPa)
#
#
# Indices 1 2 3 4 5 6 
#
# 1 0.008723 -0.002588 -0.004635 0.000000 0.000000 0.000000
# 2 -0.002588 0.010110 -0.001625 0.000000 0.000000 0.000000
# 3 -0.004635 -0.001625 0.016403 0.000000 0.000000 0.000000
# 4 0.000000 0.000000 0.000000 0.026520 0.000000 0.000000
# 5 0.000000 0.000000 0.000000 0.000000 0.053454 0.000000
# 6 0.000000 0.000000 0.000000 0.000000 0.000000 -0.001480
#
#
# Mechanical properties :
#
#
# Convention : Reuss Voigt Hill
#
# Bulk Modulus (GPa) = 57.01006 65.21514 61.11260
# Shear Modulus (GPa) = 36.42411 -108.76865 -36.17227
#
# Velocity S-wave (km/s) = 4.26071 -7.36274 -4.24596
# Velocity P-wave (km/s) = 7.25386 6.30689 2.53393
#
# Compressibility (1/GPa) = 0.01754076
#
# Stress axis : x y z
#
# Youngs Moduli (GPa) = 114.63511 98.91466 60.96500
#
# Poissons Ratio (x) = 0.25598 0.28257
# Poissons Ratio (y) = 0.29666 0.09905
# Poissons Ratio (z) = 0.53133 0.16071
#
# Static dielectric constant tensor:
#      x y z
#    x 1.717450 0.000000 0.000000 
#    y 0.000000 1.792840 0.000000 
#    z 0.000000 0.000000 1.701050 
# 
# From -- ./inp_files/12979.got.cif
#   From: 2010.05.17/outbox.cif.g08.bks.cpg/sg35_7_cif.got.tgz:12979.got - 2010.06.03 17:29:28.
