data_PCOD9348002
_publ_section_title
;
Structure prediction by ZEFSAII (Michael W. Deem and Ramdas Pophale) SiO2 
 PCOD9348002
Probable space group: P N N 2
;
_chemical_formula_sum "Si O2"
_cell_formula_units_Z 18
_cell_length_a 7.021608
_cell_length_b 7.021656
_cell_length_c 12.832520
_cell_angle_alpha 90.000000
_cell_angle_beta 90.000000
_cell_angle_gamma 90.000000
_cell_volume 632.685788
_symmetry_space_group_name_H-M "P N N 2"
_symmetry_group_IT_number 34
_symmetry_cell_setting 'orthorhombic'
loop_
_space_group_symop_operation_xyz
x,y,z
-x,-y,z
1/2-x,1/2+y,1/2+z
1/2+x,1/2-y,1/2+z
loop_
_atom_site_type_symbol
_atom_site_label
_atom_site_fract_x
_atom_site_fract_y
_atom_site_fract_z
Si Si1 0.260209 0.365188 0.877450
Si Si2 0.322348 0.280219 0.337678
Si Si3 0.000000 0.000000 0.994850
Si Si4 0.280221 0.322351 0.652027
Si Si5 0.865187 0.239795 0.612256
O O1 0.291147 0.593969 0.870975
O O2 0.349543 0.290250 0.769062
O O3 0.039394 0.303156 0.852605
O O4 0.309619 0.309616 0.994852
O O5 0.323675 0.456539 0.416670
O O6 0.290245 0.349539 0.220642
O O7 0.956538 0.176321 0.073033
O O8 0.196843 0.539394 0.637102
O O9 0.093969 0.208854 0.618731
#
# Coordination Sequence:
#
# PCOD9348002 Si02
#       5
#     4   4   2   4   4
#     4   9  17  40  61  87 119 161 213 259 306 383
#     4   9  20  34  63  87 120 166 200 256 330 361
#     4  12  20  40  52  88 128 158 196 264 324 372
#     4   9  20  34  63  87 120 166 200 256 330 361
#     4   9  17  40  61  87 119 161 213 259 306 383
#
# _framework density 28.450142
#
# number of rings (size 3 to 8) (size 9 to 14) (size 15 to 20)
#    0.000    2.667    2.222    2.667    0.000    0.000 
#   16.000    0.000    0.000    5.333    0.000    0.000 
#    0.000    0.000    0.000    0.000    0.000    0.000 
#
# Total GULP energy -100416.969417 kJ/mol
# GULP energy per Si atom -5578.720523 kJ/mol
# Density = 2.838539 g / cm^3
# Si number density = 28.450142 Si / 1000 Ang^3
#
#
#
# Elastic Constant Matrix: (Units=GPa)
#
#
# Indices 1 2 3 4 5 6 
#
# 1 99.2693 11.6807 61.8175 0.0000 0.0000 0.0000
# 2 11.6807 99.2704 61.8190 0.0000 0.0000 0.0000
# 3 61.8175 61.8190 375.9614 0.0000 0.0000 0.0000
# 4 0.0000 0.0000 0.0000 52.4797 0.0000 0.0000
# 5 0.0000 0.0000 0.0000 0.0000 52.4798 0.0000
# 6 0.0000 0.0000 0.0000 0.0000 0.0000 26.3659
#
#
#
# Elastic Compliance Matrix: (Units=1/GPa)
#
#
# Indices 1 2 3 4 5 6 
#
# 1 0.011226 -0.000191 -0.001814 0.000000 0.000000 0.000000
# 2 -0.000191 0.011226 -0.001814 0.000000 0.000000 0.000000
# 3 -0.001814 -0.001814 0.003257 0.000000 0.000000 0.000000
# 4 0.000000 0.000000 0.000000 0.019055 0.000000 0.000000
# 5 0.000000 0.000000 0.000000 0.000000 0.019055 0.000000
# 6 0.000000 0.000000 0.000000 0.000000 0.000000 0.037928
#
#
# Mechanical properties :
#
#
# Convention : Reuss Voigt Hill
#
# Bulk Modulus (GPa) = 55.34458 93.90396 74.62427
# Shear Modulus (GPa) = 43.32427 55.54399 49.43413
#
# Velocity S-wave (km/s) = 3.90656 4.42331 4.17294
# Velocity P-wave (km/s) = 6.31218 7.69192 7.03596
#
# Compressibility (1/GPa) = 0.01806862
#
# Stress axis : x y z
#
# Youngs Moduli (GPa) = 89.07916 89.07971 307.07485
#
# Poissons Ratio (x) = 0.01702 0.55716
# Poissons Ratio (y) = 0.01702 0.55717
# Poissons Ratio (z) = 0.16163 0.16163
#
# Static dielectric constant tensor:
#      x y z
#    x 2.390980 0.000000 0.000000 
#    y 0.000000 2.390980 0.000000 
#    z 0.000000 0.000000 2.225110 
# 
# From -- ./inp_files/4728.got.cif
#   From: 2010.05.17/outbox.cif.g08.bks.cpg/sg34_3_cif.got.tgz:4728.got - 2010.06.03 17:23:11.
