data_PCOD9348786
_publ_section_title
;
Structure prediction by ZEFSAII (Michael W. Deem and Ramdas Pophale) SiO2 
 PCOD9348786
Probable space group: C M M 2
;
_chemical_formula_sum "Si O2"
_cell_formula_units_Z 64
_cell_length_a 37.835660
_cell_length_b 7.549852
_cell_length_c 10.956736
_cell_angle_alpha 90.000000
_cell_angle_beta 90.000000
_cell_angle_gamma 90.000000
_cell_volume 3129.831448
_symmetry_space_group_name_H-M "C M M 2"
_symmetry_group_IT_number 35
_symmetry_cell_setting 'orthorhombic'
loop_
_space_group_symop_operation_xyz
x,y,z
-x,-y,z
-x,y,z
x,-y,z
1/2+x,1/2+y,z
1/2-x,1/2-y,z
1/2-x,1/2+y,z
1/2+x,1/2-y,z
loop_
_atom_site_type_symbol
_atom_site_label
_atom_site_fract_x
_atom_site_fract_y
_atom_site_fract_z
Si Si1 0.414448 0.709114 0.010800
Si Si2 0.041045 0.713942 0.770960
Si Si3 0.541049 0.787243 0.504156
Si Si4 0.208034 0.787896 0.491389
Si Si5 0.540322 0.710621 0.236780
Si Si6 0.791747 0.787240 0.756028
Si Si7 0.708285 0.287391 0.227176
Si Si8 0.834481 0.217902 0.991372
O O1 0.436197 0.783119 0.126197
O O2 0.374878 0.779057 0.995893
O O3 0.166050 0.000000 0.989708
O O4 0.436251 0.728565 0.886083
O O5 0.040898 0.500000 0.770648
O O6 0.054864 0.772793 0.636751
O O7 0.000000 0.770841 0.783535
O O8 0.500000 0.727454 0.501326
O O9 0.556139 0.735303 0.372649
O O10 0.541181 0.000000 0.506345
O O11 0.250000 0.750000 0.491188
O O12 0.195653 0.719458 0.623024
O O13 0.195462 0.719536 0.359895
O O14 0.202874 0.000000 0.491400
O O15 0.500000 0.782938 0.234234
O O16 0.537404 0.500000 0.218548
O O17 0.750000 0.750000 0.771145
O O18 0.795138 0.000000 0.753328
O O19 0.814188 0.721687 0.870047
O O20 0.704664 0.500000 0.229708
O O21 0.750000 0.250000 0.213351
O O22 0.686465 0.222840 0.111670
O O23 0.910342 0.000000 0.034578
#
# Coordination Sequence:
#
# PCOD9348786 Si02
#       8
#     8   8   8   8   8   8   8   8
#     4  10  20  33  47  67  98 131 160 192 231 275
#     4   9  18  33  52  73  95 120 154 195 236 279
#     4   8  15  29  49  71  93 117 148 189 235 279
#     4   8  14  24  41  64  86 108 139 181 224 265
#     4   9  17  29  46  69  94 119 152 193 232 273
#     4   9  16  28  46  67  89 114 147 185 224 266
#     4   9  16  28  46  66  87 113 146 184 225 266
#     4   9  18  31  45  63  91 123 152 184 221 263
#
# _framework density 20.448387
#
# number of rings (size 3 to 8) (size 9 to 14) (size 15 to 20)
#    0.000    3.125    0.000    1.500    0.000    1.750 
#    0.000    5.000    0.000    4.500    0.000    7.000 
#    0.000    0.000    0.000    0.000    0.000    0.000 
#
# Total GULP energy -178292.283791 kJ/mol
# GULP energy per Si atom -5571.633868 kJ/mol
# Density = 2.040185 g / cm^3
# Si number density = 20.448387 Si / 1000 Ang^3
#
#
#
# Elastic Constant Matrix: (Units=GPa)
#
#
# Indices 1 2 3 4 5 6 
#
# 1 85.1613 -1.1862 94.1465 0.0000 0.0000 0.0000
# 2 -1.1862 46.6084 -1.3329 0.0000 0.0000 0.0000
# 3 94.1465 -1.3329 247.7294 0.0000 0.0000 0.0000
# 4 0.0000 0.0000 0.0000 18.7769 0.0000 0.0000
# 5 0.0000 0.0000 0.0000 0.0000 -16.2083 0.0000
# 6 0.0000 0.0000 0.0000 0.0000 0.0000 9.5307
#
#
#
# Elastic Compliance Matrix: (Units=1/GPa)
#
#
# Indices 1 2 3 4 5 6 
#
# 1 0.020254 0.000295 -0.007696 0.000000 0.000000 0.000000
# 2 0.000295 0.021463 0.000003 0.000000 0.000000 0.000000
# 3 -0.007696 0.000003 0.006961 0.000000 0.000000 0.000000
# 4 0.000000 0.000000 0.000000 0.053257 0.000000 0.000000
# 5 0.000000 0.000000 0.000000 0.000000 -0.061697 0.000000
# 6 0.000000 0.000000 0.000000 0.000000 0.000000 0.104924
#
#
# Mechanical properties :
#
#
# Convention : Reuss Voigt Hill
#
# Bulk Modulus (GPa) = 29.51220 62.52821 46.02021
# Shear Modulus (GPa) = 29.19672 21.61131 25.40401
#
# Velocity S-wave (km/s) = 3.78276 3.25448 3.52852
# Velocity P-wave (km/s) = 5.79162 6.69083 6.25740
#
# Compressibility (1/GPa) = 0.03388429
#
# Stress axis : x y z
#
# Youngs Moduli (GPa) = 49.37220 46.59188 143.64970
#
# Poissons Ratio (x) = -0.01376 1.10550
# Poissons Ratio (y) = -0.01459 -0.00046
# Poissons Ratio (z) = 0.37996 -0.00015
#
# Static dielectric constant tensor:
#      x y z
#    x 1.677260 0.000000 0.000000 
#    y 0.000000 1.739190 0.000000 
#    z 0.000000 0.000000 1.776080 
# 
# From -- ./inp_files/14597.got.cif
#   From: 2010.05.17/outbox.cif.g08.bks.cpg/sg35_8_cif.got.tgz:14597.got - 2010.06.03 17:29:28.
