data_PCOD9348485
_publ_section_title
;
Structure prediction by ZEFSAII (Michael W. Deem and Ramdas Pophale) SiO2 
 PCOD9348485
Probable space group: C M M 2
;
_chemical_formula_sum "Si O2"
_cell_formula_units_Z 40
_cell_length_a 8.668756
_cell_length_b 26.867027
_cell_length_c 9.773506
_cell_angle_alpha 90.000000
_cell_angle_beta 90.000000
_cell_angle_gamma 90.000000
_cell_volume 2276.285724
_symmetry_space_group_name_H-M "C M M 2"
_symmetry_group_IT_number 35
_symmetry_cell_setting 'orthorhombic'
loop_
_space_group_symop_operation_xyz
x,y,z
-x,-y,z
-x,y,z
x,-y,z
1/2+x,1/2+y,z
1/2-x,1/2-y,z
1/2-x,1/2+y,z
1/2+x,1/2-y,z
loop_
_atom_site_type_symbol
_atom_site_label
_atom_site_fract_x
_atom_site_fract_y
_atom_site_fract_z
Si Si1 0.821757 0.000000 0.410170
Si Si2 0.322038 0.500000 0.077230
Si Si3 0.313606 0.392002 0.394857
Si Si4 0.185264 0.605382 0.088533
Si Si5 0.314433 0.803392 0.897072
Si Si6 0.314767 0.196265 0.578892
O O1 0.755631 0.053785 0.448896
O O2 0.819864 0.000000 0.243945
O O3 0.000000 0.000000 0.455324
O O4 0.500000 0.500000 0.034224
O O5 0.241165 0.551402 0.036102
O O6 0.500000 0.392960 0.392735
O O7 0.254317 0.386655 0.239668
O O8 0.253296 0.347493 0.487291
O O9 0.000000 0.605111 0.097463
O O10 0.235261 0.650383 0.990131
O O11 0.500000 0.801059 0.901785
O O12 0.250000 0.750000 0.943164
O O13 0.269370 0.810718 0.738307
O O14 0.500000 0.196402 0.569941
O O15 0.250000 0.250000 0.535399
#
# Coordination Sequence:
#
# PCOD9348485 Si02
#       6
#     4   4   8   8   8   8
#     4   7  14  29  48  69  98 130 162 198 242 289
#     4   9  17  31  50  75 104 136 170 208 252 301
#     4  10  19  33  53  78 105 135 169 210 252 299
#     4  10  19  33  53  78 105 136 170 209 254 303
#     4   9  20  36  54  74 100 133 171 211 256 306
#     4  10  20  36  54  74 100 134 172 212 257 307
#
# _framework density 17.572486000000001
#
# number of rings (size 3 to 8) (size 9 to 14) (size 15 to 20)
#    0.000    2.600    0.000    3.300    0.000    3.200 
#    0.000    4.500    0.000    3.600    0.000    0.000 
#    0.000    0.000    0.000    0.000    0.000    0.000 
#
# Total GULP energy -111488.157905 kJ/mol
# GULP energy per Si atom -5574.407895 kJ/mol
# Density = 1.753249 g / cm^3
# Si number density = 17.572486 Si / 1000 Ang^3
#
#
#
# Elastic Constant Matrix: (Units=GPa)
#
#
# Indices 1 2 3 4 5 6 
#
# 1 55.2248 50.8472 25.4681 0.0000 0.0000 0.0000
# 2 50.8472 224.0519 87.5936 0.0000 0.0000 0.0000
# 3 25.4681 87.5936 54.4283 0.0000 0.0000 0.0000
# 4 0.0000 0.0000 0.0000 -53.3883 0.0000 0.0000
# 5 0.0000 0.0000 0.0000 0.0000 16.0823 0.0000
# 6 0.0000 0.0000 0.0000 0.0000 0.0000 33.0563
#
#
#
# Elastic Compliance Matrix: (Units=1/GPa)
#
#
# Indices 1 2 3 4 5 6 
#
# 1 0.023732 -0.002817 -0.006572 0.000000 0.000000 0.000000
# 2 -0.002817 0.012370 -0.018590 0.000000 0.000000 0.000000
# 3 -0.006572 -0.018590 0.051366 0.000000 0.000000 0.000000
# 4 0.000000 0.000000 0.000000 -0.018731 0.000000 0.000000
# 5 0.000000 0.000000 0.000000 0.000000 0.062180 0.000000
# 6 0.000000 0.000000 0.000000 0.000000 0.000000 0.030251
#
#
# Mechanical properties :
#
#
# Convention : Reuss Voigt Hill
#
# Bulk Modulus (GPa) = 31.73516 73.50257 52.61886
# Shear Modulus (GPa) = 21.96558 10.46981 16.21770
#
# Velocity S-wave (km/s) = 3.53937 2.44356 3.04123
# Velocity P-wave (km/s) = 5.89929 7.06260 6.50700
#
# Compressibility (1/GPa) = 0.03151079
#
# Stress axis : x y z
#
# Youngs Moduli (GPa) = 42.13758 80.83904 19.46830
#
# Poissons Ratio (x) = 0.22768 0.12794
# Poissons Ratio (y) = 0.11868 0.36192
# Poissons Ratio (z) = 0.27692 1.50280
#
# Static dielectric constant tensor:
#      x y z
#    x 1.595110 0.000000 0.000000 
#    y 0.000000 1.610980 0.000000 
#    z 0.000000 0.000000 1.575130 
# 
# From -- ./inp_files/5013.got.cif
#   From: 2010.05.17/outbox.cif.g08.bks.cpg/sg35_3_cif.got.tgz:5013.got - 2010.06.03 17:29:28.
