data_PCOD9348696
_publ_section_title
;
Structure prediction by ZEFSAII (Michael W. Deem and Ramdas Pophale) SiO2 
 PCOD9348696
Probable space group: C M M 2
;
_chemical_formula_sum "Si O2"
_cell_formula_units_Z 64
_cell_length_a 20.016557
_cell_length_b 15.311298
_cell_length_c 9.822514
_cell_angle_alpha 90.000000
_cell_angle_beta 90.000000
_cell_angle_gamma 90.000000
_cell_volume 3010.398877
_symmetry_space_group_name_H-M "C M M 2"
_symmetry_group_IT_number 35
_symmetry_cell_setting 'orthorhombic'
loop_
_space_group_symop_operation_xyz
x,y,z
-x,-y,z
-x,y,z
x,-y,z
1/2+x,1/2+y,z
1/2-x,1/2-y,z
1/2-x,1/2+y,z
1/2+x,1/2-y,z
loop_
_atom_site_type_symbol
_atom_site_label
_atom_site_fract_x
_atom_site_fract_y
_atom_site_fract_z
Si Si1 0.655715 0.594637 0.986070
Si Si2 0.923484 0.770892 0.383599
Si Si3 0.251923 0.352625 0.756012
Si Si4 0.899781 0.720393 0.077498
Si Si5 0.102226 0.598402 0.838770
Si Si6 0.076460 0.404242 0.523722
Si Si7 0.268439 0.852511 0.191538
Si Si8 0.699059 0.601081 0.458475
O O1 0.621921 0.500000 0.003094
O O2 0.687889 0.603367 0.837758
O O3 0.617404 0.684034 0.017106
O O4 0.717816 0.600359 0.090063
O O5 0.929002 0.746640 0.224120
O O6 0.896204 0.683394 0.457278
O O7 0.867039 0.843984 0.413258
O O8 0.000000 0.791768 0.430805
O O9 0.250000 0.250000 0.789729
O O10 0.181688 0.389240 0.810092
O O11 0.267170 0.365415 0.597349
O O12 0.840776 0.653922 0.125836
O O13 0.925745 0.666755 0.947726
O O14 0.089086 0.500000 0.885526
O O15 0.074570 0.607881 0.685983
O O16 0.107845 0.500000 0.496807
O O17 0.000000 0.408152 0.472959
O O18 0.250000 0.750000 0.199616
O O19 0.253681 0.890274 0.338911
O O20 0.680673 0.500000 0.475252
#
# Coordination Sequence:
#
# PCOD9348696 Si02
#       8
#     8   8   8   8   8   8   8   8
#     4  11  20  36  58  85 123 164 197 237 309 378
#     4  11  25  44  66  88 121 170 220 266 311 360
#     4  12  22  37  59  90 129 162 197 255 311 380
#     4  11  23  39  59  91 127 163 201 256 308 373
#     4  11  22  37  60  93 126 159 202 252 317 383
#     4   9  21  43  65  86 117 160 209 260 312 363
#     4  10  19  36  57  85 122 162 195 244 307 369
#     4  12  25  39  61  94 128 166 210 254 310 376
#
# _framework density 21.259640999999998
#
# number of rings (size 3 to 8) (size 9 to 14) (size 15 to 20)
#    0.000    1.125    5.000    3.000    1.750    1.750 
#    0.000    0.000    0.000    0.000    0.000    0.000 
#    0.000    0.000    0.000    0.000    0.000    0.000 
#
# Total GULP energy -178526.883988 kJ/mol
# GULP energy per Si atom -5578.965125 kJ/mol
# Density = 2.121125 g / cm^3
# Si number density = 21.259641 Si / 1000 Ang^3
#
#
#
# Elastic Constant Matrix: (Units=GPa)
#
#
# Indices 1 2 3 4 5 6 
#
# 1 66.2011 33.3856 14.8864 0.0000 0.0000 0.0000
# 2 33.3856 162.9587 30.2381 0.0000 0.0000 0.0000
# 3 14.8864 30.2381 98.5562 0.0000 0.0000 0.0000
# 4 0.0000 0.0000 0.0000 9.2298 0.0000 0.0000
# 5 0.0000 0.0000 0.0000 0.0000 23.5225 0.0000
# 6 0.0000 0.0000 0.0000 0.0000 0.0000 12.5641
#
#
#
# Elastic Compliance Matrix: (Units=1/GPa)
#
#
# Indices 1 2 3 4 5 6 
#
# 1 0.017080 -0.003203 -0.001597 0.000000 0.000000 0.000000
# 2 -0.003203 0.007108 -0.001697 0.000000 0.000000 0.000000
# 3 -0.001597 -0.001697 0.010908 0.000000 0.000000 0.000000
# 4 0.000000 0.000000 0.000000 0.108344 0.000000 0.000000
# 5 0.000000 0.000000 0.000000 0.000000 0.042512 0.000000
# 6 0.000000 0.000000 0.000000 0.000000 0.000000 0.079592
#
#
# Mechanical properties :
#
#
# Convention : Reuss Voigt Hill
#
# Bulk Modulus (GPa) = 45.24474 53.85957 49.55215
# Shear Modulus (GPa) = 17.48830 25.67702 21.58266
#
# Velocity S-wave (km/s) = 2.87122 3.47909 3.18967
# Velocity P-wave (km/s) = 5.68507 6.44422 6.07651
#
# Compressibility (1/GPa) = 0.02210202
#
# Stress axis : x y z
#
# Youngs Moduli (GPa) = 58.54855 140.69520 91.67270
#
# Poissons Ratio (x) = 0.45062 0.14642
# Poissons Ratio (y) = 0.18752 0.15556
# Poissons Ratio (z) = 0.09351 0.23875
#
# Static dielectric constant tensor:
#      x y z
#    x 1.807430 0.000000 0.000000 
#    y 0.000000 1.784550 0.000000 
#    z 0.000000 0.000000 1.777740 
# 
# From -- ./inp_files/7849.got.cif
#   From: 2010.05.17/outbox.cif.g08.bks.cpg/sg35_4_cif.got.tgz:7849.got - 2010.06.03 17:29:28.
