data_PCOD9348534
_publ_section_title
;
Structure prediction by ZEFSAII (Michael W. Deem and Ramdas Pophale) SiO2 
 PCOD9348534
Probable space group: C M M 2
;
_chemical_formula_sum "Si O2"
_cell_formula_units_Z 52
_cell_length_a 8.032671
_cell_length_b 22.566517
_cell_length_c 15.406518
_cell_angle_alpha 90.000000
_cell_angle_beta 90.000000
_cell_angle_gamma 90.000000
_cell_volume 2792.730377
_symmetry_space_group_name_H-M "C M M 2"
_symmetry_group_IT_number 35
_symmetry_cell_setting 'orthorhombic'
loop_
_space_group_symop_operation_xyz
x,y,z
-x,-y,z
-x,y,z
x,-y,z
1/2+x,1/2+y,z
1/2-x,1/2-y,z
1/2-x,1/2+y,z
1/2+x,1/2-y,z
loop_
_atom_site_type_symbol
_atom_site_label
_atom_site_fract_x
_atom_site_fract_y
_atom_site_fract_z
Si Si1 0.800137 0.187009 0.723980
Si Si2 0.000000 0.066046 0.512511
Si Si3 0.691394 0.815051 0.349488
Si Si4 0.298607 0.567177 0.826658
Si Si5 0.500000 0.398895 0.315310
Si Si6 0.315308 0.854317 0.545557
Si Si7 0.500000 0.431924 0.121492
Si Si8 0.817652 0.570636 0.024844
O O1 0.750000 0.250000 0.766547
O O2 0.750422 0.125243 0.771197
O O3 0.712614 0.184861 0.630246
O O4 0.000000 0.185954 0.714462
O O5 0.835258 0.099379 0.543774
O O6 0.000000 0.067319 0.407310
O O7 0.000000 0.000000 0.546136
O O8 0.500000 0.827199 0.323395
O O9 0.750000 0.750000 0.323208
O O10 0.831266 0.860208 0.317066
O O11 0.695873 0.819447 0.454722
O O12 0.500000 0.567269 0.831409
O O13 0.249649 0.500000 0.796448
O O14 0.227652 0.575163 0.923467
O O15 0.500000 0.432519 0.224806
O O16 0.500000 0.881534 0.548440
O O17 0.500000 0.500000 0.089287
O O18 0.332556 0.404182 0.082217
O O19 0.827955 0.500000 0.043488
O O20 0.000000 0.596399 0.042220
#
# Coordination Sequence:
#
# PCOD9348534 Si02
#       8
#     8   4   8   8   4   8   4   8
#     4  11  22  35  54  85 117 153 191 242 289 337
#     4  10  21  38  55  78 115 153 189 229 281 345
#     4  10  19  33  55  79 102 139 185 234 275 327
#     4   9  18  35  57  81 110 146 190 236 283 337
#     4  10  21  34  54  82 110 142 179 224 287 335
#     4  10  21  36  55  80 110 146 196 235 279 326
#     4  10  19  34  55  82 113 143 176 223 274 328
#     4   9  17  31  55  83 107 137 179 225 273 329
#
# _framework density 18.619771
#
# number of rings (size 3 to 8) (size 9 to 14) (size 15 to 20)
#    0.000    2.154    2.308    1.154    0.000    4.000 
#    0.000    0.000    0.000    3.692    0.000    0.000 
#    0.000    0.000    0.000    0.000    0.000    0.000 
#
# Total GULP energy -144886.487216 kJ/mol
# GULP energy per Si atom -5572.557201 kJ/mol
# Density = 1.857739 g / cm^3
# Si number density = 18.619771 Si / 1000 Ang^3
#
#
#
# Elastic Constant Matrix: (Units=GPa)
#
#
# Indices 1 2 3 4 5 6 
#
# 1 139.1064 44.2215 27.9053 0.0000 0.0000 0.0000
# 2 44.2215 84.8691 13.6185 0.0000 0.0000 0.0000
# 3 27.9053 13.6185 45.8580 0.0000 0.0000 0.0000
# 4 0.0000 0.0000 0.0000 9.2399 0.0000 0.0000
# 5 0.0000 0.0000 0.0000 0.0000 -26.1790 0.0000
# 6 0.0000 0.0000 0.0000 0.0000 0.0000 4.8026
#
#
#
# Elastic Compliance Matrix: (Units=1/GPa)
#
#
# Indices 1 2 3 4 5 6 
#
# 1 0.009421 -0.004188 -0.004489 0.000000 0.000000 0.000000
# 2 -0.004188 0.014235 -0.001679 0.000000 0.000000 0.000000
# 3 -0.004489 -0.001679 0.025036 0.000000 0.000000 0.000000
# 4 0.000000 0.000000 0.000000 0.108227 0.000000 0.000000
# 5 0.000000 0.000000 0.000000 0.000000 -0.038199 0.000000
# 6 0.000000 0.000000 0.000000 0.000000 0.000000 0.208220
#
#
# Mechanical properties :
#
#
# Convention : Reuss Voigt Hill
#
# Bulk Modulus (GPa) = 35.73955 49.03600 42.38778
# Shear Modulus (GPa) = 14.00647 9.84524 11.92585
#
# Velocity S-wave (km/s) = 2.74567 2.30195 2.53354
# Velocity P-wave (km/s) = 5.41181 5.78428 5.60114
#
# Compressibility (1/GPa) = 0.02798021
#
# Stress axis : x y z
#
# Youngs Moduli (GPa) = 106.14931 70.25138 39.94175
#
# Poissons Ratio (x) = 0.29424 0.17929
# Poissons Ratio (y) = 0.44460 0.06704
# Poissons Ratio (z) = 0.47648 0.11792
#
# Static dielectric constant tensor:
#      x y z
#    x 1.773110 0.000000 0.000000 
#    y 0.000000 1.675320 0.000000 
#    z 0.000000 0.000000 1.623550 
# 
# From -- ./inp_files/15524.got.cif
#   From: 2010.05.17/outbox.cif.g08.bks.cpg/sg35_8_cif.got.tgz:15524.got - 2010.06.03 17:29:28.
