data_PCOD9348097
_publ_section_title
;
Structure prediction by ZEFSAII (Michael W. Deem and Ramdas Pophale) SiO2 
 PCOD9348097
Probable space group: C M M 2
;
_chemical_formula_sum "Si O2"
_cell_formula_units_Z 64
_cell_length_a 31.782433
_cell_length_b 8.627620
_cell_length_c 12.233797
_cell_angle_alpha 90.000000
_cell_angle_beta 90.000000
_cell_angle_gamma 90.000000
_cell_volume 3354.589772
_symmetry_space_group_name_H-M "C M M 2"
_symmetry_group_IT_number 35
_symmetry_cell_setting 'orthorhombic'
loop_
_space_group_symop_operation_xyz
x,y,z
-x,-y,z
-x,y,z
x,-y,z
1/2+x,1/2+y,z
1/2-x,1/2-y,z
1/2-x,1/2+y,z
1/2+x,1/2-y,z
loop_
_atom_site_type_symbol
_atom_site_label
_atom_site_fract_x
_atom_site_fract_y
_atom_site_fract_z
Si Si1 0.047281 0.315058 0.946240
Si Si2 0.576691 0.685542 0.718135
Si Si3 0.704826 0.312877 0.475457
Si Si4 0.874031 0.185775 0.078889
Si Si5 0.125383 0.189278 0.330711
Si Si6 0.705181 0.183437 0.946260
Si Si7 0.952887 0.189076 0.476874
Si Si8 0.677018 0.685496 0.717617
O O1 0.050053 0.500000 0.956502
O O2 0.055841 0.268333 0.820787
O O3 0.000000 0.265195 0.977062
O O4 0.083611 0.239459 0.018834
O O5 0.570249 0.500000 0.729406
O O6 0.558289 0.734199 0.601083
O O7 0.626840 0.713185 0.718789
O O8 0.705422 0.500000 0.474355
O O9 0.750000 0.250000 0.441070
O O10 0.666758 0.261636 0.397413
O O11 0.695070 0.264800 0.600408
O O12 0.873857 0.238034 0.204940
O O13 0.833672 0.249525 0.014858
O O14 0.872258 0.000000 0.075807
O O15 0.083580 0.241181 0.394747
O O16 0.125086 0.000000 0.332080
O O17 0.750000 0.250000 0.983175
O O18 0.705538 0.000000 0.955495
O O19 0.697805 0.231552 0.820261
O O20 0.000000 0.239392 0.447760
O O21 0.952307 0.000000 0.475699
O O22 0.683356 0.500000 0.729091
#
# Coordination Sequence:
#
# PCOD9348097 Si02
#       8
#     8   8   8   8   8   8   8   8
#     4  11  24  40  58  84 120 158 195 241 296 348
#     4  10  18  32  59  90 118 151 190 233 287 349
#     4  10  20  36  57  84 118 151 185 228 283 339
#     4  11  23  40  62  86 115 153 201 247 290 341
#     4   9  19  36  56  81 114 149 186 238 289 333
#     4  12  25  41  62  87 119 154 194 240 294 349
#     4   9  16  29  54  88 119 147 183 229 284 342
#     4  10  19  34  59  88 121 154 187 233 288 346
#
# _framework density 19.078337999999999
#
# number of rings (size 3 to 8) (size 9 to 14) (size 15 to 20)
#    0.000    1.750    2.500    2.625    0.000    4.000 
#    0.000    3.750    0.000    1.500    0.000    1.750 
#    0.000    0.000    0.000    0.000    0.000    0.000 
#
# Total GULP energy -178807.777626 kJ/mol
# GULP energy per Si atom -5587.743051 kJ/mol
# Density = 1.903492 g / cm^3
# Si number density = 19.078338 Si / 1000 Ang^3
#
#
#
# Elastic Constant Matrix: (Units=GPa)
#
#
# Indices 1 2 3 4 5 6 
#
# 1 189.7357 47.4077 95.2578 0.0000 0.0000 0.0000
# 2 47.4077 35.3317 32.2274 0.0000 0.0000 0.0000
# 3 95.2578 32.2274 153.9748 0.0000 0.0000 0.0000
# 4 0.0000 0.0000 0.0000 -2.1409 0.0000 0.0000
# 5 0.0000 0.0000 0.0000 0.0000 -1.7644 0.0000
# 6 0.0000 0.0000 0.0000 0.0000 0.0000 25.9223
#
#
#
# Elastic Compliance Matrix: (Units=1/GPa)
#
#
# Indices 1 2 3 4 5 6 
#
# 1 0.009578 -0.009204 -0.003999 0.000000 0.000000 0.000000
# 2 -0.009204 0.043826 -0.003479 0.000000 0.000000 0.000000
# 3 -0.003999 -0.003479 0.009697 0.000000 0.000000 0.000000
# 4 0.000000 0.000000 0.000000 -0.467088 0.000000 0.000000
# 5 0.000000 0.000000 0.000000 0.000000 -0.566772 0.000000
# 6 0.000000 0.000000 0.000000 0.000000 0.000000 0.038577
#
#
# Mechanical properties :
#
#
# Convention : Reuss Voigt Hill
#
# Bulk Modulus (GPa) = 33.62795 80.98089 57.30442
# Shear Modulus (GPa) = -5.62489 18.01336 6.19423
#
# Velocity S-wave (km/s) = -1.71893 3.07608 1.80382
# Velocity P-wave (km/s) = 3.70471 7.42664 5.86856
#
# Compressibility (1/GPa) = 0.02973717
#
# Stress axis : x y z
#
# Youngs Moduli (GPa) = 104.40648 22.81744 103.12720
#
# Poissons Ratio (x) = 0.21001 0.41241
# Poissons Ratio (y) = 0.96095 0.35876
# Poissons Ratio (z) = 0.41753 0.07938
#
# Static dielectric constant tensor:
#      x y z
#    x 1.655540 0.000000 0.000000 
#    y 0.000000 1.647320 0.000000 
#    z 0.000000 0.000000 1.640680 
# 
# From -- ./inp_files/11946.got.cif
#   From: 2010.05.17/outbox.cif.g08.bks.cpg/sg35_6_cif.got.tgz:11946.got - 2010.06.03 17:29:28.
