data_PCOD9348973
_publ_section_title
;
Structure prediction by ZEFSAII (Michael W. Deem and Ramdas Pophale) SiO2 
 PCOD9348973
Probable space group: C M M 2
;
_chemical_formula_sum "Si O2"
_cell_formula_units_Z 64
_cell_length_a 7.929233
_cell_length_b 19.194938
_cell_length_c 21.075341
_cell_angle_alpha 90.000000
_cell_angle_beta 90.000000
_cell_angle_gamma 90.000000
_cell_volume 3207.690838
_symmetry_space_group_name_H-M "C M M 2"
_symmetry_group_IT_number 35
_symmetry_cell_setting 'orthorhombic'
loop_
_space_group_symop_operation_xyz
x,y,z
-x,-y,z
-x,y,z
x,-y,z
1/2+x,1/2+y,z
1/2-x,1/2-y,z
1/2-x,1/2+y,z
1/2+x,1/2-y,z
loop_
_atom_site_type_symbol
_atom_site_label
_atom_site_fract_x
_atom_site_fract_y
_atom_site_fract_z
Si Si1 0.706526 0.580348 0.808980
Si Si2 0.798738 0.170600 0.547148
Si Si3 0.202158 0.578238 0.428488
Si Si4 0.703495 0.668925 0.930996
Si Si5 0.796490 0.670614 0.312433
Si Si6 0.201498 0.329643 0.169123
Si Si7 0.703353 0.329669 0.690198
Si Si8 0.701843 0.579172 0.050309
O O1 0.500000 0.580204 0.808991
O O2 0.760033 0.500000 0.814260
O O3 0.761222 0.627363 0.868455
O O4 0.762895 0.617091 0.743866
O O5 0.750000 0.250000 0.531767
O O6 0.735826 0.119565 0.492967
O O7 0.734349 0.155627 0.618626
O O8 0.000000 0.166110 0.548655
O O9 0.269641 0.500000 0.431370
O O10 0.268222 0.620067 0.367328
O O11 0.000000 0.574595 0.421223
O O12 0.500000 0.665891 0.931374
O O13 0.750000 0.750000 0.930542
O O14 0.766738 0.628148 0.993374
O O15 0.750000 0.750000 0.327813
O O16 0.735108 0.655830 0.240779
O O17 0.000000 0.665989 0.311036
O O18 0.250000 0.250000 0.152927
O O19 0.264827 0.383305 0.116900
O O20 0.000000 0.333441 0.169986
O O21 0.500000 0.333528 0.688889
O O22 0.750000 0.250000 0.706216
O O23 0.500000 0.574979 0.042290
O O24 0.768168 0.500000 0.047913
#
# Coordination Sequence:
#
# PCOD9348973 Si02
#       8
#     8   8   8   8   8   8   8   8
#     4   9  17  31  52  76 101 132 170 208 249 299
#     4  10  20  34  53  77 104 135 173 215 257 304
#     4  10  21  36  53  75 105 138 170 209 259 310
#     4  10  20  34  54  77 101 133 172 213 254 299
#     4   9  19  35  55  77 101 132 171 213 254 301
#     4  10  20  35  56  80 105 135 172 212 254 303
#     4   9  18  32  52  76 101 131 167 209 252 297
#     4  10  21  36  53  76 107 139 171 211 259 308
#
# _framework density 19.952048999999999
#
# number of rings (size 3 to 8) (size 9 to 14) (size 15 to 20)
#    0.000    2.375    0.000    2.250    0.000    7.000 
#    0.000    2.500    0.000    2.250    0.000    0.000 
#    0.000    0.000    0.000    0.000    0.000    0.000 
#
# Total GULP energy -178656.900996 kJ/mol
# GULP energy per Si atom -5583.028156 kJ/mol
# Density = 1.990664 g / cm^3
# Si number density = 19.952049 Si / 1000 Ang^3
#
#
#
# Elastic Constant Matrix: (Units=GPa)
#
#
# Indices 1 2 3 4 5 6 
#
# 1 18.2759 5.4489 6.6503 0.0000 0.0000 0.0000
# 2 5.4489 201.2268 146.8020 0.0000 0.0000 0.0000
# 3 6.6503 146.8020 163.0503 0.0000 0.0000 0.0000
# 4 0.0000 0.0000 0.0000 1.4240 0.0000 0.0000
# 5 0.0000 0.0000 0.0000 0.0000 75.7980 0.0000
# 6 0.0000 0.0000 0.0000 0.0000 0.0000 23.1500
#
#
#
# Elastic Compliance Matrix: (Units=1/GPa)
#
#
# Indices 1 2 3 4 5 6 
#
# 1 0.055554 0.000433 -0.002656 0.000000 0.000000 0.000000
# 2 0.000433 0.014485 -0.013059 0.000000 0.000000 0.000000
# 3 -0.002656 -0.013059 0.017999 0.000000 0.000000 0.000000
# 4 0.000000 0.000000 0.000000 0.702254 0.000000 0.000000
# 5 0.000000 0.000000 0.000000 0.000000 0.013193 0.000000
# 6 0.000000 0.000000 0.000000 0.000000 0.000000 0.043196
#
#
# Mechanical properties :
#
#
# Convention : Reuss Voigt Hill
#
# Bulk Modulus (GPa) = 17.39902 77.81728 47.60815
# Shear Modulus (GPa) = 5.57785 34.98453 20.28119
#
# Velocity S-wave (km/s) = 1.67383 4.19194 3.19171
# Velocity P-wave (km/s) = 3.53199 7.90675 6.12338
#
# Compressibility (1/GPa) = 0.05747451
#
# Stress axis : x y z
#
# Youngs Moduli (GPa) = 18.00047 69.03773 55.55827
#
# Poissons Ratio (x) = -0.02992 0.14757
# Poissons Ratio (y) = -0.00780 0.72554
# Poissons Ratio (z) = 0.04781 0.90157
#
# Static dielectric constant tensor:
#      x y z
#    x 1.720520 0.000000 0.000000 
#    y 0.000000 1.659370 0.000000 
#    z 0.000000 0.000000 1.709120 
# 
# From -- ./inp_files/18420.got.cif
#   From: 2010.05.17/outbox.cif.g08.bks.cpg/sg35_10_cif.got.tgz:18420.got - 2010.06.03 17:29:28.
