data_PCOD9348458
_publ_section_title
;
Structure prediction by ZEFSAII (Michael W. Deem and Ramdas Pophale) SiO2 
 PCOD9348458
Probable space group: C M M 2
;
_chemical_formula_sum "Si O2"
_cell_formula_units_Z 64
_cell_length_a 17.109861
_cell_length_b 20.265958
_cell_length_c 9.540911
_cell_angle_alpha 90.000000
_cell_angle_beta 90.000000
_cell_angle_gamma 90.000000
_cell_volume 3308.289178
_symmetry_space_group_name_H-M "C M M 2"
_symmetry_group_IT_number 35
_symmetry_cell_setting 'orthorhombic'
loop_
_space_group_symop_operation_xyz
x,y,z
-x,-y,z
-x,y,z
x,-y,z
1/2+x,1/2+y,z
1/2-x,1/2-y,z
1/2-x,1/2+y,z
1/2+x,1/2-y,z
loop_
_atom_site_type_symbol
_atom_site_label
_atom_site_fract_x
_atom_site_fract_y
_atom_site_fract_z
Si Si1 0.092926 0.723327 0.183660
Si Si2 0.088661 0.280881 0.725610
Si Si3 0.840339 0.814744 0.931700
Si Si4 0.815310 0.616174 0.868619
Si Si5 0.737076 0.576525 0.575842
Si Si6 0.089389 0.430485 0.104567
Si Si7 0.816742 0.700693 0.459646
Si Si8 0.910390 0.921690 0.751544
O O1 0.098040 0.643492 0.164250
O O2 0.149175 0.730729 0.317212
O O3 0.000000 0.738040 0.202823
O O4 0.125411 0.770429 0.058140
O O5 0.145056 0.226075 0.789547
O O6 0.108552 0.343334 0.821246
O O7 0.112362 0.298737 0.569419
O O8 0.000000 0.259878 0.740322
O O9 0.749910 0.835584 0.937007
O O10 0.885894 0.882077 0.891737
O O11 0.779901 0.585997 0.726995
O O12 0.845814 0.567717 0.984834
O O13 0.742207 0.500000 0.532287
O O14 0.776870 0.628160 0.468973
O O15 0.647935 0.593202 0.621536
O O16 0.097342 0.500000 0.189173
O O17 0.000000 0.431283 0.051417
O O18 0.750000 0.750000 0.512561
O O19 0.000000 0.906535 0.716982
O O20 0.902455 0.000000 0.776776
#
# Coordination Sequence:
#
# PCOD9348458 Si02
#       8
#     8   8   8   8   8   8   8   8
#     4  11  24  40  58  83 115 158 200 244 294 348
#     4  11  20  34  56  85 114 147 188 236 286 343
#     4  11  21  34  60  87 118 150 196 242 291 353
#     4  10  19  32  57  86 115 147 185 238 291 342
#     4   9  19  36  57  85 117 149 192 242 298 354
#     4  10  21  36  55  81 113 150 192 236 284 340
#     4  11  24  38  57  81 115 153 194 243 291 348
#     4   9  17  31  55  89 124 153 189 245 308 365
#
# _framework density 19.345347
#
# number of rings (size 3 to 8) (size 9 to 14) (size 15 to 20)
#    0.000    1.750    1.250    4.875    1.750    1.000 
#    0.000    0.625    0.000    7.125    0.000    0.000 
#    0.000    4.000    0.000    0.000    0.000    0.000 
#
# Total GULP energy -178172.010297 kJ/mol
# GULP energy per Si atom -5567.875322 kJ/mol
# Density = 1.930132 g / cm^3
# Si number density = 19.345347 Si / 1000 Ang^3
#
#
#
# Elastic Constant Matrix: (Units=GPa)
#
#
# Indices 1 2 3 4 5 6 
#
# 1 79.8347 21.4147 24.9225 0.0000 0.0000 0.0000
# 2 21.4147 84.3916 15.2375 0.0000 0.0000 0.0000
# 3 24.9225 15.2375 50.0386 0.0000 0.0000 0.0000
# 4 0.0000 0.0000 0.0000 14.5210 0.0000 0.0000
# 5 0.0000 0.0000 0.0000 0.0000 20.4523 0.0000
# 6 0.0000 0.0000 0.0000 0.0000 0.0000 8.3060
#
#
#
# Elastic Compliance Matrix: (Units=1/GPa)
#
#
# Indices 1 2 3 4 5 6 
#
# 1 0.015379 -0.002666 -0.006848 0.000000 0.000000 0.000000
# 2 -0.002666 0.013001 -0.002631 0.000000 0.000000 0.000000
# 3 -0.006848 -0.002631 0.024196 0.000000 0.000000 0.000000
# 4 0.000000 0.000000 0.000000 0.068866 0.000000 0.000000
# 5 0.000000 0.000000 0.000000 0.000000 0.048894 0.000000
# 6 0.000000 0.000000 0.000000 0.000000 0.000000 0.120396
#
#
# Mechanical properties :
#
#
# Convention : Reuss Voigt Hill
#
# Bulk Modulus (GPa) = 35.35274 37.49048 36.42161
# Shear Modulus (GPa) = 15.41068 18.83521 17.12294
#
# Velocity S-wave (km/s) = 2.82549 3.12369 2.97832
# Velocity P-wave (km/s) = 5.38133 5.69487 5.54032
#
# Compressibility (1/GPa) = 0.02828635
#
# Stress axis : x y z
#
# Youngs Moduli (GPa) = 65.02492 76.91657 41.32837
#
# Poissons Ratio (x) = 0.20506 0.28301
# Poissons Ratio (y) = 0.17336 0.10874
# Poissons Ratio (z) = 0.44528 0.20238
#
# Static dielectric constant tensor:
#      x y z
#    x 1.677000 0.000000 0.000000 
#    y 0.000000 1.752370 0.000000 
#    z 0.000000 0.000000 1.669180 
# 
# From -- ./inp_files/8790.got.cif
#   From: 2010.05.17/outbox.cif.g08.bks.cpg/sg35_5_cif.got.tgz:8790.got - 2010.06.03 17:29:28.
