data_PCOD9348211
_publ_section_title
;
Structure prediction by ZEFSAII (Michael W. Deem and Ramdas Pophale) SiO2 
 PCOD9348211
Probable space group: C M M 2
;
_chemical_formula_sum "Si O2"
_cell_formula_units_Z 64
_cell_length_a 29.613747
_cell_length_b 8.430085
_cell_length_c 16.146129
_cell_angle_alpha 90.000000
_cell_angle_beta 90.000000
_cell_angle_gamma 90.000000
_cell_volume 4030.823049
_symmetry_space_group_name_H-M "C M M 2"
_symmetry_group_IT_number 35
_symmetry_cell_setting 'orthorhombic'
loop_
_space_group_symop_operation_xyz
x,y,z
-x,-y,z
-x,y,z
x,-y,z
1/2+x,1/2+y,z
1/2-x,1/2-y,z
1/2-x,1/2+y,z
1/2+x,1/2-y,z
loop_
_atom_site_type_symbol
_atom_site_label
_atom_site_fract_x
_atom_site_fract_y
_atom_site_fract_z
Si Si1 0.052344 0.305917 0.184870
Si Si2 0.799012 0.189766 0.406884
Si Si3 0.447936 0.691878 0.503097
Si Si4 0.448180 0.309768 0.826572
Si Si5 0.106432 0.193978 0.667428
Si Si6 0.107746 0.310150 0.344808
Si Si7 0.054800 0.683665 0.003266
Si Si8 0.298865 0.691171 0.599300
O O1 0.052346 0.500000 0.182485
O O2 0.083370 0.253967 0.260747
O O3 0.000000 0.258150 0.197858
O O4 0.068469 0.252364 0.093618
O O5 0.750000 0.250000 0.379198
O O6 0.841096 0.252487 0.355070
O O7 0.804922 0.242404 0.503185
O O8 0.799526 0.000000 0.406115
O O9 0.500000 0.744348 0.500806
O O10 0.447338 0.500000 0.501773
O O11 0.423439 0.741631 0.588009
O O12 0.420501 0.751207 0.423943
O O13 0.500000 0.250530 0.817094
O O14 0.450039 0.500000 0.820114
O O15 0.416585 0.250907 0.752330
O O16 0.431540 0.267969 0.918625
O O17 0.157892 0.245382 0.651550
O O18 0.106563 0.000000 0.668534
O O19 0.107114 0.500000 0.344501
O O20 0.068388 0.500000 0.997390
O O21 0.000000 0.688715 0.005583
O O22 0.298505 0.500000 0.599439
O O23 0.250000 0.750000 0.627886
#
# Coordination Sequence:
#
# PCOD9348211 Si02
#       8
#     8   8   8   8   8   8   8   8
#     4   8  15  28  45  64  89 123 157 185 220 271
#     4  10  19  33  50  68  90 117 153 192 232 274
#     4  10  19  31  45  61  88 127 163 188 217 264
#     4   9  16  26  43  66  89 114 147 184 221 264
#     4   9  16  29  45  63  87 120 152 181 220 270
#     4  11  20  30  46  68  93 121 154 191 230 270
#     4   8  14  27  45  62  84 116 150 184 223 263
#     4   9  17  30  47  63  84 112 147 186 223 263
#
# _framework density 15.877651999999999
#
# number of rings (size 3 to 8) (size 9 to 14) (size 15 to 20)
#    0.000    2.750    1.250    2.250    0.000    2.750 
#    0.000    2.500    0.000    4.500    0.000    0.875 
#    0.000    4.000    0.000    0.000    0.000    0.000 
#
# Total GULP energy -178300.933458 kJ/mol
# GULP energy per Si atom -5571.904171 kJ/mol
# Density = 1.584151 g / cm^3
# Si number density = 15.877652 Si / 1000 Ang^3
#
#
#
# Elastic Constant Matrix: (Units=GPa)
#
#
# Indices 1 2 3 4 5 6 
#
# 1 128.4862 15.9386 81.5677 0.0000 0.0000 0.0000
# 2 15.9386 6.3029 15.5164 0.0000 0.0000 0.0000
# 3 81.5677 15.5164 144.5477 0.0000 0.0000 0.0000
# 4 0.0000 0.0000 0.0000 19.6669 0.0000 0.0000
# 5 0.0000 0.0000 0.0000 0.0000 8.4589 0.0000
# 6 0.0000 0.0000 0.0000 0.0000 0.0000 20.2644
#
#
#
# Elastic Compliance Matrix: (Units=1/GPa)
#
#
# Indices 1 2 3 4 5 6 
#
# 1 0.014019 -0.021714 -0.005580 0.000000 0.000000 0.000000
# 2 -0.021714 0.249276 -0.014505 0.000000 0.000000 0.000000
# 3 -0.005580 -0.014505 0.011624 0.000000 0.000000 0.000000
# 4 0.000000 0.000000 0.000000 0.050847 0.000000 0.000000
# 5 0.000000 0.000000 0.000000 0.000000 0.118218 0.000000
# 6 0.000000 0.000000 0.000000 0.000000 0.000000 0.049348
#
#
# Mechanical properties :
#
#
# Convention : Reuss Voigt Hill
#
# Bulk Modulus (GPa) = 5.22684 56.15356 30.69020
# Shear Modulus (GPa) = 7.80393 20.76567 14.28480
#
# Velocity S-wave (km/s) = 2.21939 3.62035 3.00272
# Velocity P-wave (km/s) = 3.14113 7.27455 5.60294
#
# Compressibility (1/GPa) = 0.19132022
#
# Stress axis : x y z
#
# Youngs Moduli (GPa) = 71.33255 4.01162 86.02949
#
# Poissons Ratio (x) = 0.08711 0.48004
# Poissons Ratio (y) = 1.54890 1.24788
# Poissons Ratio (z) = 0.39803 0.05819
#
# Static dielectric constant tensor:
#      x y z
#    x 1.520330 0.000000 0.000000 
#    y 0.000000 1.548800 0.000000 
#    z 0.000000 0.000000 1.535130 
# 
# From -- ./inp_files/16217.got.cif
#   From: 2010.05.17/outbox.cif.g08.bks.cpg/sg35_9_cif.got.tgz:16217.got - 2010.06.03 17:29:28.
