data_PCOD9348541
_publ_section_title
;
Structure prediction by ZEFSAII (Michael W. Deem and Ramdas Pophale) SiO2 
 PCOD9348541
Probable space group: C M M 2
;
_chemical_formula_sum "Si O2"
_cell_formula_units_Z 64
_cell_length_a 33.207502
_cell_length_b 9.371999
_cell_length_c 11.347673
_cell_angle_alpha 90.000000
_cell_angle_beta 90.000000
_cell_angle_gamma 90.000000
_cell_volume 3531.630457
_symmetry_space_group_name_H-M "C M M 2"
_symmetry_group_IT_number 35
_symmetry_cell_setting 'orthorhombic'
loop_
_space_group_symop_operation_xyz
x,y,z
-x,-y,z
-x,y,z
x,-y,z
1/2+x,1/2+y,z
1/2-x,1/2-y,z
1/2-x,1/2+y,z
1/2+x,1/2-y,z
loop_
_atom_site_type_symbol
_atom_site_label
_atom_site_fract_x
_atom_site_fract_y
_atom_site_fract_z
Si Si1 0.624686 0.827884 0.132240
Si Si2 0.602287 0.163751 0.601177
Si Si3 0.784355 0.838690 0.493753
Si Si4 0.311386 0.166465 0.718691
Si Si5 0.792187 0.327984 0.990640
Si Si6 0.871477 0.835442 0.377839
Si Si7 0.453399 0.345145 0.749559
Si Si8 0.546545 0.332949 0.031827
O O1 0.626144 0.759627 0.261793
O O2 0.583746 0.761651 0.076922
O O3 0.622096 0.000000 0.134248
O O4 0.666835 0.791317 0.063631
O O5 0.641596 0.177161 0.684728
O O6 0.605417 0.263389 0.486872
O O7 0.566421 0.216852 0.681525
O O8 0.599484 0.000000 0.563745
O O9 0.750000 0.750000 0.429643
O O10 0.791693 0.765634 0.620076
O O11 0.825418 0.835544 0.422029
O O12 0.771297 0.000000 0.509502
O O13 0.301401 0.206501 0.852756
O O14 0.299946 0.000000 0.703498
O O15 0.786794 0.500000 0.000157
O O16 0.750000 0.250000 0.024059
O O17 0.883798 0.000000 0.357385
O O18 0.500000 0.350965 0.718301
O O19 0.434401 0.500000 0.718708
O O20 0.451095 0.328960 0.889936
O O21 0.500000 0.291490 0.064357
O O22 0.551711 0.500000 0.067165
#
# Coordination Sequence:
#
# PCOD9348541 Si02
#       8
#     8   8   8   8   8   8   8   8
#     4  11  23  39  58  81 111 146 187 236 285 328
#     4  10  19  33  55  81 109 140 175 221 275 324
#     4  10  20  33  52  77 103 134 174 221 271 322
#     4   9  18  33  52  76 107 139 173 217 270 326
#     4  10  22  37  53  78 112 148 185 226 273 327
#     4  10  22  39  56  75 102 140 185 225 267 325
#     4   9  18  33  54  82 115 146 175 211 259 320
#     4   9  19  37  61  88 116 147 184 224 270 329
#
# _framework density 18.121941
#
# number of rings (size 3 to 8) (size 9 to 14) (size 15 to 20)
#    0.000    2.250    0.000    3.375    0.000    7.000 
#    0.000    4.375    0.000    3.750    0.000    0.000 
#    0.000    0.000    0.000    0.000    0.000    0.000 
#
# Total GULP energy -178365.162337 kJ/mol
# GULP energy per Si atom -5573.911323 kJ/mol
# Density = 1.808069 g / cm^3
# Si number density = 18.121941 Si / 1000 Ang^3
#
#
#
# Elastic Constant Matrix: (Units=GPa)
#
#
# Indices 1 2 3 4 5 6 
#
# 1 105.6887 62.0253 46.4197 0.0000 0.0000 0.0000
# 2 62.0253 91.5876 31.7613 0.0000 0.0000 0.0000
# 3 46.4197 31.7613 53.6628 0.0000 0.0000 0.0000
# 4 0.0000 0.0000 0.0000 35.5337 0.0000 0.0000
# 5 0.0000 0.0000 0.0000 0.0000 -164.7000 0.0000
# 6 0.0000 0.0000 0.0000 0.0000 0.0000 34.0162
#
#
#
# Elastic Compliance Matrix: (Units=1/GPa)
#
#
# Indices 1 2 3 4 5 6 
#
# 1 0.020352 -0.009661 -0.011887 0.000000 0.000000 0.000000
# 2 -0.009661 0.018324 -0.002489 0.000000 0.000000 0.000000
# 3 -0.011887 -0.002489 0.030391 0.000000 0.000000 0.000000
# 4 0.000000 0.000000 0.000000 0.028142 0.000000 0.000000
# 5 0.000000 0.000000 0.000000 0.000000 -0.006072 0.000000
# 6 0.000000 0.000000 0.000000 0.000000 0.000000 0.029398
#
#
# Mechanical properties :
#
#
# Convention : Reuss Voigt Hill
#
# Bulk Modulus (GPa) = 47.63365 59.03908 53.33637
# Shear Modulus (GPa) = 28.47263 -11.64784 8.41239
#
# Velocity S-wave (km/s) = 3.96810 -2.53800 2.15689
# Velocity P-wave (km/s) = 6.88015 4.90519 5.97484
#
# Compressibility (1/GPa) = 0.02099356
#
# Stress axis : x y z
#
# Youngs Moduli (GPa) = 49.13411 54.57315 32.90470
#
# Poissons Ratio (x) = 0.52722 0.39115
# Poissons Ratio (y) = 0.47467 0.08189
# Poissons Ratio (z) = 0.58408 0.13581
#
# Static dielectric constant tensor:
#      x y z
#    x 1.775430 0.000000 0.000000 
#    y 0.000000 1.634590 0.000000 
#    z 0.000000 0.000000 1.594420 
# 
# From -- ./inp_files/11982.got.cif
#   From: 2010.05.17/outbox.cif.g08.bks.cpg/sg35_6_cif.got.tgz:11982.got - 2010.06.03 17:29:28.
