data_PCOD9348489
_publ_section_title
;
Structure prediction by ZEFSAII (Michael W. Deem and Ramdas Pophale) SiO2 
 PCOD9348489
Probable space group: C M M 2
;
_chemical_formula_sum "Si O2"
_cell_formula_units_Z 64
_cell_length_a 29.974458
_cell_length_b 8.754782
_cell_length_c 12.781273
_cell_angle_alpha 90.000000
_cell_angle_beta 90.000000
_cell_angle_gamma 90.000000
_cell_volume 3354.059684
_symmetry_space_group_name_H-M "C M M 2"
_symmetry_group_IT_number 35
_symmetry_cell_setting 'orthorhombic'
loop_
_space_group_symop_operation_xyz
x,y,z
-x,-y,z
-x,y,z
x,-y,z
1/2+x,1/2+y,z
1/2-x,1/2-y,z
1/2-x,1/2+y,z
1/2+x,1/2-y,z
loop_
_atom_site_type_symbol
_atom_site_label
_atom_site_fract_x
_atom_site_fract_y
_atom_site_fract_z
Si Si1 0.889002 0.684793 0.519540
Si Si2 0.183314 0.175504 0.198946
Si Si3 0.547458 0.182412 0.339064
Si Si4 0.296554 0.182089 0.974847
Si Si5 0.079723 0.826373 0.137378
Si Si6 0.390879 0.314817 0.912611
Si Si7 0.296929 0.183411 0.426577
Si Si8 0.447877 0.315575 0.707820
O O1 0.890768 0.500000 0.526375
O O2 0.913056 0.737422 0.412609
O O3 0.837461 0.728367 0.503587
O O4 0.917908 0.751557 0.613592
O O5 0.130093 0.171467 0.182264
O O6 0.194602 0.253059 0.309095
O O7 0.199889 0.000000 0.197844
O O8 0.200187 0.263868 0.096263
O O9 0.500000 0.237873 0.381598
O O10 0.552414 0.230571 0.219902
O O11 0.548274 0.000000 0.343934
O O12 0.250000 0.250000 0.932816
O O13 0.341093 0.245507 0.917919
O O14 0.296016 0.000000 0.969749
O O15 0.062810 0.000000 0.134568
O O16 0.084182 0.767398 0.019622
O O17 0.386220 0.500000 0.917035
O O18 0.421327 0.273718 0.813975
O O19 0.250000 0.250000 0.462887
O O20 0.295653 0.000000 0.420721
O O21 0.500000 0.264687 0.705774
O O22 0.448386 0.500000 0.702208
#
# Coordination Sequence:
#
# PCOD9348489 Si02
#       8
#     8   8   8   8   8   8   8   8
#     4  10  22  40  60  82 115 154 194 241 292 346
#     4  10  19  33  53  80 116 157 197 237 282 336
#     4  10  20  34  53  79 113 150 186 230 286 345
#     4  11  21  34  55  84 119 158 199 239 284 341
#     4   9  18  32  53  80 113 150 186 230 280 337
#     4   9  20  39  59  84 117 151 192 241 294 345
#     4  11  22  36  56  83 115 154 195 239 290 345
#     4  10  22  41  66  91 114 147 193 245 297 350
#
# _framework density 19.081354999999999
#
# number of rings (size 3 to 8) (size 9 to 14) (size 15 to 20)
#    0.000    2.000    1.250    3.375    0.000    5.500 
#    0.000    1.875    0.000    1.500    0.000    0.000 
#    0.000    0.000    0.000    0.000    0.000    0.000 
#
# Total GULP energy -178545.461915 kJ/mol
# GULP energy per Si atom -5579.545685 kJ/mol
# Density = 1.903792 g / cm^3
# Si number density = 19.081355 Si / 1000 Ang^3
#
#
#
# Elastic Constant Matrix: (Units=GPa)
#
#
# Indices 1 2 3 4 5 6 
#
# 1 157.4409 42.4436 79.6339 0.0000 0.0000 0.0000
# 2 42.4436 49.9798 27.7036 0.0000 0.0000 0.0000
# 3 79.6339 27.7036 115.0947 0.0000 0.0000 0.0000
# 4 0.0000 0.0000 0.0000 -101.5402 0.0000 0.0000
# 5 0.0000 0.0000 0.0000 0.0000 17.2868 0.0000
# 6 0.0000 0.0000 0.0000 0.0000 0.0000 20.4322
#
#
#
# Elastic Compliance Matrix: (Units=1/GPa)
#
#
# Indices 1 2 3 4 5 6 
#
# 1 0.011132 -0.005982 -0.006262 0.000000 0.000000 0.000000
# 2 -0.005982 0.026303 -0.002192 0.000000 0.000000 0.000000
# 3 -0.006262 -0.002192 0.013549 0.000000 0.000000 0.000000
# 4 0.000000 0.000000 0.000000 -0.009848 0.000000 0.000000
# 5 0.000000 0.000000 0.000000 0.000000 0.057848 0.000000
# 6 0.000000 0.000000 0.000000 0.000000 0.000000 0.048942
#
#
# Mechanical properties :
#
#
# Convention : Reuss Voigt Hill
#
# Bulk Modulus (GPa) = 45.22638 69.11974 57.17306
# Shear Modulus (GPa) = 27.14901 -1.24863 12.95019
#
# Velocity S-wave (km/s) = 3.77610 -0.80981 2.60798
# Velocity P-wave (km/s) = 6.53951 5.95214 6.25273
#
# Compressibility (1/GPa) = 0.02211099
#
# Stress axis : x y z
#
# Youngs Moduli (GPa) = 89.83402 38.01796 73.80673
#
# Poissons Ratio (x) = 0.22743 0.46218
# Poissons Ratio (y) = 0.53740 0.16180
# Poissons Ratio (z) = 0.56255 0.08335
#
# Static dielectric constant tensor:
#      x y z
#    x 1.698330 0.000000 0.000000 
#    y 0.000000 1.655800 0.000000 
#    z 0.000000 0.000000 1.642780 
# 
# From -- ./inp_files/11827.got.cif
#   From: 2010.05.17/outbox.cif.g08.bks.cpg/sg35_6_cif.got.tgz:11827.got - 2010.06.03 17:29:28.
