data_PCOD9348543
_publ_section_title
;
Structure prediction by ZEFSAII (Michael W. Deem and Ramdas Pophale) SiO2 
 PCOD9348543
Probable space group: C M M 2
;
_chemical_formula_sum "Si O2"
_cell_formula_units_Z 56
_cell_length_a 16.538167
_cell_length_b 14.133166
_cell_length_c 12.231427
_cell_angle_alpha 90.000000
_cell_angle_beta 90.000000
_cell_angle_gamma 90.000000
_cell_volume 2858.932888
_symmetry_space_group_name_H-M "C M M 2"
_symmetry_group_IT_number 35
_symmetry_cell_setting 'orthorhombic'
loop_
_space_group_symop_operation_xyz
x,y,z
-x,-y,z
-x,y,z
x,-y,z
1/2+x,1/2+y,z
1/2-x,1/2-y,z
1/2-x,1/2+y,z
1/2+x,1/2-y,z
loop_
_atom_site_type_symbol
_atom_site_label
_atom_site_fract_x
_atom_site_fract_y
_atom_site_fract_z
Si Si1 0.839524 0.285724 0.734730
Si Si2 0.246265 0.108819 0.139046
Si Si3 0.092196 0.614211 0.278219
Si Si4 0.130988 0.608369 0.955201
Si Si5 0.409722 0.303192 0.060704
Si Si6 0.095112 0.897900 0.827729
Si Si7 0.905408 0.387912 0.531301
O O1 0.750000 0.250000 0.758043
O O2 0.865198 0.359510 0.829600
O O3 0.886855 0.187857 0.747266
O O4 0.851859 0.332244 0.617621
O O5 0.324840 0.135596 0.212803
O O6 0.165072 0.171123 0.139741
O O7 0.225519 0.000000 0.165838
O O8 0.282412 0.110545 0.015732
O O9 0.087180 0.500000 0.272249
O O10 0.103785 0.641381 0.404963
O O11 0.000000 0.647376 0.245739
O O12 0.100460 0.500000 0.967782
O O13 0.087858 0.694377 0.018954
O O14 0.500000 0.329815 0.099021
O O15 0.389916 0.362508 0.950945
O O16 0.000000 0.909454 0.822263
O O17 0.135072 0.000000 0.806058
O O18 0.888447 0.500000 0.537386
O O19 0.000000 0.374526 0.560951
#
# Coordination Sequence:
#
# PCOD9348543 Si02
#       7
#     8   8   8   8   8   8   8
#     4  11  21  32  50  80 114 144 179 226 277 333
#     4  10  19  33  55  81 110 145 186 230 275 330
#     4   8  16  33  57  83 109 142 188 238 286 336
#     4  10  21  36  53  75 108 149 190 232 278 326
#     4  10  20  33  50  78 116 152 186 222 269 337
#     4   9  18  33  51  71 103 149 191 219 249 306
#     4   9  18  35  58  81 107 140 180 229 284 339
#
# _framework density 19.587727999999998
#
# number of rings (size 3 to 8) (size 9 to 14) (size 15 to 20)
#    0.000    2.429    0.000    4.286    0.000    4.571 
#    0.000    2.857    0.000    0.000    0.000    2.000 
#    0.000    3.429    0.000    0.571    0.000    0.286 
#
# Total GULP energy -155961.222308 kJ/mol
# GULP energy per Si atom -5570.043654 kJ/mol
# Density = 1.954315 g / cm^3
# Si number density = 19.587728 Si / 1000 Ang^3
#
#
#
# Elastic Constant Matrix: (Units=GPa)
#
#
# Indices 1 2 3 4 5 6 
#
# 1 108.9138 34.6766 27.4024 0.0000 0.0000 0.0000
# 2 34.6766 108.7130 26.3650 0.0000 0.0000 0.0000
# 3 27.4024 26.3650 68.0401 0.0000 0.0000 0.0000
# 4 0.0000 0.0000 0.0000 19.2915 0.0000 0.0000
# 5 0.0000 0.0000 0.0000 0.0000 37.4154 0.0000
# 6 0.0000 0.0000 0.0000 0.0000 0.0000 16.1195
#
#
#
# Elastic Compliance Matrix: (Units=1/GPa)
#
#
# Indices 1 2 3 4 5 6 
#
# 1 0.010869 -0.002655 -0.003349 0.000000 0.000000 0.000000
# 2 -0.002655 0.010801 -0.003116 0.000000 0.000000 0.000000
# 3 -0.003349 -0.003116 0.017253 0.000000 0.000000 0.000000
# 4 0.000000 0.000000 0.000000 0.051836 0.000000 0.000000
# 5 0.000000 0.000000 0.000000 0.000000 0.026727 0.000000
# 6 0.000000 0.000000 0.000000 0.000000 0.000000 0.062037
#
#
# Mechanical properties :
#
#
# Convention : Reuss Voigt Hill
#
# Bulk Modulus (GPa) = 48.34589 51.39498 49.87043
# Shear Modulus (GPa) = 24.43099 27.71348 26.07223
#
# Velocity S-wave (km/s) = 3.53549 3.76552 3.65231
# Velocity P-wave (km/s) = 6.43440 6.72315 6.58036
#
# Compressibility (1/GPa) = 0.02068428
#
# Stress axis : x y z
#
# Youngs Moduli (GPa) = 92.00137 92.58330 57.95976
#
# Poissons Ratio (x) = 0.24580 0.19409
# Poissons Ratio (y) = 0.24426 0.18061
# Poissons Ratio (z) = 0.30809 0.28850
#
# Static dielectric constant tensor:
#      x y z
#    x 1.635970 0.000000 0.000000 
#    y 0.000000 1.736940 0.000000 
#    z 0.000000 0.000000 1.691740 
# 
# From -- ./inp_files/12989.got.cif
#   From: 2010.05.17/outbox.cif.g08.bks.cpg/sg35_7_cif.got.tgz:12989.got - 2010.06.03 17:29:28.
