data_PCOD9348331
_publ_section_title
;
Structure prediction by ZEFSAII (Michael W. Deem and Ramdas Pophale) SiO2 
 PCOD9348331
Probable space group: C M M 2
;
_chemical_formula_sum "Si O2"
_cell_formula_units_Z 64
_cell_length_a 29.033139
_cell_length_b 8.774706
_cell_length_c 15.869044
_cell_angle_alpha 90.000000
_cell_angle_beta 90.000000
_cell_angle_gamma 90.000000
_cell_volume 4042.754152
_symmetry_space_group_name_H-M "C M M 2"
_symmetry_group_IT_number 35
_symmetry_cell_setting 'orthorhombic'
loop_
_space_group_symop_operation_xyz
x,y,z
-x,-y,z
-x,y,z
x,-y,z
1/2+x,1/2+y,z
1/2-x,1/2-y,z
1/2-x,1/2+y,z
1/2+x,1/2-y,z
loop_
_atom_site_type_symbol
_atom_site_label
_atom_site_fract_x
_atom_site_fract_y
_atom_site_fract_z
Si Si1 0.609691 0.680582 0.342330
Si Si2 0.946303 0.316420 0.851052
Si Si3 0.945432 0.318827 0.497019
Si Si4 0.610336 0.183475 0.016588
Si Si5 0.054269 0.317698 0.186532
Si Si6 0.555884 0.324662 0.673987
Si Si7 0.299092 0.182173 0.275034
Si Si8 0.701012 0.317981 0.087733
O O1 0.616255 0.500000 0.341586
O O2 0.583364 0.733577 0.425930
O O3 0.579062 0.730956 0.262203
O O4 0.658710 0.763296 0.331886
O O5 0.945279 0.500000 0.844273
O O6 0.929541 0.246224 0.763009
O O7 0.000000 0.272631 0.864461
O O8 0.915882 0.271949 0.931264
O O9 0.940332 0.500000 0.487263
O O10 0.930716 0.267903 0.590680
O O11 0.000000 0.282606 0.487429
O O12 0.578480 0.217973 0.097724
O O13 0.658868 0.265332 0.030027
O O14 0.617150 0.000000 0.015526
O O15 0.059543 0.500000 0.201007
O O16 0.000000 0.284019 0.183523
O O17 0.500000 0.320639 0.675680
O O18 0.570342 0.500000 0.666673
O O19 0.250000 0.250000 0.302757
O O20 0.307534 0.248218 0.180954
O O21 0.296948 0.000000 0.270457
O O22 0.703680 0.500000 0.093989
O O23 0.750000 0.250000 0.059307
#
# Coordination Sequence:
#
# PCOD9348331 Si02
#       8
#     8   8   8   8   8   8   8   8
#     4  12  23  34  49  73 102 134 169 207 251 299
#     4   9  17  30  49  73 101 135 172 206 244 295
#     4  10  20  34  52  73  99 134 173 211 252 300
#     4  10  19  32  50  72 100 134 171 209 248 295
#     4  10  20  33  48  67  97 138 176 207 243 290
#     4   9  17  30  48  71  99 130 165 210 257 295
#     4  11  21  36  55  74  97 127 165 210 255 300
#     4  11  21  34  52  73  97 127 165 210 257 302
#
# _framework density 15.830793
#
# number of rings (size 3 to 8) (size 9 to 14) (size 15 to 20)
#    0.000    1.750    1.250    5.625    0.000    6.000 
#    0.000    0.000    0.000    2.250    0.000    0.875 
#    0.000    4.000    0.000    0.000    0.000    0.000 
#
# Total GULP energy -178666.897853 kJ/mol
# GULP energy per Si atom -5583.340558 kJ/mol
# Density = 1.579476 g / cm^3
# Si number density = 15.830793 Si / 1000 Ang^3
#
#
#
# Elastic Constant Matrix: (Units=GPa)
#
#
# Indices 1 2 3 4 5 6 
#
# 1 94.9860 52.6859 52.0823 0.0000 0.0000 0.0000
# 2 52.6859 91.1016 50.0951 0.0000 0.0000 0.0000
# 3 52.0823 50.0951 107.4850 0.0000 0.0000 0.0000
# 4 0.0000 0.0000 0.0000 14.9125 0.0000 0.0000
# 5 0.0000 0.0000 0.0000 0.0000 6.7239 0.0000
# 6 0.0000 0.0000 0.0000 0.0000 0.0000 24.2507
#
#
#
# Elastic Compliance Matrix: (Units=1/GPa)
#
#
# Indices 1 2 3 4 5 6 
#
# 1 0.017291 -0.007251 -0.004999 0.000000 0.000000 0.000000
# 2 -0.007251 0.017800 -0.004783 0.000000 0.000000 0.000000
# 3 -0.004999 -0.004783 0.013955 0.000000 0.000000 0.000000
# 4 0.000000 0.000000 0.000000 0.067058 0.000000 0.000000
# 5 0.000000 0.000000 0.000000 0.000000 0.148723 0.000000
# 6 0.000000 0.000000 0.000000 0.000000 0.000000 0.041236
#
#
# Mechanical properties :
#
#
# Convention : Reuss Voigt Hill
#
# Bulk Modulus (GPa) = 66.75143 67.03324 66.89233
# Shear Modulus (GPa) = 14.48769 18.42469 16.45619
#
# Velocity S-wave (km/s) = 3.02844 3.41523 3.22763
# Velocity P-wave (km/s) = 7.38144 7.61493 7.49910
#
# Compressibility (1/GPa) = 0.01498095
#
# Stress axis : x y z
#
# Youngs Moduli (GPa) = 57.83491 56.18044 71.65968
#
# Poissons Ratio (x) = 0.40735 0.35822
# Poissons Ratio (y) = 0.41934 0.34271
# Poissons Ratio (z) = 0.28911 0.26868
#
# Static dielectric constant tensor:
#      x y z
#    x 1.520590 0.000000 0.000000 
#    y 0.000000 1.531900 0.000000 
#    z 0.000000 0.000000 1.510350 
# 
# From -- ./inp_files/17745.got.cif
#   From: 2010.05.17/outbox.cif.g08.bks.cpg/sg35_9_cif.got.tgz:17745.got - 2010.06.03 17:29:28.
