data_PCOD9348982
_publ_section_title
;
Structure prediction by ZEFSAII (Michael W. Deem and Ramdas Pophale) SiO2 
 PCOD9348982
Probable space group: C M M 2
;
_chemical_formula_sum "Si O2"
_cell_formula_units_Z 64
_cell_length_a 8.734615
_cell_length_b 19.660794
_cell_length_c 21.039804
_cell_angle_alpha 90.000000
_cell_angle_beta 90.000000
_cell_angle_gamma 90.000000
_cell_volume 3613.154310
_symmetry_space_group_name_H-M "C M M 2"
_symmetry_group_IT_number 35
_symmetry_cell_setting 'orthorhombic'
loop_
_space_group_symop_operation_xyz
x,y,z
-x,-y,z
-x,y,z
x,-y,z
1/2+x,1/2+y,z
1/2-x,1/2-y,z
1/2-x,1/2+y,z
1/2+x,1/2-y,z
loop_
_atom_site_type_symbol
_atom_site_label
_atom_site_fract_x
_atom_site_fract_y
_atom_site_fract_z
Si Si1 0.822892 0.082681 0.890220
Si Si2 0.312949 0.578249 0.029765
Si Si3 0.184863 0.421232 0.396278
Si Si4 0.816377 0.825063 0.288398
Si Si5 0.315370 0.324368 0.142807
Si Si6 0.680789 0.080625 0.757240
Si Si7 0.316077 0.824573 0.512857
Si Si8 0.318106 0.675920 0.650873
O O1 0.728067 0.102716 0.828404
O O2 0.000000 0.103580 0.881928
O O3 0.821717 0.000000 0.893083
O O4 0.765708 0.104719 0.959892
O O5 0.500000 0.578023 0.028488
O O6 0.263968 0.500000 0.037231
O O7 0.262698 0.623277 0.089031
O O8 0.233515 0.500000 0.398168
O O9 0.253143 0.380390 0.337004
O O10 0.227260 0.379786 0.459929
O O11 0.000000 0.419799 0.391862
O O12 0.750000 0.750000 0.302809
O O13 0.772476 0.842245 0.215411
O O14 0.000000 0.822006 0.292474
O O15 0.500000 0.321917 0.140783
O O16 0.250000 0.250000 0.129457
O O17 0.500000 0.090006 0.748077
O O18 0.770548 0.122704 0.704537
O O19 0.715114 0.000000 0.751883
O O20 0.500000 0.820036 0.515904
O O21 0.250000 0.750000 0.496294
O O22 0.251928 0.842919 0.582253
O O23 0.500000 0.680922 0.645322
O O24 0.250000 0.750000 0.667090
#
# Coordination Sequence:
#
# PCOD9348982 Si02
#       8
#     8   8   8   8   8   8   8   8
#     4   8  14  27  48  72  97 129 171 214 255 303
#     4   8  14  27  49  73  96 127 169 214 256 299
#     4  10  22  38  55  78 109 140 169 209 259 305
#     4  10  20  34  54  77 102 137 178 217 256 306
#     4   9  18  32  50  73 101 132 167 208 255 305
#     4  10  20  34  53  77 106 139 174 214 259 306
#     4  10  20  36  57  78 102 136 175 210 251 305
#     4  11  22  37  57  80 107 137 172 213 256 304
#
# _framework density 17.713055000000001
#
# number of rings (size 3 to 8) (size 9 to 14) (size 15 to 20)
#    0.000    2.500    0.000    4.125    0.000    4.500 
#    0.000    3.750    0.000    2.625    0.000    0.000 
#    0.000    0.000    0.000    0.000    0.000    0.000 
#
# Total GULP energy -178494.366930 kJ/mol
# GULP energy per Si atom -5577.948967 kJ/mol
# Density = 1.767274 g / cm^3
# Si number density = 17.713055 Si / 1000 Ang^3
#
#
#
# Elastic Constant Matrix: (Units=GPa)
#
#
# Indices 1 2 3 4 5 6 
#
# 1 44.9066 36.5437 45.8200 0.0000 0.0000 0.0000
# 2 36.5437 91.8767 97.4565 0.0000 0.0000 0.0000
# 3 45.8200 97.4565 143.3649 0.0000 0.0000 0.0000
# 4 0.0000 0.0000 0.0000 36.2354 0.0000 0.0000
# 5 0.0000 0.0000 0.0000 0.0000 11.2704 0.0000
# 6 0.0000 0.0000 0.0000 0.0000 0.0000 24.1424
#
#
#
# Elastic Compliance Matrix: (Units=1/GPa)
#
#
# Indices 1 2 3 4 5 6 
#
# 1 0.034333 -0.007229 -0.006059 0.000000 0.000000 0.000000
# 2 -0.007229 0.040542 -0.025249 0.000000 0.000000 0.000000
# 3 -0.006059 -0.025249 0.026076 0.000000 0.000000 0.000000
# 4 0.000000 0.000000 0.000000 0.027597 0.000000 0.000000
# 5 0.000000 0.000000 0.000000 0.000000 0.088728 0.000000
# 6 0.000000 0.000000 0.000000 0.000000 0.000000 0.041421
#
#
# Mechanical properties :
#
#
# Convention : Reuss Voigt Hill
#
# Bulk Modulus (GPa) = 41.88208 71.08761 56.48485
# Shear Modulus (GPa) = 14.54626 21.01819 17.78222
#
# Velocity S-wave (km/s) = 2.86880 3.44843 3.17188
# Velocity P-wave (km/s) = 5.88807 7.48836 6.73591
#
# Compressibility (1/GPa) = 0.02387656
#
# Stress axis : x y z
#
# Youngs Moduli (GPa) = 29.12615 24.66563 38.35011
#
# Poissons Ratio (x) = 0.17831 0.23235
# Poissons Ratio (y) = 0.21056 0.96831
# Poissons Ratio (z) = 0.17647 0.62279
#
# Static dielectric constant tensor:
#      x y z
#    x 1.597310 0.000000 0.000000 
#    y 0.000000 1.578430 0.000000 
#    z 0.000000 0.000000 1.611700 
# 
# From -- ./inp_files/18418.got.cif
#   From: 2010.05.17/outbox.cif.g08.bks.cpg/sg35_10_cif.got.tgz:18418.got - 2010.06.03 17:29:28.
