data_PCOD9348753
_publ_section_title
;
Structure prediction by ZEFSAII (Michael W. Deem and Ramdas Pophale) SiO2 
 PCOD9348753
Probable space group: C M M 2
;
_chemical_formula_sum "Si O2"
_cell_formula_units_Z 64
_cell_length_a 29.030335
_cell_length_b 8.770159
_cell_length_c 15.972918
_cell_angle_alpha 90.000000
_cell_angle_beta 90.000000
_cell_angle_gamma 90.000000
_cell_volume 4066.715365
_symmetry_space_group_name_H-M "C M M 2"
_symmetry_group_IT_number 35
_symmetry_cell_setting 'orthorhombic'
loop_
_space_group_symop_operation_xyz
x,y,z
-x,-y,z
-x,y,z
x,-y,z
1/2+x,1/2+y,z
1/2-x,1/2-y,z
1/2-x,1/2+y,z
1/2+x,1/2-y,z
loop_
_atom_site_type_symbol
_atom_site_label
_atom_site_fract_x
_atom_site_fract_y
_atom_site_fract_z
Si Si1 0.144692 0.181381 0.002680
Si Si2 0.801748 0.316994 0.158945
Si Si3 0.301487 0.317677 0.516207
Si Si4 0.698455 0.817904 0.345541
Si Si5 0.354910 0.318188 0.685663
Si Si6 0.447464 0.182840 0.742475
Si Si7 0.552788 0.817382 0.940800
Si Si8 0.698743 0.817658 0.843761
O O1 0.166860 0.246235 0.087219
O O2 0.149383 0.000000 0.999800
O O3 0.091707 0.230649 0.991762
O O4 0.171930 0.254234 0.924403
O O5 0.799243 0.500000 0.149932
O O6 0.750000 0.250000 0.151677
O O7 0.820292 0.282734 0.252872
O O8 0.297717 0.500000 0.510069
O O9 0.250000 0.250000 0.526556
O O10 0.322394 0.253374 0.429542
O O11 0.331727 0.278546 0.597119
O O12 0.750000 0.750000 0.343835
O O13 0.700488 0.000000 0.354517
O O14 0.351078 0.500000 0.697559
O O15 0.407834 0.267281 0.692082
O O16 0.327871 0.235495 0.760623
O O17 0.500000 0.223955 0.720017
O O18 0.441320 0.216144 0.841647
O O19 0.442602 0.000000 0.733126
O O20 0.500000 0.779683 0.963111
O O21 0.558755 0.000000 0.950455
O O22 0.750000 0.750000 0.842681
O O23 0.700248 0.000000 0.847402
#
# Coordination Sequence:
#
# PCOD9348753 Si02
#       8
#     8   8   8   8   8   8   8   8
#     4  12  23  34  50  74 101 131 167 203 244 295
#     4  10  20  34  51  73 101 132 167 206 247 292
#     4  10  20  32  48  71 101 132 165 203 244 291
#     4   9  17  30  50  72  95 126 164 204 246 289
#     4  11  22  34  49  74 101 131 168 203 245 294
#     4   9  18  33  53  74  96 127 165 206 252 294
#     4   9  18  34  54  74  97 127 164 206 251 293
#     4  12  24  37  50  66  96 135 171 206 242 285
#
# _framework density 15.737515999999999
#
# number of rings (size 3 to 8) (size 9 to 14) (size 15 to 20)
#    0.000    1.750    1.250    6.000    0.000    5.000 
#    0.000    1.250    0.000    0.000    0.000    0.875 
#    0.000    5.000    0.000    0.000    0.000    0.000 
#
# Total GULP energy -178610.621918 kJ/mol
# GULP energy per Si atom -5581.581935 kJ/mol
# Density = 1.570170 g / cm^3
# Si number density = 15.737516 Si / 1000 Ang^3
#
#
#
# Elastic Constant Matrix: (Units=GPa)
#
#
# Indices 1 2 3 4 5 6 
#
# 1 99.2003 51.4146 66.4558 0.0000 0.0000 0.0000
# 2 51.4146 91.5313 70.1173 0.0000 0.0000 0.0000
# 3 66.4558 70.1173 145.6005 0.0000 0.0000 0.0000
# 4 0.0000 0.0000 0.0000 26.7751 0.0000 0.0000
# 5 0.0000 0.0000 0.0000 0.0000 5.2037 0.0000
# 6 0.0000 0.0000 0.0000 0.0000 0.0000 25.8241
#
#
#
# Elastic Compliance Matrix: (Units=1/GPa)
#
#
# Indices 1 2 3 4 5 6 
#
# 1 0.016040 -0.005390 -0.004725 0.000000 0.000000 0.000000
# 2 -0.005390 0.019123 -0.006749 0.000000 0.000000 0.000000
# 3 -0.004725 -0.006749 0.012275 0.000000 0.000000 0.000000
# 4 0.000000 0.000000 0.000000 0.037348 0.000000 0.000000
# 5 0.000000 0.000000 0.000000 0.000000 0.192170 0.000000
# 6 0.000000 0.000000 0.000000 0.000000 0.000000 0.038724
#
#
# Mechanical properties :
#
#
# Convention : Reuss Voigt Hill
#
# Bulk Modulus (GPa) = 72.94394 79.14527 76.04461
# Shear Modulus (GPa) = 14.12520 21.45021 17.78771
#
# Velocity S-wave (km/s) = 2.99916 3.69589 3.36560
# Velocity P-wave (km/s) = 7.64489 8.28328 7.97048
#
# Compressibility (1/GPa) = 0.01370916
#
# Stress axis : x y z
#
# Youngs Moduli (GPa) = 62.34517 52.29339 81.46681
#
# Poissons Ratio (x) = 0.28186 0.38495
# Poissons Ratio (y) = 0.33604 0.54981
# Poissons Ratio (z) = 0.29460 0.35292
#
# Static dielectric constant tensor:
#      x y z
#    x 1.508250 0.000000 0.000000 
#    y 0.000000 1.525970 0.000000 
#    z 0.000000 0.000000 1.532960 
# 
# From -- ./inp_files/17744.got.cif
#   From: 2010.05.17/outbox.cif.g08.bks.cpg/sg35_9_cif.got.tgz:17744.got - 2010.06.03 17:29:28.
