data_PCOD9348117
_publ_section_title
;
Structure prediction by ZEFSAII (Michael W. Deem and Ramdas Pophale) SiO2 
 PCOD9348117
Probable space group: C M M 2
;
_chemical_formula_sum "Si O2"
_cell_formula_units_Z 56
_cell_length_a 7.809460
_cell_length_b 22.520243
_cell_length_c 14.995675
_cell_angle_alpha 90.000000
_cell_angle_beta 90.000000
_cell_angle_gamma 90.000000
_cell_volume 2637.303412
_symmetry_space_group_name_H-M "C M M 2"
_symmetry_group_IT_number 35
_symmetry_cell_setting 'orthorhombic'
loop_
_space_group_symop_operation_xyz
x,y,z
-x,-y,z
-x,y,z
x,-y,z
1/2+x,1/2+y,z
1/2-x,1/2-y,z
1/2-x,1/2+y,z
1/2+x,1/2-y,z
loop_
_atom_site_type_symbol
_atom_site_label
_atom_site_fract_x
_atom_site_fract_y
_atom_site_fract_z
Si Si1 0.795584 0.000000 0.145561
Si Si2 0.702311 0.569092 0.651241
Si Si3 0.290059 0.500000 0.350692
Si Si4 0.202215 0.889559 0.467826
Si Si5 0.300039 0.933702 0.853537
Si Si6 0.293475 0.183848 0.952879
Si Si7 0.796490 0.316555 0.309775
Si Si8 0.203608 0.629332 0.130663
O O1 0.731637 0.000000 0.248475
O O2 0.735244 0.061414 0.103184
O O3 0.000000 0.000000 0.145921
O O4 0.500000 0.580779 0.665989
O O5 0.718242 0.500000 0.622724
O O6 0.770504 0.607559 0.568336
O O7 0.788812 0.575074 0.746868
O O8 0.500000 0.500000 0.348370
O O9 0.230123 0.557316 0.405435
O O10 0.225501 0.832323 0.406907
O O11 0.000000 0.900830 0.478260
O O12 0.500000 0.936756 0.878910
O O13 0.228442 0.873957 0.898768
O O14 0.225019 0.000000 0.872768
O O15 0.500000 0.180778 0.952455
O O16 0.250000 0.250000 0.920848
O O17 0.230766 0.173228 0.054356
O O18 0.750000 0.250000 0.284528
O O19 0.726014 0.357876 0.229626
O O20 0.000000 0.323418 0.315376
O O21 0.000000 0.638018 0.136448
#
# Coordination Sequence:
#
# PCOD9348117 Si02
#       8
#     4   8   4   8   8   8   8   8
#     4  11  21  33  55  86 115 148 186 229 277 325
#     4   9  17  31  55  84 112 143 178 221 277 332
#     4   9  16  29  51  78 107 140 174 213 261 311
#     4  10  18  33  55  79 110 146 181 220 268 324
#     4   9  19  36  58  84 113 147 186 230 286 344
#     4  10  22  40  62  84 110 150 191 235 287 342
#     4  11  23  37  53  76 106 146 191 233 276 323
#     4  10  22  38  57  81 113 149 185 228 280 335
#
# _framework density 21.233812
#
# number of rings (size 3 to 8) (size 9 to 14) (size 15 to 20)
#    0.000    2.143    2.143    1.071    1.000    2.286 
#    0.000    1.071    0.000    1.714    0.000    0.000 
#    0.000    0.000    0.000    0.000    0.000    0.000 
#
# Total GULP energy -156217.312939 kJ/mol
# GULP energy per Si atom -5579.189748 kJ/mol
# Density = 2.118548 g / cm^3
# Si number density = 21.233812 Si / 1000 Ang^3
#
#
#
# Elastic Constant Matrix: (Units=GPa)
#
#
# Indices 1 2 3 4 5 6 
#
# 1 26.3271 -6.8548 5.2853 0.0000 0.0000 0.0000
# 2 -6.8548 118.8836 46.6196 0.0000 0.0000 0.0000
# 3 5.2853 46.6196 80.2007 0.0000 0.0000 0.0000
# 4 0.0000 0.0000 0.0000 30.1802 0.0000 0.0000
# 5 0.0000 0.0000 0.0000 0.0000 9.1406 0.0000
# 6 0.0000 0.0000 0.0000 0.0000 0.0000 19.4053
#
#
#
# Elastic Compliance Matrix: (Units=1/GPa)
#
#
# Indices 1 2 3 4 5 6 
#
# 1 0.040152 0.004343 -0.005170 0.000000 0.000000 0.000000
# 2 0.004343 0.011365 -0.006892 0.000000 0.000000 0.000000
# 3 -0.005170 -0.006892 0.016816 0.000000 0.000000 0.000000
# 4 0.000000 0.000000 0.000000 0.033134 0.000000 0.000000
# 5 0.000000 0.000000 0.000000 0.000000 0.109402 0.000000
# 6 0.000000 0.000000 0.000000 0.000000 0.000000 0.051532
#
#
# Mechanical properties :
#
#
# Convention : Reuss Voigt Hill
#
# Bulk Modulus (GPa) = 18.90613 35.05683 26.98148
# Shear Modulus (GPa) = 16.92202 23.76931 20.34566
#
# Velocity S-wave (km/s) = 2.82607 3.34939 3.09880
# Velocity P-wave (km/s) = 4.42403 5.61281 5.05349
#
# Compressibility (1/GPa) = 0.05289290
#
# Stress axis : x y z
#
# Youngs Moduli (GPa) = 24.90513 87.99091 59.46748
#
# Poissons Ratio (x) = -0.38212 0.30747
# Poissons Ratio (y) = -0.10816 0.40987
# Poissons Ratio (z) = 0.12877 0.60647
#
# Static dielectric constant tensor:
#      x y z
#    x 1.778890 0.000000 0.000000 
#    y 0.000000 1.759860 0.000000 
#    z 0.000000 0.000000 1.784780 
# 
# From -- ./inp_files/15683.got.cif
#   From: 2010.05.17/outbox.cif.g08.bks.cpg/sg35_8_cif.got.tgz:15683.got - 2010.06.03 17:29:28.
