data_PCOD9348803
_publ_section_title
;
Structure prediction by ZEFSAII (Michael W. Deem and Ramdas Pophale) SiO2 
 PCOD9348803
Probable space group: C M M 2
;
_chemical_formula_sum "Si O2"
_cell_formula_units_Z 56
_cell_length_a 19.807520
_cell_length_b 7.943308
_cell_length_c 18.597675
_cell_angle_alpha 90.000000
_cell_angle_beta 90.000000
_cell_angle_gamma 90.000000
_cell_volume 2926.106708
_symmetry_space_group_name_H-M "C M M 2"
_symmetry_group_IT_number 35
_symmetry_cell_setting 'orthorhombic'
loop_
_space_group_symop_operation_xyz
x,y,z
-x,-y,z
-x,y,z
x,-y,z
1/2+x,1/2+y,z
1/2-x,1/2-y,z
1/2-x,1/2+y,z
1/2+x,1/2-y,z
loop_
_atom_site_type_symbol
_atom_site_label
_atom_site_fract_x
_atom_site_fract_y
_atom_site_fract_z
Si Si1 0.328481 0.796671 0.799010
Si Si2 0.922868 0.796711 0.508067
Si Si3 0.422609 0.202547 0.669307
Si Si4 0.421992 0.205530 0.929400
Si Si5 0.172140 0.796637 0.380122
Si Si6 0.172587 0.200102 0.220220
Si Si7 0.075990 0.702022 0.091052
O O1 0.250000 0.750000 0.798431
O O2 0.370275 0.735897 0.729253
O O3 0.369123 0.736574 0.869629
O O4 0.331657 0.000000 0.799000
O O5 0.901309 0.746905 0.588326
O O6 0.874948 0.733776 0.444439
O O7 0.000000 0.737398 0.498348
O O8 0.923398 0.000000 0.505233
O O9 0.500000 0.264501 0.680306
O O10 0.425133 0.000000 0.674834
O O11 0.500000 0.254358 0.913998
O O12 0.421316 0.000000 0.928382
O O13 0.404647 0.260882 0.010680
O O14 0.250000 0.750000 0.392192
O O15 0.152995 0.734386 0.299930
O O16 0.167434 0.000000 0.379628
O O17 0.250000 0.250000 0.207462
O O18 0.125929 0.255122 0.154975
O O19 0.169285 0.000000 0.223772
O O20 0.073108 0.500000 0.086789
O O21 0.000000 0.764328 0.106026
#
# Coordination Sequence:
#
# PCOD9348803 Si02
#       7
#     8   8   8   8   8   8   8
#     4  10  20  33  50  73 100 128 160 199 240 284
#     4   9  18  33  52  73  97 125 158 197 242 289
#     4   9  18  33  52  72  94 124 163 201 236 280
#     4   8  15  31  54  74  94 127 167 201 237 285
#     4   9  19  34  51  71  96 129 165 200 240 289
#     4  10  20  34  52  73 100 134 170 207 248 296
#     4   9  18  33  53  77 103 130 164 206 250 297
#
# _framework density 19.138058999999998
#
# number of rings (size 3 to 8) (size 9 to 14) (size 15 to 20)
#    0.000    2.857    0.000    1.714    0.000    5.429 
#    0.000    6.429    0.000    3.857    0.000    0.000 
#    0.000    0.000    0.000    0.000    0.000    0.000 
#
# Total GULP energy -156132.320799 kJ/mol
# GULP energy per Si atom -5576.154314 kJ/mol
# Density = 1.909450 g / cm^3
# Si number density = 19.138059 Si / 1000 Ang^3
#
#
#
# Elastic Constant Matrix: (Units=GPa)
#
#
# Indices 1 2 3 4 5 6 
#
# 1 130.7596 7.0495 147.8773 0.0000 0.0000 0.0000
# 2 7.0495 14.6542 12.8456 0.0000 0.0000 0.0000
# 3 147.8773 12.8456 222.8063 0.0000 0.0000 0.0000
# 4 0.0000 0.0000 0.0000 19.2841 0.0000 0.0000
# 5 0.0000 0.0000 0.0000 0.0000-2825.5611 0.0000
# 6 0.0000 0.0000 0.0000 0.0000 0.0000 22.6122
#
#
#
# Elastic Compliance Matrix: (Units=1/GPa)
#
#
# Indices 1 2 3 4 5 6 
#
# 1 0.030811 0.003269 -0.020638 0.000000 0.000000 0.000000
# 2 0.003269 0.072219 -0.006333 0.000000 0.000000 0.000000
# 3 -0.020638 -0.006333 0.018551 0.000000 0.000000 0.000000
# 4 0.000000 0.000000 0.000000 0.051856 0.000000 0.000000
# 5 0.000000 0.000000 0.000000 0.000000 -0.000354 0.000000
# 6 0.000000 0.000000 0.000000 0.000000 0.000000 0.044224
#
#
# Mechanical properties :
#
#
# Convention : Reuss Voigt Hill
#
# Bulk Modulus (GPa) = 13.48139 78.19611 45.83875
# Shear Modulus (GPa) = 17.27498 -543.36979 -263.04741
#
# Velocity S-wave (km/s) = 3.00767 -16.86824 -11.73651
# Velocity P-wave (km/s) = 4.37276 18.39662 12.63556
#
# Compressibility (1/GPa) = 0.07417633
#
# Stress axis : x y z
#
# Youngs Moduli (GPa) = 32.45635 13.84675 53.90676
#
# Poissons Ratio (x) = -0.04526 1.11250
# Poissons Ratio (y) = -0.10609 0.34140
# Poissons Ratio (z) = 0.66982 0.08769
#
# Static dielectric constant tensor:
#      x y z
#    x 1.637790 0.000000 0.000000 
#    y 0.000000 1.699370 0.000000 
#    z 0.000000 0.000000 1.676900 
# 
# From -- ./inp_files/15606.got.cif
#   From: 2010.05.17/outbox.cif.g08.bks.cpg/sg35_8_cif.got.tgz:15606.got - 2010.06.03 17:29:28.
