data_PCOD9348098
_publ_section_title
;
Structure prediction by ZEFSAII (Michael W. Deem and Ramdas Pophale) SiO2 
 PCOD9348098
Probable space group: C M M 2
;
_chemical_formula_sum "Si O2"
_cell_formula_units_Z 64
_cell_length_a 8.291080
_cell_length_b 31.934289
_cell_length_c 12.272600
_cell_angle_alpha 90.000000
_cell_angle_beta 90.000000
_cell_angle_gamma 90.000000
_cell_volume 3249.413171
_symmetry_space_group_name_H-M "C M M 2"
_symmetry_group_IT_number 35
_symmetry_cell_setting 'orthorhombic'
loop_
_space_group_symop_operation_xyz
x,y,z
-x,-y,z
-x,y,z
x,-y,z
1/2+x,1/2+y,z
1/2-x,1/2-y,z
1/2-x,1/2+y,z
1/2+x,1/2-y,z
loop_
_atom_site_type_symbol
_atom_site_label
_atom_site_fract_x
_atom_site_fract_y
_atom_site_fract_z
Si Si1 0.695066 0.046895 0.862930
Si Si2 0.303005 0.046736 0.393758
Si Si3 0.694760 0.295351 0.862764
Si Si4 0.192897 0.625615 0.252052
Si Si5 0.192875 0.874828 0.004217
Si Si6 0.807323 0.795243 0.390826
Si Si7 0.694373 0.676530 0.626514
Si Si8 0.304900 0.919459 0.628330
O O1 0.500000 0.047191 0.864215
O O2 0.753591 0.083139 0.942771
O O3 0.747015 0.058060 0.739569
O O4 0.749009 0.000000 0.892334
O O5 0.500000 0.046841 0.392000
O O6 0.247596 0.083881 0.314631
O O7 0.254015 0.057533 0.517551
O O8 0.250047 0.000000 0.363079
O O9 0.500000 0.296175 0.861720
O O10 0.750000 0.250000 0.902329
O O11 0.751410 0.334148 0.936592
O O12 0.753223 0.302575 0.738466
O O13 0.251255 0.666616 0.315909
O O14 0.000000 0.625066 0.256249
O O15 0.246762 0.626038 0.127445
O O16 0.000000 0.873405 0.004556
O O17 0.750000 0.750000 0.351528
O O18 0.745123 0.802964 0.514473
O O19 0.000000 0.795526 0.393700
O O20 0.500000 0.679145 0.626457
O O21 0.742590 0.627926 0.627352
O O22 0.500000 0.918473 0.628229
#
# Coordination Sequence:
#
# PCOD9348098 Si02
#       8
#     8   8   8   8   8   8   8   8
#     4  10  21  37  60  91 122 154 196 244 294 352
#     4   9  18  34  58  88 119 151 189 237 292 347
#     4  10  22  39  60  86 116 151 190 237 292 350
#     4  11  23  40  62  87 117 155 202 250 298 349
#     4  11  24  42  61  83 117 158 202 248 297 351
#     4  11  23  39  62  89 121 156 195 242 295 355
#     4  10  20  36  58  87 122 154 186 235 295 354
#     4  10  18  32  59  90 119 152 191 237 291 353
#
# _framework density 19.695865000000001
#
# number of rings (size 3 to 8) (size 9 to 14) (size 15 to 20)
#    0.000    1.750    2.500    1.875    0.000    4.750 
#    0.000    2.500    0.000    3.750    0.000    0.000 
#    0.000    0.000    0.000    0.000    0.000    0.000 
#
# Total GULP energy -178792.948445 kJ/mol
# GULP energy per Si atom -5587.279639 kJ/mol
# Density = 1.965104 g / cm^3
# Si number density = 19.695865 Si / 1000 Ang^3
#
#
#
# Elastic Constant Matrix: (Units=GPa)
#
#
# Indices 1 2 3 4 5 6 
#
# 1 17.4938 18.7227 22.8229 0.0000 0.0000 0.0000
# 2 18.7227 203.9919 94.8657 0.0000 0.0000 0.0000
# 3 22.8229 94.8657 160.6128 0.0000 0.0000 0.0000
# 4 0.0000 0.0000 0.0000 1.0548 0.0000 0.0000
# 5 0.0000 0.0000 0.0000 0.0000 23.6333 0.0000
# 6 0.0000 0.0000 0.0000 0.0000 0.0000 29.5807
#
#
#
# Elastic Compliance Matrix: (Units=1/GPa)
#
#
# Indices 1 2 3 4 5 6 
#
# 1 0.071099 -0.002519 -0.008615 0.000000 0.000000 0.000000
# 2 -0.002519 0.006848 -0.003687 0.000000 0.000000 0.000000
# 3 -0.008615 -0.003687 0.009628 0.000000 0.000000 0.000000
# 4 0.000000 0.000000 0.000000 0.948003 0.000000 0.000000
# 5 0.000000 0.000000 0.000000 0.000000 0.042313 0.000000
# 6 0.000000 0.000000 0.000000 0.000000 0.000000 0.033806
#
#
# Mechanical properties :
#
#
# Convention : Reuss Voigt Hill
#
# Bulk Modulus (GPa) = 17.26140 72.76902 45.01521
# Shear Modulus (GPa) = 4.30793 27.23293 15.77043
#
# Velocity S-wave (km/s) = 1.48053 3.72246 2.83273
# Velocity P-wave (km/s) = 3.42135 7.44998 5.79689
#
# Compressibility (1/GPa) = 0.05793273
#
# Stress axis : x y z
#
# Youngs Moduli (GPa) = 14.06490 146.03114 103.86456
#
# Poissons Ratio (x) = 0.36786 0.89482
# Poissons Ratio (y) = 0.03543 0.38292
# Poissons Ratio (z) = 0.12117 0.53838
#
# Static dielectric constant tensor:
#      x y z
#    x 1.690600 0.000000 0.000000 
#    y 0.000000 1.671850 0.000000 
#    z 0.000000 0.000000 1.683570 
# 
# From -- ./inp_files/11933.got.cif
#   From: 2010.05.17/outbox.cif.g08.bks.cpg/sg35_6_cif.got.tgz:11933.got - 2010.06.03 17:29:28.
