data_PCOD9348944
_publ_section_title
;
Structure prediction by ZEFSAII (Michael W. Deem and Ramdas Pophale) SiO2 
 PCOD9348944
Probable space group: C M M 2
;
_chemical_formula_sum "Si O2"
_cell_formula_units_Z 48
_cell_length_a 8.887163
_cell_length_b 31.648594
_cell_length_c 9.911081
_cell_angle_alpha 90.000000
_cell_angle_beta 90.000000
_cell_angle_gamma 90.000000
_cell_volume 2787.652226
_symmetry_space_group_name_H-M "C M M 2"
_symmetry_group_IT_number 35
_symmetry_cell_setting 'orthorhombic'
loop_
_space_group_symop_operation_xyz
x,y,z
-x,-y,z
-x,y,z
x,-y,z
1/2+x,1/2+y,z
1/2-x,1/2-y,z
1/2-x,1/2+y,z
1/2+x,1/2-y,z
loop_
_atom_site_type_symbol
_atom_site_label
_atom_site_fract_x
_atom_site_fract_y
_atom_site_fract_z
Si Si1 0.327944 0.207379 0.539770
Si Si2 0.817744 0.614947 0.520074
Si Si3 0.819887 0.117553 0.221889
Si Si4 0.325799 0.206332 0.211168
Si Si5 0.679929 0.049344 0.021561
Si Si6 0.821531 0.950415 0.726725
O O1 0.500000 0.209224 0.583069
O O2 0.250000 0.250000 0.587764
O O3 0.267216 0.161090 0.575987
O O4 0.323964 0.207691 0.375587
O O5 0.749525 0.610539 0.370740
O O6 0.758501 0.578583 0.616750
O O7 0.000000 0.615148 0.511111
O O8 0.762242 0.163738 0.173853
O O9 0.757805 0.081205 0.124696
O O10 0.000000 0.117158 0.228250
O O11 0.500000 0.203828 0.169670
O O12 0.250000 0.250000 0.164467
O O13 0.500000 0.055750 0.020911
O O14 0.708696 0.000000 0.056546
O O15 0.747041 0.056558 0.872726
O O16 0.000000 0.941628 0.732320
O O17 0.802232 0.000000 0.693499
#
# Coordination Sequence:
#
# PCOD9348944 Si02
#       6
#     8   8   8   8   8   8
#     4   8  15  26  43  68  98 131 166 204 245 293
#     4  10  20  34  52  77 107 138 174 214 257 306
#     4  11  21  33  52  79 109 139 173 217 265 307
#     4   9  16  28  46  71 103 137 173 211 254 306
#     4  10  21  38  58  77 100 135 175 213 259 317
#     4  10  21  37  56  78 103 133 171 213 259 314
#
# _framework density 17.218791
#
# number of rings (size 3 to 8) (size 9 to 14) (size 15 to 20)
#    0.000    2.333    0.000    4.500    0.000    7.333 
#    0.000    0.000    0.000    1.000    0.000    4.667 
#    0.000    0.000    0.000    0.000    0.000    0.000 
#
# Total GULP energy -133833.164565 kJ/mol
# GULP energy per Si atom -5576.381857 kJ/mol
# Density = 1.717960 g / cm^3
# Si number density = 17.218791 Si / 1000 Ang^3
#
#
#
# Elastic Constant Matrix: (Units=GPa)
#
#
# Indices 1 2 3 4 5 6 
#
# 1 131.5740 93.6882 51.3399 0.0000 0.0000 0.0000
# 2 93.6882 153.8620 81.0376 0.0000 0.0000 0.0000
# 3 51.3399 81.0376 58.9034 0.0000 0.0000 0.0000
# 4 0.0000 0.0000 0.0000 -14.9955 0.0000 0.0000
# 5 0.0000 0.0000 0.0000 0.0000 24.6915 0.0000
# 6 0.0000 0.0000 0.0000 0.0000 0.0000 34.0562
#
#
#
# Elastic Compliance Matrix: (Units=1/GPa)
#
#
# Indices 1 2 3 4 5 6 
#
# 1 0.013462 -0.007325 -0.001656 0.000000 0.000000 0.000000
# 2 -0.007325 0.027586 -0.031567 0.000000 0.000000 0.000000
# 3 -0.001656 -0.031567 0.061850 0.000000 0.000000 0.000000
# 4 0.000000 0.000000 0.000000 -0.066687 0.000000 0.000000
# 5 0.000000 0.000000 0.000000 0.000000 0.040500 0.000000
# 6 0.000000 0.000000 0.000000 0.000000 0.000000 0.029363
#
#
# Mechanical properties :
#
#
# Convention : Reuss Voigt Hill
#
# Bulk Modulus (GPa) = 45.86933 88.49677 67.18305
# Shear Modulus (GPa) = 25.71514 16.63536 21.17525
#
# Velocity S-wave (km/s) = 3.86869 3.11161 3.51062
# Velocity P-wave (km/s) = 6.83027 8.02599 7.45215
#
# Compressibility (1/GPa) = 0.02180106
#
# Stress axis : x y z
#
# Youngs Moduli (GPa) = 74.28086 36.25033 16.16827
#
# Poissons Ratio (x) = 0.26554 0.02677
# Poissons Ratio (y) = 0.54413 0.51039
# Poissons Ratio (z) = 0.12300 1.14432
#
# Static dielectric constant tensor:
#      x y z
#    x 1.579100 0.000000 0.000000 
#    y 0.000000 1.596960 0.000000 
#    z 0.000000 0.000000 1.549560 
# 
# From -- ./inp_files/5318.got.cif
#   From: 2010.05.17/outbox.cif.g08.bks.cpg/sg35_3_cif.got.tgz:5318.got - 2010.06.03 17:29:28.
