data_PCOD9348115
_publ_section_title
;
Structure prediction by ZEFSAII (Michael W. Deem and Ramdas Pophale) SiO2 
 PCOD9348115
Probable space group: C M M 2
;
_chemical_formula_sum "Si O2"
_cell_formula_units_Z 54
_cell_length_a 14.345234
_cell_length_b 15.196616
_cell_length_c 10.784668
_cell_angle_alpha 90.000000
_cell_angle_beta 90.000000
_cell_angle_gamma 90.000000
_cell_volume 2351.046974
_symmetry_space_group_name_H-M "C M M 2"
_symmetry_group_IT_number 35
_symmetry_cell_setting 'orthorhombic'
loop_
_space_group_symop_operation_xyz
x,y,z
-x,-y,z
-x,y,z
x,-y,z
1/2+x,1/2+y,z
1/2-x,1/2-y,z
1/2-x,1/2+y,z
1/2+x,1/2-y,z
loop_
_atom_site_type_symbol
_atom_site_label
_atom_site_fract_x
_atom_site_fract_y
_atom_site_fract_z
Si Si1 0.605782 0.900091 0.676600
Si Si2 0.608557 0.406798 0.163643
Si Si3 0.112271 0.238828 0.978127
Si Si4 0.366191 0.642267 0.446174
Si Si5 0.500000 0.500000 0.552614
Si Si6 0.388078 0.900151 0.138739
Si Si7 0.250000 0.750000 0.770873
Si Si8 0.147039 0.655743 0.421785
O O1 0.500000 0.876545 0.723099
O O2 0.686566 0.827082 0.706658
O O3 0.599733 0.901784 0.527129
O O4 0.627263 0.000000 0.720413
O O5 0.500000 0.410609 0.130028
O O6 0.651877 0.500000 0.129216
O O7 0.611567 0.395342 0.310228
O O8 0.643976 0.323090 0.091649
O O9 0.170190 0.209472 0.859355
O O10 0.000000 0.234573 0.960617
O O11 0.138142 0.336225 0.025846
O O12 0.419089 0.578530 0.540063
O O13 0.255580 0.644611 0.453942
O O14 0.390508 0.745400 0.444318
O O15 0.500000 0.897909 0.140619
O O16 0.360784 0.867486 0.276662
O O17 0.357991 0.000000 0.121576
#
# Coordination Sequence:
#
# PCOD9348115 Si02
#       8
#     8   8   8   8   2   8   4   8
#     4  11  27  52  79 104 140 191 245 308 378 432
#     4  10  18  33  54  87 131 183 225 265 335 421
#     4  10  23  40  64  94 137 180 228 297 365 427
#     4  11  22  36  57  96 149 190 230 279 342 431
#     4  12  24  36  60 100 144 222 228 276 356 440
#     4  10  21  36  60  98 139 183 235 286 356 441
#     4  12  26  48  72 102 128 184 256 316 346 428
#     4  11  24  40  67 101 143 186 237 302 356 437
#
# _framework density 22.968491
#
# number of rings (size 3 to 8) (size 9 to 14) (size 15 to 20)
#    0.000    1.333    2.963    2.222    6.222    2.370 
#    0.000    1.481    0.000    1.333    0.000    0.000 
#    0.000    0.000    0.000    0.000    0.000    0.000 
#
# Total GULP energy -150391.748608 kJ/mol
# GULP energy per Si atom -5570.064763 kJ/mol
# Density = 2.291621 g / cm^3
# Si number density = 22.968491 Si / 1000 Ang^3
#
#
#
# Elastic Constant Matrix: (Units=GPa)
#
#
# Indices 1 2 3 4 5 6 
#
# 1 155.4209 46.8054 16.8397 0.0000 0.0000 0.0000
# 2 46.8054 161.4220 16.5189 0.0000 0.0000 0.0000
# 3 16.8397 16.5189 51.2303 0.0000 0.0000 0.0000
# 4 0.0000 0.0000 0.0000 -22.3185 0.0000 0.0000
# 5 0.0000 0.0000 0.0000 0.0000 26.2210 0.0000
# 6 0.0000 0.0000 0.0000 0.0000 0.0000 32.4047
#
#
#
# Elastic Compliance Matrix: (Units=1/GPa)
#
#
# Indices 1 2 3 4 5 6 
#
# 1 0.007198 -0.001908 -0.001751 0.000000 0.000000 0.000000
# 2 -0.001908 0.006912 -0.001602 0.000000 0.000000 0.000000
# 3 -0.001751 -0.001602 0.020612 0.000000 0.000000 0.000000
# 4 0.000000 0.000000 0.000000 -0.044806 0.000000 0.000000
# 5 0.000000 0.000000 0.000000 0.000000 0.038137 0.000000
# 6 0.000000 0.000000 0.000000 0.000000 0.000000 0.030860
#
#
# Mechanical properties :
#
#
# Convention : Reuss Voigt Hill
#
# Bulk Modulus (GPa) = 41.32047 58.71126 50.01587
# Shear Modulus (GPa) = 64.51480 26.45539 45.48510
#
# Velocity S-wave (km/s) = 5.30560 3.39752 4.45491
# Velocity P-wave (km/s) = 7.45397 6.40375 6.94873
#
# Compressibility (1/GPa) = 0.02420108
#
# Stress axis : x y z
#
# Youngs Moduli (GPa) = 138.91835 144.67399 48.51623
#
# Poissons Ratio (x) = 0.27605 0.08495
# Poissons Ratio (y) = 0.26507 0.07770
# Poissons Ratio (z) = 0.24324 0.23170
#
# Static dielectric constant tensor:
#      x y z
#    x 1.893850 0.000000 0.000000 
#    y 0.000000 1.908890 0.000000 
#    z 0.000000 0.000000 1.881840 
# 
# From -- ./inp_files/13045.got.cif
#   From: 2010.05.17/outbox.cif.g08.bks.cpg/sg35_7_cif.got.tgz:13045.got - 2010.06.03 17:29:28.
