data_PCOD9348792
_publ_section_title
;
Structure prediction by ZEFSAII (Michael W. Deem and Ramdas Pophale) SiO2 
 PCOD9348792
Probable space group: C M M 2
;
_chemical_formula_sum "Si O2"
_cell_formula_units_Z 64
_cell_length_a 8.929901
_cell_length_b 15.097997
_cell_length_c 21.920321
_cell_angle_alpha 90.000000
_cell_angle_beta 90.000000
_cell_angle_gamma 90.000000
_cell_volume 2955.376996
_symmetry_space_group_name_H-M "C M M 2"
_symmetry_group_IT_number 35
_symmetry_cell_setting 'orthorhombic'
loop_
_space_group_symop_operation_xyz
x,y,z
-x,-y,z
-x,y,z
x,-y,z
1/2+x,1/2+y,z
1/2-x,1/2-y,z
1/2-x,1/2+y,z
1/2+x,1/2-y,z
loop_
_atom_site_type_symbol
_atom_site_label
_atom_site_fract_x
_atom_site_fract_y
_atom_site_fract_z
Si Si1 0.671375 0.108946 0.990630
Si Si2 0.820404 0.849073 0.356494
Si Si3 0.166377 0.895827 0.868986
Si Si4 0.321821 0.847611 0.235612
Si Si5 0.179723 0.349209 0.611589
Si Si6 0.320658 0.349009 0.490547
Si Si7 0.333730 0.604615 0.112252
Si Si8 0.178971 0.652640 0.744963
O O1 0.500000 0.137550 0.994188
O O2 0.745662 0.139681 0.927530
O O3 0.670713 0.000000 0.990841
O O4 0.761278 0.139795 0.050177
O O5 0.750000 0.750000 0.359146
O O6 0.748010 0.891677 0.296424
O O7 0.790281 0.889241 0.423548
O O8 0.000000 0.843494 0.348974
O O9 0.253385 0.889024 0.805523
O O10 0.000000 0.856148 0.863281
O O11 0.150436 0.000000 0.881198
O O12 0.500000 0.845189 0.240658
O O13 0.250000 0.750000 0.234697
O O14 0.269693 0.886187 0.171327
O O15 0.250000 0.250000 0.613683
O O16 0.249693 0.391701 0.550939
O O17 0.213469 0.389178 0.678411
O O18 0.000000 0.343773 0.605244
O O19 0.500000 0.342953 0.497554
O O20 0.250000 0.250000 0.488374
O O21 0.500000 0.642579 0.123874
O O22 0.349631 0.500000 0.102238
O O23 0.250000 0.750000 0.743649
O O24 0.000000 0.656781 0.749845
#
# Coordination Sequence:
#
# PCOD9348792 Si02
#       8
#     8   8   8   8   8   8   8   8
#     4   9  17  31  52  76 100 126 159 199 240 283
#     4   9  16  26  40  61  90 123 159 197 240 286
#     4  10  20  34  53  76 100 128 163 201 241 287
#     4  11  21  33  50  72 101 134 166 201 244 292
#     4   9  16  25  39  60  88 121 156 194 237 284
#     4   9  15  22  36  58  85 118 155 195 236 280
#     4  10  20  35  55  77 101 129 162 200 241 287
#     4  10  20  33  49  71 100 133 165 200 245 292
#
# _framework density 21.655445
#
# number of rings (size 3 to 8) (size 9 to 14) (size 15 to 20)
#    0.000    2.375    0.000    5.250    0.000    6.000 
#    0.000    0.625    0.000    0.000    0.000    0.875 
#    0.000    5.000    0.000    0.000    0.000    0.000 
#
# Total GULP energy -178497.140948 kJ/mol
# GULP energy per Si atom -5578.035655 kJ/mol
# Density = 2.160616 g / cm^3
# Si number density = 21.655445 Si / 1000 Ang^3
#
#
#
# Elastic Constant Matrix: (Units=GPa)
#
#
# Indices 1 2 3 4 5 6 
#
# 1 163.2489 7.4361 102.6702 0.0000 0.0000 0.0000
# 2 7.4361 35.2420 9.9340 0.0000 0.0000 0.0000
# 3 102.6702 9.9340 234.0574 0.0000 0.0000 0.0000
# 4 0.0000 0.0000 0.0000 30.5319 0.0000 0.0000
# 5 0.0000 0.0000 0.0000 0.0000 -77.1782 0.0000
# 6 0.0000 0.0000 0.0000 0.0000 0.0000 9.3411
#
#
#
# Elastic Compliance Matrix: (Units=1/GPa)
#
#
# Indices 1 2 3 4 5 6 
#
# 1 0.008479 -0.000750 -0.003687 0.000000 0.000000 0.000000
# 2 -0.000750 0.028785 -0.000893 0.000000 0.000000 0.000000
# 3 -0.003687 -0.000893 0.005928 0.000000 0.000000 0.000000
# 4 0.000000 0.000000 0.000000 0.032753 0.000000 0.000000
# 5 0.000000 0.000000 0.000000 0.000000 -0.012957 0.000000
# 6 0.000000 0.000000 0.000000 0.000000 0.000000 0.107053
#
#
# Mechanical properties :
#
#
# Convention : Reuss Voigt Hill
#
# Bulk Modulus (GPa) = 30.73910 74.73656 52.73783
# Shear Modulus (GPa) = 26.10354 13.37282 19.73818
#
# Velocity S-wave (km/s) = 3.47566 2.48770 3.02232
# Velocity P-wave (km/s) = 5.50748 6.54509 6.04858
#
# Compressibility (1/GPa) = 0.03253186
#
# Stress axis : x y z
#
# Youngs Moduli (GPa) = 117.94010 34.74020 168.69439
#
# Poissons Ratio (x) = 0.02604 0.62206
# Poissons Ratio (y) = 0.08841 0.15063
# Poissons Ratio (z) = 0.43490 0.03102
#
# Static dielectric constant tensor:
#      x y z
#    x 1.750370 0.000000 0.000000 
#    y 0.000000 1.815200 0.000000 
#    z 0.000000 0.000000 1.848430 
# 
# From -- ./inp_files/18497.got.cif
#   From: 2010.05.17/outbox.cif.g08.bks.cpg/sg35_10_cif.got.tgz:18497.got - 2010.06.03 17:29:28.
