data_PCOD9348183
_publ_section_title
;
Structure prediction by ZEFSAII (Michael W. Deem and Ramdas Pophale) SiO2 
 PCOD9348183
Probable space group: C M M 2
;
_chemical_formula_sum "Si O2"
_cell_formula_units_Z 56
_cell_length_a 9.097319
_cell_length_b 31.007448
_cell_length_c 12.851538
_cell_angle_alpha 90.000000
_cell_angle_beta 90.000000
_cell_angle_gamma 90.000000
_cell_volume 3625.221545
_symmetry_space_group_name_H-M "C M M 2"
_symmetry_group_IT_number 35
_symmetry_cell_setting 'orthorhombic'
loop_
_space_group_symop_operation_xyz
x,y,z
-x,-y,z
-x,y,z
x,-y,z
1/2+x,1/2+y,z
1/2-x,1/2-y,z
1/2-x,1/2+y,z
1/2+x,1/2-y,z
loop_
_atom_site_type_symbol
_atom_site_label
_atom_site_fract_x
_atom_site_fract_y
_atom_site_fract_z
Si Si1 0.673339 0.448255 0.675810
Si Si2 0.331346 0.052378 0.462885
Si Si3 0.324722 0.449679 0.250032
Si Si4 0.677880 0.112000 0.842762
Si Si5 0.832451 0.707371 0.826580
Si Si6 0.669907 0.206431 0.079803
Si Si7 0.323843 0.382586 0.067481
O O1 0.500000 0.438816 0.682837
O O2 0.691646 0.500000 0.685373
O O3 0.737479 0.434802 0.563532
O O4 0.761947 0.424047 0.765682
O O5 0.500000 0.066757 0.471954
O O6 0.259599 0.065241 0.353480
O O7 0.330955 0.000000 0.462219
O O8 0.500000 0.447767 0.269823
O O9 0.287650 0.500000 0.229609
O O10 0.292615 0.419651 0.151616
O O11 0.500000 0.111658 0.850004
O O12 0.724660 0.159586 0.801046
O O13 0.747291 0.107143 0.957312
O O14 0.750000 0.750000 0.789892
O O15 0.000000 0.710111 0.791559
O O16 0.831191 0.708153 0.953134
O O17 0.500000 0.204440 0.113289
O O18 0.750000 0.250000 0.116096
O O19 0.758255 0.163067 0.105811
O O20 0.500000 0.379089 0.053482
#
# Coordination Sequence:
#
# PCOD9348183 Si02
#       7
#     8   8   8   8   8   8   8
#     4  10  20  33  49  68  91 121 156 192 231 275
#     4   9  17  30  49  70  89 112 148 194 237 272
#     4   9  18  32  48  66  91 123 157 192 228 269
#     4  10  20  32  45  66  96 126 157 191 228 274
#     4   8  15  26  41  61  85 114 147 184 223 263
#     4   9  16  27  43  63  88 118 153 192 232 273
#     4  10  19  30  45  67  96 128 159 190 228 276
#
# _framework density 15.447331999999999
#
# number of rings (size 3 to 8) (size 9 to 14) (size 15 to 20)
#    0.000    2.714    0.000    3.000    0.000    8.286 
#    0.000    1.429    0.000    0.000    0.000    1.000 
#    0.000    2.286    0.000    0.000    0.000    0.000 
#
# Total GULP energy -155962.888463 kJ/mol
# GULP energy per Si atom -5570.103159 kJ/mol
# Density = 1.541217 g / cm^3
# Si number density = 15.447332 Si / 1000 Ang^3
#
#
#
# Elastic Constant Matrix: (Units=GPa)
#
#
# Indices 1 2 3 4 5 6 
#
# 1 89.7875 54.9958 52.8252 0.0000 0.0000 0.0000
# 2 54.9958 77.8729 49.8288 0.0000 0.0000 0.0000
# 3 52.8252 49.8288 77.1251 0.0000 0.0000 0.0000
# 4 0.0000 0.0000 0.0000 -1.8698 0.0000 0.0000
# 5 0.0000 0.0000 0.0000 0.0000 16.0042 0.0000
# 6 0.0000 0.0000 0.0000 0.0000 0.0000 26.5616
#
#
#
# Elastic Compliance Matrix: (Units=1/GPa)
#
#
# Indices 1 2 3 4 5 6 
#
# 1 0.022689 -0.010364 -0.008844 0.000000 0.000000 0.000000
# 2 -0.010364 0.026626 -0.010104 0.000000 0.000000 0.000000
# 3 -0.008844 -0.010104 0.025551 0.000000 0.000000 0.000000
# 4 0.000000 0.000000 0.000000 -0.534815 0.000000 0.000000
# 5 0.000000 0.000000 0.000000 0.000000 0.062484 0.000000
# 6 0.000000 0.000000 0.000000 0.000000 0.000000 0.037648
#
#
# Mechanical properties :
#
#
# Convention : Reuss Voigt Hill
#
# Bulk Modulus (GPa) = 61.56875 62.23168 61.90022
# Shear Modulus (GPa) = -16.90458 13.94825 -1.47817
#
# Velocity S-wave (km/s) = -3.31166 3.00818 -0.97928
# Velocity P-wave (km/s) = 5.03199 7.24150 6.23539
#
# Compressibility (1/GPa) = 0.01624201
#
# Stress axis : x y z
#
# Youngs Moduli (GPa) = 44.07404 37.55716 39.13692
#
# Poissons Ratio (x) = 0.38926 0.34613
# Poissons Ratio (y) = 0.45680 0.39542
# Poissons Ratio (z) = 0.38980 0.37946
#
# Static dielectric constant tensor:
#      x y z
#    x 1.523430 0.000000 0.000000 
#    y 0.000000 1.520360 0.000000 
#    z 0.000000 0.000000 1.484720 
# 
# From -- ./inp_files/16086.got.cif
#   From: 2010.05.17/outbox.cif.g08.bks.cpg/sg35_9_cif.got.tgz:16086.got - 2010.06.03 17:29:28.
