data_PCOD9348100
_publ_section_title
;
Structure prediction by ZEFSAII (Michael W. Deem and Ramdas Pophale) SiO2 
 PCOD9348100
Probable space group: C M M 2
;
_chemical_formula_sum "Si O2"
_cell_formula_units_Z 56
_cell_length_a 20.562964
_cell_length_b 14.527078
_cell_length_c 8.924648
_cell_angle_alpha 90.000000
_cell_angle_beta 90.000000
_cell_angle_gamma 90.000000
_cell_volume 2665.968904
_symmetry_space_group_name_H-M "C M M 2"
_symmetry_group_IT_number 35
_symmetry_cell_setting 'orthorhombic'
loop_
_space_group_symop_operation_xyz
x,y,z
-x,-y,z
-x,y,z
x,-y,z
1/2+x,1/2+y,z
1/2-x,1/2-y,z
1/2-x,1/2+y,z
1/2+x,1/2-y,z
loop_
_atom_site_type_symbol
_atom_site_label
_atom_site_fract_x
_atom_site_fract_y
_atom_site_fract_z
Si Si1 0.684895 0.197707 0.573340
Si Si2 0.603012 0.889669 0.028548
Si Si3 0.373038 0.605075 0.968943
Si Si4 0.930802 0.747869 0.776787
Si Si5 0.574935 0.188913 0.356086
Si Si6 0.766334 0.390796 0.876476
Si Si7 0.923877 0.899667 0.296189
O O1 0.750000 0.250000 0.513769
O O2 0.630301 0.254807 0.666490
O O3 0.637098 0.150782 0.450353
O O4 0.713617 0.136317 0.708687
O O5 0.572303 0.843536 0.880110
O O6 0.678662 0.867658 0.997211
O O7 0.592709 0.000000 0.033666
O O8 0.581216 0.842851 0.182908
O O9 0.379232 0.500000 0.915574
O O10 0.425653 0.669062 0.892827
O O11 0.303420 0.646240 0.923335
O O12 0.381515 0.603703 0.146300
O O13 0.000000 0.751051 0.696951
O O14 0.500000 0.164258 0.399452
O O15 0.584007 0.299882 0.369695
O O16 0.761187 0.500000 0.880994
O O17 0.000000 0.902161 0.252652
O O18 0.910599 0.000000 0.372429
#
# Coordination Sequence:
#
# PCOD9348100 Si02
#       7
#     8   8   8   8   8   8   8
#     4  11  23  40  58  83 116 163 201 240 293 352
#     4  10  22  39  62  89 118 153 199 250 299 349
#     4  10  18  32  60  93 121 149 189 239 293 354
#     4  11  21  37  62  91 121 153 194 246 300 354
#     4  11  23  39  58  86 120 157 204 250 296 352
#     4   9  20  39  61  87 119 154 197 247 296 351
#     4   9  18  34  56  86 122 154 187 237 299 357
#
# _framework density 21.005496000000001
#
# number of rings (size 3 to 8) (size 9 to 14) (size 15 to 20)
#    0.000    1.857    2.857    1.286    0.000    3.714 
#    0.000    1.429    0.000    4.286    0.000    0.000 
#    0.000    0.000    0.000    0.000    0.000    0.000 
#
# Total GULP energy -155934.393259 kJ/mol
# GULP energy per Si atom -5569.085474 kJ/mol
# Density = 2.095769 g / cm^3
# Si number density = 21.005496 Si / 1000 Ang^3
#
#
#
# Elastic Constant Matrix: (Units=GPa)
#
#
# Indices 1 2 3 4 5 6 
#
# 1 141.8588 19.2659 38.1988 0.0000 0.0000 0.0000
# 2 19.2659 75.2262 7.2142 0.0000 0.0000 0.0000
# 3 38.1988 7.2142 67.6659 0.0000 0.0000 0.0000
# 4 0.0000 0.0000 0.0000 11.3749 0.0000 0.0000
# 5 0.0000 0.0000 0.0000 0.0000 17.9022 0.0000
# 6 0.0000 0.0000 0.0000 0.0000 0.0000 -11.2440
#
#
#
# Elastic Compliance Matrix: (Units=1/GPa)
#
#
# Indices 1 2 3 4 5 6 
#
# 1 0.008533 -0.001741 -0.004631 0.000000 0.000000 0.000000
# 2 -0.001741 0.013786 -0.000487 0.000000 0.000000 0.000000
# 3 -0.004631 -0.000487 0.017445 0.000000 0.000000 0.000000
# 4 0.000000 0.000000 0.000000 0.087913 0.000000 0.000000
# 5 0.000000 0.000000 0.000000 0.000000 0.055859 0.000000
# 6 0.000000 0.000000 0.000000 0.000000 0.000000 -0.088936
#
#
# Mechanical properties :
#
#
# Convention : Reuss Voigt Hill
#
# Bulk Modulus (GPa) = 38.39527 46.01207 42.20367
# Shear Modulus (GPa) = 42.73524 18.27809 30.50666
#
# Velocity S-wave (km/s) = 4.51541 2.95304 3.81506
# Velocity P-wave (km/s) = 6.74564 5.79479 6.28821
#
# Compressibility (1/GPa) = 0.02604487
#
# Stress axis : x y z
#
# Youngs Moduli (GPa) = 117.19457 72.53809 57.32344
#
# Poissons Ratio (x) = 0.12630 0.26548
# Poissons Ratio (y) = 0.20405 0.02791
# Poissons Ratio (z) = 0.54277 0.03532
#
# Static dielectric constant tensor:
#      x y z
#    x 1.900220 0.000000 0.000000 
#    y 0.000000 1.782200 0.000000 
#    z 0.000000 0.000000 1.763070 
# 
# From -- ./inp_files/7643.got.cif
#   From: 2010.05.17/outbox.cif.g08.bks.cpg/sg35_4_cif.got.tgz:7643.got - 2010.06.03 17:29:28.
