data_PCOD9348807
_publ_section_title
;
Structure prediction by ZEFSAII (Michael W. Deem and Ramdas Pophale) SiO2 
 PCOD9348807
Probable space group: C M M 2
;
_chemical_formula_sum "Si O2"
_cell_formula_units_Z 64
_cell_length_a 9.253918
_cell_length_b 14.718203
_cell_length_c 21.546873
_cell_angle_alpha 90.000000
_cell_angle_beta 90.000000
_cell_angle_gamma 90.000000
_cell_volume 2934.706590
_symmetry_space_group_name_H-M "C M M 2"
_symmetry_group_IT_number 35
_symmetry_cell_setting 'orthorhombic'
loop_
_space_group_symop_operation_xyz
x,y,z
-x,-y,z
-x,y,z
x,-y,z
1/2+x,1/2+y,z
1/2-x,1/2-y,z
1/2-x,1/2+y,z
1/2+x,1/2-y,z
loop_
_atom_site_type_symbol
_atom_site_label
_atom_site_fract_x
_atom_site_fract_y
_atom_site_fract_z
Si Si1 0.674473 0.151870 0.573220
Si Si2 0.840316 0.393340 0.432874
Si Si3 0.163976 0.611209 0.194341
Si Si4 0.333120 0.610748 0.072542
Si Si5 0.337377 0.388618 0.316481
Si Si6 0.825916 0.151366 0.693171
Si Si7 0.832391 0.111135 0.934536
Si Si8 0.160923 0.393116 0.816001
O O1 0.500000 0.155773 0.583426
O O2 0.750000 0.250000 0.568785
O O3 0.700642 0.111816 0.505082
O O4 0.753586 0.106347 0.632101
O O5 0.853100 0.500000 0.418720
O O6 0.731015 0.357767 0.381538
O O7 0.000000 0.351259 0.426616
O O8 0.164132 0.500000 0.193902
O O9 0.241029 0.641013 0.131142
O O10 0.245326 0.638707 0.256824
O O11 0.000000 0.642411 0.195713
O O12 0.500000 0.638276 0.079550
O O13 0.331339 0.500000 0.073147
O O14 0.282743 0.638086 0.003654
O O15 0.500000 0.356022 0.310340
O O16 0.341023 0.500000 0.316374
O O17 0.750000 0.250000 0.693297
O O18 0.769784 0.113544 0.758288
O O19 0.000000 0.153531 0.688897
O O20 0.732394 0.144279 0.878630
O O21 0.000000 0.138365 0.926000
O O22 0.832284 0.000000 0.933296
O O23 0.143312 0.500000 0.826715
O O24 0.000000 0.354585 0.802365
#
# Coordination Sequence:
#
# PCOD9348807 Si02
#       8
#     8   8   8   8   8   8   8   8
#     4  10  20  35  54  74  97 125 156 192 236 284
#     4   9  18  32  49  69  94 124 156 191 233 279
#     4   9  15  21  31  49  76 112 152 190 228 274
#     4   8  13  21  33  50  76 112 152 191 230 274
#     4   9  16  25  38  57  83 115 150 189 232 276
#     4  11  22  37  56  75  98 127 161 200 242 289
#     4   8  14  25  40  59  86 120 156 194 237 282
#     4  10  20  33  50  73 101 131 163 200 242 289
#
# _framework density 21.807970999999998
#
# number of rings (size 3 to 8) (size 9 to 14) (size 15 to 20)
#    0.000    2.750    0.000    4.125    0.000    5.750 
#    0.000    3.750    0.000    0.000    0.000    0.000 
#    0.000    1.000    0.000    7.000    0.000   10.125 
#
# Total GULP energy -178529.092091 kJ/mol
# GULP energy per Si atom -5579.034128 kJ/mol
# Density = 2.175833 g / cm^3
# Si number density = 21.807971 Si / 1000 Ang^3
#
#
#
# Elastic Constant Matrix: (Units=GPa)
#
#
# Indices 1 2 3 4 5 6 
#
# 1 177.4841 10.6402 139.7545 0.0000 0.0000 0.0000
# 2 10.6402 43.6378 0.5495 0.0000 0.0000 0.0000
# 3 139.7545 0.5495 217.1844 0.0000 0.0000 0.0000
# 4 0.0000 0.0000 0.0000 61.0080 0.0000 0.0000
# 5 0.0000 0.0000 0.0000 0.0000 45.0483 0.0000
# 6 0.0000 0.0000 0.0000 0.0000 0.0000 6.8682
#
#
#
# Elastic Compliance Matrix: (Units=1/GPa)
#
#
# Indices 1 2 3 4 5 6 
#
# 1 0.011747 -0.002769 -0.007552 0.000000 0.000000 0.000000
# 2 -0.002769 0.023569 0.001722 0.000000 0.000000 0.000000
# 3 -0.007552 0.001722 0.009460 0.000000 0.000000 0.000000
# 4 0.000000 0.000000 0.000000 0.016391 0.000000 0.000000
# 5 0.000000 0.000000 0.000000 0.000000 0.022198 0.000000
# 6 0.000000 0.000000 0.000000 0.000000 0.000000 0.145599
#
#
# Mechanical properties :
#
#
# Convention : Reuss Voigt Hill
#
# Bulk Modulus (GPa) = 36.26045 82.24388 59.25216
# Shear Modulus (GPa) = 19.58060 41.74236 30.66148
#
# Velocity S-wave (km/s) = 2.99969 4.37977 3.75370
# Velocity P-wave (km/s) = 5.35357 7.96060 6.78351
#
# Compressibility (1/GPa) = 0.02757826
#
# Stress axis : x y z
#
# Youngs Moduli (GPa) = 85.12948 42.42786 105.71355
#
# Poissons Ratio (x) = 0.11749 0.79833
# Poissons Ratio (y) = 0.23573 -0.18207
# Poissons Ratio (z) = 0.64289 -0.07307
#
# Static dielectric constant tensor:
#      x y z
#    x 1.766870 0.000000 0.000000 
#    y 0.000000 1.898170 0.000000 
#    z 0.000000 0.000000 1.816240 
# 
# From -- ./inp_files/18503.got.cif
#   From: 2010.05.17/outbox.cif.g08.bks.cpg/sg35_10_cif.got.tgz:18503.got - 2010.06.03 17:29:28.
