data_PCOD9348580
_publ_section_title
;
Structure prediction by ZEFSAII (Michael W. Deem and Ramdas Pophale) SiO2 
 PCOD9348580
Probable space group: C M M 2
;
_chemical_formula_sum "Si O2"
_cell_formula_units_Z 40
_cell_length_a 8.322947
_cell_length_b 26.504786
_cell_length_c 9.442262
_cell_angle_alpha 90.000000
_cell_angle_beta 90.000000
_cell_angle_gamma 90.000000
_cell_volume 2082.943443
_symmetry_space_group_name_H-M "C M M 2"
_symmetry_group_IT_number 35
_symmetry_cell_setting 'orthorhombic'
loop_
_space_group_symop_operation_xyz
x,y,z
-x,-y,z
-x,y,z
x,-y,z
1/2+x,1/2+y,z
1/2-x,1/2-y,z
1/2-x,1/2+y,z
1/2+x,1/2-y,z
loop_
_atom_site_type_symbol
_atom_site_label
_atom_site_fract_x
_atom_site_fract_y
_atom_site_fract_z
Si Si1 0.809166 0.194298 0.464530
Si Si2 0.696575 0.000000 0.464224
Si Si3 0.696505 0.901510 0.965299
Si Si4 0.307571 0.805528 0.785976
Si Si5 0.305887 0.098514 0.290502
Si Si6 0.303693 0.000000 0.790689
O O1 0.750000 0.250000 0.421390
O O2 0.749496 0.185424 0.625238
O O3 0.746428 0.150162 0.364203
O O4 0.000000 0.194403 0.464987
O O5 0.748810 0.949755 0.381594
O O6 0.748867 0.000000 0.627528
O O7 0.500000 0.000000 0.464498
O O8 0.500000 0.901564 0.965701
O O9 0.748859 0.850110 0.888655
O O10 0.747424 0.949968 0.874376
O O11 0.749332 0.904607 0.127940
O O12 0.500000 0.805625 0.784682
O O13 0.250000 0.750000 0.829740
O O14 0.500000 0.097226 0.289294
O O15 0.500000 0.000000 0.789613
#
# Coordination Sequence:
#
# PCOD9348580 Si02
#       6
#     8   4   8   8   8   4
#     4  11  22  37  56  79 105 140 180 224 269 318
#     4   9  17  29  54  83 110 143 180 218 260 309
#     4   9  18  30  50  78 110 140 173 216 264 312
#     4  10  19  34  54  78 105 138 177 221 264 314
#     4  10  19  34  54  81 112 144 178 218 265 317
#     4   9  15  27  47  77 108 137 174 218 260 305
#
# _framework density 19.203593999999999
#
# number of rings (size 3 to 8) (size 9 to 14) (size 15 to 20)
#    0.000    2.200    0.000    5.400    0.000    6.400 
#    0.000    4.500    0.000    0.000    0.000    4.900 
#    0.000    0.000    0.000    0.000    0.000    0.000 
#
# Total GULP energy -111697.922968 kJ/mol
# GULP energy per Si atom -5584.896148 kJ/mol
# Density = 1.915989 g / cm^3
# Si number density = 19.203594 Si / 1000 Ang^3
#
#
#
# Elastic Constant Matrix: (Units=GPa)
#
#
# Indices 1 2 3 4 5 6 
#
# 1 26.5897 18.9469 20.9168 0.0000 0.0000 0.0000
# 2 18.9469 204.6624 152.9930 0.0000 0.0000 0.0000
# 3 20.9168 152.9930 187.1005 0.0000 0.0000 0.0000
# 4 0.0000 0.0000 0.0000 5.5182 0.0000 0.0000
# 5 0.0000 0.0000 0.0000 0.0000 12.3212 0.0000
# 6 0.0000 0.0000 0.0000 0.0000 0.0000 25.2908
#
#
#
# Elastic Compliance Matrix: (Units=1/GPa)
#
#
# Indices 1 2 3 4 5 6 
#
# 1 0.041308 -0.000957 -0.003835 0.000000 0.000000 0.000000
# 2 -0.000957 0.012591 -0.010189 0.000000 0.000000 0.000000
# 3 -0.003835 -0.010189 0.014105 0.000000 0.000000 0.000000
# 4 0.000000 0.000000 0.000000 0.181218 0.000000 0.000000
# 5 0.000000 0.000000 0.000000 0.000000 0.081161 0.000000
# 6 0.000000 0.000000 0.000000 0.000000 0.000000 0.039540
#
#
# Mechanical properties :
#
#
# Convention : Reuss Voigt Hill
#
# Bulk Modulus (GPa) = 26.28733 89.34068 57.81400
# Shear Modulus (GPa) = 12.11926 23.65910 17.88918
#
# Velocity S-wave (km/s) = 2.51488 3.51381 3.05545
# Velocity P-wave (km/s) = 4.70652 7.94270 6.52831
#
# Compressibility (1/GPa) = 0.03804114
#
# Stress axis : x y z
#
# Youngs Moduli (GPa) = 24.20866 79.41906 70.89594
#
# Poissons Ratio (x) = 0.07600 0.27192
# Poissons Ratio (y) = 0.02317 0.72237
# Poissons Ratio (z) = 0.09285 0.80921
#
# Static dielectric constant tensor:
#      x y z
#    x 1.672050 0.000000 0.000000 
#    y 0.000000 1.656950 0.000000 
#    z 0.000000 0.000000 1.646180 
# 
# From -- ./inp_files/5018.got.cif
#   From: 2010.05.17/outbox.cif.g08.bks.cpg/sg35_3_cif.got.tgz:5018.got - 2010.06.03 17:29:28.
