data_PCOD9348724
_publ_section_title
;
Structure prediction by ZEFSAII (Michael W. Deem and Ramdas Pophale) SiO2 
 PCOD9348724
Probable space group: C M M 2
;
_chemical_formula_sum "Si O2"
_cell_formula_units_Z 58
_cell_length_a 20.809934
_cell_length_b 15.762550
_cell_length_c 8.435380
_cell_angle_alpha 90.000000
_cell_angle_beta 90.000000
_cell_angle_gamma 90.000000
_cell_volume 2766.953315
_symmetry_space_group_name_H-M "C M M 2"
_symmetry_group_IT_number 35
_symmetry_cell_setting 'orthorhombic'
loop_
_space_group_symop_operation_xyz
x,y,z
-x,-y,z
-x,y,z
x,-y,z
1/2+x,1/2+y,z
1/2-x,1/2-y,z
1/2-x,1/2+y,z
1/2+x,1/2-y,z
loop_
_atom_site_type_symbol
_atom_site_label
_atom_site_fract_x
_atom_site_fract_y
_atom_site_fract_z
Si Si1 0.315348 0.821479 0.533290
Si Si2 0.858705 0.207231 0.813001
Si Si3 0.000000 0.500000 0.924930
Si Si4 0.307506 0.644795 0.373223
Si Si5 0.391366 0.862169 0.013731
Si Si6 0.244105 0.147442 0.031004
Si Si7 0.571643 0.596470 0.558953
Si Si8 0.428419 0.100934 0.368924
O O1 0.320061 0.772878 0.698734
O O2 0.317188 0.746318 0.400210
O O3 0.250517 0.872547 0.497499
O O4 0.377860 0.876466 0.503267
O O5 0.907243 0.159240 0.698260
O O6 0.893119 0.268022 0.939668
O O7 0.809660 0.141411 0.894990
O O8 0.057229 0.574265 0.936081
O O9 0.283489 0.619379 0.200531
O O10 0.374177 0.604851 0.424896
O O11 0.315526 0.887963 0.000828
O O12 0.408203 0.861346 0.199997
O O13 0.250000 0.250000 0.044984
O O14 0.500000 0.616850 0.501561
O O15 0.572105 0.500000 0.617218
O O16 0.500000 0.129229 0.411996
O O17 0.429605 0.000000 0.344319
#
# Coordination Sequence:
#
# PCOD9348724 Si02
#       8
#     8   8   2   8   8   8   8   8
#     4  10  20  37  60  92 125 161 218 266 321 387
#     4  10  24  40  66  94 128 178 220 272 331 397
#     4  12  24  44  56  98 146 184 222 262 336 392
#     4  10  19  37  65  91 118 160 211 270 320 393
#     4  11  21  39  63  87 135 183 218 268 318 390
#     4  10  19  38  65  96 125 167 227 275 315 379
#     4  10  24  45  65  91 127 161 211 282 346 398
#     4  11  21  39  59  89 133 180 219 268 318 380
#
# _framework density 20.961683000000001
#
# number of rings (size 3 to 8) (size 9 to 14) (size 15 to 20)
#    0.000    1.655    4.138    0.828   12.552    2.759 
#    3.724    0.690    0.000    1.655    0.000    0.000 
#    0.000    0.000    0.000    0.000    0.000    0.000 
#
# Total GULP energy -161582.644862 kJ/mol
# GULP energy per Si atom -5571.815340 kJ/mol
# Density = 2.091397 g / cm^3
# Si number density = 20.961683 Si / 1000 Ang^3
#
#
#
# Elastic Constant Matrix: (Units=GPa)
#
#
# Indices 1 2 3 4 5 6 
#
# 1 197.8781 47.9411 45.0869 0.0000 0.0000 0.0000
# 2 47.9411 39.9280 13.7989 0.0000 0.0000 0.0000
# 3 45.0869 13.7989 67.1439 0.0000 0.0000 0.0000
# 4 0.0000 0.0000 0.0000 8.7140 0.0000 0.0000
# 5 0.0000 0.0000 0.0000 0.0000 22.4452 0.0000
# 6 0.0000 0.0000 0.0000 0.0000 0.0000 54.5588
#
#
#
# Elastic Compliance Matrix: (Units=1/GPa)
#
#
# Indices 1 2 3 4 5 6 
#
# 1 0.007857 -0.008192 -0.003592 0.000000 0.000000 0.000000
# 2 -0.008192 0.035502 -0.001795 0.000000 0.000000 0.000000
# 3 -0.003592 -0.001795 0.017674 0.000000 0.000000 0.000000
# 4 0.000000 0.000000 0.000000 0.114757 0.000000 0.000000
# 5 0.000000 0.000000 0.000000 0.000000 0.044553 0.000000
# 6 0.000000 0.000000 0.000000 0.000000 0.000000 0.018329
#
#
# Mechanical properties :
#
#
# Convention : Reuss Voigt Hill
#
# Bulk Modulus (GPa) = 29.52101 57.62264 43.57183
# Shear Modulus (GPa) = 18.04253 30.35179 24.19716
#
# Velocity S-wave (km/s) = 2.93702 3.80934 3.40126
# Velocity P-wave (km/s) = 5.06116 6.84816 6.02132
#
# Compressibility (1/GPa) = 0.03387418
#
# Stress axis : x y z
#
# Youngs Moduli (GPa) = 127.27643 28.16759 56.57871
#
# Poissons Ratio (x) = 0.23076 0.20325
# Poissons Ratio (y) = 1.04268 0.10156
# Poissons Ratio (z) = 0.45721 0.05056
#
# Static dielectric constant tensor:
#      x y z
#    x 1.798930 0.000000 0.000000 
#    y 0.000000 1.748650 0.000000 
#    z 0.000000 0.000000 1.778230 
# 
# From -- ./inp_files/8586.got.cif
#   From: 2010.05.17/outbox.cif.g08.bks.cpg/sg35_5_cif.got.tgz:8586.got - 2010.06.03 17:29:28.
