data_PCOD9348558
_publ_section_title
;
Structure prediction by ZEFSAII (Michael W. Deem and Ramdas Pophale) SiO2 
 PCOD9348558
Probable space group: C M M 2
;
_chemical_formula_sum "Si O2"
_cell_formula_units_Z 64
_cell_length_a 18.248596
_cell_length_b 13.848625
_cell_length_c 12.851927
_cell_angle_alpha 90.000000
_cell_angle_beta 90.000000
_cell_angle_gamma 90.000000
_cell_volume 3247.912809
_symmetry_space_group_name_H-M "C M M 2"
_symmetry_group_IT_number 35
_symmetry_cell_setting 'orthorhombic'
loop_
_space_group_symop_operation_xyz
x,y,z
-x,-y,z
-x,y,z
x,-y,z
1/2+x,1/2+y,z
1/2-x,1/2-y,z
1/2-x,1/2+y,z
1/2+x,1/2-y,z
loop_
_atom_site_type_symbol
_atom_site_label
_atom_site_fract_x
_atom_site_fract_y
_atom_site_fract_z
Si Si1 0.585024 0.612483 0.750000
Si Si2 0.836176 0.229326 0.577213
Si Si3 0.354909 0.679125 0.962313
Si Si4 0.624849 0.890702 0.214110
Si Si5 0.581039 0.318879 0.181587
Si Si6 0.414525 0.614047 0.402238
Si Si7 0.086442 0.388678 0.447026
Si Si8 0.693897 0.889395 0.000332
O O1 0.500000 0.625060 0.719427
O O2 0.604250 0.500000 0.731073
O O3 0.635277 0.685456 0.685080
O O4 0.596078 0.637135 0.870944
O O5 0.750000 0.250000 0.578592
O O6 0.861673 0.151821 0.491293
O O7 0.880396 0.322802 0.536822
O O8 0.380503 0.649921 0.077048
O O9 0.352880 0.796872 0.961299
O O10 0.273564 0.635208 0.955582
O O11 0.578434 0.797604 0.182200
O O12 0.632099 0.878033 0.338745
O O13 0.690078 0.885112 0.127979
O O14 0.594096 0.000000 0.202144
O O15 0.500000 0.360667 0.182381
O O16 0.614615 0.349792 0.291011
O O17 0.500000 0.647458 0.416684
O O18 0.416347 0.500000 0.402844
O O19 0.090445 0.500000 0.477323
O O20 0.000000 0.367264 0.425265
O O21 0.672344 0.000000 0.973045
#
# Coordination Sequence:
#
# PCOD9348558 Si02
#       8
#     8   8   8   8   8   8   8   8
#     4  11  25  46  71  93 118 162 216 264 313 377
#     4  12  26  41  63  90 124 158 207 260 321 372
#     4  10  21  37  61  90 124 161 209 258 310 368
#     4   9  17  31  55  87 121 162 203 239 294 368
#     4  10  19  33  56  88 124 159 199 253 305 357
#     4  10  21  39  63  90 125 167 206 251 310 374
#     4  10  20  37  62  90 124 166 210 255 303 363
#     4   9  19  35  57  88 127 167 203 246 306 371
#
# _framework density 19.704962999999999
#
# number of rings (size 3 to 8) (size 9 to 14) (size 15 to 20)
#    0.000    1.875    1.250    2.625    1.750    4.750 
#    0.000    3.125    0.000    1.875    0.000    0.000 
#    0.000    0.000    0.000    0.000    0.000    0.000 
#
# Total GULP energy -178310.818798 kJ/mol
# GULP energy per Si atom -5572.213087 kJ/mol
# Density = 1.966011 g / cm^3
# Si number density = 19.704963 Si / 1000 Ang^3
#
#
#
# Elastic Constant Matrix: (Units=GPa)
#
#
# Indices 1 2 3 4 5 6 
#
# 1 49.9803 23.4201 20.9579 0.0000 0.0000 0.0000
# 2 23.4201 110.3403 23.2843 0.0000 0.0000 0.0000
# 3 20.9579 23.2843 62.2239 0.0000 0.0000 0.0000
# 4 0.0000 0.0000 0.0000 21.5609 0.0000 0.0000
# 5 0.0000 0.0000 0.0000 0.0000 5.8735 0.0000
# 6 0.0000 0.0000 0.0000 0.0000 0.0000 9.3991
#
#
#
# Elastic Compliance Matrix: (Units=1/GPa)
#
#
# Indices 1 2 3 4 5 6 
#
# 1 0.024671 -0.003782 -0.006894 0.000000 0.000000 0.000000
# 2 -0.003782 0.010420 -0.002625 0.000000 0.000000 0.000000
# 3 -0.006894 -0.002625 0.019376 0.000000 0.000000 0.000000
# 4 0.000000 0.000000 0.000000 0.046380 0.000000 0.000000
# 5 0.000000 0.000000 0.000000 0.000000 0.170255 0.000000
# 6 0.000000 0.000000 0.000000 0.000000 0.000000 0.106393
#
#
# Mechanical properties :
#
#
# Convention : Reuss Voigt Hill
#
# Bulk Modulus (GPa) = 35.88955 39.76323 37.82639
# Shear Modulus (GPa) = 12.09526 17.69218 14.89372
#
# Velocity S-wave (km/s) = 2.48022 2.99967 2.75223
# Velocity P-wave (km/s) = 5.14344 5.67631 5.41643
#
# Compressibility (1/GPa) = 0.02786327
#
# Stress axis : x y z
#
# Youngs Moduli (GPa) = 40.53360 95.97361 51.61142
#
# Poissons Ratio (x) = 0.36293 0.35583
# Poissons Ratio (y) = 0.15328 0.13550
# Poissons Ratio (z) = 0.27946 0.25196
#
# Static dielectric constant tensor:
#      x y z
#    x 1.693280 0.000000 0.000000 
#    y 0.000000 1.714500 0.000000 
#    z 0.000000 0.000000 1.700340 
# 
# From -- ./inp_files/13576.got.cif
#   From: 2010.05.17/outbox.cif.g08.bks.cpg/sg35_7_cif.got.tgz:13576.got - 2010.06.03 17:29:28.
