data_PCOD9348732
_publ_section_title
;
Structure prediction by ZEFSAII (Michael W. Deem and Ramdas Pophale) SiO2 
 PCOD9348732
Probable space group: C M M 2
;
_chemical_formula_sum "Si O2"
_cell_formula_units_Z 56
_cell_length_a 31.526604
_cell_length_b 8.943865
_cell_length_c 12.886559
_cell_angle_alpha 90.000000
_cell_angle_beta 90.000000
_cell_angle_gamma 90.000000
_cell_volume 3633.619047
_symmetry_space_group_name_H-M "C M M 2"
_symmetry_group_IT_number 35
_symmetry_cell_setting 'orthorhombic'
loop_
_space_group_symop_operation_xyz
x,y,z
-x,-y,z
-x,y,z
x,-y,z
1/2+x,1/2+y,z
1/2-x,1/2-y,z
1/2-x,1/2+y,z
1/2+x,1/2-y,z
loop_
_atom_site_type_symbol
_atom_site_label
_atom_site_fract_x
_atom_site_fract_y
_atom_site_fract_z
Si Si1 0.113540 0.321443 0.580530
Si Si2 0.613475 0.678631 0.351499
Si Si3 0.208316 0.178464 0.352163
Si Si4 0.051438 0.671798 0.956841
Si Si5 0.450411 0.180820 0.188451
Si Si6 0.950031 0.177781 0.742966
Si Si7 0.291759 0.821533 0.582410
O O1 0.109721 0.500000 0.569876
O O2 0.109762 0.248413 0.466550
O O3 0.078253 0.258045 0.657071
O O4 0.161089 0.289786 0.624412
O O5 0.608887 0.500000 0.359525
O O6 0.661293 0.709630 0.309367
O O7 0.578744 0.746960 0.275402
O O8 0.250000 0.250000 0.300159
O O9 0.206793 0.250590 0.467105
O O10 0.213695 0.000000 0.359937
O O11 0.065411 0.500000 0.941589
O O12 0.063511 0.769582 0.858027
O O13 0.000000 0.669705 0.960193
O O14 0.064094 0.724319 0.071816
O O15 0.500000 0.222199 0.201673
O O16 0.448176 0.000000 0.193532
O O17 0.000000 0.216310 0.730559
O O18 0.945881 0.000000 0.733477
O O19 0.250000 0.750000 0.634144
O O20 0.286393 0.000000 0.575558
#
# Coordination Sequence:
#
# PCOD9348732 Si02
#       7
#     8   8   8   8   8   8   8
#     4  10  20  32  46  65  91 124 157 184 217 268
#     4  10  20  31  44  66  95 123 151 185 225 268
#     4   9  16  26  41  61  85 114 147 182 220 261
#     4   8  15  30  50  68  86 111 147 189 227 264
#     4   9  18  32  49  68  90 119 154 187 220 263
#     4  10  20  32  47  68  92 118 150 188 228 266
#     4   9  16  26  42  63  85 112 146 182 220 261
#
# _framework density 15.411631
#
# number of rings (size 3 to 8) (size 9 to 14) (size 15 to 20)
#    0.000    2.714    0.000    3.857    0.000    5.714 
#    0.000    1.429    0.000    0.000    0.000    1.000 
#    0.000    6.857    0.000    0.000    0.000    0.000 
#
# Total GULP energy -155875.388140 kJ/mol
# GULP energy per Si atom -5566.978148 kJ/mol
# Density = 1.537655 g / cm^3
# Si number density = 15.411631 Si / 1000 Ang^3
#
#
#
# Elastic Constant Matrix: (Units=GPa)
#
#
# Indices 1 2 3 4 5 6 
#
# 1 111.9566 55.5985 61.6081 0.0000 0.0000 0.0000
# 2 55.5985 62.2353 38.5332 0.0000 0.0000 0.0000
# 3 61.6081 38.5332 80.5865 0.0000 0.0000 0.0000
# 4 0.0000 0.0000 0.0000 8.4718 0.0000 0.0000
# 5 0.0000 0.0000 0.0000 0.0000 -1.9796 0.0000
# 6 0.0000 0.0000 0.0000 0.0000 0.0000 38.9819
#
#
#
# Elastic Compliance Matrix: (Units=1/GPa)
#
#
# Indices 1 2 3 4 5 6 
#
# 1 0.020300 -0.012112 -0.009728 0.000000 0.000000 0.000000
# 2 -0.012112 0.030053 -0.005110 0.000000 0.000000 0.000000
# 3 -0.009728 -0.005110 0.022289 0.000000 0.000000 0.000000
# 4 0.000000 0.000000 0.000000 0.118039 0.000000 0.000000
# 5 0.000000 0.000000 0.000000 0.000000 -0.505152 0.000000
# 6 0.000000 0.000000 0.000000 0.000000 0.000000 0.025653
#
#
# Mechanical properties :
#
#
# Convention : Reuss Voigt Hill
#
# Bulk Modulus (GPa) = 53.35698 62.91757 58.13728
# Shear Modulus (GPa) = -21.86551 15.69740 -3.08406
#
# Velocity S-wave (km/s) = -3.77074 3.19492 -1.41615
# Velocity P-wave (km/s) = 3.96717 7.38400 5.92713
#
# Compressibility (1/GPa) = 0.01874169
#
# Stress axis : x y z
#
# Youngs Moduli (GPa) = 49.26060 33.27491 44.86450
#
# Poissons Ratio (x) = 0.40304 0.43643
# Poissons Ratio (y) = 0.59666 0.22926
# Poissons Ratio (z) = 0.47920 0.17004
#
# Static dielectric constant tensor:
#      x y z
#    x 1.551290 0.000000 0.000000 
#    y 0.000000 1.513760 0.000000 
#    z 0.000000 0.000000 1.486110 
# 
# From -- ./inp_files/17695.got.cif
#   From: 2010.05.17/outbox.cif.g08.bks.cpg/sg35_9_cif.got.tgz:17695.got - 2010.06.03 17:29:28.
