data_PCOD9348026
_publ_section_title
;
Structure prediction by ZEFSAII (Michael W. Deem and Ramdas Pophale) SiO2 
 PCOD9348026
Probable space group: P N N 2
;
_chemical_formula_sum "Si O2"
_cell_formula_units_Z 20
_cell_length_a 11.273090
_cell_length_b 6.234549
_cell_length_c 11.828524
_cell_angle_alpha 90.000000
_cell_angle_beta 90.000000
_cell_angle_gamma 90.000000
_cell_volume 831.339799
_symmetry_space_group_name_H-M "P N N 2"
_symmetry_group_IT_number 34
_symmetry_cell_setting 'orthorhombic'
loop_
_space_group_symop_operation_xyz
x,y,z
-x,-y,z
1/2-x,1/2+y,1/2+z
1/2+x,1/2-y,1/2+z
loop_
_atom_site_type_symbol
_atom_site_label
_atom_site_fract_x
_atom_site_fract_y
_atom_site_fract_z
Si Si1 0.000000 0.000000 0.943080
Si Si2 0.363344 0.998508 0.116931
Si Si3 0.082864 0.815260 0.441227
Si Si4 0.500000 0.000000 0.768999
Si Si5 0.168360 0.372570 0.860397
Si Si6 0.159566 0.668689 0.075477
O O1 0.910887 0.845425 0.869991
O O2 0.076872 0.858218 0.029089
O O3 0.286337 0.786816 0.090930
O O4 0.500000 0.000000 0.081080
O O5 0.334356 0.199478 0.037310
O O6 0.364052 0.014207 0.251248
O O7 0.189047 0.861528 0.353670
O O8 0.989733 0.693439 0.358155
O O9 0.000000 0.000000 0.492216
O O10 0.390801 0.050701 0.686168
O O11 0.148716 0.501960 0.974361
#
# Coordination Sequence:
#
# PCOD9348026 Si02
#       6
#     2   4   4   2   4   4
#     4  12  24  50  76 114 156 214 272 320 402 480
#     4  12  26  53  74 118 161 199 263 337 408 467
#     4  12  28  51  81 116 160 212 266 330 409 481
#     4  12  26  50  80 116 154 214 276 322 396 486
#     4  12  27  49  78 116 160 213 267 334 400 478
#     4  12  26  49  80 112 156 212 270 326 397 483
#
# _framework density 24.057554
#
# number of rings (size 3 to 8) (size 9 to 14) (size 15 to 20)
#    0.000    0.000    7.000    2.400    1.400    1.600 
#   14.400    0.000    0.000    0.000    0.000    0.000 
#    0.000    0.000    0.000    0.000    0.000    0.000 
#
# Total GULP energy -111474.952199 kJ/mol
# GULP energy per Si atom -5573.747610 kJ/mol
# Density = 2.400280 g / cm^3
# Si number density = 24.057554 Si / 1000 Ang^3
#
#
#
# Elastic Constant Matrix: (Units=GPa)
#
#
# Indices 1 2 3 4 5 6 
#
# 1 127.9098 56.3161 25.6438 0.0000 0.0000 0.0000
# 2 56.3161 102.7526 53.0161 0.0000 0.0000 0.0000
# 3 25.6438 53.0161 167.7841 0.0000 0.0000 0.0000
# 4 0.0000 0.0000 0.0000 1.4593 0.0000 0.0000
# 5 0.0000 0.0000 0.0000 0.0000 33.9230 0.0000
# 6 0.0000 0.0000 0.0000 0.0000 0.0000 69.4854
#
#
#
# Elastic Compliance Matrix: (Units=1/GPa)
#
#
# Indices 1 2 3 4 5 6 
#
# 1 0.010313 -0.005782 0.000251 0.000000 0.000000 0.000000
# 2 -0.005782 0.014869 -0.003815 0.000000 0.000000 0.000000
# 3 0.000251 -0.003815 0.007127 0.000000 0.000000 0.000000
# 4 0.000000 0.000000 0.000000 0.685258 0.000000 0.000000
# 5 0.000000 0.000000 0.000000 0.000000 0.029479 0.000000
# 6 0.000000 0.000000 0.000000 0.000000 0.000000 0.014392
#
#
# Mechanical properties :
#
#
# Convention : Reuss Voigt Hill
#
# Bulk Modulus (GPa) = 73.43230 74.26652 73.84941
# Shear Modulus (GPa) = 6.37212 38.53823 22.45518
#
# Velocity S-wave (km/s) = 1.62925 4.00674 3.05846
# Velocity P-wave (km/s) = 5.84201 7.23482 6.57540
#
# Compressibility (1/GPa) = 0.01361799
#
# Stress axis : x y z
#
# Youngs Moduli (GPa) = 96.96139 67.25312 140.30989
#
# Poissons Ratio (x) = 0.38885 -0.03517
# Poissons Ratio (y) = 0.56061 0.53523
# Poissons Ratio (z) = -0.02430 0.25655
#
# Static dielectric constant tensor:
#      x y z
#    x 2.271570 0.000000 0.000000 
#    y 0.000000 2.880950 0.000000 
#    z 0.000000 0.000000 1.860140 
# 
# From -- ./inp_files/6680.got.cif
#   From: 2010.05.17/outbox.cif.g08.bks.cpg/sg34_4_cif.got.tgz:6680.got - 2010.06.03 17:23:11.
