data_PCOD9348498
_publ_section_title
;
Structure prediction by ZEFSAII (Michael W. Deem and Ramdas Pophale) SiO2 
 PCOD9348498
Probable space group: C M M 2
;
_chemical_formula_sum "Si O2"
_cell_formula_units_Z 64
_cell_length_a 8.727316
_cell_length_b 19.690130
_cell_length_c 21.022452
_cell_angle_alpha 90.000000
_cell_angle_beta 90.000000
_cell_angle_gamma 90.000000
_cell_volume 3612.539915
_symmetry_space_group_name_H-M "C M M 2"
_symmetry_group_IT_number 35
_symmetry_cell_setting 'orthorhombic'
loop_
_space_group_symop_operation_xyz
x,y,z
-x,-y,z
-x,y,z
x,-y,z
1/2+x,1/2+y,z
1/2-x,1/2-y,z
1/2-x,1/2+y,z
1/2+x,1/2-y,z
loop_
_atom_site_type_symbol
_atom_site_label
_atom_site_fract_x
_atom_site_fract_y
_atom_site_fract_z
Si Si1 0.313195 0.077828 0.580560
Si Si2 0.814636 0.921051 0.947252
Si Si3 0.319090 0.080497 0.220798
Si Si4 0.317937 0.675912 0.327122
Si Si5 0.822910 0.082499 0.087789
Si Si6 0.184398 0.675297 0.465174
Si Si7 0.316412 0.175385 0.839607
Si Si8 0.184846 0.675418 0.693931
O O1 0.500000 0.076316 0.581423
O O2 0.269161 0.120774 0.518311
O O3 0.263881 0.119671 0.642900
O O4 0.259931 0.000000 0.579683
O O5 0.747742 0.876868 0.890747
O O6 0.000000 0.918547 0.946362
O O7 0.769308 0.000000 0.940372
O O8 0.767032 0.895874 0.017868
O O9 0.500000 0.089687 0.230307
O O10 0.228830 0.122891 0.273167
O O11 0.272810 0.102551 0.149439
O O12 0.284331 0.000000 0.226252
O O13 0.500000 0.680951 0.333158
O O14 0.250000 0.750000 0.311056
O O15 0.246667 0.656643 0.395485
O O16 0.000000 0.103563 0.096236
O O17 0.822277 0.000000 0.085300
O O18 0.250000 0.750000 0.480778
O O19 0.000000 0.679185 0.463237
O O20 0.500000 0.177222 0.842856
O O21 0.250000 0.250000 0.852690
O O22 0.272007 0.157970 0.766646
O O23 0.250000 0.750000 0.678924
O O24 0.000000 0.679388 0.691247
#
# Coordination Sequence:
#
# PCOD9348498 Si02
#       8
#     8   8   8   8   8   8   8   8
#     4   9  18  32  51  76 104 132 164 206 254 300
#     4   9  18  33  53  76 104 137 171 211 259 309
#     4  10  20  34  54  80 108 137 171 212 256 304
#     4  11  22  37  56  77 105 138 173 214 258 305
#     4   8  15  30  51  74 101 135 173 210 253 306
#     4  10  19  33  54  76  99 132 171 208 250 303
#     4  10  20  33  51  75 103 136 174 217 260 306
#     4   9  18  33  53  74  98 132 171 209 251 302
#
# _framework density 17.716066999999999
#
# number of rings (size 3 to 8) (size 9 to 14) (size 15 to 20)
#    0.000    2.500    0.000    4.125    0.000    3.000 
#    0.000    5.000    0.000    6.000    0.000    0.000 
#    0.000    0.000    0.000    0.000    0.000    0.000 
#
# Total GULP energy -178498.981022 kJ/mol
# GULP energy per Si atom -5578.093157 kJ/mol
# Density = 1.767574 g / cm^3
# Si number density = 17.716067 Si / 1000 Ang^3
#
#
#
# Elastic Constant Matrix: (Units=GPa)
#
#
# Indices 1 2 3 4 5 6 
#
# 1 51.1859 36.5916 45.7071 0.0000 0.0000 0.0000
# 2 36.5916 92.0145 97.7837 0.0000 0.0000 0.0000
# 3 45.7071 97.7837 143.4855 0.0000 0.0000 0.0000
# 4 0.0000 0.0000 0.0000 36.8607 0.0000 0.0000
# 5 0.0000 0.0000 0.0000 0.0000 20.4396 0.0000
# 6 0.0000 0.0000 0.0000 0.0000 0.0000 25.3435
#
#
#
# Elastic Compliance Matrix: (Units=1/GPa)
#
#
# Indices 1 2 3 4 5 6 
#
# 1 0.028202 -0.006049 -0.004861 0.000000 0.000000 0.000000
# 2 -0.006049 0.040705 -0.025813 0.000000 0.000000 0.000000
# 3 -0.004861 -0.025813 0.026109 0.000000 0.000000 0.000000
# 4 0.000000 0.000000 0.000000 0.027129 0.000000 0.000000
# 5 0.000000 0.000000 0.000000 0.000000 0.048925 0.000000
# 6 0.000000 0.000000 0.000000 0.000000 0.000000 0.039458
#
#
# Mechanical properties :
#
#
# Convention : Reuss Voigt Hill
#
# Bulk Modulus (GPa) = 46.36222 71.87232 59.11727
# Shear Modulus (GPa) = 17.17246 23.63565 20.40405
#
# Velocity S-wave (km/s) = 3.11676 3.65655 3.39739
# Velocity P-wave (km/s) = 6.25929 7.64749 6.98795
#
# Compressibility (1/GPa) = 0.02156929
#
# Stress axis : x y z
#
# Youngs Moduli (GPa) = 35.45861 24.56716 38.30069
#
# Poissons Ratio (x) = 0.14860 0.18620
# Poissons Ratio (y) = 0.21448 0.98865
# Poissons Ratio (z) = 0.17238 0.63415
#
# Static dielectric constant tensor:
#      x y z
#    x 1.597980 0.000000 0.000000 
#    y 0.000000 1.578200 0.000000 
#    z 0.000000 0.000000 1.608170 
# 
# From -- ./inp_files/18312.got.cif
#   From: 2010.05.17/outbox.cif.g08.bks.cpg/sg35_10_cif.got.tgz:18312.got - 2010.06.03 17:29:28.
