data_PCOD9348318
_publ_section_title
;
Structure prediction by ZEFSAII (Michael W. Deem and Ramdas Pophale) SiO2 
 PCOD9348318
Probable space group: C M M 2
;
_chemical_formula_sum "Si O2"
_cell_formula_units_Z 48
_cell_length_a 18.810396
_cell_length_b 7.961332
_cell_length_c 17.830761
_cell_angle_alpha 90.000000
_cell_angle_beta 90.000000
_cell_angle_gamma 90.000000
_cell_volume 2670.260014
_symmetry_space_group_name_H-M "C M M 2"
_symmetry_group_IT_number 35
_symmetry_cell_setting 'orthorhombic'
loop_
_space_group_symop_operation_xyz
x,y,z
-x,-y,z
-x,y,z
x,-y,z
1/2+x,1/2+y,z
1/2-x,1/2-y,z
1/2-x,1/2+y,z
1/2+x,1/2-y,z
loop_
_atom_site_type_symbol
_atom_site_label
_atom_site_fract_x
_atom_site_fract_y
_atom_site_fract_z
Si Si1 0.086933 0.000000 0.296540
Si Si2 0.581421 0.697675 0.036621
Si Si3 0.667725 0.201661 0.725802
Si Si4 0.913579 0.000000 0.468766
Si Si5 0.914407 0.696855 0.576633
Si Si6 0.167608 0.298759 0.891620
Si Si7 0.586642 0.185317 0.197060
O O1 0.110464 0.000000 0.382700
O O2 0.110021 0.834813 0.251130
O O3 0.000000 0.000000 0.296725
O O4 0.500000 0.754037 0.024584
O O5 0.580359 0.500000 0.054297
O O6 0.610302 0.787164 0.111179
O O7 0.624542 0.727322 0.961212
O O8 0.750000 0.250000 0.714824
O O9 0.620551 0.252871 0.655183
O O10 0.644638 0.262815 0.808545
O O11 0.663991 0.000000 0.728515
O O12 0.892401 0.169099 0.513298
O O13 0.000000 0.000000 0.467759
O O14 0.895260 0.500000 0.561685
O O15 0.000000 0.702298 0.583079
O O16 0.161069 0.500000 0.893727
O O17 0.250000 0.250000 0.899049
O O18 0.500000 0.193043 0.194671
O O19 0.607033 0.000000 0.223479
#
# Coordination Sequence:
#
# PCOD9348318 Si02
#       7
#     4   8   8   4   8   8   8
#     4   9  16  28  44  69 103 129 161 205 250 303
#     4  10  19  32  49  72 104 135 170 216 256 299
#     4   9  19  33  51  72  97 130 169 214 251 293
#     4   9  18  30  48  73 101 135 164 201 256 303
#     4   9  18  33  50  72 104 134 166 207 252 305
#     4  10  20  34  50  71 101 134 172 215 256 301
#     4   9  16  27  45  69  99 134 167 204 249 296
#
# _framework density 17.975777999999998
#
# number of rings (size 3 to 8) (size 9 to 14) (size 15 to 20)
#    0.000    2.667    0.833    1.000    1.167    3.000 
#    0.000    5.000    0.000    0.000    0.000    1.167 
#    0.000    0.000    0.000    0.000    0.000    0.000 
#
# Total GULP energy -133750.315099 kJ/mol
# GULP energy per Si atom -5572.929796 kJ/mol
# Density = 1.793486 g / cm^3
# Si number density = 17.975778 Si / 1000 Ang^3
#
#
#
# Elastic Constant Matrix: (Units=GPa)
#
#
# Indices 1 2 3 4 5 6 
#
# 1 12.6120 14.1934 34.0872 0.0000 0.0000 0.0000
# 2 14.1934 98.1854 72.7502 0.0000 0.0000 0.0000
# 3 34.0872 72.7502 168.7094 0.0000 0.0000 0.0000
# 4 0.0000 0.0000 0.0000 23.6711 0.0000 0.0000
# 5 0.0000 0.0000 0.0000 0.0000 -16.4649 0.0000
# 6 0.0000 0.0000 0.0000 0.0000 0.0000 14.9346
#
#
#
# Elastic Compliance Matrix: (Units=1/GPa)
#
#
# Indices 1 2 3 4 5 6 
#
# 1 0.174797 0.001323 -0.035888 0.000000 0.000000 0.000000
# 2 0.001323 0.014977 -0.006725 0.000000 0.000000 0.000000
# 3 -0.035888 -0.006725 0.016078 0.000000 0.000000 0.000000
# 4 0.000000 0.000000 0.000000 0.042246 0.000000 0.000000
# 5 0.000000 0.000000 0.000000 0.000000 -0.060735 0.000000
# 6 0.000000 0.000000 0.000000 0.000000 0.000000 0.066959
#
#
# Mechanical properties :
#
#
# Convention : Reuss Voigt Hill
#
# Bulk Modulus (GPa) = 8.11218 57.95206 33.03212
# Shear Modulus (GPa) = 13.22777 14.99322 14.11049
#
# Velocity S-wave (km/s) = 2.71563 2.89118 2.80478
# Velocity P-wave (km/s) = 3.78886 6.59198 5.37632
#
# Compressibility (1/GPa) = 0.12327143
#
# Stress axis : x y z
#
# Youngs Moduli (GPa) = 5.72092 66.76970 62.19506
#
# Poissons Ratio (x) = -0.08830 2.23203
# Poissons Ratio (y) = -0.00757 0.41829
# Poissons Ratio (z) = 0.20531 0.44906
#
# Static dielectric constant tensor:
#      x y z
#    x 1.582960 0.000000 0.000000 
#    y 0.000000 1.637890 0.000000 
#    z 0.000000 0.000000 1.617390 
# 
# From -- ./inp_files/15215.got.cif
#   From: 2010.05.17/outbox.cif.g08.bks.cpg/sg35_8_cif.got.tgz:15215.got - 2010.06.03 17:29:28.
