data_PCOD9348221
_publ_section_title
;
Structure prediction by ZEFSAII (Michael W. Deem and Ramdas Pophale) SiO2 
 PCOD9348221
Probable space group: C M M 2
;
_chemical_formula_sum "Si O2"
_cell_formula_units_Z 64
_cell_length_a 15.178995
_cell_length_b 28.056313
_cell_length_c 8.951544
_cell_angle_alpha 90.000000
_cell_angle_beta 90.000000
_cell_angle_gamma 90.000000
_cell_volume 3812.163919
_symmetry_space_group_name_H-M "C M M 2"
_symmetry_group_IT_number 35
_symmetry_cell_setting 'orthorhombic'
loop_
_space_group_symop_operation_xyz
x,y,z
-x,-y,z
-x,y,z
x,-y,z
1/2+x,1/2+y,z
1/2-x,1/2-y,z
1/2-x,1/2+y,z
1/2+x,1/2-y,z
loop_
_atom_site_type_symbol
_atom_site_label
_atom_site_fract_x
_atom_site_fract_y
_atom_site_fract_z
Si Si1 0.899229 0.555787 0.411200
Si Si2 0.599708 0.322311 0.272150
Si Si3 0.900300 0.718135 0.408427
Si Si4 0.715116 0.137672 0.912653
Si Si5 0.781736 0.636097 0.269769
Si Si6 0.398604 0.944293 0.770202
Si Si7 0.403020 0.323223 0.914465
Si Si8 0.347313 0.769942 0.742378
O O1 0.886680 0.500000 0.375322
O O2 0.828867 0.589599 0.334107
O O3 0.892911 0.560781 0.590646
O O4 0.000000 0.568883 0.368836
O O5 0.500000 0.337882 0.310346
O O6 0.616296 0.271829 0.351948
O O7 0.678589 0.358216 0.309505
O O8 0.602843 0.314651 0.092914
O O9 0.831964 0.681552 0.338101
O O10 0.892843 0.717267 0.587218
O O11 0.000000 0.705246 0.363314
O O12 0.669932 0.090896 0.846558
O O13 0.818557 0.144837 0.872640
O O14 0.665645 0.183754 0.844963
O O15 0.709090 0.137324 0.091258
O O16 0.500000 0.932718 0.812999
O O17 0.383378 0.000000 0.805961
O O18 0.500000 0.343682 0.882265
O O19 0.393771 0.272821 0.830760
O O20 0.250000 0.750000 0.705082
#
# Coordination Sequence:
#
# PCOD9348221 Si02
#       8
#     8   8   8   8   8   8   8   8
#     4   9  19  36  55  74  97 126 158 192 236 288
#     4   9  19  34  50  68  95 131 166 200 238 279
#     4  11  21  31  46  70  99 132 166 198 236 282
#     4  10  21  32  49  75  98 125 161 199 240 286
#     4  11  20  32  50  73  99 126 160 200 241 284
#     4   9  19  36  55  73  96 126 157 192 237 287
#     4   9  18  34  51  68  96 131 164 199 238 279
#     4  10  19  31  47  69  98 131 165 199 235 278
#
# _framework density 16.788366
#
# number of rings (size 3 to 8) (size 9 to 14) (size 15 to 20)
#    0.000    2.250    0.000    4.125    0.000    6.500 
#    0.000    1.250    0.000    0.750    0.000    5.250 
#    0.000    0.000    0.000    0.000    0.000    0.000 
#
# Total GULP energy -178538.195458 kJ/mol
# GULP energy per Si atom -5579.318608 kJ/mol
# Density = 1.675015 g / cm^3
# Si number density = 16.788366 Si / 1000 Ang^3
#
#
#
# Elastic Constant Matrix: (Units=GPa)
#
#
# Indices 1 2 3 4 5 6 
#
# 1 140.6517 82.2003 50.9661 0.0000 0.0000 0.0000
# 2 82.2003 87.6821 41.9545 0.0000 0.0000 0.0000
# 3 50.9661 41.9545 41.5571 0.0000 0.0000 0.0000
# 4 0.0000 0.0000 0.0000 35.4144 0.0000 0.0000
# 5 0.0000 0.0000 0.0000 0.0000 25.4547 0.0000
# 6 0.0000 0.0000 0.0000 0.0000 0.0000 29.6887
#
#
#
# Elastic Compliance Matrix: (Units=1/GPa)
#
#
# Indices 1 2 3 4 5 6 
#
# 1 0.017455 -0.011841 -0.009453 0.000000 0.000000 0.000000
# 2 -0.011841 0.030094 -0.015861 0.000000 0.000000 0.000000
# 3 -0.009453 -0.015861 0.051669 0.000000 0.000000 0.000000
# 4 0.000000 0.000000 0.000000 0.028237 0.000000 0.000000
# 5 0.000000 0.000000 0.000000 0.000000 0.039286 0.000000
# 6 0.000000 0.000000 0.000000 0.000000 0.000000 0.033683
#
#
# Mechanical properties :
#
#
# Convention : Reuss Voigt Hill
#
# Bulk Modulus (GPa) = 40.14525 68.90362 54.52443
# Shear Modulus (GPa) = 17.66556 24.42954 21.04755
#
# Velocity S-wave (km/s) = 3.24736 3.81878 3.54460
# Velocity P-wave (km/s) = 6.16643 7.78304 7.02142
#
# Compressibility (1/GPa) = 0.02490955
#
# Stress axis : x y z
#
# Youngs Moduli (GPa) = 57.28946 33.22898 19.35385
#
# Poissons Ratio (x) = 0.39345 0.18296
# Poissons Ratio (y) = 0.67834 0.30696
# Poissons Ratio (z) = 0.54158 0.52703
#
# Static dielectric constant tensor:
#      x y z
#    x 1.589910 0.000000 0.000000 
#    y 0.000000 1.531560 0.000000 
#    z 0.000000 0.000000 1.559970 
# 
# From -- ./inp_files/8020.got.cif
#   From: 2010.05.17/outbox.cif.g08.bks.cpg/sg35_5_cif.got.tgz:8020.got - 2010.06.03 17:29:28.
