data_PCOD9348219
_publ_section_title
;
Structure prediction by ZEFSAII (Michael W. Deem and Ramdas Pophale) SiO2 
 PCOD9348219
Probable space group: C M M 2
;
_chemical_formula_sum "Si O2"
_cell_formula_units_Z 64
_cell_length_a 26.217809
_cell_length_b 15.052693
_cell_length_c 9.579241
_cell_angle_alpha 90.000000
_cell_angle_beta 90.000000
_cell_angle_gamma 90.000000
_cell_volume 3780.434337
_symmetry_space_group_name_H-M "C M M 2"
_symmetry_group_IT_number 35
_symmetry_cell_setting 'orthorhombic'
loop_
_space_group_symop_operation_xyz
x,y,z
-x,-y,z
-x,y,z
x,-y,z
1/2+x,1/2+y,z
1/2-x,1/2-y,z
1/2-x,1/2+y,z
1/2+x,1/2-y,z
loop_
_atom_site_type_symbol
_atom_site_label
_atom_site_fract_x
_atom_site_fract_y
_atom_site_fract_z
Si Si1 0.438616 0.103304 0.319010
Si Si2 0.825582 0.103983 0.321621
Si Si3 0.061191 0.397092 0.644149
Si Si4 0.295958 0.675835 0.620636
Si Si5 0.868035 0.727050 0.823589
Si Si6 0.726778 0.096343 0.842390
Si Si7 0.630388 0.237199 0.147285
Si Si8 0.775612 0.398833 0.147690
O O1 0.500000 0.109603 0.310409
O O2 0.423883 0.119427 0.481800
O O3 0.412103 0.174631 0.219180
O O4 0.425085 0.000000 0.286130
O O5 0.818061 0.138385 0.478216
O O6 0.860150 0.172137 0.232667
O O7 0.768652 0.110120 0.258523
O O8 0.841260 0.000000 0.315085
O O9 0.074547 0.500000 0.675693
O O10 0.088008 0.329843 0.749448
O O11 0.000000 0.389614 0.652016
O O12 0.250000 0.750000 0.596204
O O13 0.344847 0.703642 0.713628
O O14 0.265855 0.607351 0.718272
O O15 0.818408 0.665021 0.836219
O O16 0.880231 0.754487 0.982744
O O17 0.702843 0.000000 0.836890
O O18 0.750823 0.108723 0.995201
O O19 0.681625 0.176238 0.158951
O O20 0.797016 0.500000 0.157174
#
# Coordination Sequence:
#
# PCOD9348219 Si02
#       8
#     8   8   8   8   8   8   8   8
#     4   9  19  35  55  80 108 136 164 197 242 296
#     4  11  22  34  49  70  97 132 176 217 254 296
#     4   9  18  33  51  73 104 136 163 194 235 288
#     4  10  19  31  47  68  95 129 170 212 253 293
#     4  10  20  31  48  73  98 132 168 203 248 296
#     4   9  17  30  46  67  99 132 163 198 241 296
#     4  11  20  33  52  74 104 135 169 208 251 300
#     4   9  18  31  48  72 102 136 167 201 248 299
#
# _framework density 16.929271
#
# number of rings (size 3 to 8) (size 9 to 14) (size 15 to 20)
#    0.000    2.250    0.000    4.500    0.000    5.000 
#    0.000    4.375    0.000    0.375    0.000    0.000 
#    0.000    3.500    0.000    0.000    0.000    0.000 
#
# Total GULP energy -178227.661692 kJ/mol
# GULP energy per Si atom -5569.614428 kJ/mol
# Density = 1.689074 g / cm^3
# Si number density = 16.929271 Si / 1000 Ang^3
#
#
#
# Elastic Constant Matrix: (Units=GPa)
#
#
# Indices 1 2 3 4 5 6 
#
# 1 38.4435 24.5367 40.0665 0.0000 0.0000 0.0000
# 2 24.5367 84.1590 61.0768 0.0000 0.0000 0.0000
# 3 40.0665 61.0768 140.9370 0.0000 0.0000 0.0000
# 4 0.0000 0.0000 0.0000 25.2369 0.0000 0.0000
# 5 0.0000 0.0000 0.0000 0.0000 37.2893 0.0000
# 6 0.0000 0.0000 0.0000 0.0000 0.0000 31.6221
#
#
#
# Elastic Compliance Matrix: (Units=1/GPa)
#
#
# Indices 1 2 3 4 5 6 
#
# 1 0.038225 -0.004753 -0.008807 0.000000 0.000000 0.000000
# 2 -0.004753 0.017925 -0.006417 0.000000 0.000000 0.000000
# 3 -0.008807 -0.006417 0.012380 0.000000 0.000000 0.000000
# 4 0.000000 0.000000 0.000000 0.039625 0.000000 0.000000
# 5 0.000000 0.000000 0.000000 0.000000 0.026817 0.000000
# 6 0.000000 0.000000 0.000000 0.000000 0.000000 0.031623
#
#
# Mechanical properties :
#
#
# Convention : Reuss Voigt Hill
#
# Bulk Modulus (GPa) = 34.99452 57.21107 46.10280
# Shear Modulus (GPa) = 23.14030 28.02030 25.58030
#
# Velocity S-wave (km/s) = 3.70115 4.07275 3.89139
# Velocity P-wave (km/s) = 6.24344 7.48224 6.89074
#
# Compressibility (1/GPa) = 0.02857590
#
# Stress axis : x y z
#
# Youngs Moduli (GPa) = 26.16114 55.78856 80.77638
#
# Poissons Ratio (x) = 0.26516 0.71140
# Poissons Ratio (y) = 0.12434 0.51832
# Poissons Ratio (z) = 0.23040 0.35798
#
# Static dielectric constant tensor:
#      x y z
#    x 1.530390 0.000000 0.000000 
#    y 0.000000 1.612670 0.000000 
#    z 0.000000 0.000000 1.619930 
# 
# From -- ./inp_files/9897.got.cif
#   From: 2010.05.17/outbox.cif.g08.bks.cpg/sg35_5_cif.got.tgz:9897.got - 2010.06.03 17:29:28.
