data_PCOD9348018
_publ_section_title
;
Structure prediction by ZEFSAII (Michael W. Deem and Ramdas Pophale) SiO2 
 PCOD9348018
Probable space group: P N N 2
;
_chemical_formula_sum "Si O2"
_cell_formula_units_Z 18
_cell_length_a 6.401790
_cell_length_b 7.881590
_cell_length_c 13.289501
_cell_angle_alpha 90.000000
_cell_angle_beta 90.000000
_cell_angle_gamma 90.000000
_cell_volume 670.538837
_symmetry_space_group_name_H-M "P N N 2"
_symmetry_group_IT_number 34
_symmetry_cell_setting 'orthorhombic'
loop_
_space_group_symop_operation_xyz
x,y,z
-x,-y,z
1/2-x,1/2+y,1/2+z
1/2+x,1/2-y,1/2+z
loop_
_atom_site_type_symbol
_atom_site_label
_atom_site_fract_x
_atom_site_fract_y
_atom_site_fract_z
Si Si1 0.485583 0.204319 0.126490
Si Si2 0.844754 0.139437 0.981708
Si Si3 0.327505 0.878903 0.471918
Si Si4 0.000000 0.000000 0.315410
Si Si5 0.838057 0.642575 0.270672
O O1 0.384554 0.319059 0.214967
O O2 0.500000 0.000000 0.149501
O O3 0.707430 0.226715 0.069184
O O4 0.324319 0.267856 0.040424
O O5 0.697225 0.094850 0.888352
O O6 0.015236 0.249349 0.922290
O O7 0.000000 0.000000 0.028576
O O8 0.500000 0.000000 0.522772
O O9 0.194625 0.974713 0.389720
O O10 0.044893 0.175319 0.260010
O O11 0.000000 0.500000 0.233560
#
# Coordination Sequence:
#
# PCOD9348018 Si02
#       5
#     4   4   4   2   4
#     4  12  27  50  80 125 172 221 290 359 432 521
#     4  12  25  51  83 116 169 230 277 357 441 505
#     4  12  23  47  80 118 164 223 284 347 436 511
#     4  12  26  50  88 120 170 230 284 350 444 512
#     4  12  28  54  84 128 175 224 294 357 429 526
#
# _framework density 26.844080999999999
#
# number of rings (size 3 to 8) (size 9 to 14) (size 15 to 20)
#    0.000    0.000    6.667    2.667    3.111    1.778 
#   10.000    0.000    0.000    0.000    0.000    0.000 
#    0.000    0.000    0.000    0.000    0.000    0.000 
#
# Total GULP energy -100378.000078 kJ/mol
# GULP energy per Si atom -5576.555560 kJ/mol
# Density = 2.678298 g / cm^3
# Si number density = 26.844081 Si / 1000 Ang^3
#
#
#
# Elastic Constant Matrix: (Units=GPa)
#
#
# Indices 1 2 3 4 5 6 
#
# 1 196.2506 100.1095 68.2266 0.0000 0.0000 0.0000
# 2 100.1095 167.4737 41.6060 0.0000 0.0000 0.0000
# 3 68.2266 41.6060 120.1719 0.0000 0.0000 0.0000
# 4 0.0000 0.0000 0.0000 6.1937 0.0000 0.0000
# 5 0.0000 0.0000 0.0000 0.0000 17.1802 0.0000
# 6 0.0000 0.0000 0.0000 0.0000 0.0000 92.4750
#
#
#
# Elastic Compliance Matrix: (Units=1/GPa)
#
#
# Indices 1 2 3 4 5 6 
#
# 1 0.008383 -0.004189 -0.003309 0.000000 0.000000 0.000000
# 2 -0.004189 0.008626 -0.000608 0.000000 0.000000 0.000000
# 3 -0.003309 -0.000608 0.010411 0.000000 0.000000 0.000000
# 4 0.000000 0.000000 0.000000 0.161455 0.000000 0.000000
# 5 0.000000 0.000000 0.000000 0.000000 0.058207 0.000000
# 6 0.000000 0.000000 0.000000 0.000000 0.000000 0.010814
#
#
# Mechanical properties :
#
#
# Convention : Reuss Voigt Hill
#
# Bulk Modulus (GPa) = 89.22818 100.42004 94.82411
# Shear Modulus (GPa) = 17.99580 41.43338 29.71459
#
# Velocity S-wave (km/s) = 2.59198 3.93298 3.33067
# Velocity P-wave (km/s) = 6.50149 7.62327 7.08462
#
# Compressibility (1/GPa) = 0.01120722
#
# Stress axis : x y z
#
# Youngs Moduli (GPa) = 119.29465 115.92689 96.05532
#
# Poissons Ratio (x) = 0.48559 0.31784
# Poissons Ratio (y) = 0.49970 0.05844
# Poissons Ratio (z) = 0.39474 0.07053
#
# Static dielectric constant tensor:
#      x y z
#    x 2.109580 0.000000 0.000000 
#    y 0.000000 2.378910 0.000000 
#    z 0.000000 0.000000 2.058640 
# 
# From -- ./inp_files/7072.got.cif
#   From: 2010.05.17/outbox.cif.g08.bks.cpg/sg34_4_cif.got.tgz:7072.got - 2010.06.03 17:23:11.
