data_PCOD9348850
_publ_section_title
;
Structure prediction by ZEFSAII (Michael W. Deem and Ramdas Pophale) SiO2 
 PCOD9348850
Probable space group: C M M 2
;
_chemical_formula_sum "Si O2"
_cell_formula_units_Z 56
_cell_length_a 13.419538
_cell_length_b 17.979205
_cell_length_c 12.272836
_cell_angle_alpha 90.000000
_cell_angle_beta 90.000000
_cell_angle_gamma 90.000000
_cell_volume 2961.099354
_symmetry_space_group_name_H-M "C M M 2"
_symmetry_group_IT_number 35
_symmetry_cell_setting 'orthorhombic'
loop_
_space_group_symop_operation_xyz
x,y,z
-x,-y,z
-x,y,z
x,-y,z
1/2+x,1/2+y,z
1/2-x,1/2-y,z
1/2-x,1/2+y,z
1/2+x,1/2-y,z
loop_
_atom_site_type_symbol
_atom_site_label
_atom_site_fract_x
_atom_site_fract_y
_atom_site_fract_z
Si Si1 0.695989 0.085001 0.457970
Si Si2 0.383712 0.201478 0.622378
Si Si3 0.115575 0.410059 0.221917
Si Si4 0.616092 0.918597 0.783558
Si Si5 0.215149 0.412789 0.003418
Si Si6 0.610451 0.589223 0.847865
Si Si7 0.881643 0.870571 0.594731
O O1 0.631159 0.144304 0.524163
O O2 0.679151 0.103099 0.331231
O O3 0.807135 0.091197 0.508837
O O4 0.660932 0.000000 0.474834
O O5 0.500000 0.214009 0.645966
O O6 0.341722 0.153717 0.723510
O O7 0.348883 0.284065 0.595976
O O8 0.109456 0.500000 0.210152
O O9 0.173869 0.380413 0.115656
O O10 0.000000 0.384075 0.230241
O O11 0.500000 0.922214 0.755250
O O12 0.661075 0.000000 0.753141
O O13 0.629171 0.911511 0.912205
O O14 0.238560 0.500000 0.025208
O O15 0.309123 0.381578 0.934990
O O16 0.500000 0.619314 0.870460
O O17 0.609004 0.500000 0.860141
O O18 0.630275 0.602727 0.719727
O O19 0.000000 0.878732 0.567877
#
# Coordination Sequence:
#
# PCOD9348850 Si02
#       7
#     8   8   8   8   8   8   8
#     4  11  21  33  52  76 102 135 176 219 260 305
#     4  10  20  33  51  76 106 137 169 211 264 318
#     4   9  18  32  50  74 103 132 164 208 263 316
#     4   9  16  26  45  75 105 129 158 202 256 314
#     4   9  16  28  47  71  99 131 165 204 255 309
#     4   9  17  30  50  75 101 131 170 213 254 300
#     4  10  21  36  53  74 105 144 179 213 256 306
#
# _framework density 18.911895000000001
#
# number of rings (size 3 to 8) (size 9 to 14) (size 15 to 20)
#    0.000    2.429    0.000    3.000    0.000    5.143 
#    0.000    0.714    0.000    6.000    0.000    4.000 
#    0.000    0.000    0.000    0.000    0.000    0.000 
#
# Total GULP energy -155901.002431 kJ/mol
# GULP energy per Si atom -5567.892944 kJ/mol
# Density = 1.886885 g / cm^3
# Si number density = 18.911895 Si / 1000 Ang^3
#
#
#
# Elastic Constant Matrix: (Units=GPa)
#
#
# Indices 1 2 3 4 5 6 
#
# 1 99.4697 -6.0076 35.8878 0.0000 0.0000 0.0000
# 2 -6.0076 55.0473 19.6842 0.0000 0.0000 0.0000
# 3 35.8878 19.6842 135.6007 0.0000 0.0000 0.0000
# 4 0.0000 0.0000 0.0000 -14.4652 0.0000 0.0000
# 5 0.0000 0.0000 0.0000 0.0000 24.4941 0.0000
# 6 0.0000 0.0000 0.0000 0.0000 0.0000 10.5053
#
#
#
# Elastic Compliance Matrix: (Units=1/GPa)
#
#
# Indices 1 2 3 4 5 6 
#
# 1 0.011421 0.002455 -0.003379 0.000000 0.000000 0.000000
# 2 0.002455 0.019688 -0.003508 0.000000 0.000000 0.000000
# 3 -0.003379 -0.003508 0.008778 0.000000 0.000000 0.000000
# 4 0.000000 0.000000 0.000000 -0.069131 0.000000 0.000000
# 5 0.000000 0.000000 0.000000 0.000000 0.040826 0.000000
# 6 0.000000 0.000000 0.000000 0.000000 0.000000 0.095190
#
#
# Mechanical properties :
#
#
# Convention : Reuss Voigt Hill
#
# Bulk Modulus (GPa) = 32.23392 43.24961 37.74177
# Shear Modulus (GPa) = 39.68974 20.14371 29.91672
#
# Velocity S-wave (km/s) = 4.58609 3.26718 3.98163
# Velocity P-wave (km/s) = 6.71746 6.09518 6.41387
#
# Compressibility (1/GPa) = 0.03102322
#
# Stress axis : x y z
#
# Youngs Moduli (GPa) = 87.56080 50.79138 113.92082
#
# Poissons Ratio (x) = -0.12467 0.38493
# Poissons Ratio (y) = -0.21493 0.39960
# Poissons Ratio (z) = 0.29586 0.17816
#
# Static dielectric constant tensor:
#      x y z
#    x 1.736550 0.000000 0.000000 
#    y 0.000000 1.703570 0.000000 
#    z 0.000000 0.000000 1.654950 
# 
# From -- ./inp_files/12992.got.cif
#   From: 2010.05.17/outbox.cif.g08.bks.cpg/sg35_7_cif.got.tgz:12992.got - 2010.06.03 17:29:28.
