data_PCOD9348845
_publ_section_title
;
Structure prediction by ZEFSAII (Michael W. Deem and Ramdas Pophale) SiO2 
 PCOD9348845
Probable space group: C M M 2
;
_chemical_formula_sum "Si O2"
_cell_formula_units_Z 64
_cell_length_a 8.738604
_cell_length_b 19.319831
_cell_length_c 21.335691
_cell_angle_alpha 90.000000
_cell_angle_beta 90.000000
_cell_angle_gamma 90.000000
_cell_volume 3602.069560
_symmetry_space_group_name_H-M "C M M 2"
_symmetry_group_IT_number 35
_symmetry_cell_setting 'orthorhombic'
loop_
_space_group_symop_operation_xyz
x,y,z
-x,-y,z
-x,y,z
x,-y,z
1/2+x,1/2+y,z
1/2-x,1/2-y,z
1/2-x,1/2+y,z
1/2+x,1/2-y,z
loop_
_atom_site_type_symbol
_atom_site_label
_atom_site_fract_x
_atom_site_fract_y
_atom_site_fract_z
Si Si1 0.816317 0.918672 0.950540
Si Si2 0.317909 0.327575 0.327731
Si Si3 0.816469 0.672089 0.199191
Si Si4 0.317320 0.172778 0.061058
Si Si5 0.815842 0.080585 0.574009
Si Si6 0.185260 0.173040 0.692886
Si Si7 0.817857 0.418350 0.438575
Si Si8 0.686471 0.420290 0.809222
O O1 0.742186 0.873632 0.004639
O O2 0.766582 0.899664 0.879668
O O3 0.000000 0.910700 0.953564
O O4 0.781819 0.000000 0.958825
O O5 0.500000 0.322904 0.324713
O O6 0.250000 0.250000 0.334036
O O7 0.254617 0.358925 0.262233
O O8 0.264305 0.373161 0.386053
O O9 0.750000 0.750000 0.197582
O O10 0.000000 0.674043 0.205415
O O11 0.776876 0.643011 0.130381
O O12 0.500000 0.177786 0.058694
O O13 0.250000 0.250000 0.056000
O O14 0.769693 0.129593 0.631244
O O15 0.738939 0.100096 0.508308
O O16 0.000000 0.084717 0.567069
O O17 0.778374 0.000000 0.587738
O O18 0.250000 0.250000 0.691689
O O19 0.236817 0.131095 0.754681
O O20 0.000000 0.175689 0.693914
O O21 0.783692 0.500000 0.429746
O O22 0.000000 0.408701 0.434076
O O23 0.500000 0.420777 0.808891
O O24 0.733868 0.500000 0.797648
#
# Coordination Sequence:
#
# PCOD9348845 Si02
#       8
#     8   8   8   8   8   8   8   8
#     4   9  18  33  53  76 103 135 172 215 260 308
#     4  11  21  34  55  80 106 136 172 214 257 305
#     4   9  17  31  50  73 101 134 172 212 256 306
#     4  10  20  33  52  76 103 136 173 214 258 307
#     4   9  18  34  55  75  96 130 175 213 247 297
#     4  10  20  33  51  76 105 133 163 207 257 302
#     4  10  21  37  56  78 106 138 171 211 258 306
#     4   8  15  31  54  75  96 130 174 211 247 298
#
# _framework density 17.767564
#
# number of rings (size 3 to 8) (size 9 to 14) (size 15 to 20)
#    0.000    2.500    0.000    4.125    0.000    5.500 
#    0.000    3.750    0.000    2.625    0.000    0.000 
#    0.000    0.000    0.000    0.000    0.000    0.000 
#
# Total GULP energy -178462.555299 kJ/mol
# GULP energy per Si atom -5576.954853 kJ/mol
# Density = 1.772712 g / cm^3
# Si number density = 17.767564 Si / 1000 Ang^3
#
#
#
# Elastic Constant Matrix: (Units=GPa)
#
#
# Indices 1 2 3 4 5 6 
#
# 1 53.4829 41.1589 65.7423 0.0000 0.0000 0.0000
# 2 41.1589 76.2628 101.4160 0.0000 0.0000 0.0000
# 3 65.7423 101.4160 205.3424 0.0000 0.0000 0.0000
# 4 0.0000 0.0000 0.0000 33.1212 0.0000 0.0000
# 5 0.0000 0.0000 0.0000 0.0000 25.3060 0.0000
# 6 0.0000 0.0000 0.0000 0.0000 0.0000 27.0173
#
#
#
# Elastic Compliance Matrix: (Units=1/GPa)
#
#
# Indices 1 2 3 4 5 6 
#
# 1 0.033841 -0.011235 -0.005286 0.000000 0.000000 0.000000
# 2 -0.011235 0.041935 -0.017114 0.000000 0.000000 0.000000
# 3 -0.005286 -0.017114 0.015015 0.000000 0.000000 0.000000
# 4 0.000000 0.000000 0.000000 0.030192 0.000000 0.000000
# 5 0.000000 0.000000 0.000000 0.000000 0.039516 0.000000
# 6 0.000000 0.000000 0.000000 0.000000 0.000000 0.037013
#
#
# Mechanical properties :
#
#
# Convention : Reuss Voigt Hill
#
# Bulk Modulus (GPa) = 42.51529 83.52472 63.02001
# Shear Modulus (GPa) = 18.34048 25.54030 21.94039
#
# Velocity S-wave (km/s) = 3.21634 3.79551 3.51786
# Velocity P-wave (km/s) = 6.14603 8.14368 7.21433
#
# Compressibility (1/GPa) = 0.02352095
#
# Stress axis : x y z
#
# Youngs Moduli (GPa) = 29.55011 23.84671 66.60177
#
# Poissons Ratio (x) = 0.26791 0.35204
# Poissons Ratio (y) = 0.33199 1.13982
# Poissons Ratio (z) = 0.15620 0.40811
#
# Static dielectric constant tensor:
#      x y z
#    x 1.601100 0.000000 0.000000 
#    y 0.000000 1.583920 0.000000 
#    z 0.000000 0.000000 1.622390 
# 
# From -- ./inp_files/18388.got.cif
#   From: 2010.05.17/outbox.cif.g08.bks.cpg/sg35_10_cif.got.tgz:18388.got - 2010.06.03 17:29:28.
