data_PCOD9348014
_publ_section_title
;
Structure prediction by ZEFSAII (Michael W. Deem and Ramdas Pophale) SiO2 
 PCOD9348014
Probable space group: P N N 2
;
_chemical_formula_sum "Si O2"
_cell_formula_units_Z 16
_cell_length_a 9.072011
_cell_length_b 11.880598
_cell_length_c 6.058685
_cell_angle_alpha 90.000000
_cell_angle_beta 90.000000
_cell_angle_gamma 90.000000
_cell_volume 653.010617
_symmetry_space_group_name_H-M "P N N 2"
_symmetry_group_IT_number 34
_symmetry_cell_setting 'orthorhombic'
loop_
_space_group_symop_operation_xyz
x,y,z
-x,-y,z
1/2-x,1/2+y,1/2+z
1/2+x,1/2-y,1/2+z
loop_
_atom_site_type_symbol
_atom_site_label
_atom_site_fract_x
_atom_site_fract_y
_atom_site_fract_z
Si Si1 0.500000 0.000000 0.917120
Si Si2 0.288803 0.927257 0.300415
Si Si3 0.169014 0.652182 0.064764
Si Si4 0.500000 0.500000 0.638376
Si Si5 0.920621 0.792303 0.872004
O O1 0.420406 0.098884 0.773985
O O2 0.618309 0.063601 0.074293
O O3 0.334829 0.820566 0.445902
O O4 0.323993 0.044338 0.412229
O O5 0.114473 0.926465 0.273180
O O6 0.332874 0.686789 0.143397
O O7 0.086477 0.749296 0.923722
O O8 0.591264 0.410760 0.494865
#
# Coordination Sequence:
#
# PCOD9348014 Si02
#       5
#     2   4   4   2   4
#     4  12  22  48  80 104 146 204 264 308 402 470
#     4  12  26  51  76 112 155 207 264 324 397 472
#     4  12  26  49  80 113 152 213 261 327 398 473
#     4  12  28  48  76 122 148 210 268 320 404 476
#     4  12  25  50  78 113 162 202 268 334 396 475
#
# _framework density 24.501895999999999
#
# number of rings (size 3 to 8) (size 9 to 14) (size 15 to 20)
#    0.000    0.000   10.000    0.000    0.000    3.000 
#   18.000    0.000    0.000    0.000    0.000    0.000 
#    0.000    0.000    0.000    0.000    0.000    0.000 
#
# Total GULP energy -89277.613783 kJ/mol
# GULP energy per Si atom -5579.850861 kJ/mol
# Density = 2.444613 g / cm^3
# Si number density = 24.501896 Si / 1000 Ang^3
#
#
#
# Elastic Constant Matrix: (Units=GPa)
#
#
# Indices 1 2 3 4 5 6 
#
# 1 97.0647 3.7614 47.9544 0.0000 0.0000 0.0000
# 2 3.7614 120.1579 21.3322 0.0000 0.0000 0.0000
# 3 47.9544 21.3322 75.9441 0.0000 0.0000 0.0000
# 4 0.0000 0.0000 0.0000 120.6449 0.0000 0.0000
# 5 0.0000 0.0000 0.0000 0.0000 57.7522 0.0000
# 6 0.0000 0.0000 0.0000 0.0000 0.0000 -10.4138
#
#
#
# Elastic Compliance Matrix: (Units=1/GPa)
#
#
# Indices 1 2 3 4 5 6 
#
# 1 0.015161 0.001289 -0.009935 0.000000 0.000000 0.000000
# 2 0.001289 0.008869 -0.003305 0.000000 0.000000 0.000000
# 3 -0.009935 -0.003305 0.020370 0.000000 0.000000 0.000000
# 4 0.000000 0.000000 0.000000 0.008289 0.000000 0.000000
# 5 0.000000 0.000000 0.000000 0.000000 0.017315 0.000000
# 6 0.000000 0.000000 0.000000 0.000000 0.000000 -0.096027
#
#
# Mechanical properties :
#
#
# Convention : Reuss Voigt Hill
#
# Bulk Modulus (GPa) = 48.78865 48.80696 48.79781
# Shear Modulus (GPa) = 1061.07937 48.27125 554.67531
#
# Velocity S-wave (km/s) = 20.83267 4.44340 15.06227
# Velocity P-wave (km/s) = 24.46676 6.80353 17.95704
#
# Compressibility (1/GPa) = 0.02049657
#
# Stress axis : x y z
#
# Youngs Moduli (GPa) = 65.95858 112.75442 49.09253
#
# Poissons Ratio (x) = -0.14537 0.48776
# Poissons Ratio (y) = -0.08504 0.16227
# Poissons Ratio (z) = 0.65533 0.37269
#
# Static dielectric constant tensor:
#      x y z
#    x 2.036920 0.000000 0.000000 
#    y 0.000000 1.891500 0.000000 
#    z 0.000000 0.000000 1.974630 
# 
# From -- ./inp_files/712.got.cif
#   From: 2010.05.17/outbox.cif.g08.bks.cpg/sg34_1_cif.got.tgz:712.got - 2010.06.03 17:23:11.
