data_PCOD9348933
_publ_section_title
;
Structure prediction by ZEFSAII (Michael W. Deem and Ramdas Pophale) SiO2 
 PCOD9348933
Probable space group: C M M 2
;
_chemical_formula_sum "Si O2"
_cell_formula_units_Z 64
_cell_length_a 8.829905
_cell_length_b 19.308815
_cell_length_c 21.299828
_cell_angle_alpha 90.000000
_cell_angle_beta 90.000000
_cell_angle_gamma 90.000000
_cell_volume 3631.514220
_symmetry_space_group_name_H-M "C M M 2"
_symmetry_group_IT_number 35
_symmetry_cell_setting 'orthorhombic'
loop_
_space_group_symop_operation_xyz
x,y,z
-x,-y,z
-x,y,z
x,-y,z
1/2+x,1/2+y,z
1/2-x,1/2-y,z
1/2-x,1/2+y,z
1/2+x,1/2-y,z
loop_
_atom_site_type_symbol
_atom_site_label
_atom_site_fract_x
_atom_site_fract_y
_atom_site_fract_z
Si Si1 0.682334 0.173114 0.304540
Si Si2 0.680961 0.418624 0.415150
Si Si3 0.318140 0.079818 0.186821
Si Si4 0.182401 0.326212 0.666756
Si Si5 0.183208 0.918951 0.917613
Si Si6 0.318367 0.173328 0.807874
Si Si7 0.825116 0.915867 0.056032
Si Si8 0.818932 0.418614 0.549476
O O1 0.500000 0.176740 0.305342
O O2 0.750000 0.250000 0.304617
O O3 0.739648 0.129613 0.364192
O O4 0.731515 0.130263 0.242545
O O5 0.500000 0.412300 0.410367
O O6 0.721401 0.500000 0.405147
O O7 0.735288 0.399511 0.485155
O O8 0.500000 0.078119 0.187312
O O9 0.264068 0.104210 0.118334
O O10 0.264704 0.000000 0.196680
O O11 0.250000 0.250000 0.658654
O O12 0.223046 0.351008 0.737097
O O13 0.231219 0.375212 0.609900
O O14 0.000000 0.321915 0.664827
O O15 0.253335 0.875428 0.861675
O O16 0.000000 0.914523 0.916312
O O17 0.223620 0.000000 0.911232
O O18 0.232073 0.893734 0.987297
O O19 0.500000 0.176488 0.812140
O O20 0.250000 0.250000 0.815059
O O21 0.000000 0.894517 0.062630
O O22 0.822766 0.000000 0.053817
O O23 0.792682 0.500000 0.560806
O O24 0.000000 0.408888 0.540804
#
# Coordination Sequence:
#
# PCOD9348933 Si02
#       8
#     8   8   8   8   8   8   8   8
#     4  11  23  38  55  77 107 140 174 213 258 305
#     4  10  21  37  57  81 107 136 173 213 252 302
#     4   9  18  33  54  78 102 131 169 211 254 304
#     4   9  19  34  52  74 100 133 171 211 255 306
#     4   9  18  33  52  76 106 137 171 213 260 308
#     4  10  20  34  52  74 102 137 177 217 258 307
#     4   8  15  29  50  75 102 132 166 206 253 305
#     4   9  18  34  55  77 103 135 169 208 255 303
#
# _framework density 17.623501999999998
#
# number of rings (size 3 to 8) (size 9 to 14) (size 15 to 20)
#    0.000    2.625    0.000    2.250    0.000    5.000 
#    0.000    5.625    0.000    3.000    0.000    0.000 
#    0.000    0.000    0.000    0.000    0.000    0.000 
#
# Total GULP energy -178440.218010 kJ/mol
# GULP energy per Si atom -5576.256813 kJ/mol
# Density = 1.758339 g / cm^3
# Si number density = 17.623502 Si / 1000 Ang^3
#
#
#
# Elastic Constant Matrix: (Units=GPa)
#
#
# Indices 1 2 3 4 5 6 
#
# 1 29.9533 35.6859 51.4016 0.0000 0.0000 0.0000
# 2 35.6859 80.1854 98.7509 0.0000 0.0000 0.0000
# 3 51.4016 98.7509 195.9968 0.0000 0.0000 0.0000
# 4 0.0000 0.0000 0.0000 -29.4190 0.0000 0.0000
# 5 0.0000 0.0000 0.0000 0.0000 26.9691 0.0000
# 6 0.0000 0.0000 0.0000 0.0000 0.0000 24.5825
#
#
#
# Elastic Compliance Matrix: (Units=1/GPa)
#
#
# Indices 1 2 3 4 5 6 
#
# 1 0.075049 -0.024139 -0.007520 0.000000 0.000000 0.000000
# 2 -0.024139 0.040625 -0.014138 0.000000 0.000000 0.000000
# 3 -0.007520 -0.014138 0.014198 0.000000 0.000000 0.000000
# 4 0.000000 0.000000 0.000000 -0.033992 0.000000 0.000000
# 5 0.000000 0.000000 0.000000 0.000000 0.037079 0.000000
# 6 0.000000 0.000000 0.000000 0.000000 0.000000 0.040679
#
#
# Mechanical properties :
#
#
# Convention : Reuss Voigt Hill
#
# Bulk Modulus (GPa) = 26.12461 75.31247 50.71854
# Shear Modulus (GPa) = 17.98614 12.44632 15.21623
#
# Velocity S-wave (km/s) = 3.19811 2.66039 2.94156
# Velocity P-wave (km/s) = 5.33790 7.22937 6.35441
#
# Compressibility (1/GPa) = 0.03827809
#
# Stress axis : x y z
#
# Youngs Moduli (GPa) = 13.32468 24.61521 70.43415
#
# Poissons Ratio (x) = 0.59418 0.52967
# Poissons Ratio (y) = 0.32164 0.99580
# Poissons Ratio (z) = 0.10020 0.34801
#
# Static dielectric constant tensor:
#      x y z
#    x 1.595600 0.000000 0.000000 
#    y 0.000000 1.576190 0.000000 
#    z 0.000000 0.000000 1.602400 
# 
# From -- ./inp_files/18330.got.cif
#   From: 2010.05.17/outbox.cif.g08.bks.cpg/sg35_10_cif.got.tgz:18330.got - 2010.06.03 17:29:28.
