data_PCOD9348547
_publ_section_title
;
Structure prediction by ZEFSAII (Michael W. Deem and Ramdas Pophale) SiO2 
 PCOD9348547
Probable space group: C M M 2
;
_chemical_formula_sum "Si O2"
_cell_formula_units_Z 48
_cell_length_a 9.001066
_cell_length_b 15.556133
_cell_length_c 17.543864
_cell_angle_alpha 90.000000
_cell_angle_beta 90.000000
_cell_angle_gamma 90.000000
_cell_volume 2456.523063
_symmetry_space_group_name_H-M "C M M 2"
_symmetry_group_IT_number 35
_symmetry_cell_setting 'orthorhombic'
loop_
_space_group_symop_operation_xyz
x,y,z
-x,-y,z
-x,y,z
x,-y,z
1/2+x,1/2+y,z
1/2-x,1/2-y,z
1/2-x,1/2+y,z
1/2+x,1/2-y,z
loop_
_atom_site_type_symbol
_atom_site_label
_atom_site_fract_x
_atom_site_fract_y
_atom_site_fract_z
Si Si1 0.322155 0.839043 0.312170
Si Si2 0.670023 0.894924 0.621205
Si Si3 0.680105 0.000000 0.210700
Si Si4 0.679675 0.000000 0.033477
Si Si5 0.171263 0.104317 0.466612
Si Si6 0.321142 0.339825 0.945664
Si Si7 0.674794 0.396920 0.775616
O O1 0.500000 0.833822 0.310657
O O2 0.250000 0.750000 0.287607
O O3 0.271426 0.915985 0.256995
O O4 0.268199 0.859963 0.397575
O O5 0.500000 0.868389 0.611276
O O6 0.767133 0.867965 0.548814
O O7 0.733563 0.866465 0.702555
O O8 0.674165 0.000000 0.622342
O O9 0.722616 0.000000 0.122561
O O10 0.500000 0.000000 0.212596
O O11 0.500000 0.000000 0.027251
O O12 0.748171 0.083000 0.992519
O O13 0.000000 0.130066 0.457100
O O14 0.178678 0.000000 0.463931
O O15 0.500000 0.340569 0.953750
O O16 0.250000 0.250000 0.970067
O O17 0.286300 0.354729 0.856047
O O18 0.500000 0.383456 0.760720
O O19 0.697081 0.500000 0.784209
#
# Coordination Sequence:
#
# PCOD9348547 Si02
#       7
#     8   8   4   4   8   8   8
#     4  11  22  40  63  90 123 159 199 247 300 359
#     4   9  17  28  48  81 116 154 203 252 301 354
#     4   9  22  43  67  92 123 158 195 243 304 365
#     4  11  23  43  69  96 125 160 201 249 308 373
#     4  10  19  33  55  84 118 158 205 251 299 353
#     4  11  23  41  63  93 127 165 207 254 308 366
#     4   9  17  33  55  79 115 158 202 253 305 358
#
# _framework density 19.539812999999999
#
# number of rings (size 3 to 8) (size 9 to 14) (size 15 to 20)
#    0.000    2.000    1.667    2.250    0.000    4.667 
#    0.000    5.833    0.000    2.000    0.000    0.000 
#    0.000    0.000    0.000    0.000    0.000    0.000 
#
# Total GULP energy -134122.336947 kJ/mol
# GULP energy per Si atom -5588.430706 kJ/mol
# Density = 1.949534 g / cm^3
# Si number density = 19.539813 Si / 1000 Ang^3
#
#
#
# Elastic Constant Matrix: (Units=GPa)
#
#
# Indices 1 2 3 4 5 6 
#
# 1 89.5683 55.7202 60.4189 0.0000 0.0000 0.0000
# 2 55.7202 113.0934 68.7769 0.0000 0.0000 0.0000
# 3 60.4189 68.7769 139.5176 0.0000 0.0000 0.0000
# 4 0.0000 0.0000 0.0000 -11.9554 0.0000 0.0000
# 5 0.0000 0.0000 0.0000 0.0000 23.2694 0.0000
# 6 0.0000 0.0000 0.0000 0.0000 0.0000 25.5609
#
#
#
# Elastic Compliance Matrix: (Units=1/GPa)
#
#
# Indices 1 2 3 4 5 6 
#
# 1 0.018212 -0.005965 -0.004946 0.000000 0.000000 0.000000
# 2 -0.005965 0.014582 -0.004605 0.000000 0.000000 0.000000
# 3 -0.004946 -0.004605 0.011580 0.000000 0.000000 0.000000
# 4 0.000000 0.000000 0.000000 -0.083645 0.000000 0.000000
# 5 0.000000 0.000000 0.000000 0.000000 0.042975 0.000000
# 6 0.000000 0.000000 0.000000 0.000000 0.000000 0.039122
#
#
# Mechanical properties :
#
#
# Convention : Reuss Voigt Hill
#
# Bulk Modulus (GPa) = 74.95804 79.11237 77.03520
# Shear Modulus (GPa) = 63.85263 17.85921 40.85592
#
# Velocity S-wave (km/s) = 5.72269 3.02651 4.57760
# Velocity P-wave (km/s) = 9.06149 7.26558 8.21277
#
# Compressibility (1/GPa) = 0.01334080
#
# Stress axis : x y z
#
# Youngs Moduli (GPa) = 54.90898 68.57961 86.35762
#
# Poissons Ratio (x) = 0.40906 0.42716
# Poissons Ratio (y) = 0.32752 0.39769
# Poissons Ratio (z) = 0.27160 0.31582
#
# Static dielectric constant tensor:
#      x y z
#    x 1.652570 0.000000 0.000000 
#    y 0.000000 1.706390 0.000000 
#    z 0.000000 0.000000 1.651800 
# 
# From -- ./inp_files/17886.got.cif
#   From: 2010.05.17/outbox.cif.g08.bks.cpg/sg35_9_cif.got.tgz:17886.got - 2010.06.03 17:29:28.
