data_PCOD9348608
_publ_section_title
;
Structure prediction by ZEFSAII (Michael W. Deem and Ramdas Pophale) SiO2 
 PCOD9348608
Probable space group: C M M 2
;
_chemical_formula_sum "Si O2"
_cell_formula_units_Z 64
_cell_length_a 16.220782
_cell_length_b 15.655077
_cell_length_c 12.456248
_cell_angle_alpha 90.000000
_cell_angle_beta 90.000000
_cell_angle_gamma 90.000000
_cell_volume 3163.109613
_symmetry_space_group_name_H-M "C M M 2"
_symmetry_group_IT_number 35
_symmetry_cell_setting 'orthorhombic'
loop_
_space_group_symop_operation_xyz
x,y,z
-x,-y,z
-x,y,z
x,-y,z
1/2+x,1/2+y,z
1/2-x,1/2-y,z
1/2-x,1/2+y,z
1/2+x,1/2-y,z
loop_
_atom_site_type_symbol
_atom_site_label
_atom_site_fract_x
_atom_site_fract_y
_atom_site_fract_z
Si Si1 0.094773 0.237312 0.231860
Si Si2 0.098933 0.598554 0.329935
Si Si3 0.786279 0.839682 0.875841
Si Si4 0.154678 0.594898 0.725174
Si Si5 0.734377 0.853772 0.504039
Si Si6 0.912554 0.774834 0.701748
Si Si7 0.590724 0.649443 0.463949
Si Si8 0.900848 0.097531 0.063888
O O1 0.127539 0.333415 0.239801
O O2 0.094598 0.203653 0.354412
O O3 0.128747 0.165636 0.153208
O O4 0.000000 0.246121 0.197735
O O5 0.108156 0.500000 0.299455
O O6 0.157627 0.619061 0.430474
O O7 0.000000 0.612337 0.352533
O O8 0.750000 0.750000 0.919606
O O9 0.710591 0.894931 0.831243
O O10 0.839525 0.813896 0.770907
O O11 0.846803 0.884668 0.958807
O O12 0.120111 0.500000 0.717072
O O13 0.212288 0.614593 0.622346
O O14 0.092365 0.673649 0.719805
O O15 0.750000 0.750000 0.498957
O O16 0.820850 0.895871 0.467851
O O17 0.908289 0.796817 0.575529
O O18 0.000000 0.809013 0.741658
O O19 0.500000 0.606016 0.462313
O O20 0.000000 0.107443 0.044233
O O21 0.889340 0.000000 0.100979
#
# Coordination Sequence:
#
# PCOD9348608 Si02
#       8
#     8   8   8   8   8   8   8   8
#     4   9  18  35  60  85 116 156 192 239 298 351
#     4  10  21  37  60  90 123 161 204 247 296 361
#     4  10  20  38  59  82 113 151 193 241 299 355
#     4  11  21  33  51  80 118 151 187 240 296 349
#     4  12  19  33  56  83 120 161 199 235 291 355
#     4  10  19  34  59  84 108 149 197 235 288 359
#     4  10  19  34  57  83 117 158 196 236 291 361
#     4  10  21  39  64  89 112 148 201 253 299 354
#
# _framework density 20.233253000000001
#
# number of rings (size 3 to 8) (size 9 to 14) (size 15 to 20)
#    0.000    1.750    3.750    1.500    0.000    0.750 
#    2.250    1.250    0.000    6.750    0.000    3.500 
#    0.000    0.000    0.000    0.000    0.000    0.000 
#
# Total GULP energy -178277.014261 kJ/mol
# GULP energy per Si atom -5571.156696 kJ/mol
# Density = 2.018720 g / cm^3
# Si number density = 20.233253 Si / 1000 Ang^3
#
#
#
# Elastic Constant Matrix: (Units=GPa)
#
#
# Indices 1 2 3 4 5 6 
#
# 1 83.4595 12.3951 12.9210 0.0000 0.0000 0.0000
# 2 12.3951 102.3468 48.6373 0.0000 0.0000 0.0000
# 3 12.9210 48.6373 72.8822 0.0000 0.0000 0.0000
# 4 0.0000 0.0000 0.0000 19.7559 0.0000 0.0000
# 5 0.0000 0.0000 0.0000 0.0000 22.0589 0.0000
# 6 0.0000 0.0000 0.0000 0.0000 0.0000 12.5948
#
#
#
# Elastic Compliance Matrix: (Units=1/GPa)
#
#
# Indices 1 2 3 4 5 6 
#
# 1 0.012351 -0.000667 -0.001745 0.000000 0.000000 0.000000
# 2 -0.000667 0.014344 -0.009454 0.000000 0.000000 0.000000
# 3 -0.001745 -0.009454 0.020339 0.000000 0.000000 0.000000
# 4 0.000000 0.000000 0.000000 0.050618 0.000000 0.000000
# 5 0.000000 0.000000 0.000000 0.000000 0.045333 0.000000
# 6 0.000000 0.000000 0.000000 0.000000 0.000000 0.079398
#
#
# Mechanical properties :
#
#
# Convention : Reuss Voigt Hill
#
# Bulk Modulus (GPa) = 42.91276 45.17727 44.04502
# Shear Modulus (GPa) = 19.69408 23.19757 21.44582
#
# Velocity S-wave (km/s) = 3.12324 3.38968 3.25919
# Velocity P-wave (km/s) = 5.85331 6.13976 5.99825
#
# Compressibility (1/GPa) = 0.02330309
#
# Stress axis : x y z
#
# Youngs Moduli (GPa) = 80.96514 69.71373 49.16559
#
# Poissons Ratio (x) = 0.04648 0.08578
# Poissons Ratio (y) = 0.05398 0.46483
# Poissons Ratio (z) = 0.14127 0.65910
#
# Static dielectric constant tensor:
#      x y z
#    x 1.761970 0.000000 0.000000 
#    y 0.000000 1.761450 0.000000 
#    z 0.000000 0.000000 1.694890 
# 
# From -- ./inp_files/13596.got.cif
#   From: 2010.05.17/outbox.cif.g08.bks.cpg/sg35_7_cif.got.tgz:13596.got - 2010.06.03 17:29:28.
