data_PCOD9348612
_publ_section_title
;
Structure prediction by ZEFSAII (Michael W. Deem and Ramdas Pophale) SiO2 
 PCOD9348612
Probable space group: C M M 2
;
_chemical_formula_sum "Si O2"
_cell_formula_units_Z 60
_cell_length_a 13.959066
_cell_length_b 13.445367
_cell_length_c 14.040192
_cell_angle_alpha 90.000000
_cell_angle_beta 90.000000
_cell_angle_gamma 90.000000
_cell_volume 2635.130141
_symmetry_space_group_name_H-M "C M M 2"
_symmetry_group_IT_number 35
_symmetry_cell_setting 'orthorhombic'
loop_
_space_group_symop_operation_xyz
x,y,z
-x,-y,z
-x,y,z
x,-y,z
1/2+x,1/2+y,z
1/2-x,1/2-y,z
1/2-x,1/2+y,z
1/2+x,1/2-y,z
loop_
_atom_site_type_symbol
_atom_site_label
_atom_site_fract_x
_atom_site_fract_y
_atom_site_fract_z
Si Si1 0.895962 0.620342 0.775180
Si Si2 0.190009 0.381032 0.181367
Si Si3 0.809357 0.378265 0.972568
Si Si4 0.808589 0.881483 0.683422
Si Si5 0.893383 0.301243 0.377207
Si Si6 0.250000 0.750000 0.524110
Si Si7 0.105278 0.116823 0.259321
Si Si8 0.106440 0.121149 0.886770
O O1 0.899321 0.500000 0.777783
O O2 0.874147 0.653218 0.883469
O O3 0.801569 0.640914 0.714315
O O4 0.000000 0.655293 0.741706
O O5 0.182391 0.500000 0.180868
O O6 0.134014 0.345220 0.274266
O O7 0.302547 0.356601 0.196584
O O8 0.158881 0.345692 0.077180
O O9 0.810998 0.500000 0.972451
O O10 0.699211 0.349818 0.948736
O O11 0.819599 0.817574 0.588775
O O12 0.871473 0.853876 0.775865
O O13 0.819007 0.000000 0.668274
O O14 0.815013 0.319654 0.457006
O O15 0.890610 0.183320 0.353800
O O16 0.000000 0.331932 0.404440
O O17 0.000000 0.135708 0.215116
O O18 0.111695 0.000000 0.279884
O O19 0.000000 0.152791 0.915948
O O20 0.106964 0.000000 0.889677
#
# Coordination Sequence:
#
# PCOD9348612 Si02
#       8
#     8   8   8   8   8   4   8   8
#     4   8  14  29  53  80 112 145 178 221 271 331
#     4  10  19  34  57  86 123 160 193 233 282 341
#     4   8  15  26  48  85 117 149 188 221 265 332
#     4   9  20  36  57  85 112 143 185 230 288 349
#     4  11  24  41  58  81 113 151 195 246 299 345
#     4  12  24  40  60  82 106 148 190 250 296 342
#     4   9  18  35  60  83 104 141 193 244 293 340
#     4   8  14  29  54  85 120 150 180 226 281 337
#
# _framework density 22.769275
#
# number of rings (size 3 to 8) (size 9 to 14) (size 15 to 20)
#    0.000    2.800    1.333    1.600    0.000    3.467 
#    0.000    4.000   11.733    0.000    0.000    0.000 
#    0.000    0.000    0.000    0.000    0.000    0.000 
#
# Total GULP energy -167563.998391 kJ/mol
# GULP energy per Si atom -5585.466613 kJ/mol
# Density = 2.271745 g / cm^3
# Si number density = 22.769275 Si / 1000 Ang^3
#
#
#
# Elastic Constant Matrix: (Units=GPa)
#
#
# Indices 1 2 3 4 5 6 
#
# 1 93.7669 -4.2779 5.3046 0.0000 0.0000 0.0000
# 2 -4.2779 52.5220 7.5839 0.0000 0.0000 0.0000
# 3 5.3046 7.5839 83.6021 0.0000 0.0000 0.0000
# 4 0.0000 0.0000 0.0000 22.6348 0.0000 0.0000
# 5 0.0000 0.0000 0.0000 0.0000 5.8337 0.0000
# 6 0.0000 0.0000 0.0000 0.0000 0.0000 25.6332
#
#
#
# Elastic Compliance Matrix: (Units=1/GPa)
#
#
# Indices 1 2 3 4 5 6 
#
# 1 0.010753 0.000987 -0.000772 0.000000 0.000000 0.000000
# 2 0.000987 0.019383 -0.001821 0.000000 0.000000 0.000000
# 3 -0.000772 -0.001821 0.012176 0.000000 0.000000 0.000000
# 4 0.000000 0.000000 0.000000 0.044180 0.000000 0.000000
# 5 0.000000 0.000000 0.000000 0.000000 0.171418 0.000000
# 6 0.000000 0.000000 0.000000 0.000000 0.000000 0.039012
#
#
# Mechanical properties :
#
#
# Convention : Reuss Voigt Hill
#
# Bulk Modulus (GPa) = 25.57480 27.45692 26.51586
# Shear Modulus (GPa) = 15.96594 25.57237 20.76916
#
# Velocity S-wave (km/s) = 2.65090 3.35492 3.02347
# Velocity P-wave (km/s) = 4.54161 5.20502 4.88459
#
# Compressibility (1/GPa) = 0.03910098
#
# Stress axis : x y z
#
# Youngs Moduli (GPa) = 92.99337 51.59167 82.13157
#
# Poissons Ratio (x) = -0.05094 0.06340
# Poissons Ratio (y) = -0.09181 0.14956
# Poissons Ratio (z) = 0.07178 0.09395
#
# Static dielectric constant tensor:
#      x y z
#    x 1.834490 0.000000 0.000000 
#    y 0.000000 1.946270 0.000000 
#    z 0.000000 0.000000 1.827130 
# 
# From -- ./inp_files/16854.got.cif
#   From: 2010.05.17/outbox.cif.g08.bks.cpg/sg35_9_cif.got.tgz:16854.got - 2010.06.03 17:29:28.
