data_PCOD9348531
_publ_section_title
;
Structure prediction by ZEFSAII (Michael W. Deem and Ramdas Pophale) SiO2 
 PCOD9348531
Probable space group: C M M 2
;
_chemical_formula_sum "Si O2"
_cell_formula_units_Z 64
_cell_length_a 23.369171
_cell_length_b 14.810594
_cell_length_c 9.336756
_cell_angle_alpha 90.000000
_cell_angle_beta 90.000000
_cell_angle_gamma 90.000000
_cell_volume 3231.556792
_symmetry_space_group_name_H-M "C M M 2"
_symmetry_group_IT_number 35
_symmetry_cell_setting 'orthorhombic'
loop_
_space_group_symop_operation_xyz
x,y,z
-x,-y,z
-x,y,z
x,-y,z
1/2+x,1/2+y,z
1/2-x,1/2-y,z
1/2-x,1/2+y,z
1/2+x,1/2-y,z
loop_
_atom_site_type_symbol
_atom_site_label
_atom_site_fract_x
_atom_site_fract_y
_atom_site_fract_z
Si Si1 0.277384 0.109237 0.373230
Si Si2 0.739942 0.898418 0.055250
Si Si3 0.156501 0.892283 0.512770
Si Si4 0.567096 0.898795 0.162800
Si Si5 0.888192 0.399198 0.556934
Si Si6 0.434579 0.748918 0.388710
Si Si7 0.192789 0.193396 0.807288
Si Si8 0.126476 0.362508 0.881210
O O1 0.278011 0.141749 0.208795
O O2 0.215675 0.133522 0.434502
O O3 0.329036 0.133355 0.480534
O O4 0.280545 0.000000 0.370936
O O5 0.760015 0.000000 0.082356
O O6 0.786439 0.850829 0.955751
O O7 0.683241 0.899203 0.958733
O O8 0.106350 0.832016 0.441398
O O9 0.170516 0.869190 0.679072
O O10 0.146402 0.000000 0.497266
O O11 0.500000 0.904255 0.194392
O O12 0.587306 0.812392 0.255775
O O13 0.592351 0.000000 0.191616
O O14 0.577484 0.879503 0.996007
O O15 0.902872 0.500000 0.505560
O O16 0.933381 0.323935 0.514103
O O17 0.881454 0.403587 0.726019
O O18 0.500000 0.719342 0.360699
O O19 0.250000 0.250000 0.759083
O O20 0.141367 0.259355 0.848024
#
# Coordination Sequence:
#
# PCOD9348531 Si02
#       8
#     8   8   8   8   8   8   8   8
#     4   9  20  35  58  92 122 158 202 245 301 365
#     4  10  19  33  54  84 123 160 200 243 294 366
#     4  11  23  42  65  89 122 164 208 260 315 367
#     4  10  22  41  63  87 120 159 201 254 315 376
#     4  11  21  37  62  91 129 163 196 247 304 370
#     4  11  25  42  62  89 118 159 211 262 311 365
#     4  10  21  36  55  89 126 163 197 244 304 369
#     4  11  21  36  55  88 123 163 198 233 300 368
#
# _framework density 19.804694999999999
#
# number of rings (size 3 to 8) (size 9 to 14) (size 15 to 20)
#    0.000    1.625    1.250    4.125    1.750    3.500 
#    2.250    0.000    0.000    0.000    0.000    0.000 
#    0.000    0.000    0.000    0.000    0.000    0.000 
#
# Total GULP energy -178482.856049 kJ/mol
# GULP energy per Si atom -5577.589252 kJ/mol
# Density = 1.975962 g / cm^3
# Si number density = 19.804695 Si / 1000 Ang^3
#
#
#
# Elastic Constant Matrix: (Units=GPa)
#
#
# Indices 1 2 3 4 5 6 
#
# 1 66.2868 30.0713 23.7581 0.0000 0.0000 0.0000
# 2 30.0713 85.7931 29.0436 0.0000 0.0000 0.0000
# 3 23.7581 29.0436 149.8337 0.0000 0.0000 0.0000
# 4 0.0000 0.0000 0.0000 5.5918 0.0000 0.0000
# 5 0.0000 0.0000 0.0000 0.0000 24.1204 0.0000
# 6 0.0000 0.0000 0.0000 0.0000 0.0000 13.2592
#
#
#
# Elastic Compliance Matrix: (Units=1/GPa)
#
#
# Indices 1 2 3 4 5 6 
#
# 1 0.018372 -0.005836 -0.001782 0.000000 0.000000 0.000000
# 2 -0.005836 0.014329 -0.001852 0.000000 0.000000 0.000000
# 3 -0.001782 -0.001852 0.007316 0.000000 0.000000 0.000000
# 4 0.000000 0.000000 0.000000 0.178832 0.000000 0.000000
# 5 0.000000 0.000000 0.000000 0.000000 0.041459 0.000000
# 6 0.000000 0.000000 0.000000 0.000000 0.000000 0.075419
#
#
# Mechanical properties :
#
#
# Convention : Reuss Voigt Hill
#
# Bulk Modulus (GPa) = 47.44742 51.96216 49.70479
# Shear Modulus (GPa) = 13.82389 23.19700 18.51045
#
# Velocity S-wave (km/s) = 2.64486 3.42612 3.06052
# Velocity P-wave (km/s) = 5.77379 6.47652 6.13523
#
# Compressibility (1/GPa) = 0.02107596
#
# Stress axis : x y z
#
# Youngs Moduli (GPa) = 54.42967 69.79026 136.69436
#
# Poissons Ratio (x) = 0.40733 0.24357
# Poissons Ratio (y) = 0.31768 0.25316
# Poissons Ratio (z) = 0.09698 0.12925
#
# Static dielectric constant tensor:
#      x y z
#    x 1.717590 0.000000 0.000000 
#    y 0.000000 1.826090 0.000000 
#    z 0.000000 0.000000 1.745020 
# 
# From -- ./inp_files/9891.got.cif
#   From: 2010.05.17/outbox.cif.g08.bks.cpg/sg35_5_cif.got.tgz:9891.got - 2010.06.03 17:29:28.
