data_PCOD9348633
_publ_section_title
;
Structure prediction by ZEFSAII (Michael W. Deem and Ramdas Pophale) SiO2 
 PCOD9348633
Probable space group: C M M 2
;
_chemical_formula_sum "Si O2"
_cell_formula_units_Z 42
_cell_length_a 24.208891
_cell_length_b 11.378411
_cell_length_c 7.536269
_cell_angle_alpha 90.000000
_cell_angle_beta 90.000000
_cell_angle_gamma 90.000000
_cell_volume 2075.930949
_symmetry_space_group_name_H-M "C M M 2"
_symmetry_group_IT_number 35
_symmetry_cell_setting 'orthorhombic'
loop_
_space_group_symop_operation_xyz
x,y,z
-x,-y,z
-x,y,z
x,-y,z
1/2+x,1/2+y,z
1/2-x,1/2-y,z
1/2-x,1/2+y,z
1/2+x,1/2-y,z
loop_
_atom_site_type_symbol
_atom_site_label
_atom_site_fract_x
_atom_site_fract_y
_atom_site_fract_z
Si Si1 0.400949 0.808297 0.373260
Si Si2 0.776442 0.372753 0.424033
Si Si3 0.935845 0.134056 0.085016
Si Si4 0.104371 0.134008 0.700611
Si Si5 0.000000 0.500000 0.365947
Si Si6 0.767825 0.870877 0.822096
O O1 0.341174 0.867294 0.386021
O O2 0.402586 0.725506 0.201016
O O3 0.406337 0.724214 0.544429
O O4 0.451226 0.898249 0.365940
O O5 0.753418 0.500000 0.362015
O O6 0.750000 0.250000 0.359044
O O7 0.766336 0.372102 0.637150
O O8 0.000000 0.139913 0.137875
O O9 0.916088 0.000000 0.110415
O O10 0.930506 0.159874 0.876560
O O11 0.168235 0.138172 0.763589
O O12 0.092838 0.000000 0.642182
O O13 0.750000 0.750000 0.917498
O O14 0.759662 0.000000 0.907755
#
# Coordination Sequence:
#
# PCOD9348633 Si02
#       6
#     8   8   8   8   2   8
#     4  12  22  43  65  90 133 178 217 266 331 387
#     4  10  19  34  63  93 126 167 216 269 328 391
#     4  10  23  41  63  93 126 165 219 275 326 391
#     4  10  21  39  66  96 125 162 214 272 332 394
#     4  12  28  40  64  96 132 186 228 268 306 404
#     4   9  16  31  57  88 121 162 202 259 326 382
#
# _framework density 20.231888000000001
#
# number of rings (size 3 to 8) (size 9 to 14) (size 15 to 20)
#    0.000    1.714    5.714    0.571    1.333    0.762 
#    0.000    2.857    0.000    2.286    0.000    0.000 
#    0.000    0.000    0.000    0.000    0.000    0.000 
#
# Total GULP energy -116918.874729 kJ/mol
# GULP energy per Si atom -5567.565463 kJ/mol
# Density = 2.018584 g / cm^3
# Si number density = 20.231888 Si / 1000 Ang^3
#
#
#
# Elastic Constant Matrix: (Units=GPa)
#
#
# Indices 1 2 3 4 5 6 
#
# 1 82.3119 22.5519 -5.7497 0.0000 0.0000 0.0000
# 2 22.5519 191.3026 42.1370 0.0000 0.0000 0.0000
# 3 -5.7497 42.1370 33.7297 0.0000 0.0000 0.0000
# 4 0.0000 0.0000 0.0000 -3.3603 0.0000 0.0000
# 5 0.0000 0.0000 0.0000 0.0000 31.4958 0.0000
# 6 0.0000 0.0000 0.0000 0.0000 0.0000 39.7877
#
#
#
# Elastic Compliance Matrix: (Units=1/GPa)
#
#
# Indices 1 2 3 4 5 6 
#
# 1 0.013341 -0.002861 0.005848 0.000000 0.000000 0.000000
# 2 -0.002861 0.007825 -0.010263 0.000000 0.000000 0.000000
# 3 0.005848 -0.010263 0.043466 0.000000 0.000000 0.000000
# 4 0.000000 0.000000 0.000000 -0.297595 0.000000 0.000000
# 5 0.000000 0.000000 0.000000 0.000000 0.031750 0.000000
# 6 0.000000 0.000000 0.000000 0.000000 0.000000 0.025133
#
#
# Mechanical properties :
#
#
# Convention : Reuss Voigt Hill
#
# Bulk Modulus (GPa) = 19.96794 47.24694 33.60744
# Shear Modulus (GPa) = -34.52258 30.14498 -2.18880
#
# Velocity S-wave (km/s) = -4.13527 3.86421 -1.04125
# Velocity P-wave (km/s) = 3.59301 6.58125 3.89892
#
# Compressibility (1/GPa) = 0.05008029
#
# Stress axis : x y z
#
# Youngs Moduli (GPa) = 74.95549 127.79178 23.00649
#
# Poissons Ratio (x) = 0.36560 -0.13455
# Poissons Ratio (y) = 0.21444 0.23612
# Poissons Ratio (z) = -0.43835 1.31158
#
# Static dielectric constant tensor:
#      x y z
#    x 1.699990 0.000000 0.000000 
#    y 0.000000 1.770860 0.000000 
#    z 0.000000 0.000000 1.684550 
# 
# From -- ./inp_files/6196.got.cif
#   From: 2010.05.17/outbox.cif.g08.bks.cpg/sg35_4_cif.got.tgz:6196.got - 2010.06.03 17:29:28.
