data_PCOD9348748
_publ_section_title
;
Structure prediction by ZEFSAII (Michael W. Deem and Ramdas Pophale) SiO2 
 PCOD9348748
Probable space group: C M M 2
;
_chemical_formula_sum "Si O2"
_cell_formula_units_Z 56
_cell_length_a 7.938944
_cell_length_b 19.268176
_cell_length_c 18.829812
_cell_angle_alpha 90.000000
_cell_angle_beta 90.000000
_cell_angle_gamma 90.000000
_cell_volume 2880.376952
_symmetry_space_group_name_H-M "C M M 2"
_symmetry_group_IT_number 35
_symmetry_cell_setting 'orthorhombic'
loop_
_space_group_symop_operation_xyz
x,y,z
-x,-y,z
-x,y,z
x,-y,z
1/2+x,1/2+y,z
1/2-x,1/2-y,z
1/2-x,1/2+y,z
1/2+x,1/2-y,z
loop_
_atom_site_type_symbol
_atom_site_label
_atom_site_fract_x
_atom_site_fract_y
_atom_site_fract_z
Si Si1 0.299440 0.169917 0.670700
Si Si2 0.703496 0.169817 0.095612
Si Si3 0.797014 0.079409 0.535586
Si Si4 0.304330 0.584196 0.381440
Si Si5 0.294358 0.920010 0.802488
Si Si6 0.700063 0.078862 0.226632
Si Si7 0.294522 0.920037 0.962702
O O1 0.500000 0.166232 0.674047
O O2 0.250000 0.250000 0.668616
O O3 0.254469 0.371244 0.600458
O O4 0.232316 0.130638 0.740870
O O5 0.500000 0.165626 0.095444
O O6 0.750000 0.250000 0.096755
O O7 0.766906 0.128828 0.165242
O O8 0.764231 0.130896 0.024475
O O9 0.733529 0.105547 0.458364
O O10 0.000000 0.076073 0.529466
O O11 0.737101 0.000000 0.548094
O O12 0.500000 0.604012 0.377972
O O13 0.294474 0.500000 0.383439
O O14 0.225496 0.605672 0.306829
O O15 0.500000 0.918744 0.802459
O O16 0.240465 0.901459 0.882610
O O17 0.245317 0.000000 0.788373
O O18 0.500000 0.073545 0.215706
O O19 0.769784 0.000000 0.221601
O O20 0.500000 0.919020 0.962798
O O21 0.245395 0.000000 0.976839
#
# Coordination Sequence:
#
# PCOD9348748 Si02
#       7
#     8   8   8   8   8   8   8
#     4  11  22  34  49  72 103 136 170 206 246 294
#     4  10  20  32  47  70  99 130 162 196 238 286
#     4   9  18  34  55  77 101 129 163 204 250 300
#     4   8  15  29  50  75  99 123 154 195 245 296
#     4   8  15  29  50  75  98 122 159 205 247 289
#     4   9  17  30  49  72  96 123 161 205 240 276
#     4   8  14  28  51  74  95 123 161 202 241 283
#
# _framework density 19.4419
#
# number of rings (size 3 to 8) (size 9 to 14) (size 15 to 20)
#    0.000    3.000    0.000    3.000    0.000    4.286 
#    0.000    2.143    0.000    3.857    0.000    4.000 
#    0.000    0.000    0.000    0.000    0.000    0.000 
#
# Total GULP energy -156075.921620 kJ/mol
# GULP energy per Si atom -5574.140058 kJ/mol
# Density = 1.939765 g / cm^3
# Si number density = 19.441900 Si / 1000 Ang^3
#
#
#
# Elastic Constant Matrix: (Units=GPa)
#
#
# Indices 1 2 3 4 5 6 
#
# 1 16.7658 6.8785 12.6080 0.0000 0.0000 0.0000
# 2 6.8785 120.2955 128.3313 0.0000 0.0000 0.0000
# 3 12.6080 128.3313 219.6471 0.0000 0.0000 0.0000
# 4 0.0000 0.0000 0.0000 0.0198 0.0000 0.0000
# 5 0.0000 0.0000 0.0000 0.0000 -6.9354 0.0000
# 6 0.0000 0.0000 0.0000 0.0000 0.0000 11.4091
#
#
#
# Elastic Compliance Matrix: (Units=1/GPa)
#
#
# Indices 1 2 3 4 5 6 
#
# 1 0.062356 0.000671 -0.003972 0.000000 0.000000 0.000000
# 2 0.000671 0.022074 -0.012936 0.000000 0.000000 0.000000
# 3 -0.003972 -0.012936 0.012339 0.000000 0.000000 0.000000
# 4 0.000000 0.000000 0.000000 50.413716 0.000000 0.000000
# 5 0.000000 0.000000 0.000000 0.000000 -0.144187 0.000000
# 6 0.000000 0.000000 0.000000 0.000000 0.000000 0.087649
#
#
# Mechanical properties :
#
#
# Convention : Reuss Voigt Hill
#
# Bulk Modulus (GPa) = 15.55273 72.48266 44.01770
# Shear Modulus (GPa) = 0.09899 14.82474 7.46187
#
# Velocity S-wave (km/s) = 0.22590 2.76436 1.96122
# Velocity P-wave (km/s) = 2.84341 6.89576 5.27430
#
# Compressibility (1/GPa) = 0.06429739
#
# Stress axis : x y z
#
# Youngs Moduli (GPa) = 16.03685 45.30163 81.04687
#
# Poissons Ratio (x) = -0.03041 0.32188
# Poissons Ratio (y) = -0.01077 1.04840
# Poissons Ratio (z) = 0.06369 0.58601
#
# Static dielectric constant tensor:
#      x y z
#    x 1.712070 0.000000 0.000000 
#    y 0.000000 1.624050 0.000000 
#    z 0.000000 0.000000 1.707120 
# 
# From -- ./inp_files/16414.got.cif
#   From: 2010.05.17/outbox.cif.g08.bks.cpg/sg35_9_cif.got.tgz:16414.got - 2010.06.03 17:29:28.
