data_PCOD9348885
_publ_section_title
;
Structure prediction by ZEFSAII (Michael W. Deem and Ramdas Pophale) SiO2 
 PCOD9348885
Probable space group: C M M 2
;
_chemical_formula_sum "Si O2"
_cell_formula_units_Z 48
_cell_length_a 16.254811
_cell_length_b 8.507655
_cell_length_c 17.158007
_cell_angle_alpha 90.000000
_cell_angle_beta 90.000000
_cell_angle_gamma 90.000000
_cell_volume 2372.786349
_symmetry_space_group_name_H-M "C M M 2"
_symmetry_group_IT_number 35
_symmetry_cell_setting 'orthorhombic'
loop_
_space_group_symop_operation_xyz
x,y,z
-x,-y,z
-x,y,z
x,-y,z
1/2+x,1/2+y,z
1/2-x,1/2-y,z
1/2-x,1/2+y,z
1/2+x,1/2-y,z
loop_
_atom_site_type_symbol
_atom_site_label
_atom_site_fract_x
_atom_site_fract_y
_atom_site_fract_z
Si Si1 0.662496 0.811690 0.324670
Si Si2 0.595631 0.187887 0.822492
Si Si3 0.661315 0.685165 0.977351
Si Si4 0.000000 0.186286 0.238841
Si Si5 0.342293 0.810137 0.654114
Si Si6 0.000000 0.686792 0.064482
Si Si7 0.593734 0.191427 0.486670
O O1 0.750000 0.750000 0.294875
O O2 0.582644 0.754773 0.277881
O O3 0.649637 0.757071 0.414541
O O4 0.663358 0.000000 0.323342
O O5 0.500000 0.214408 0.840961
O O6 0.650041 0.276681 0.885653
O O7 0.612011 0.236805 0.733467
O O8 0.611459 0.000000 0.828929
O O9 0.658041 0.500000 0.990551
O O10 0.750000 0.750000 0.003305
O O11 0.582958 0.763922 0.019123
O O12 0.000000 0.231336 0.148282
O O13 0.000000 0.000000 0.248805
O O14 0.250000 0.750000 0.659178
O O15 0.380129 0.753650 0.572365
O O16 0.344039 0.000000 0.652108
O O17 0.000000 0.500000 0.073872
O O18 0.500000 0.238512 0.470510
O O19 0.595723 0.000000 0.487915
#
# Coordination Sequence:
#
# PCOD9348885 Si02
#       7
#     8   8   8   4   8   4   8
#     4  11  22  40  66  97 131 172 217 265 322 383
#     4  10  20  36  59  87 122 167 218 268 321 378
#     4  12  25  43  68  99 133 173 216 262 318 381
#     4  12  26  46  70  99 132 167 210 261 318 385
#     4  10  20  33  52  81 118 163 215 267 318 374
#     4  12  26  48  74 101 132 165 206 261 322 387
#     4   9  17  33  58  85 118 163 215 266 319 377
#
# _framework density 20.229381
#
# number of rings (size 3 to 8) (size 9 to 14) (size 15 to 20)
#    0.000    1.333    1.667    5.000    0.000    4.667 
#    0.000    4.167    0.000    1.000    0.000    0.000 
#    0.000    0.000    0.000    0.000    0.000    0.000 
#
# Total GULP energy -134155.243386 kJ/mol
# GULP energy per Si atom -5589.801808 kJ/mol
# Density = 2.018334 g / cm^3
# Si number density = 20.229381 Si / 1000 Ang^3
#
#
#
# Elastic Constant Matrix: (Units=GPa)
#
#
# Indices 1 2 3 4 5 6 
#
# 1 137.8966 23.8874 34.4415 0.0000 0.0000 0.0000
# 2 23.8874 44.5533 2.8947 0.0000 0.0000 0.0000
# 3 34.4415 2.8947 91.7235 0.0000 0.0000 0.0000
# 4 0.0000 0.0000 0.0000 19.0558 0.0000 0.0000
# 5 0.0000 0.0000 0.0000 0.0000 8.7885 0.0000
# 6 0.0000 0.0000 0.0000 0.0000 0.0000 29.4271
#
#
#
# Elastic Compliance Matrix: (Units=1/GPa)
#
#
# Indices 1 2 3 4 5 6 
#
# 1 0.008828 -0.004527 -0.003172 0.000000 0.000000 0.000000
# 2 -0.004527 0.024813 0.000917 0.000000 0.000000 0.000000
# 3 -0.003172 0.000917 0.012064 0.000000 0.000000 0.000000
# 4 0.000000 0.000000 0.000000 0.052477 0.000000 0.000000
# 5 0.000000 0.000000 0.000000 0.000000 0.113784 0.000000
# 6 0.000000 0.000000 0.000000 0.000000 0.000000 0.033982
#
#
# Mechanical properties :
#
#
# Convention : Reuss Voigt Hill
#
# Bulk Modulus (GPa) = 31.11322 44.06895 37.59108
# Shear Modulus (GPa) = 18.50289 25.65095 22.07692
#
# Velocity S-wave (km/s) = 3.02761 3.56477 3.30711
# Velocity P-wave (km/s) = 5.25694 6.22699 5.76241
#
# Compressibility (1/GPa) = 0.03214068
#
# Stress axis : x y z
#
# Youngs Moduli (GPa) = 113.27182 40.30186 82.88785
#
# Poissons Ratio (x) = 0.18246 0.26293
# Poissons Ratio (y) = 0.51281 -0.07600
# Poissons Ratio (z) = 0.35931 -0.03695
#
# Static dielectric constant tensor:
#      x y z
#    x 1.694920 0.000000 0.000000 
#    y 0.000000 1.683920 0.000000 
#    z 0.000000 0.000000 1.736080 
# 
# From -- ./inp_files/18797.got.cif
#   From: 2010.05.17/outbox.cif.g08.bks.cpg/sg35_10_cif.got.tgz:18797.got - 2010.06.03 17:29:28.
