data_PCOD9348313
_publ_section_title
;
Structure prediction by ZEFSAII (Michael W. Deem and Ramdas Pophale) SiO2 
 PCOD9348313
Probable space group: C M M 2
;
_chemical_formula_sum "Si O2"
_cell_formula_units_Z 64
_cell_length_a 8.985370
_cell_length_b 15.379636
_cell_length_c 22.267619
_cell_angle_alpha 90.000000
_cell_angle_beta 90.000000
_cell_angle_gamma 90.000000
_cell_volume 3077.200568
_symmetry_space_group_name_H-M "C M M 2"
_symmetry_group_IT_number 35
_symmetry_cell_setting 'orthorhombic'
loop_
_space_group_symop_operation_xyz
x,y,z
-x,-y,z
-x,y,z
x,-y,z
1/2+x,1/2+y,z
1/2-x,1/2-y,z
1/2-x,1/2+y,z
1/2+x,1/2-y,z
loop_
_atom_site_type_symbol
_atom_site_label
_atom_site_fract_x
_atom_site_fract_y
_atom_site_fract_z
Si Si1 0.174578 0.105967 0.795440
Si Si2 0.320655 0.347469 0.294372
Si Si3 0.677992 0.345327 0.034437
Si Si4 0.832290 0.103207 0.664713
Si Si5 0.321074 0.346230 0.164062
Si Si6 0.320975 0.847306 0.413402
Si Si7 0.164773 0.396900 0.914078
Si Si8 0.677012 0.844528 0.544034
O O1 0.228181 0.135345 0.729222
O O2 0.261291 0.139367 0.853515
O O3 0.000000 0.127514 0.799784
O O4 0.183864 0.000000 0.797117
O O5 0.500000 0.342700 0.300660
O O6 0.250000 0.250000 0.292068
O O7 0.283867 0.387380 0.228833
O O8 0.250126 0.389067 0.353978
O O9 0.500000 0.341048 0.031159
O O10 0.750000 0.250000 0.035625
O O11 0.739692 0.386625 0.973999
O O12 0.718553 0.387247 0.099441
O O13 0.736970 0.116036 0.605415
O O14 0.000000 0.139093 0.655644
O O15 0.846239 0.000000 0.672129
O O16 0.500000 0.336847 0.164174
O O17 0.250000 0.250000 0.163995
O O18 0.500000 0.841725 0.406893
O O19 0.250000 0.750000 0.415494
O O20 0.287108 0.887275 0.479085
O O21 0.151133 0.500000 0.904693
O O22 0.000000 0.359270 0.923381
O O23 0.500000 0.838204 0.546735
O O24 0.750000 0.750000 0.542239
#
# Coordination Sequence:
#
# PCOD9348313 Si02
#       8
#     8   8   8   8   8   8   8   8
#     4   8  15  30  51  72  93 119 152 190 232 276
#     4   9  14  21  35  56  82 112 147 186 226 268
#     4  10  19  32  49  69  97 129 158 191 234 281
#     4   9  18  33  53  75  97 121 152 191 233 279
#     4   8  15  25  38  59  86 116 149 185 226 271
#     4   9  16  25  37  57  85 117 152 187 226 269
#     4  10  20  33  50  73  98 123 155 194 232 274
#     4  10  20  32  47  68  97 130 160 193 233 278
#
# _framework density 20.798123
#
# number of rings (size 3 to 8) (size 9 to 14) (size 15 to 20)
#    0.000    2.875    0.000    3.375    0.000    4.000 
#    0.000    1.875    0.000    3.000    0.000    0.875 
#    0.000    1.000    0.000    0.000    0.000    0.000 
#
# Total GULP energy -178159.408592 kJ/mol
# GULP energy per Si atom -5567.481518 kJ/mol
# Density = 2.075079 g / cm^3
# Si number density = 20.798123 Si / 1000 Ang^3
#
#
#
# Elastic Constant Matrix: (Units=GPa)
#
#
# Indices 1 2 3 4 5 6 
#
# 1 82.7176 3.2426 90.2207 0.0000 0.0000 0.0000
# 2 3.2426 21.7067 15.1965 0.0000 0.0000 0.0000
# 3 90.2207 15.1965 264.4464 0.0000 0.0000 0.0000
# 4 0.0000 0.0000 0.0000 13.1471 0.0000 0.0000
# 5 0.0000 0.0000 0.0000 0.0000 40.8848 0.0000
# 6 0.0000 0.0000 0.0000 0.0000 0.0000 10.7339
#
#
#
# Elastic Compliance Matrix: (Units=1/GPa)
#
#
# Indices 1 2 3 4 5 6 
#
# 1 0.019321 0.001801 -0.006695 0.000000 0.000000 0.000000
# 2 0.001801 0.048168 -0.003382 0.000000 0.000000 0.000000
# 3 -0.006695 -0.003382 0.006260 0.000000 0.000000 0.000000
# 4 0.000000 0.000000 0.000000 0.076062 0.000000 0.000000
# 5 0.000000 0.000000 0.000000 0.000000 0.024459 0.000000
# 6 0.000000 0.000000 0.000000 0.000000 0.000000 0.093162
#
#
# Mechanical properties :
#
#
# Convention : Reuss Voigt Hill
#
# Bulk Modulus (GPa) = 17.48384 65.13225 41.30804
# Shear Modulus (GPa) = 16.49884 30.30056 23.39970
#
# Velocity S-wave (km/s) = 2.81959 3.82106 3.35787
# Velocity P-wave (km/s) = 4.36174 7.13104 5.91086
#
# Compressibility (1/GPa) = 0.05719569
#
# Stress axis : x y z
#
# Youngs Moduli (GPa) = 51.75612 20.76082 159.74197
#
# Poissons Ratio (x) = -0.03739 1.06953
# Poissons Ratio (y) = -0.09322 0.54032
# Poissons Ratio (z) = 0.34652 0.07022
#
# Static dielectric constant tensor:
#      x y z
#    x 1.703460 0.000000 0.000000 
#    y 0.000000 1.768640 0.000000 
#    z 0.000000 0.000000 1.845060 
# 
# From -- ./inp_files/18350.got.cif
#   From: 2010.05.17/outbox.cif.g08.bks.cpg/sg35_10_cif.got.tgz:18350.got - 2010.06.03 17:29:28.
