data_PCOD9348946
_publ_section_title
;
Structure prediction by ZEFSAII (Michael W. Deem and Ramdas Pophale) SiO2 
 PCOD9348946
Probable space group: C M M 2
;
_chemical_formula_sum "Si O2"
_cell_formula_units_Z 64
_cell_length_a 29.062889
_cell_length_b 8.031458
_cell_length_c 13.486236
_cell_angle_alpha 90.000000
_cell_angle_beta 90.000000
_cell_angle_gamma 90.000000
_cell_volume 3147.921770
_symmetry_space_group_name_H-M "C M M 2"
_symmetry_group_IT_number 35
_symmetry_cell_setting 'orthorhombic'
loop_
_space_group_symop_operation_xyz
x,y,z
-x,-y,z
-x,y,z
x,-y,z
1/2+x,1/2+y,z
1/2-x,1/2-y,z
1/2-x,1/2+y,z
1/2+x,1/2-y,z
loop_
_atom_site_type_symbol
_atom_site_label
_atom_site_fract_x
_atom_site_fract_y
_atom_site_fract_z
Si Si1 0.802983 0.303468 0.334780
Si Si2 0.052308 0.299785 0.618576
Si Si3 0.105163 0.201706 0.816228
Si Si4 0.891761 0.698082 0.430126
Si Si5 0.697243 0.700528 0.900373
Si Si6 0.303622 0.301179 0.119438
Si Si7 0.054998 0.199494 0.234837
Si Si8 0.553787 0.702886 0.015572
O O1 0.802326 0.500000 0.345356
O O2 0.750000 0.250000 0.344994
O O3 0.840557 0.231766 0.410634
O O4 0.821355 0.265132 0.223726
O O5 0.049638 0.500000 0.608843
O O6 0.078471 0.261493 0.720118
O O7 0.080660 0.233152 0.524139
O O8 0.000000 0.235152 0.620342
O O9 0.158525 0.255678 0.823133
O O10 0.080635 0.258386 0.918097
O O11 0.103947 0.000000 0.815765
O O12 0.887097 0.500000 0.446357
O O13 0.920302 0.723143 0.329157
O O14 0.696842 0.500000 0.903301
O O15 0.750000 0.750000 0.882670
O O16 0.681108 0.757331 0.010757
O O17 0.308426 0.500000 0.122761
O O18 0.250000 0.250000 0.120666
O O19 0.000000 0.229241 0.240093
O O20 0.062156 0.000000 0.239382
O O21 0.070614 0.257227 0.124807
O O22 0.500000 0.747770 0.006625
O O23 0.556139 0.500000 0.017199
#
# Coordination Sequence:
#
# PCOD9348946 Si02
#       8
#     8   8   8   8   8   8   8   8
#     4  10  20  34  52  77 108 143 184 224 268 320
#     4  10  22  41  61  80 106 142 182 225 277 332
#     4  10  20  35  57  83 108 140 185 228 271 322
#     4  10  22  38  56  78 107 145 184 222 273 331
#     4   9  19  33  51  78 111 147 184 221 266 320
#     4   9  16  28  48  74 106 144 180 216 261 312
#     4   9  18  32  53  82 111 140 177 219 267 327
#     4   8  15  29  50  77 109 140 168 210 271 328
#
# _framework density 20.330874999999999
#
# number of rings (size 3 to 8) (size 9 to 14) (size 15 to 20)
#    0.000    2.625    0.000    3.000    1.750    4.000 
#    0.000    1.250    0.000    3.750    0.000    0.000 
#    0.000    0.000    0.000    0.000    0.000    0.000 
#
# Total GULP energy -178474.959016 kJ/mol
# GULP energy per Si atom -5577.342469 kJ/mol
# Density = 2.028460 g / cm^3
# Si number density = 20.330875 Si / 1000 Ang^3
#
#
#
# Elastic Constant Matrix: (Units=GPa)
#
#
# Indices 1 2 3 4 5 6 
#
# 1 137.1778 12.9340 95.5251 0.0000 0.0000 0.0000
# 2 12.9340 11.9543 3.8934 0.0000 0.0000 0.0000
# 3 95.5251 3.8934 143.7564 0.0000 0.0000 0.0000
# 4 0.0000 0.0000 0.0000 119.6771 0.0000 0.0000
# 5 0.0000 0.0000 0.0000 0.0000 37.2421 0.0000
# 6 0.0000 0.0000 0.0000 0.0000 0.0000 11.6297
#
#
#
# Elastic Compliance Matrix: (Units=1/GPa)
#
#
# Indices 1 2 3 4 5 6 
#
# 1 0.015464 -0.013504 -0.009910 0.000000 0.000000 0.000000
# 2 -0.013504 0.096188 0.006368 0.000000 0.000000 0.000000
# 3 -0.009910 0.006368 0.013369 0.000000 0.000000 0.000000
# 4 0.000000 0.000000 0.000000 0.008356 0.000000 0.000000
# 5 0.000000 0.000000 0.000000 0.000000 0.026851 0.000000
# 6 0.000000 0.000000 0.000000 0.000000 0.000000 0.085987
#
#
# Mechanical properties :
#
#
# Convention : Reuss Voigt Hill
#
# Bulk Modulus (GPa) = 10.99749 57.51039 34.25394
# Shear Modulus (GPa) = 16.09704 45.74551 30.92127
#
# Velocity S-wave (km/s) = 2.81686 4.74862 3.90411
# Velocity P-wave (km/s) = 4.00008 7.64293 6.09980
#
# Compressibility (1/GPa) = 0.09092984
#
# Stress axis : x y z
#
# Youngs Moduli (GPa) = 64.66676 10.39627 74.80095
#
# Poissons Ratio (x) = 0.14039 0.74127
# Poissons Ratio (y) = 0.87324 -0.47633
# Poissons Ratio (z) = 0.64084 -0.06620
#
# Static dielectric constant tensor:
#      x y z
#    x 1.761960 0.000000 0.000000 
#    y 0.000000 1.711710 0.000000 
#    z 0.000000 0.000000 1.716370 
# 
# From -- ./inp_files/14524.got.cif
#   From: 2010.05.17/outbox.cif.g08.bks.cpg/sg35_8_cif.got.tgz:14524.got - 2010.06.03 17:29:28.
