data_PCOD9348818
_publ_section_title
;
Structure prediction by ZEFSAII (Michael W. Deem and Ramdas Pophale) SiO2 
 PCOD9348818
Probable space group: C M M 2
;
_chemical_formula_sum "Si O2"
_cell_formula_units_Z 64
_cell_length_a 9.095701
_cell_length_b 18.723090
_cell_length_c 21.265420
_cell_angle_alpha 90.000000
_cell_angle_beta 90.000000
_cell_angle_gamma 90.000000
_cell_volume 3621.493125
_symmetry_space_group_name_H-M "C M M 2"
_symmetry_group_IT_number 35
_symmetry_cell_setting 'orthorhombic'
loop_
_space_group_symop_operation_xyz
x,y,z
-x,-y,z
-x,y,z
x,-y,z
1/2+x,1/2+y,z
1/2-x,1/2-y,z
1/2-x,1/2+y,z
1/2+x,1/2-y,z
loop_
_atom_site_type_symbol
_atom_site_label
_atom_site_fract_x
_atom_site_fract_y
_atom_site_fract_z
Si Si1 0.821283 0.581282 0.744070
Si Si2 0.168222 0.412916 0.242522
Si Si3 0.676873 0.584830 0.509440
Si Si4 0.677082 0.172378 0.621185
Si Si5 0.675682 0.827280 0.006041
Si Si6 0.323312 0.827004 0.863018
Si Si7 0.829145 0.086004 0.114989
Si Si8 0.830396 0.913087 0.367817
O O1 0.768295 0.500000 0.738684
O O2 0.780250 0.628599 0.683969
O O3 0.774537 0.618744 0.808867
O O4 0.000000 0.579094 0.744915
O O5 0.170734 0.500000 0.243691
O O6 0.263351 0.391037 0.182300
O O7 0.234227 0.388530 0.309068
O O8 0.000000 0.390388 0.235008
O O9 0.500000 0.594027 0.515642
O O10 0.706974 0.500000 0.516315
O O11 0.762603 0.629252 0.561316
O O12 0.717554 0.607423 0.438122
O O13 0.500000 0.177907 0.618893
O O14 0.750000 0.250000 0.622885
O O15 0.500000 0.821340 0.011945
O O16 0.750000 0.750000 0.014196
O O17 0.739416 0.879653 0.058238
O O18 0.709824 0.851142 0.934335
O O19 0.500000 0.818973 0.858563
O O20 0.250000 0.750000 0.853276
O O21 0.000000 0.105980 0.110577
O O22 0.818604 0.000000 0.111969
O O23 0.000000 0.891534 0.358751
O O24 0.828867 0.000000 0.367699
#
# Coordination Sequence:
#
# PCOD9348818 Si02
#       8
#     8   8   8   8   8   8   8   8
#     4   9  18  33  53  78 105 132 166 209 256 304
#     4   9  16  26  43  70 102 133 168 211 255 302
#     4   9  18  33  53  77 105 135 169 212 259 307
#     4  11  22  35  53  75 102 138 177 215 255 304
#     4  10  20  34  53  76 102 135 174 213 255 306
#     4   9  18  33  54  76 100 132 167 206 251 303
#     4  10  20  33  50  73 103 138 174 215 261 306
#     4   8  14  26  45  69  98 132 166 202 251 308
#
# _framework density 17.672269
#
# number of rings (size 3 to 8) (size 9 to 14) (size 15 to 20)
#    0.000    2.625    0.000    3.000    0.000    4.500 
#    0.000    3.125    0.000    2.625    0.000    1.750 
#    0.000    0.000    0.000    0.000    0.000    0.000 
#
# Total GULP energy -178447.588246 kJ/mol
# GULP energy per Si atom -5576.487133 kJ/mol
# Density = 1.763205 g / cm^3
# Si number density = 17.672269 Si / 1000 Ang^3
#
#
#
# Elastic Constant Matrix: (Units=GPa)
#
#
# Indices 1 2 3 4 5 6 
#
# 1 72.3668 40.0742 71.7820 0.0000 0.0000 0.0000
# 2 40.0742 65.5146 70.8254 0.0000 0.0000 0.0000
# 3 71.7820 70.8254 168.5233 0.0000 0.0000 0.0000
# 4 0.0000 0.0000 0.0000 -35.7473 0.0000 0.0000
# 5 0.0000 0.0000 0.0000 0.0000 24.7800 0.0000
# 6 0.0000 0.0000 0.0000 0.0000 0.0000 21.0185
#
#
#
# Elastic Compliance Matrix: (Units=1/GPa)
#
#
# Indices 1 2 3 4 5 6 
#
# 1 0.025611 -0.007097 -0.007926 0.000000 0.000000 0.000000
# 2 -0.007097 0.029940 -0.009560 0.000000 0.000000 0.000000
# 3 -0.007926 -0.009560 0.013328 0.000000 0.000000 0.000000
# 4 0.000000 0.000000 0.000000 -0.027974 0.000000 0.000000
# 5 0.000000 0.000000 0.000000 0.000000 0.040355 0.000000
# 6 0.000000 0.000000 0.000000 0.000000 0.000000 0.047577
#
#
# Mechanical properties :
#
#
# Convention : Reuss Voigt Hill
#
# Bulk Modulus (GPa) = 50.73010 74.64088 62.68549
# Shear Modulus (GPa) = 27.08959 10.25845 18.67402
#
# Velocity S-wave (km/s) = 3.91946 2.41193 3.25420
# Velocity P-wave (km/s) = 7.01792 7.07703 7.04754
#
# Compressibility (1/GPa) = 0.01971216
#
# Stress axis : x y z
#
# Youngs Moduli (GPa) = 39.04627 33.40048 75.03162
#
# Poissons Ratio (x) = 0.23704 0.59471
# Poissons Ratio (y) = 0.27711 0.71729
# Poissons Ratio (z) = 0.30949 0.31930
#
# Static dielectric constant tensor:
#      x y z
#    x 1.590110 0.000000 0.000000 
#    y 0.000000 1.581690 0.000000 
#    z 0.000000 0.000000 1.601510 
# 
# From -- ./inp_files/18327.got.cif
#   From: 2010.05.17/outbox.cif.g08.bks.cpg/sg35_10_cif.got.tgz:18327.got - 2010.06.03 17:29:28.
