data_PCOD9348773
_publ_section_title
;
Structure prediction by ZEFSAII (Michael W. Deem and Ramdas Pophale) SiO2 
 PCOD9348773
Probable space group: C M M 2
;
_chemical_formula_sum "Si O2"
_cell_formula_units_Z 48
_cell_length_a 14.750648
_cell_length_b 25.651124
_cell_length_c 5.609512
_cell_angle_alpha 90.000000
_cell_angle_beta 90.000000
_cell_angle_gamma 90.000000
_cell_volume 2122.474987
_symmetry_space_group_name_H-M "C M M 2"
_symmetry_group_IT_number 35
_symmetry_cell_setting 'orthorhombic'
loop_
_space_group_symop_operation_xyz
x,y,z
-x,-y,z
-x,y,z
x,-y,z
1/2+x,1/2+y,z
1/2-x,1/2-y,z
1/2-x,1/2+y,z
1/2+x,1/2-y,z
loop_
_atom_site_type_symbol
_atom_site_label
_atom_site_fract_x
_atom_site_fract_y
_atom_site_fract_z
Si Si1 0.694710 0.696161 0.841850
Si Si2 0.133411 0.938693 0.092634
Si Si3 0.851378 0.227115 0.341850
Si Si4 0.799416 0.409796 0.841851
Si Si5 0.500000 0.881838 0.841848
Si Si6 0.133408 0.938693 0.591079
Si Si7 0.000000 0.316458 0.341848
O O1 0.750000 0.750000 0.841851
O O2 0.640209 0.696034 0.591899
O O3 0.769602 0.650706 0.841847
O O4 0.640210 0.696034 0.091803
O O5 0.103893 0.916023 0.341856
O O6 0.110803 0.000000 0.093271
O O7 0.242565 0.933856 0.061953
O O8 0.100137 0.916012 0.841857
O O9 0.750000 0.250000 0.341852
O O10 0.915299 0.277295 0.341848
O O11 0.906194 0.414017 0.841849
O O12 0.742563 0.433858 0.621759
O O13 0.500000 0.848966 0.591391
O O14 0.500000 0.848966 0.092304
O O15 0.110797 0.000000 0.590442
#
# Coordination Sequence:
#
# PCOD9348773 Si02
#       7
#     8   8   8   8   4   8   4
#     4  10  20  32  50  70  97 127 164 207 250 299
#     4   8  16  30  48  67  94 131 165 208 256 298
#     4  10  20  36  52  70  94 130 171 206 255 300
#     4  10  21  32  51  72 103 128 177 214 254 296
#     4  12  24  30  51  72  96 132 176 222 257 292
#     4   8  16  30  48  67  94 131 165 208 256 298
#     4  12  24  40  52  70 103 138 175 224 256 296
#
# _framework density 22.615107999999999
#
# number of rings (size 3 to 8) (size 9 to 14) (size 15 to 20)
#    1.000    1.333    0.000    5.000    4.667    0.000 
#    0.000    1.667    0.000    2.000    0.000    0.000 
#    0.000    0.000    0.000   18.000    0.000    0.667 
#
# Total GULP energy -133607.552395 kJ/mol
# GULP energy per Si atom -5566.981350 kJ/mol
# Density = 2.256364 g / cm^3
# Si number density = 22.615108 Si / 1000 Ang^3
#
#
#
# Elastic Constant Matrix: (Units=GPa)
#
#
# Indices 1 2 3 4 5 6 
#
# 1 149.4200 4.2128 21.0002 0.0000 0.0000 0.0000
# 2 4.2128 52.9086 12.5547 0.0000 0.0000 0.0000
# 3 21.0002 12.5547 276.8350 0.0000 0.0000 0.0000
# 4 0.0000 0.0000 0.0000 23.6537 0.0000 0.0000
# 5 0.0000 0.0000 0.0000 0.0000 -6.3547 0.0000
# 6 0.0000 0.0000 0.0000 0.0000 0.0000 -98.2271
#
#
#
# Elastic Compliance Matrix: (Units=1/GPa)
#
#
# Indices 1 2 3 4 5 6 
#
# 1 0.006774 -0.000422 -0.000495 0.000000 0.000000 0.000000
# 2 -0.000422 0.019132 -0.000836 0.000000 0.000000 0.000000
# 3 -0.000495 -0.000836 0.003688 0.000000 0.000000 0.000000
# 4 0.000000 0.000000 0.000000 0.042277 0.000000 0.000000
# 5 0.000000 0.000000 0.000000 0.000000 -0.157363 0.000000
# 6 0.000000 0.000000 0.000000 0.000000 0.000000 -0.010180
#
#
# Mechanical properties :
#
#
# Convention : Reuss Voigt Hill
#
# Bulk Modulus (GPa) = 38.32982 61.63323 49.98152
# Shear Modulus (GPa) = -59.90064 13.24078 -23.32993
#
# Velocity S-wave (km/s) = -5.15214 2.42230 -3.21535
# Velocity P-wave (km/s) = 4.29035 5.92754 2.89211
#
# Compressibility (1/GPa) = 0.02608935
#
# Stress axis : x y z
#
# Youngs Moduli (GPa) = 147.62390 52.26733 271.17273
#
# Poissons Ratio (x) = 0.02206 0.13416
# Poissons Ratio (y) = 0.06229 0.22661
# Poissons Ratio (z) = 0.07303 0.04368
#
# Static dielectric constant tensor:
#      x y z
#    x 1.748860 0.000000 0.000000 
#    y 0.000000 1.821650 0.000000 
#    z 0.000000 0.000000 1.948180 
# 
# From -- ./inp_files/2039.got.cif
#   From: 2010.05.17/outbox.cif.g08.bks.cpg/sg35_2_cif.got.tgz:2039.got - 2010.06.03 17:29:28.
