data_PCOD9348839
_publ_section_title
;
Structure prediction by ZEFSAII (Michael W. Deem and Ramdas Pophale) SiO2 
 PCOD9348839
Probable space group: C M M 2
;
_chemical_formula_sum "Si O2"
_cell_formula_units_Z 40
_cell_length_a 14.982842
_cell_length_b 8.277724
_cell_length_c 17.339433
_cell_angle_alpha 90.000000
_cell_angle_beta 90.000000
_cell_angle_gamma 90.000000
_cell_volume 2150.502905
_symmetry_space_group_name_H-M "C M M 2"
_symmetry_group_IT_number 35
_symmetry_cell_setting 'orthorhombic'
loop_
_space_group_symop_operation_xyz
x,y,z
-x,-y,z
-x,y,z
x,-y,z
1/2+x,1/2+y,z
1/2-x,1/2-y,z
1/2-x,1/2+y,z
1/2+x,1/2-y,z
loop_
_atom_site_type_symbol
_atom_site_label
_atom_site_fract_x
_atom_site_fract_y
_atom_site_fract_z
Si Si1 0.000000 0.193835 0.108140
Si Si2 0.500000 0.805337 0.347575
Si Si3 0.147587 0.693341 0.226742
Si Si4 0.648911 0.694879 0.813269
Si Si5 0.000000 0.195482 0.523024
Si Si6 0.000000 0.197822 0.931548
Si Si7 0.851104 0.805066 0.640934
O O1 0.088053 0.251649 0.153838
O O2 0.000000 0.000000 0.108672
O O3 0.000000 0.251781 0.019803
O O4 0.411829 0.750217 0.300366
O O5 0.500000 0.751384 0.435441
O O6 0.500000 0.000000 0.345437
O O7 0.148421 0.500000 0.227568
O O8 0.250000 0.750000 0.226465
O O9 0.646216 0.500000 0.813063
O O10 0.750000 0.750000 0.824416
O O11 0.585205 0.751013 0.881670
O O12 0.619972 0.748177 0.727102
O O13 0.085188 0.251657 0.572614
O O14 0.000000 0.000000 0.522782
O O15 0.000000 0.000000 0.932863
O O16 0.750000 0.750000 0.629730
O O17 0.853804 0.000000 0.641077
#
# Coordination Sequence:
#
# PCOD9348839 Si02
#       7
#     4   4   8   8   4   4   8
#     4  10  20  35  55  82 111 138 173 214 260 314
#     4   9  21  38  54  77 106 132 165 210 257 309
#     4  10  21  39  60  80 104 137 174 212 260 315
#     4   9  17  32  51  71  99 135 174 212 250 295
#     4  10  20  33  51  75 102 134 170 207 252 304
#     4   9  18  32  52  76 103 136 170 207 253 303
#     4   9  18  32  50  72  99 134 174 212 250 296
#
# _framework density 18.600300000000001
#
# number of rings (size 3 to 8) (size 9 to 14) (size 15 to 20)
#    0.000    2.600    0.000    2.100    0.000    7.200 
#    0.000    8.500    0.000    4.800    0.000    0.000 
#    0.000    0.000    0.000    0.000    0.000    0.000 
#
# Total GULP energy -111540.198979 kJ/mol
# GULP energy per Si atom -5577.009949 kJ/mol
# Density = 1.855796 g / cm^3
# Si number density = 18.600300 Si / 1000 Ang^3
#
#
#
# Elastic Constant Matrix: (Units=GPa)
#
#
# Indices 1 2 3 4 5 6 
#
# 1 160.8636 22.8322 122.1402 0.0000 0.0000 0.0000
# 2 22.8322 18.0969 24.0647 0.0000 0.0000 0.0000
# 3 122.1402 24.0647 217.2405 0.0000 0.0000 0.0000
# 4 0.0000 0.0000 0.0000 21.4545 0.0000 0.0000
# 5 0.0000 0.0000 0.0000 0.0000 22.4081 0.0000
# 6 0.0000 0.0000 0.0000 0.0000 0.0000 25.3778
#
#
#
# Elastic Compliance Matrix: (Units=1/GPa)
#
#
# Indices 1 2 3 4 5 6 
#
# 1 0.011549 -0.006962 -0.005722 0.000000 0.000000 0.000000
# 2 -0.006962 0.069001 -0.003729 0.000000 0.000000 0.000000
# 3 -0.005722 -0.003729 0.008234 0.000000 0.000000 0.000000
# 4 0.000000 0.000000 0.000000 0.046610 0.000000 0.000000
# 5 0.000000 0.000000 0.000000 0.000000 0.044627 0.000000
# 6 0.000000 0.000000 0.000000 0.000000 0.000000 0.039405
#
#
# Mechanical properties :
#
#
# Convention : Reuss Voigt Hill
#
# Bulk Modulus (GPa) = 17.87100 81.58613 49.72857
# Shear Modulus (GPa) = 18.45669 28.99235 23.72452
#
# Velocity S-wave (km/s) = 3.15346 3.95232 3.57528
# Velocity P-wave (km/s) = 4.78413 8.04897 6.62094
#
# Compressibility (1/GPa) = 0.05595657
#
# Stress axis : x y z
#
# Youngs Moduli (GPa) = 86.58457 14.49259 121.45458
#
# Poissons Ratio (x) = 0.10090 0.69499
# Poissons Ratio (y) = 0.60282 0.45292
# Poissons Ratio (z) = 0.49546 0.05404
#
# Static dielectric constant tensor:
#      x y z
#    x 1.634240 0.000000 0.000000 
#    y 0.000000 1.648210 0.000000 
#    z 0.000000 0.000000 1.638830 
# 
# From -- ./inp_files/14856.got.cif
#   From: 2010.05.17/outbox.cif.g08.bks.cpg/sg35_8_cif.got.tgz:14856.got - 2010.06.03 17:29:28.
