data_PCOD9348646
_publ_section_title
;
Structure prediction by ZEFSAII (Michael W. Deem and Ramdas Pophale) SiO2 
 PCOD9348646
Probable space group: C M M 2
;
_chemical_formula_sum "Si O2"
_cell_formula_units_Z 64
_cell_length_a 7.927768
_cell_length_b 30.247662
_cell_length_c 12.730986
_cell_angle_alpha 90.000000
_cell_angle_beta 90.000000
_cell_angle_gamma 90.000000
_cell_volume 3052.845208
_symmetry_space_group_name_H-M "C M M 2"
_symmetry_group_IT_number 35
_symmetry_cell_setting 'orthorhombic'
loop_
_space_group_symop_operation_xyz
x,y,z
-x,-y,z
-x,y,z
x,-y,z
1/2+x,1/2+y,z
1/2-x,1/2-y,z
1/2-x,1/2+y,z
1/2+x,1/2-y,z
loop_
_atom_site_type_symbol
_atom_site_label
_atom_site_fract_x
_atom_site_fract_y
_atom_site_fract_z
Si Si1 0.295450 0.048595 0.053680
Si Si2 0.293672 0.146571 0.543671
Si Si3 0.302593 0.421759 0.823530
Si Si4 0.704063 0.951944 0.598347
Si Si5 0.296215 0.801449 0.336028
Si Si6 0.694515 0.862890 0.149265
Si Si7 0.307511 0.826148 0.770058
Si Si8 0.191629 0.797880 0.984886
O O1 0.500000 0.050298 0.054838
O O2 0.229709 0.089279 0.123657
O O3 0.241997 0.000000 0.089491
O O4 0.241033 0.055613 0.933149
O O5 0.500000 0.146168 0.546324
O O6 0.239828 0.094796 0.546834
O O7 0.239483 0.174220 0.442723
O O8 0.239251 0.170555 0.651704
O O9 0.500000 0.409951 0.824179
O O10 0.262556 0.449474 0.719436
O O11 0.197966 0.376902 0.809017
O O12 0.500000 0.951175 0.596532
O O13 0.758130 0.000000 0.554364
O O14 0.500000 0.802688 0.334511
O O15 0.250000 0.750000 0.330268
O O16 0.231843 0.830876 0.238289
O O17 0.500000 0.870592 0.179632
O O18 0.700575 0.835429 0.041127
O O19 0.500000 0.810048 0.768197
O O20 0.209083 0.800256 0.859478
O O21 0.250000 0.750000 0.021958
O O22 0.000000 0.805995 0.014949
#
# Coordination Sequence:
#
# PCOD9348646 Si02
#       8
#     8   8   8   8   8   8   8   8
#     4  10  20  34  53  77 109 151 191 227 277 338
#     4   8  17  34  56  81 110 141 180 231 281 330
#     4  11  20  30  48  78 113 151 189 231 275 325
#     4   9  17  31  52  77 108 150 191 226 273 333
#     4  10  21  39  61  84 107 140 186 236 286 335
#     4  10  21  38  59  81 112 148 186 234 283 336
#     4  10  19  35  56  79 113 152 185 227 282 338
#     4  12  24  37  56  83 114 148 186 230 283 344
#
# _framework density 20.96405
#
# number of rings (size 3 to 8) (size 9 to 14) (size 15 to 20)
#    0.000    2.000    1.250    4.125    0.000    4.000 
#    0.000    5.000    0.000    3.750    0.000    0.000 
#    0.000    5.000    0.000    0.000    0.000    0.000 
#
# Total GULP energy -178583.745822 kJ/mol
# GULP energy per Si atom -5580.742057 kJ/mol
# Density = 2.091633 g / cm^3
# Si number density = 20.964050 Si / 1000 Ang^3
#
#
#
# Elastic Constant Matrix: (Units=GPa)
#
#
# Indices 1 2 3 4 5 6 
#
# 1 35.6232 0.5780 2.4212 0.0000 0.0000 0.0000
# 2 0.5780 155.4431 73.5274 0.0000 0.0000 0.0000
# 3 2.4212 73.5274 116.9490 0.0000 0.0000 0.0000
# 4 0.0000 0.0000 0.0000 20.9024 0.0000 0.0000
# 5 0.0000 0.0000 0.0000 0.0000 4.3849 0.0000
# 6 0.0000 0.0000 0.0000 0.0000 0.0000 9.7234
#
#
#
# Elastic Compliance Matrix: (Units=1/GPa)
#
#
# Indices 1 2 3 4 5 6 
#
# 1 0.028118 0.000243 -0.000735 0.000000 0.000000 0.000000
# 2 0.000243 0.009158 -0.005763 0.000000 0.000000 0.000000
# 3 -0.000735 -0.005763 0.012189 0.000000 0.000000 0.000000
# 4 0.000000 0.000000 0.000000 0.047841 0.000000 0.000000
# 5 0.000000 0.000000 0.000000 0.000000 0.228055 0.000000
# 6 0.000000 0.000000 0.000000 0.000000 0.000000 0.102845
#
#
# Mechanical properties :
#
#
# Convention : Reuss Voigt Hill
#
# Bulk Modulus (GPa) = 27.05959 51.22983 39.14471
# Shear Modulus (GPa) = 11.03667 22.43470 16.73569
#
# Velocity S-wave (km/s) = 2.29695 3.27487 2.82849
# Velocity P-wave (km/s) = 4.46881 6.22814 5.42033
#
# Compressibility (1/GPa) = 0.03695547
#
# Stress axis : x y z
#
# Youngs Moduli (GPa) = 35.56486 109.19032 82.03968
#
# Poissons Ratio (x) = -0.02655 0.06030
# Poissons Ratio (y) = -0.00865 0.47279
# Poissons Ratio (z) = 0.02614 0.62926
#
# Static dielectric constant tensor:
#      x y z
#    x 1.753560 0.000000 0.000000 
#    y 0.000000 1.770540 0.000000 
#    z 0.000000 0.000000 1.745410 
# 
# From -- ./inp_files/11877.got.cif
#   From: 2010.05.17/outbox.cif.g08.bks.cpg/sg35_6_cif.got.tgz:11877.got - 2010.06.03 17:29:28.
