data_PCOD9348185
_publ_section_title
;
Structure prediction by ZEFSAII (Michael W. Deem and Ramdas Pophale) SiO2 
 PCOD9348185
Probable space group: C M M 2
;
_chemical_formula_sum "Si O2"
_cell_formula_units_Z 48
_cell_length_a 22.424753
_cell_length_b 7.281348
_cell_length_c 12.470061
_cell_angle_alpha 90.000000
_cell_angle_beta 90.000000
_cell_angle_gamma 90.000000
_cell_volume 2036.141867
_symmetry_space_group_name_H-M "C M M 2"
_symmetry_group_IT_number 35
_symmetry_cell_setting 'orthorhombic'
loop_
_space_group_symop_operation_xyz
x,y,z
-x,-y,z
-x,y,z
x,-y,z
1/2+x,1/2+y,z
1/2-x,1/2-y,z
1/2-x,1/2+y,z
1/2+x,1/2-y,z
loop_
_atom_site_type_symbol
_atom_site_label
_atom_site_fract_x
_atom_site_fract_y
_atom_site_fract_z
Si Si1 0.318643 0.217935 0.482850
Si Si2 0.568844 0.224632 0.906336
Si Si3 0.869445 0.275817 0.258790
Si Si4 0.317054 0.781470 0.044718
Si Si5 0.106643 0.722312 0.668653
Si Si6 0.000000 0.277985 0.513381
Si Si7 0.500000 0.777193 0.267348
O O1 0.250000 0.250000 0.460321
O O2 0.354706 0.287899 0.379035
O O3 0.335165 0.283888 0.602716
O O4 0.330578 0.000000 0.485064
O O5 0.500000 0.280644 0.930856
O O6 0.587469 0.284221 0.786006
O O7 0.567566 0.000000 0.909654
O O8 0.624650 0.284740 0.979893
O O9 0.868470 0.500000 0.263050
O O10 0.823600 0.215609 0.167500
O O11 0.936103 0.220705 0.222678
O O12 0.250000 0.750000 0.002320
O O13 0.323522 0.000000 0.046488
O O14 0.108010 0.500000 0.678862
O O15 0.056518 0.774659 0.582693
O O16 0.000000 0.500000 0.508114
O O17 0.000000 0.218000 0.391560
O O18 0.500000 0.000000 0.262507
#
# Coordination Sequence:
#
# PCOD9348185 Si02
#       7
#     8   8   8   8   8   4   4
#     4  10  19  30  45  68  96 127 159 190 229 282
#     4   9  17  29  48  74 100 124 158 208 254 285
#     4   9  17  28  45  70  98 123 154 198 245 285
#     4  10  21  35  51  72  99 132 164 198 243 293
#     4   9  15  25  43  68  96 120 147 189 239 283
#     4   9  12  20  39  65  95 118 138 177 239 285
#     4   9  14  22  41  71  99 118 146 199 251 283
#
# _framework density 23.573995
#
# number of rings (size 3 to 8) (size 9 to 14) (size 15 to 20)
#    0.000    2.667    2.500    0.500    1.167    0.667 
#    0.000    0.000    0.000    0.500    0.000    3.500 
#    0.000    0.000    0.000    0.000    0.000    0.000 
#
# Total GULP energy -133864.573392 kJ/mol
# GULP energy per Si atom -5577.690558 kJ/mol
# Density = 2.352034 g / cm^3
# Si number density = 23.573995 Si / 1000 Ang^3
#
#
#
# Elastic Constant Matrix: (Units=GPa)
#
#
# Indices 1 2 3 4 5 6 
#
# 1 170.5357 -4.6492 65.2492 0.0000 0.0000 0.0000
# 2 -4.6492 98.5922 2.7685 0.0000 0.0000 0.0000
# 3 65.2492 2.7685 93.5906 0.0000 0.0000 0.0000
# 4 0.0000 0.0000 0.0000 -27.8123 0.0000 0.0000
# 5 0.0000 0.0000 0.0000 0.0000 55.0245 0.0000
# 6 0.0000 0.0000 0.0000 0.0000 0.0000 5.4423
#
#
#
# Elastic Compliance Matrix: (Units=1/GPa)
#
#
# Indices 1 2 3 4 5 6 
#
# 1 0.008025 0.000536 -0.005611 0.000000 0.000000 0.000000
# 2 0.000536 0.010187 -0.000675 0.000000 0.000000 0.000000
# 3 -0.005611 -0.000675 0.014617 0.000000 0.000000 0.000000
# 4 0.000000 0.000000 0.000000 -0.035955 0.000000 0.000000
# 5 0.000000 0.000000 0.000000 0.000000 0.018174 0.000000
# 6 0.000000 0.000000 0.000000 0.000000 0.000000 0.183747
#
#
# Mechanical properties :
#
#
# Convention : Reuss Voigt Hill
#
# Bulk Modulus (GPa) = 46.88445 54.38394 50.63420
# Shear Modulus (GPa) = 22.99865 26.48757 24.74311
#
# Velocity S-wave (km/s) = 3.12684 3.35564 3.24326
# Velocity P-wave (km/s) = 5.74174 6.17522 5.96242
#
# Compressibility (1/GPa) = 0.02132903
#
# Stress axis : x y z
#
# Youngs Moduli (GPa) = 124.60604 98.16414 68.41543
#
# Poissons Ratio (x) = -0.05262 0.38387
# Poissons Ratio (y) = -0.06679 0.04618
# Poissons Ratio (z) = 0.69915 0.06626
#
# Static dielectric constant tensor:
#      x y z
#    x 1.909110 0.000000 0.000000 
#    y 0.000000 1.996130 0.000000 
#    z 0.000000 0.000000 1.857150 
# 
# From -- ./inp_files/13874.got.cif
#   From: 2010.05.17/outbox.cif.g08.bks.cpg/sg35_7_cif.got.tgz:13874.got - 2010.06.03 17:29:28.
