data_PCOD9348878
_publ_section_title
;
Structure prediction by ZEFSAII (Michael W. Deem and Ramdas Pophale) SiO2 
 PCOD9348878
Probable space group: C M M 2
;
_chemical_formula_sum "Si O2"
_cell_formula_units_Z 56
_cell_length_a 9.189432
_cell_length_b 18.684233
_cell_length_c 18.299919
_cell_angle_alpha 90.000000
_cell_angle_beta 90.000000
_cell_angle_gamma 90.000000
_cell_volume 3142.050134
_symmetry_space_group_name_H-M "C M M 2"
_symmetry_group_IT_number 35
_symmetry_cell_setting 'orthorhombic'
loop_
_space_group_symop_operation_xyz
x,y,z
-x,-y,z
-x,y,z
x,-y,z
1/2+x,1/2+y,z
1/2-x,1/2-y,z
1/2-x,1/2+y,z
1/2+x,1/2-y,z
loop_
_atom_site_type_symbol
_atom_site_label
_atom_site_fract_x
_atom_site_fract_y
_atom_site_fract_z
Si Si1 0.831910 0.586289 0.443330
Si Si2 0.332826 0.587009 0.588300
Si Si3 0.672876 0.673754 0.320293
Si Si4 0.174091 0.326883 0.881327
Si Si5 0.173067 0.416422 0.028244
Si Si6 0.174941 0.084902 0.753395
Si Si7 0.827011 0.826461 0.151164
O O1 0.824040 0.500000 0.441293
O O2 0.767382 0.610356 0.521472
O O3 0.739018 0.618729 0.377742
O O4 0.000000 0.607572 0.436240
O O5 0.500000 0.609674 0.576032
O O6 0.333077 0.500000 0.588701
O O7 0.287458 0.607713 0.670275
O O8 0.500000 0.680612 0.330116
O O9 0.750000 0.750000 0.331659
O O10 0.699945 0.652703 0.235730
O O11 0.250000 0.250000 0.886556
O O12 0.239780 0.369855 0.812962
O O13 0.000000 0.319161 0.874058
O O14 0.204219 0.372137 0.954741
O O15 0.206847 0.500000 0.017677
O O16 0.261317 0.382967 0.095062
O O17 0.000000 0.410004 0.042930
O O18 0.000000 0.093386 0.761517
O O19 0.206481 0.000000 0.761310
O O20 0.750000 0.750000 0.138622
O O21 0.000000 0.818805 0.140931
#
# Coordination Sequence:
#
# PCOD9348878 Si02
#       7
#     8   8   8   8   8   8   8
#     4  10  20  33  52  80 111 143 181 222 265 316
#     4   8  15  30  52  77 106 140 177 219 268 318
#     4  10  21  37  56  78 107 142 180 222 268 319
#     4  11  23  38  56  79 109 144 181 220 265 317
#     4  10  22  39  58  82 111 141 175 218 267 316
#     4   9  18  34  57  83 109 139 177 221 269 319
#     4  10  21  37  58  82 107 140 180 220 266 319
#
# _framework density 17.822758
#
# number of rings (size 3 to 8) (size 9 to 14) (size 15 to 20)
#    0.000    2.286    0.000    3.429    0.000    7.143 
#    0.000    5.000    0.000    3.429    0.000    0.000 
#    0.000    0.000    0.000    0.000    0.000    0.000 
#
# Total GULP energy -156290.636023 kJ/mol
# GULP energy per Si atom -5581.808429 kJ/mol
# Density = 1.778219 g / cm^3
# Si number density = 17.822758 Si / 1000 Ang^3
#
#
#
# Elastic Constant Matrix: (Units=GPa)
#
#
# Indices 1 2 3 4 5 6 
#
# 1 94.1358 62.0027 91.6120 0.0000 0.0000 0.0000
# 2 62.0027 83.9162 77.0493 0.0000 0.0000 0.0000
# 3 91.6120 77.0493 138.8137 0.0000 0.0000 0.0000
# 4 0.0000 0.0000 0.0000 130.0050 0.0000 0.0000
# 5 0.0000 0.0000 0.0000 0.0000 16.6114 0.0000
# 6 0.0000 0.0000 0.0000 0.0000 0.0000 29.1152
#
#
#
# Elastic Compliance Matrix: (Units=1/GPa)
#
#
# Indices 1 2 3 4 5 6 
#
# 1 0.032624 -0.008842 -0.016623 0.000000 0.000000 0.000000
# 2 -0.008842 0.026698 -0.008983 0.000000 0.000000 0.000000
# 3 -0.016623 -0.008983 0.023161 0.000000 0.000000 0.000000
# 4 0.000000 0.000000 0.000000 0.007692 0.000000 0.000000
# 5 0.000000 0.000000 0.000000 0.000000 0.060200 0.000000
# 6 0.000000 0.000000 0.000000 0.000000 0.000000 0.034346
#
#
# Mechanical properties :
#
#
# Convention : Reuss Voigt Hill
#
# Bulk Modulus (GPa) = 73.60514 86.46597 80.03555
# Shear Modulus (GPa) = 19.36890 40.89311 30.13100
#
# Velocity S-wave (km/s) = 3.30017 4.79522 4.11614
# Velocity P-wave (km/s) = 7.47727 8.90385 8.22156
#
# Compressibility (1/GPa) = 0.01358601
#
# Stress axis : x y z
#
# Youngs Moduli (GPa) = 30.65239 37.45579 43.17684
#
# Poissons Ratio (x) = 0.33119 0.71771
# Poissons Ratio (y) = 0.27103 0.38788
# Poissons Ratio (z) = 0.50952 0.33648
#
# Static dielectric constant tensor:
#      x y z
#    x 1.594220 0.000000 0.000000 
#    y 0.000000 1.584500 0.000000 
#    z 0.000000 0.000000 1.597070 
# 
# From -- ./inp_files/15616.got.cif
#   From: 2010.05.17/outbox.cif.g08.bks.cpg/sg35_8_cif.got.tgz:15616.got - 2010.06.03 17:29:28.
