data_PCOD9348545
_publ_section_title
;
Structure prediction by ZEFSAII (Michael W. Deem and Ramdas Pophale) SiO2 
 PCOD9348545
Probable space group: C M M 2
;
_chemical_formula_sum "Si O2"
_cell_formula_units_Z 48
_cell_length_a 8.961635
_cell_length_b 15.573262
_cell_length_c 17.677840
_cell_angle_alpha 90.000000
_cell_angle_beta 90.000000
_cell_angle_gamma 90.000000
_cell_volume 2467.152758
_symmetry_space_group_name_H-M "C M M 2"
_symmetry_group_IT_number 35
_symmetry_cell_setting 'orthorhombic'
loop_
_space_group_symop_operation_xyz
x,y,z
-x,-y,z
-x,y,z
x,-y,z
1/2+x,1/2+y,z
1/2-x,1/2-y,z
1/2-x,1/2+y,z
1/2+x,1/2-y,z
loop_
_atom_site_type_symbol
_atom_site_label
_atom_site_fract_x
_atom_site_fract_y
_atom_site_fract_z
Si Si1 0.181533 0.500000 0.286770
Si Si2 0.821068 0.339199 0.389137
Si Si3 0.173359 0.104203 0.856276
Si Si4 0.321068 0.160801 0.011564
Si Si5 0.673359 0.395797 0.544425
Si Si6 0.818467 0.500000 0.113931
Si Si7 0.171906 0.604945 0.700351
O O1 0.226555 0.583906 0.333688
O O2 0.234241 0.500000 0.200351
O O3 0.000000 0.500000 0.285232
O O4 0.750000 0.250000 0.364039
O O5 0.762795 0.359903 0.473219
O O6 0.000000 0.334249 0.389733
O O7 0.262795 0.140096 0.927482
O O8 0.244462 0.131911 0.776670
O O9 0.000000 0.129355 0.860696
O O10 0.180803 0.000000 0.859292
O O11 0.500000 0.165751 0.010968
O O12 0.250000 0.250000 0.036662
O O13 0.273445 0.083906 0.067013
O O14 0.500000 0.370645 0.540006
O O15 0.680804 0.500000 0.541409
O O16 0.744462 0.368089 0.624031
O O17 0.000000 0.500000 0.115469
O O18 0.172788 0.500000 0.700351
O O19 0.000000 0.632706 0.700351
#
# Coordination Sequence:
#
# PCOD9348545 Si02
#       7
#     4   8   8   8   8   4   8
#     4   9  20  40  65  90 119 156 195 239 296 361
#     4  11  22  38  61  89 121 158 200 244 296 354
#     4  10  19  33  55  83 118 157 201 249 297 347
#     4  11  22  38  61  89 121 158 200 244 296 354
#     4  10  19  33  55  83 118 157 201 249 297 347
#     4   9  20  40  65  90 119 156 195 239 296 361
#     4   9  17  29  50  81 116 156 203 246 293 349
#
# _framework density 19.455625000000001
#
# number of rings (size 3 to 8) (size 9 to 14) (size 15 to 20)
#    0.000    2.000    1.667    2.500    0.000    4.000 
#    0.000    0.833    0.000    7.000    0.000    0.000 
#    0.000    0.000    0.000    0.000    0.000    0.000 
#
# Total GULP energy -134134.594570 kJ/mol
# GULP energy per Si atom -5588.941440 kJ/mol
# Density = 1.941134 g / cm^3
# Si number density = 19.455625 Si / 1000 Ang^3
#
#
#
# Elastic Constant Matrix: (Units=GPa)
#
#
# Indices 1 2 3 4 5 6 
#
# 1 104.7472 52.1605 53.9794 0.0000 0.0000 0.0000
# 2 52.1605 114.2649 82.2199 0.0000 0.0000 0.0000
# 3 53.9794 82.2199 173.9647 0.0000 0.0000 0.0000
# 4 0.0000 0.0000 0.0000 -9.8171 0.0000 0.0000
# 5 0.0000 0.0000 0.0000 0.0000 9.5797 0.0000
# 6 0.0000 0.0000 0.0000 0.0000 0.0000 26.3309
#
#
#
# Elastic Compliance Matrix: (Units=1/GPa)
#
#
# Indices 1 2 3 4 5 6 
#
# 1 0.012726 -0.004497 -0.001823 0.000000 0.000000 0.000000
# 2 -0.004497 0.014851 -0.005623 0.000000 0.000000 0.000000
# 3 -0.001823 -0.005623 0.008972 0.000000 0.000000 0.000000
# 4 0.000000 0.000000 0.000000 -0.101863 0.000000 0.000000
# 5 0.000000 0.000000 0.000000 0.000000 0.104387 0.000000
# 6 0.000000 0.000000 0.000000 0.000000 0.000000 0.037978
#
#
# Mechanical properties :
#
#
# Convention : Reuss Voigt Hill
#
# Bulk Modulus (GPa) = 78.98447 85.52180 82.25313
# Shear Modulus (GPa) = 47.54731 18.85985 33.20358
#
# Velocity S-wave (km/s) = 4.94893 3.11686 4.13562
# Velocity P-wave (km/s) = 8.56395 7.55022 8.07301
#
# Compressibility (1/GPa) = 0.01266072
#
# Stress axis : x y z
#
# Youngs Moduli (GPa) = 78.58038 67.33578 111.46080
#
# Poissons Ratio (x) = 0.30283 0.20321
# Poissons Ratio (y) = 0.35340 0.62679
# Poissons Ratio (z) = 0.14326 0.37866
#
# Static dielectric constant tensor:
#      x y z
#    x 1.650750 0.000000 0.000000 
#    y 0.000000 1.706190 0.000000 
#    z 0.000000 0.000000 1.639890 
# 
# From -- ./inp_files/17839.got.cif
#   From: 2010.05.17/outbox.cif.g08.bks.cpg/sg35_9_cif.got.tgz:17839.got - 2010.06.03 17:29:28.
