data_PCOD9348131
_publ_section_title
;
Structure prediction by ZEFSAII (Michael W. Deem and Ramdas Pophale) SiO2 
 PCOD9348131
Probable space group: C M M 2
;
_chemical_formula_sum "Si O2"
_cell_formula_units_Z 64
_cell_length_a 29.380882
_cell_length_b 9.349296
_cell_length_c 12.367565
_cell_angle_alpha 90.000000
_cell_angle_beta 90.000000
_cell_angle_gamma 90.000000
_cell_volume 3397.253387
_symmetry_space_group_name_H-M "C M M 2"
_symmetry_group_IT_number 35
_symmetry_cell_setting 'orthorhombic'
loop_
_space_group_symop_operation_xyz
x,y,z
-x,-y,z
-x,y,z
x,-y,z
1/2+x,1/2+y,z
1/2-x,1/2-y,z
1/2-x,1/2+y,z
1/2+x,1/2-y,z
loop_
_atom_site_type_symbol
_atom_site_label
_atom_site_fract_x
_atom_site_fract_y
_atom_site_fract_z
Si Si1 0.882089 0.173065 0.565410
Si Si2 0.196025 0.218431 0.175954
Si Si3 0.445790 0.170790 0.405778
Si Si4 0.297196 0.663010 0.930266
Si Si5 0.100032 0.664262 0.185624
Si Si6 0.448170 0.826157 0.969842
Si Si7 0.295647 0.341421 0.421024
Si Si8 0.373974 0.173202 0.795141
O O1 0.925533 0.239080 0.504387
O O2 0.838251 0.210706 0.490807
O O3 0.876116 0.250639 0.679741
O O4 0.884654 0.000000 0.574514
O O5 0.250000 0.250000 0.175176
O O6 0.154737 0.331595 0.179625
O O7 0.190679 0.150319 0.294478
O O8 0.189367 0.152613 0.057246
O O9 0.500000 0.186209 0.393992
O O10 0.420277 0.224082 0.296831
O O11 0.436220 0.000000 0.421501
O O12 0.292976 0.500000 0.889016
O O13 0.250000 0.750000 0.924632
O O14 0.333527 0.755799 0.864476
O O15 0.085171 0.500000 0.187965
O O16 0.078077 0.727588 0.076947
O O17 0.500000 0.775665 0.967624
O O18 0.419553 0.793076 0.863195
O O19 0.448855 0.000000 0.975037
O O20 0.284517 0.500000 0.459821
O O21 0.250000 0.250000 0.430416
O O22 0.368913 0.000000 0.787501
#
# Coordination Sequence:
#
# PCOD9348131 Si02
#       8
#     8   8   8   8   8   8   8   8
#     4  11  24  42  61  85 120 162 207 252 305 363
#     4  10  20  34  56  91 124 157 192 238 295 365
#     4  10  21  38  63  94 122 154 201 254 305 361
#     4  11  23  39  62  90 124 162 201 247 300 364
#     4  10  18  33  60  92 125 157 194 243 302 364
#     4   9  18  34  59  90 120 151 193 248 305 357
#     4  10  22  39  60  87 119 156 196 242 295 357
#     4  11  23  40  62  89 120 158 206 257 307 359
#
# _framework density 18.838746
#
# number of rings (size 3 to 8) (size 9 to 14) (size 15 to 20)
#    0.000    1.750    2.500    1.875    0.000    7.750 
#    0.000    2.500    0.000    1.125    0.000    0.000 
#    0.000    0.000    0.000    0.000    0.000    0.000 
#
# Total GULP energy -178222.294322 kJ/mol
# GULP energy per Si atom -5569.446698 kJ/mol
# Density = 1.879587 g / cm^3
# Si number density = 18.838746 Si / 1000 Ang^3
#
#
#
# Elastic Constant Matrix: (Units=GPa)
#
#
# Indices 1 2 3 4 5 6 
#
# 1 118.3865 39.7889 66.6133 0.0000 0.0000 0.0000
# 2 39.7889 69.3759 43.9517 0.0000 0.0000 0.0000
# 3 66.6133 43.9517 151.7090 0.0000 0.0000 0.0000
# 4 0.0000 0.0000 0.0000 12.1158 0.0000 0.0000
# 5 0.0000 0.0000 0.0000 0.0000 14.5966 0.0000
# 6 0.0000 0.0000 0.0000 0.0000 0.0000 25.8639
#
#
#
# Elastic Compliance Matrix: (Units=1/GPa)
#
#
# Indices 1 2 3 4 5 6 
#
# 1 0.012236 -0.004426 -0.004090 0.000000 0.000000 0.000000
# 2 -0.004426 0.019256 -0.003635 0.000000 0.000000 0.000000
# 3 -0.004090 -0.003635 0.009441 0.000000 0.000000 0.000000
# 4 0.000000 0.000000 0.000000 0.082537 0.000000 0.000000
# 5 0.000000 0.000000 0.000000 0.000000 0.068509 0.000000
# 6 0.000000 0.000000 0.000000 0.000000 0.000000 0.038664
#
#
# Mechanical properties :
#
#
# Convention : Reuss Voigt Hill
#
# Bulk Modulus (GPa) = 60.13569 71.13101 65.63335
# Shear Modulus (GPa) = 19.19465 23.12308 21.15886
#
# Velocity S-wave (km/s) = 3.19547 3.50726 3.35499
# Velocity P-wave (km/s) = 6.75317 7.36485 7.06563
#
# Compressibility (1/GPa) = 0.01662906
#
# Stress axis : x y z
#
# Youngs Moduli (GPa) = 81.72521 51.93247 105.92451
#
# Poissons Ratio (x) = 0.22987 0.43327
# Poissons Ratio (y) = 0.36175 0.38504
# Poissons Ratio (z) = 0.33428 0.18878
#
# Static dielectric constant tensor:
#      x y z
#    x 1.659820 0.000000 0.000000 
#    y 0.000000 1.645830 0.000000 
#    z 0.000000 0.000000 1.658820 
# 
# From -- ./inp_files/14533.got.cif
#   From: 2010.05.17/outbox.cif.g08.bks.cpg/sg35_8_cif.got.tgz:14533.got - 2010.06.03 17:29:28.
