data_PCOD9348092
_publ_section_title
;
Structure prediction by ZEFSAII (Michael W. Deem and Ramdas Pophale) SiO2 
 PCOD9348092
Probable space group: C M M 2
;
_chemical_formula_sum "Si O2"
_cell_formula_units_Z 64
_cell_length_a 15.475874
_cell_length_b 17.449210
_cell_length_c 12.014531
_cell_angle_alpha 90.000000
_cell_angle_beta 90.000000
_cell_angle_gamma 90.000000
_cell_volume 3244.425281
_symmetry_space_group_name_H-M "C M M 2"
_symmetry_group_IT_number 35
_symmetry_cell_setting 'orthorhombic'
loop_
_space_group_symop_operation_xyz
x,y,z
-x,-y,z
-x,y,z
x,-y,z
1/2+x,1/2+y,z
1/2-x,1/2-y,z
1/2-x,1/2+y,z
1/2+x,1/2-y,z
loop_
_atom_site_type_symbol
_atom_site_label
_atom_site_fract_x
_atom_site_fract_y
_atom_site_fract_z
Si Si1 0.898471 0.125781 0.391520
Si Si2 0.402448 0.734125 0.795367
Si Si3 0.097178 0.697453 0.421009
Si Si4 0.597189 0.130495 0.175163
Si Si5 0.367873 0.414388 0.647347
Si Si6 0.299503 0.169729 0.627576
Si Si7 0.398461 0.290390 0.043242
Si Si8 0.706435 0.583125 0.177591
O O1 0.873711 0.215452 0.399689
O O2 0.892773 0.094195 0.517226
O O3 0.831751 0.089989 0.303587
O O4 0.000000 0.119467 0.354909
O O5 0.500000 0.758340 0.815311
O O6 0.402764 0.657549 0.718631
O O7 0.355845 0.802923 0.731586
O O8 0.365757 0.714784 0.916425
O O9 0.096144 0.655621 0.304068
O O10 0.149645 0.654364 0.515090
O O11 0.000000 0.705823 0.465305
O O12 0.500000 0.096903 0.152168
O O13 0.603975 0.207283 0.100858
O O14 0.689574 0.088576 0.165399
O O15 0.391057 0.500000 0.685212
O O16 0.265638 0.398025 0.653243
O O17 0.250000 0.250000 0.603177
O O18 0.500000 0.315004 0.044439
O O19 0.339933 0.348713 0.111882
O O20 0.678913 0.500000 0.134056
#
# Coordination Sequence:
#
# PCOD9348092 Si02
#       8
#     8   8   8   8   8   8   8   8
#     4  11  21  35  56  86 120 150 188 235 285 343
#     4  10  21  38  60  83 107 142 188 237 284 330
#     4  10  18  32  57  84 106 139 187 235 279 322
#     4  10  22  39  61  84 111 148 192 239 280 331
#     4  11  23  35  52  82 118 154 185 221 280 342
#     4  10  19  32  55  81 110 143 187 232 271 320
#     4  10  22  40  61  85 111 143 191 243 288 336
#     4  12  25  37  57  86 118 154 186 226 287 348
#
# _framework density 19.726144000000001
#
# number of rings (size 3 to 8) (size 9 to 14) (size 15 to 20)
#    0.000    1.500    3.750    2.625    0.000    6.250 
#    0.000    1.250    0.000    2.250    0.000    1.750 
#    0.000    0.000    0.000    0.125    0.000    0.000 
#
# Total GULP energy -178470.446723 kJ/mol
# GULP energy per Si atom -5577.201460 kJ/mol
# Density = 1.968125 g / cm^3
# Si number density = 19.726144 Si / 1000 Ang^3
#
#
#
# Elastic Constant Matrix: (Units=GPa)
#
#
# Indices 1 2 3 4 5 6 
#
# 1 79.6108 26.9354 26.2232 0.0000 0.0000 0.0000
# 2 26.9354 48.5962 7.2593 0.0000 0.0000 0.0000
# 3 26.2232 7.2593 101.9749 0.0000 0.0000 0.0000
# 4 0.0000 0.0000 0.0000 -0.4949 0.0000 0.0000
# 5 0.0000 0.0000 0.0000 0.0000 37.8014 0.0000
# 6 0.0000 0.0000 0.0000 0.0000 0.0000 2.7133
#
#
#
# Elastic Compliance Matrix: (Units=1/GPa)
#
#
# Indices 1 2 3 4 5 6 
#
# 1 0.016723 -0.008720 -0.003680 0.000000 0.000000 0.000000
# 2 -0.008720 0.025345 0.000438 0.000000 0.000000 0.000000
# 3 -0.003680 0.000438 0.010721 0.000000 0.000000 0.000000
# 4 0.000000 0.000000 0.000000 -2.020703 0.000000 0.000000
# 5 0.000000 0.000000 0.000000 0.000000 0.026454 0.000000
# 6 0.000000 0.000000 0.000000 0.000000 0.000000 0.368551
#
#
# Mechanical properties :
#
#
# Convention : Reuss Voigt Hill
#
# Bulk Modulus (GPa) = 34.64108 39.00197 36.82152
# Shear Modulus (GPa) = -3.24810 19.32157 8.03674
#
# Velocity S-wave (km/s) = -1.28459 3.13308 2.02064
# Velocity P-wave (km/s) = 3.92414 5.73610 4.91435
#
# Compressibility (1/GPa) = 0.02886746
#
# Stress axis : x y z
#
# Youngs Moduli (GPa) = 59.79657 39.45500 93.27131
#
# Poissons Ratio (x) = 0.34403 0.34322
# Poissons Ratio (y) = 0.52140 -0.04085
# Poissons Ratio (z) = 0.22004 -0.01728
#
# Static dielectric constant tensor:
#      x y z
#    x 1.758560 0.000000 0.000000 
#    y 0.000000 1.663310 0.000000 
#    z 0.000000 0.000000 1.716440 
# 
# From -- ./inp_files/13224.got.cif
#   From: 2010.05.17/outbox.cif.g08.bks.cpg/sg35_7_cif.got.tgz:13224.got - 2010.06.03 17:29:28.
