data_PCOD9348658
_publ_section_title
;
Structure prediction by ZEFSAII (Michael W. Deem and Ramdas Pophale) SiO2 
 PCOD9348658
Probable space group: C M M 2
;
_chemical_formula_sum "Si O2"
_cell_formula_units_Z 64
_cell_length_a 8.329055
_cell_length_b 30.195584
_cell_length_c 12.673548
_cell_angle_alpha 90.000000
_cell_angle_beta 90.000000
_cell_angle_gamma 90.000000
_cell_volume 3187.405939
_symmetry_space_group_name_H-M "C M M 2"
_symmetry_group_IT_number 35
_symmetry_cell_setting 'orthorhombic'
loop_
_space_group_symop_operation_xyz
x,y,z
-x,-y,z
-x,y,z
x,-y,z
1/2+x,1/2+y,z
1/2-x,1/2-y,z
1/2-x,1/2+y,z
1/2+x,1/2-y,z
loop_
_atom_site_type_symbol
_atom_site_label
_atom_site_fract_x
_atom_site_fract_y
_atom_site_fract_z
Si Si1 0.186542 0.931780 0.017220
Si Si2 0.815365 0.172016 0.067880
Si Si3 0.810277 0.138923 0.690035
Si Si4 0.803557 0.951229 0.779274
Si Si5 0.685770 0.202788 0.858452
Si Si6 0.306965 0.146657 0.293969
Si Si7 0.690654 0.952004 0.244776
Si Si8 0.807416 0.199323 0.498974
O O1 0.190634 0.878796 0.028023
O O2 0.279390 0.949466 0.118873
O O3 0.000000 0.945775 0.026260
O O4 0.246603 0.945184 0.901638
O O5 0.751323 0.170071 0.186502
O O6 0.000000 0.187099 0.065165
O O7 0.713055 0.198875 0.983467
O O8 0.744652 0.089558 0.708454
O O9 0.784173 0.165011 0.798859
O O10 0.743932 0.169728 0.596945
O O11 0.000000 0.134488 0.670314
O O12 0.000000 0.949168 0.781123
O O13 0.756543 0.000000 0.742228
O O14 0.500000 0.197645 0.832888
O O15 0.750000 0.250000 0.821244
O O16 0.500000 0.145803 0.294056
O O17 0.247449 0.095053 0.290660
O O18 0.245361 0.174106 0.393206
O O19 0.500000 0.952174 0.263766
O O20 0.755857 0.000000 0.282081
O O21 0.750000 0.250000 0.502776
O O22 0.000000 0.200367 0.503668
#
# Coordination Sequence:
#
# PCOD9348658 Si02
#       8
#     8   8   8   8   8   8   8   8
#     4   9  16  28  50  78 113 154 195 234 273 326
#     4  10  19  35  57  83 119 155 191 235 287 341
#     4  10  21  40  61  85 118 152 193 243 290 341
#     4   9  16  29  53  84 117 154 193 232 280 334
#     4  12  24  37  57  85 117 153 192 234 291 354
#     4  10  21  38  60  86 118 151 193 241 291 346
#     4   9  18  32  51  79 117 158 195 232 278 333
#     4  11  24  42  65  87 110 145 194 247 300 353
#
# _framework density 20.079024
#
# number of rings (size 3 to 8) (size 9 to 14) (size 15 to 20)
#    0.000    2.000    1.250    3.000    0.000    4.250 
#    0.000    3.125    0.000    1.125    0.000    0.000 
#    0.000    0.000    0.000    0.000    0.000    0.000 
#
# Total GULP energy -178592.662578 kJ/mol
# GULP energy per Si atom -5581.020706 kJ/mol
# Density = 2.003332 g / cm^3
# Si number density = 20.079024 Si / 1000 Ang^3
#
#
#
# Elastic Constant Matrix: (Units=GPa)
#
#
# Indices 1 2 3 4 5 6 
#
# 1 18.5134 3.9919 -0.6812 0.0000 0.0000 0.0000
# 2 3.9919 143.6635 63.3867 0.0000 0.0000 0.0000
# 3 -0.6812 63.3867 105.3093 0.0000 0.0000 0.0000
# 4 0.0000 0.0000 0.0000 13.3297 0.0000 0.0000
# 5 0.0000 0.0000 0.0000 0.0000 15.7289 0.0000
# 6 0.0000 0.0000 0.0000 0.0000 0.0000 -0.4838
#
#
#
# Elastic Compliance Matrix: (Units=1/GPa)
#
#
# Indices 1 2 3 4 5 6 
#
# 1 0.054569 -0.002277 0.001723 0.000000 0.000000 0.000000
# 2 -0.002277 0.009573 -0.005777 0.000000 0.000000 0.000000
# 3 0.001723 -0.005777 0.012984 0.000000 0.000000 0.000000
# 4 0.000000 0.000000 0.000000 0.075021 0.000000 0.000000
# 5 0.000000 0.000000 0.000000 0.000000 0.063577 0.000000
# 6 0.000000 0.000000 0.000000 0.000000 0.000000 -2.067126
#
#
# Mechanical properties :
#
#
# Convention : Reuss Voigt Hill
#
# Bulk Modulus (GPa) = 15.51206 44.54233 30.02719
# Shear Modulus (GPa) = -2.75140 19.10087 8.17473
#
# Velocity S-wave (km/s) = -1.17186 3.08764 2.01993
# Velocity P-wave (km/s) = 2.43131 5.91126 4.51964
#
# Compressibility (1/GPa) = 0.06446598
#
# Stress axis : x y z
#
# Youngs Moduli (GPa) = 18.32536 104.46354 77.01791
#
# Poissons Ratio (x) = 0.23782 -0.13273
# Poissons Ratio (y) = 0.04172 0.44490
# Poissons Ratio (z) = -0.03158 0.60345
#
# Static dielectric constant tensor:
#      x y z
#    x 1.698530 0.000000 0.000000 
#    y 0.000000 1.746830 0.000000 
#    z 0.000000 0.000000 1.684410 
# 
# From -- ./inp_files/11961.got.cif
#   From: 2010.05.17/outbox.cif.g08.bks.cpg/sg35_6_cif.got.tgz:11961.got - 2010.06.03 17:29:28.
