data_PCOD9348228
_publ_section_title
;
Structure prediction by ZEFSAII (Michael W. Deem and Ramdas Pophale) SiO2 
 PCOD9348228
Probable space group: C M M 2
;
_chemical_formula_sum "Si O2"
_cell_formula_units_Z 64
_cell_length_a 7.890373
_cell_length_b 20.771304
_cell_length_c 20.743792
_cell_angle_alpha 90.000000
_cell_angle_beta 90.000000
_cell_angle_gamma 90.000000
_cell_volume 3399.769277
_symmetry_space_group_name_H-M "C M M 2"
_symmetry_group_IT_number 35
_symmetry_cell_setting 'orthorhombic'
loop_
_space_group_symop_operation_xyz
x,y,z
-x,-y,z
-x,y,z
x,-y,z
1/2+x,1/2+y,z
1/2-x,1/2-y,z
1/2-x,1/2+y,z
1/2+x,1/2-y,z
loop_
_atom_site_type_symbol
_atom_site_label
_atom_site_fract_x
_atom_site_fract_y
_atom_site_fract_z
Si Si1 0.298602 0.176443 0.019090
Si Si2 0.704486 0.073263 0.622703
Si Si3 0.204488 0.073247 0.768982
Si Si4 0.798727 0.823593 0.871450
Si Si5 0.793011 0.573518 0.269283
Si Si6 0.295603 0.177060 0.519555
Si Si7 0.704317 0.822897 0.372847
Si Si8 0.707208 0.073572 0.122310
O O1 0.500000 0.173030 0.022079
O O2 0.250000 0.250000 0.033957
O O3 0.229884 0.125008 0.070338
O O4 0.249126 0.162398 0.945363
O O5 0.500000 0.072071 0.618719
O O6 0.751006 0.091382 0.695739
O O7 0.767664 0.124316 0.570257
O O8 0.765584 0.000000 0.611302
O O9 0.271009 0.124463 0.820848
O O10 0.000000 0.071716 0.773530
O O11 0.266345 0.000000 0.780202
O O12 0.750000 0.750000 0.856637
O O13 0.000000 0.826619 0.867814
O O14 0.741882 0.500000 0.283903
O O15 0.732756 0.624824 0.321668
O O16 0.741187 0.588743 0.195825
O O17 0.000000 0.574400 0.269932
O O18 0.500000 0.172863 0.518175
O O19 0.250000 0.250000 0.538154
O O20 0.233855 0.166170 0.446182
O O21 0.500000 0.827383 0.374288
O O22 0.750000 0.750000 0.354356
O O23 0.500000 0.074346 0.121657
O O24 0.758226 0.000000 0.107621
#
# Coordination Sequence:
#
# PCOD9348228 Si02
#       8
#     8   8   8   8   8   8   8   8
#     4  10  19  31  48  69  94 122 152 188 228 271
#     4   9  18  32  49  69  93 120 151 190 231 268
#     4   9  19  35  52  70  93 121 152 186 226 273
#     4  10  20  34  51  70  94 122 152 188 227 269
#     4   8  14  26  45  68  92 119 154 193 229 267
#     4   9  18  31  46  67  95 123 153 189 228 271
#     4   9  17  29  46  68  93 122 154 189 229 271
#     4   8  15  28  45  67  94 121 152 191 230 268
#
# _framework density 18.824807
#
# number of rings (size 3 to 8) (size 9 to 14) (size 15 to 20)
#    0.000    3.000    0.000    2.250    0.000    3.500 
#    0.000    5.000    0.000    2.250    0.000    7.000 
#    0.000    0.000    0.000    0.000    0.000    0.000 
#
# Total GULP energy -178406.738708 kJ/mol
# GULP energy per Si atom -5575.210585 kJ/mol
# Density = 1.878196 g / cm^3
# Si number density = 18.824807 Si / 1000 Ang^3
#
#
#
# Elastic Constant Matrix: (Units=GPa)
#
#
# Indices 1 2 3 4 5 6 
#
# 1 21.3621 6.9370 6.8676 0.0000 0.0000 0.0000
# 2 6.9370 167.2623 153.4512 0.0000 0.0000 0.0000
# 3 6.8676 153.4512 162.2918 0.0000 0.0000 0.0000
# 4 0.0000 0.0000 0.0000 45.7697 0.0000 0.0000
# 5 0.0000 0.0000 0.0000 0.0000 10.8874 0.0000
# 6 0.0000 0.0000 0.0000 0.0000 0.0000 18.4245
#
#
#
# Elastic Compliance Matrix: (Units=1/GPa)
#
#
# Indices 1 2 3 4 5 6 
#
# 1 0.047478 -0.000950 -0.001111 0.000000 0.000000 0.000000
# 2 -0.000950 0.045125 -0.042626 0.000000 0.000000 0.000000
# 3 -0.001111 -0.042626 0.046513 0.000000 0.000000 0.000000
# 4 0.000000 0.000000 0.000000 0.021849 0.000000 0.000000
# 5 0.000000 0.000000 0.000000 0.000000 0.091849 0.000000
# 6 0.000000 0.000000 0.000000 0.000000 0.000000 0.054276
#
#
# Mechanical properties :
#
#
# Convention : Reuss Voigt Hill
#
# Bulk Modulus (GPa) = 20.10415 76.15866 48.13140
# Shear Modulus (GPa) = 12.10526 27.26035 19.68280
#
# Velocity S-wave (km/s) = 2.53859 3.80953 3.23705
# Velocity P-wave (km/s) = 4.39265 7.73915 6.29245
#
# Compressibility (1/GPa) = 0.04974098
#
# Stress axis : x y z
#
# Youngs Moduli (GPa) = 21.06257 22.16081 21.49930
#
# Poissons Ratio (x) = 0.02105 0.02389
# Poissons Ratio (y) = 0.02000 0.91644
# Poissons Ratio (z) = 0.02340 0.94464
#
# Static dielectric constant tensor:
#      x y z
#    x 1.686540 0.000000 0.000000 
#    y 0.000000 1.648650 0.000000 
#    z 0.000000 0.000000 1.648410 
# 
# From -- ./inp_files/18423.got.cif
#   From: 2010.05.17/outbox.cif.g08.bks.cpg/sg35_10_cif.got.tgz:18423.got - 2010.06.03 17:29:28.
