data_PCOD9348356
_publ_section_title
;
Structure prediction by ZEFSAII (Michael W. Deem and Ramdas Pophale) SiO2 
 PCOD9348356
Probable space group: C M M 2
;
_chemical_formula_sum "Si O2"
_cell_formula_units_Z 40
_cell_length_a 26.946748
_cell_length_b 9.141454
_cell_length_c 9.305180
_cell_angle_alpha 90.000000
_cell_angle_beta 90.000000
_cell_angle_gamma 90.000000
_cell_volume 2292.167855
_symmetry_space_group_name_H-M "C M M 2"
_symmetry_group_IT_number 35
_symmetry_cell_setting 'orthorhombic'
loop_
_space_group_symop_operation_xyz
x,y,z
-x,-y,z
-x,y,z
x,-y,z
1/2+x,1/2+y,z
1/2-x,1/2-y,z
1/2-x,1/2+y,z
1/2+x,1/2-y,z
loop_
_atom_site_type_symbol
_atom_site_label
_atom_site_fract_x
_atom_site_fract_y
_atom_site_fract_z
Si Si1 0.699582 0.330100 0.825630
Si Si2 0.000000 0.675141 0.995096
Si Si3 0.701408 0.667080 0.475111
Si Si4 0.906484 0.822502 0.499679
Si Si5 0.597249 0.823902 0.810249
Si Si6 0.000000 0.825106 0.302147
O O1 0.698292 0.500000 0.869765
O O2 0.750000 0.250000 0.874399
O O3 0.701043 0.328671 0.650192
O O4 0.648994 0.245961 0.864979
O O5 0.000000 0.500000 0.010167
O O6 0.000000 0.748289 0.149713
O O7 0.049898 0.714264 0.907855
O O8 0.705498 0.500000 0.429470
O O9 0.750000 0.750000 0.424333
O O10 0.646864 0.722853 0.434560
O O11 0.912098 0.743447 0.652333
O O12 0.951543 0.787434 0.395237
O O13 0.904861 0.000000 0.522287
O O14 0.601950 0.000000 0.801639
O O15 0.000000 0.000000 0.281825
#
# Coordination Sequence:
#
# PCOD9348356 Si02
#       6
#     8   4   8   8   8   4
#     4   9  16  27  45  72 103 132 162 202 248 295
#     4  10  23  38  50  70 102 134 169 212 256 302
#     4   8  14  24  40  65  97 124 149 186 233 282
#     4   9  18  32  50  75 101 125 161 209 251 295
#     4  10  19  32  51  75 102 134 169 207 250 298
#     4  10  21  36  54  72  94 128 169 212 258 302
#
# _framework density 17.450728999999999
#
# number of rings (size 3 to 8) (size 9 to 14) (size 15 to 20)
#    0.000    2.800    0.000    3.000    0.000    7.200 
#    0.000    0.000    0.000    1.200    0.000    5.600 
#    0.000    0.000    0.000    0.000    0.000    0.000 
#
# Total GULP energy -111452.437259 kJ/mol
# GULP energy per Si atom -5572.621863 kJ/mol
# Density = 1.741101 g / cm^3
# Si number density = 17.450729 Si / 1000 Ang^3
#
#
#
# Elastic Constant Matrix: (Units=GPa)
#
#
# Indices 1 2 3 4 5 6 
#
# 1 226.1121 80.4415 75.3615 0.0000 0.0000 0.0000
# 2 80.4415 65.6001 37.3322 0.0000 0.0000 0.0000
# 3 75.3615 37.3322 55.9861 0.0000 0.0000 0.0000
# 4 0.0000 0.0000 0.0000 21.4195 0.0000 0.0000
# 5 0.0000 0.0000 0.0000 0.0000 -3.9766 0.0000
# 6 0.0000 0.0000 0.0000 0.0000 0.0000 32.4328
#
#
#
# Elastic Compliance Matrix: (Units=1/GPa)
#
#
# Indices 1 2 3 4 5 6 
#
# 1 0.009777 -0.007251 -0.008326 0.000000 0.000000 0.000000
# 2 -0.007251 0.029944 -0.010206 0.000000 0.000000 0.000000
# 3 -0.008326 -0.010206 0.035874 0.000000 0.000000 0.000000
# 4 0.000000 0.000000 0.000000 0.046686 0.000000 0.000000
# 5 0.000000 0.000000 0.000000 0.000000 -0.251472 0.000000
# 6 0.000000 0.000000 0.000000 0.000000 0.000000 0.030833
#
#
# Mechanical properties :
#
#
# Convention : Reuss Voigt Hill
#
# Bulk Modulus (GPa) = 41.61641 81.55207 61.58424
# Shear Modulus (GPa) = -128.92520 20.27934 -54.32293
#
# Velocity S-wave (km/s) = -8.60465 3.41264 -5.58542
# Velocity P-wave (km/s) = 8.64987 7.89699 2.49578
#
# Compressibility (1/GPa) = 0.02402898
#
# Stress axis : x y z
#
# Youngs Moduli (GPa) = 102.28001 33.39594 27.87520
#
# Poissons Ratio (x) = 0.24216 0.23208
# Poissons Ratio (y) = 0.74164 0.28450
# Poissons Ratio (z) = 0.85154 0.34085
#
# Static dielectric constant tensor:
#      x y z
#    x 1.619490 0.000000 0.000000 
#    y 0.000000 1.593420 0.000000 
#    z 0.000000 0.000000 1.550670 
# 
# From -- ./inp_files/5008.got.cif
#   From: 2010.05.17/outbox.cif.g08.bks.cpg/sg35_3_cif.got.tgz:5008.got - 2010.06.03 17:29:28.
