data_PCOD9348621
_publ_section_title
;
Structure prediction by ZEFSAII (Michael W. Deem and Ramdas Pophale) SiO2 
 PCOD9348621
Probable space group: C M M 2
;
_chemical_formula_sum "Si O2"
_cell_formula_units_Z 64
_cell_length_a 15.310395
_cell_length_b 15.034365
_cell_length_c 12.743426
_cell_angle_alpha 90.000000
_cell_angle_beta 90.000000
_cell_angle_gamma 90.000000
_cell_volume 2933.308134
_symmetry_space_group_name_H-M "C M M 2"
_symmetry_group_IT_number 35
_symmetry_cell_setting 'orthorhombic'
loop_
_space_group_symop_operation_xyz
x,y,z
-x,-y,z
-x,y,z
x,-y,z
1/2+x,1/2+y,z
1/2-x,1/2-y,z
1/2-x,1/2+y,z
1/2+x,1/2-y,z
loop_
_atom_site_type_symbol
_atom_site_label
_atom_site_fract_x
_atom_site_fract_y
_atom_site_fract_z
Si Si1 0.099840 0.290805 0.265600
Si Si2 0.160107 0.711402 0.646797
Si Si3 0.709454 0.103362 0.438914
Si Si4 0.099708 0.901325 0.356868
Si Si5 0.098160 0.096996 0.654997
Si Si6 0.645720 0.897561 0.847939
Si Si7 0.145044 0.734188 0.028315
Si Si8 0.355018 0.598654 0.895388
O O1 0.166177 0.344405 0.340679
O O2 0.108479 0.185179 0.285720
O O3 0.116611 0.298284 0.142305
O O4 0.000000 0.317005 0.291913
O O5 0.250000 0.750000 0.694025
O O6 0.179914 0.651915 0.545322
O O7 0.117485 0.804013 0.613696
O O8 0.121405 0.651856 0.739571
O O9 0.815069 0.104998 0.430558
O O10 0.682607 0.000000 0.437509
O O11 0.000000 0.897333 0.399207
O O12 0.107260 0.000000 0.306898
O O13 0.102777 0.108384 0.781025
O O14 0.000000 0.083294 0.623858
O O15 0.145219 0.000000 0.633898
O O16 0.751358 0.896287 0.866794
O O17 0.618244 0.000000 0.846593
O O18 0.614733 0.839606 0.945355
O O19 0.250000 0.750000 0.032569
O O20 0.115232 0.827774 0.978159
O O21 0.372846 0.500000 0.936237
#
# Coordination Sequence:
#
# PCOD9348621 Si02
#       8
#     8   8   8   8   8   8   8   8
#     4  11  24  42  64  91 131 179 226 278 331 392
#     4  12  21  38  64  93 126 164 212 266 317 387
#     4  11  25  43  67  96 127 175 229 276 328 393
#     4   9  19  40  68  99 133 164 205 270 343 410
#     4  10  21  37  59  90 129 167 206 258 323 393
#     4  10  19  34  58  90 124 163 211 264 325 388
#     4  10  19  35  58  90 124 164 215 272 330 393
#     4   9  17  33  57  89 127 162 201 258 326 399
#
# _framework density 21.818368
#
# number of rings (size 3 to 8) (size 9 to 14) (size 15 to 20)
#    0.000    1.750    2.500    2.625    0.000    2.750 
#    0.000    3.750    0.000    7.875    0.000    0.000 
#    0.000    0.000    0.000    0.250    0.000    0.000 
#
# Total GULP energy -178479.933571 kJ/mol
# GULP energy per Si atom -5577.497924 kJ/mol
# Density = 2.176871 g / cm^3
# Si number density = 21.818368 Si / 1000 Ang^3
#
#
#
# Elastic Constant Matrix: (Units=GPa)
#
#
# Indices 1 2 3 4 5 6 
#
# 1 62.0578 44.4442 16.1649 0.0000 0.0000 0.0000
# 2 44.4442 211.7638 90.4751 0.0000 0.0000 0.0000
# 3 16.1649 90.4751 145.8579 0.0000 0.0000 0.0000
# 4 0.0000 0.0000 0.0000 -27.1807 0.0000 0.0000
# 5 0.0000 0.0000 0.0000 0.0000 1618.1044 0.0000
# 6 0.0000 0.0000 0.0000 0.0000 0.0000 23.1245
#
#
#
# Elastic Compliance Matrix: (Units=1/GPa)
#
#
# Indices 1 2 3 4 5 6 
#
# 1 0.018991 -0.004200 0.000500 0.000000 0.000000 0.000000
# 2 -0.004200 0.007354 -0.004096 0.000000 0.000000 0.000000
# 3 0.000500 -0.004096 0.009341 0.000000 0.000000 0.000000
# 4 0.000000 0.000000 0.000000 -0.036791 0.000000 0.000000
# 5 0.000000 0.000000 0.000000 0.000000 0.000618 0.000000
# 6 0.000000 0.000000 0.000000 0.000000 0.000000 0.043244
#
#
# Mechanical properties :
#
#
# Convention : Reuss Voigt Hill
#
# Bulk Modulus (GPa) = 49.76219 80.20531 64.98375
# Shear Modulus (GPa) = 76.86775 340.71600 208.79188
#
# Velocity S-wave (km/s) = 5.94199 12.50996 9.79302
# Velocity P-wave (km/s) = 8.36261 15.66863 12.55865
#
# Compressibility (1/GPa) = 0.02009558
#
# Stress axis : x y z
#
# Youngs Moduli (GPa) = 52.65562 135.98736 107.05166
#
# Poissons Ratio (x) = 0.57108 -0.05355
# Poissons Ratio (y) = 0.22113 0.43848
# Poissons Ratio (z) = -0.02634 0.55700
#
# Static dielectric constant tensor:
#      x y z
#    x 1.772600 0.000000 0.000000 
#    y 0.000000 1.988710 0.000000 
#    z 0.000000 0.000000 1.771300 
# 
# From -- ./inp_files/13590.got.cif
#   From: 2010.05.17/outbox.cif.g08.bks.cpg/sg35_7_cif.got.tgz:13590.got - 2010.06.03 17:29:28.
