data_PCOD9348991
_publ_section_title
;
Structure prediction by ZEFSAII (Michael W. Deem and Ramdas Pophale) SiO2 
 PCOD9348991
Probable space group: C M M 2
;
_chemical_formula_sum "Si O2"
_cell_formula_units_Z 56
_cell_length_a 18.698259
_cell_length_b 9.084282
_cell_length_c 18.471791
_cell_angle_alpha 90.000000
_cell_angle_beta 90.000000
_cell_angle_gamma 90.000000
_cell_volume 3137.623179
_symmetry_space_group_name_H-M "C M M 2"
_symmetry_group_IT_number 35
_symmetry_cell_setting 'orthorhombic'
loop_
_space_group_symop_operation_xyz
x,y,z
-x,-y,z
-x,y,z
x,-y,z
1/2+x,1/2+y,z
1/2-x,1/2-y,z
1/2-x,1/2+y,z
1/2+x,1/2-y,z
loop_
_atom_site_type_symbol
_atom_site_label
_atom_site_fract_x
_atom_site_fract_y
_atom_site_fract_z
Si Si1 0.672282 0.176668 0.117940
Si Si2 0.587047 0.330686 0.410688
Si Si3 0.826681 0.823852 0.848758
Si Si4 0.413813 0.171327 0.557982
Si Si5 0.916187 0.177119 0.988898
Si Si6 0.083807 0.324188 0.262416
Si Si7 0.827456 0.176393 0.684099
O O1 0.750000 0.250000 0.117852
O O2 0.626810 0.240464 0.051449
O O3 0.630658 0.212005 0.192437
O O4 0.678165 0.000000 0.112075
O O5 0.500000 0.328001 0.410680
O O6 0.609957 0.500000 0.415223
O O7 0.609994 0.240998 0.481512
O O8 0.608764 0.257509 0.334985
O O9 0.750000 0.750000 0.862383
O O10 0.850050 0.787038 0.766793
O O11 0.817174 0.000000 0.851347
O O12 0.882339 0.783222 0.911136
O O13 0.500000 0.180860 0.560873
O O14 0.380263 0.259284 0.624432
O O15 0.393621 0.000000 0.561630
O O16 0.000000 0.212614 0.991812
O O17 0.908544 0.000000 0.998108
O O18 0.087234 0.500000 0.274470
O O19 0.000000 0.287024 0.249254
O O20 0.750000 0.250000 0.673528
O O21 0.822416 0.000000 0.677696
#
# Coordination Sequence:
#
# PCOD9348991 Si02
#       7
#     8   8   8   8   8   8   8
#     4  11  23  38  56  79 109 144 181 220 265 317
#     4   9  17  30  51  79 107 136 174 219 267 319
#     4   9  19  35  55  78 105 140 178 218 266 318
#     4  10  20  34  53  78 109 143 180 223 269 316
#     4  10  21  37  57  82 111 141 176 219 266 316
#     4   9  18  34  55  77 103 136 174 218 268 320
#     4  10  20  35  55  78 107 142 180 221 266 319
#
# _framework density 17.847904
#
# number of rings (size 3 to 8) (size 9 to 14) (size 15 to 20)
#    0.000    2.286    0.000    2.571    0.000    7.429 
#    0.000    3.571    0.000    1.714    0.000    0.000 
#    0.000    0.000    0.000    0.000    0.000    0.000 
#
# Total GULP energy -156280.235626 kJ/mol
# GULP energy per Si atom -5581.436987 kJ/mol
# Density = 1.780728 g / cm^3
# Si number density = 17.847904 Si / 1000 Ang^3
#
#
#
# Elastic Constant Matrix: (Units=GPa)
#
#
# Indices 1 2 3 4 5 6 
#
# 1 83.1693 54.0736 84.4713 0.0000 0.0000 0.0000
# 2 54.0736 80.3618 83.3542 0.0000 0.0000 0.0000
# 3 84.4713 83.3542 170.2022 0.0000 0.0000 0.0000
# 4 0.0000 0.0000 0.0000 54.2652 0.0000 0.0000
# 5 0.0000 0.0000 0.0000 0.0000 326.0688 0.0000
# 6 0.0000 0.0000 0.0000 0.0000 0.0000 23.4170
#
#
#
# Elastic Compliance Matrix: (Units=1/GPa)
#
#
# Indices 1 2 3 4 5 6 
#
# 1 0.026908 -0.008646 -0.009120 0.000000 0.000000 0.000000
# 2 -0.008646 0.028069 -0.009455 0.000000 0.000000 0.000000
# 3 -0.009120 -0.009455 0.015032 0.000000 0.000000 0.000000
# 4 0.000000 0.000000 0.000000 0.018428 0.000000 0.000000
# 5 0.000000 0.000000 0.000000 0.000000 0.003067 0.000000
# 6 0.000000 0.000000 0.000000 0.000000 0.000000 0.042704
#
#
# Mechanical properties :
#
#
# Convention : Reuss Voigt Hill
#
# Bulk Modulus (GPa) = 64.24196 86.39239 75.31717
# Shear Modulus (GPa) = 25.79455 88.20580 57.00017
#
# Velocity S-wave (km/s) = 3.80576 7.03762 5.65738
# Velocity P-wave (km/s) = 7.44204 10.70268 9.21768
#
# Compressibility (1/GPa) = 0.01556615
#
# Stress axis : x y z
#
# Youngs Moduli (GPa) = 37.16388 35.62675 66.52336
#
# Poissons Ratio (x) = 0.30803 0.60670
# Poissons Ratio (y) = 0.32132 0.62900
# Poissons Ratio (z) = 0.33894 0.33686
#
# Static dielectric constant tensor:
#      x y z
#    x 1.582220 0.000000 0.000000 
#    y 0.000000 1.593010 0.000000 
#    z 0.000000 0.000000 1.597080 
# 
# From -- ./inp_files/15584.got.cif
#   From: 2010.05.17/outbox.cif.g08.bks.cpg/sg35_8_cif.got.tgz:15584.got - 2010.06.03 17:29:28.
