data_PCOD9348615
_publ_section_title
;
Structure prediction by ZEFSAII (Michael W. Deem and Ramdas Pophale) SiO2 
 PCOD9348615
Probable space group: C M M 2
;
_chemical_formula_sum "Si O2"
_cell_formula_units_Z 44
_cell_length_a 7.405826
_cell_length_b 30.488777
_cell_length_c 10.358525
_cell_angle_alpha 90.000000
_cell_angle_beta 90.000000
_cell_angle_gamma 90.000000
_cell_volume 2338.898775
_symmetry_space_group_name_H-M "C M M 2"
_symmetry_group_IT_number 35
_symmetry_cell_setting 'orthorhombic'
loop_
_space_group_symop_operation_xyz
x,y,z
-x,-y,z
-x,y,z
x,-y,z
1/2+x,1/2+y,z
1/2-x,1/2-y,z
1/2-x,1/2+y,z
1/2+x,1/2-y,z
loop_
_atom_site_type_symbol
_atom_site_label
_atom_site_fract_x
_atom_site_fract_y
_atom_site_fract_z
Si Si1 0.283268 0.123919 0.132840
Si Si2 0.214152 0.700271 0.325290
Si Si3 0.500000 0.451109 0.782011
Si Si4 0.000000 0.922919 0.497020
Si Si5 0.783532 0.350041 0.566114
Si Si6 0.286674 0.121353 0.842015
Si Si7 0.500000 0.449090 0.205216
O O1 0.500000 0.117075 0.148383
O O2 0.218741 0.161975 0.230458
O O3 0.172259 0.079420 0.157992
O O4 0.250369 0.138854 0.985155
O O5 0.250000 0.750000 0.286775
O O6 0.271766 0.689676 0.472342
O O7 0.000000 0.695510 0.322440
O O8 0.500000 0.500000 0.833529
O O9 0.500000 0.451449 0.626359
O O10 0.327809 0.422816 0.825015
O O11 0.824731 0.891571 0.510209
O O12 0.000000 0.946718 0.361068
O O13 0.739072 0.348369 0.718469
O O14 0.000000 0.356036 0.556144
O O15 0.500000 0.112267 0.834026
O O16 0.500000 0.500000 0.164757
#
# Coordination Sequence:
#
# PCOD9348615 Si02
#       7
#     8   8   4   4   8   8   4
#     4  10  22  40  57  82 118 154 192 240 285 344
#     4  10  21  35  58  86 113 148 191 237 290 344
#     4  10  20  34  53  85 113 141 197 243 279 345
#     4  10  19  34  58  78 116 150 182 240 290 323
#     4   9  18  35  57  82 106 143 186 231 283 341
#     4   9  19  36  58  76 106 152 187 228 293 332
#     4  12  24  36  59  87 117 161 199 239 289 336
#
# _framework density 18.812273000000001
#
# number of rings (size 3 to 8) (size 9 to 14) (size 15 to 20)
#    0.000    2.182    1.818    0.818    2.545    2.182 
#    0.000    2.727    0.000    3.273    0.000    0.000 
#    0.000    0.000    0.000    0.000    0.000    0.000 
#
# Total GULP energy -122603.277371 kJ/mol
# GULP energy per Si atom -5572.876244 kJ/mol
# Density = 1.876946 g / cm^3
# Si number density = 18.812273 Si / 1000 Ang^3
#
#
#
# Elastic Constant Matrix: (Units=GPa)
#
#
# Indices 1 2 3 4 5 6 
#
# 1 61.6113 21.0185 30.9031 0.0000 0.0000 0.0000
# 2 21.0185 109.8470 53.3437 0.0000 0.0000 0.0000
# 3 30.9031 53.3437 143.9735 0.0000 0.0000 0.0000
# 4 0.0000 0.0000 0.0000 4.3915 0.0000 0.0000
# 5 0.0000 0.0000 0.0000 0.0000 19.1879 0.0000
# 6 0.0000 0.0000 0.0000 0.0000 0.0000 6.0073
#
#
#
# Elastic Compliance Matrix: (Units=1/GPa)
#
#
# Indices 1 2 3 4 5 6 
#
# 1 0.018532 -0.001968 -0.003248 0.000000 0.000000 0.000000
# 2 -0.001968 0.011310 -0.003768 0.000000 0.000000 0.000000
# 3 -0.003248 -0.003768 0.009039 0.000000 0.000000 0.000000
# 4 0.000000 0.000000 0.000000 0.227711 0.000000 0.000000
# 5 0.000000 0.000000 0.000000 0.000000 0.052116 0.000000
# 6 0.000000 0.000000 0.000000 0.000000 0.000000 0.166463
#
#
# Mechanical properties :
#
#
# Convention : Reuss Voigt Hill
#
# Bulk Modulus (GPa) = 47.82143 58.44027 53.13085
# Shear Modulus (GPa) = 9.80180 19.92845 14.86513
#
# Velocity S-wave (km/s) = 2.28509 3.25827 2.81407
# Velocity P-wave (km/s) = 5.69541 6.72960 6.23399
#
# Compressibility (1/GPa) = 0.02091113
#
# Stress axis : x y z
#
# Youngs Moduli (GPa) = 53.96176 88.41721 110.63120
#
# Poissons Ratio (x) = 0.17404 0.35937
# Poissons Ratio (y) = 0.10622 0.41685
# Poissons Ratio (z) = 0.17529 0.33315
#
# Static dielectric constant tensor:
#      x y z
#    x 1.648600 0.000000 0.000000 
#    y 0.000000 1.622390 0.000000 
#    z 0.000000 0.000000 1.706360 
# 
# From -- ./inp_files/5235.got.cif
#   From: 2010.05.17/outbox.cif.g08.bks.cpg/sg35_3_cif.got.tgz:5235.got - 2010.06.03 17:29:28.
