data_PCOD9348904
_publ_section_title
;
Structure prediction by ZEFSAII (Michael W. Deem and Ramdas Pophale) SiO2 
 PCOD9348904
Probable space group: C M M 2
;
_chemical_formula_sum "Si O2"
_cell_formula_units_Z 40
_cell_length_a 15.958564
_cell_length_b 8.755662
_cell_length_c 14.866364
_cell_angle_alpha 90.000000
_cell_angle_beta 90.000000
_cell_angle_gamma 90.000000
_cell_volume 2077.244223
_symmetry_space_group_name_H-M "C M M 2"
_symmetry_group_IT_number 35
_symmetry_cell_setting 'orthorhombic'
loop_
_space_group_symop_operation_xyz
x,y,z
-x,-y,z
-x,y,z
x,-y,z
1/2+x,1/2+y,z
1/2-x,1/2-y,z
1/2-x,1/2+y,z
1/2+x,1/2-y,z
loop_
_atom_site_type_symbol
_atom_site_label
_atom_site_fract_x
_atom_site_fract_y
_atom_site_fract_z
Si Si1 0.000000 0.315721 0.377540
Si Si2 0.903602 0.823845 0.087607
Si Si3 0.661794 0.315507 0.276308
Si Si4 0.157895 0.681611 0.909769
Si Si5 0.000000 0.314307 0.587262
Si Si6 0.843149 0.684768 0.706619
O O1 0.916936 0.248984 0.331020
O O2 0.000000 0.500000 0.369715
O O3 0.000000 0.272912 0.482838
O O4 0.850212 0.765904 0.171832
O O5 0.000000 0.820135 0.117830
O O6 0.880045 0.000000 0.070611
O O7 0.894975 0.736965 0.994232
O O8 0.660944 0.500000 0.278810
O O9 0.750000 0.250000 0.309931
O O10 0.161891 0.500000 0.911084
O O11 0.250000 0.750000 0.922867
O O12 0.130707 0.727685 0.809012
O O13 0.084513 0.263524 0.638370
O O14 0.000000 0.500000 0.592148
O O15 0.837727 0.500000 0.702710
O O16 0.750000 0.750000 0.689722
#
# Coordination Sequence:
#
# PCOD9348904 Si02
#       6
#     4   8   8   8   4   8
#     4  11  23  41  64  91 118 152 197 247 302 357
#     4  10  21  37  56  82 118 155 191 238 288 338
#     4  11  23  42  64  88 120 158 197 243 297 353
#     4  10  20  33  54  82 114 153 194 234 279 336
#     4   9  20  39  62  85 114 150 189 239 294 349
#     4   9  19  37  59  83 117 153 191 236 284 340
#
# _framework density 19.256281000000001
#
# number of rings (size 3 to 8) (size 9 to 14) (size 15 to 20)
#    0.000    2.000    1.000    2.100    1.400    5.200 
#    0.000    4.500    0.000    0.000    0.000    0.000 
#    0.000    0.000    0.000    0.000    0.000    0.000 
#
# Total GULP energy -111634.561861 kJ/mol
# GULP energy per Si atom -5581.728093 kJ/mol
# Density = 1.921245 g / cm^3
# Si number density = 19.256281 Si / 1000 Ang^3
#
#
#
# Elastic Constant Matrix: (Units=GPa)
#
#
# Indices 1 2 3 4 5 6 
#
# 1 134.3101 34.8247 87.7290 0.0000 0.0000 0.0000
# 2 34.8247 37.7764 39.8979 0.0000 0.0000 0.0000
# 3 87.7290 39.8979 134.6386 0.0000 0.0000 0.0000
# 4 0.0000 0.0000 0.0000 19.9928 0.0000 0.0000
# 5 0.0000 0.0000 0.0000 0.0000 10.8822 0.0000
# 6 0.0000 0.0000 0.0000 0.0000 0.0000 30.8281
#
#
#
# Elastic Compliance Matrix: (Units=1/GPa)
#
#
# Indices 1 2 3 4 5 6 
#
# 1 0.013487 -0.004588 -0.007429 0.000000 0.000000 0.000000
# 2 -0.004588 0.040091 -0.008891 0.000000 0.000000 0.000000
# 3 -0.007429 -0.008891 0.014902 0.000000 0.000000 0.000000
# 4 0.000000 0.000000 0.000000 0.050018 0.000000 0.000000
# 5 0.000000 0.000000 0.000000 0.000000 0.091893 0.000000
# 6 0.000000 0.000000 0.000000 0.000000 0.000000 0.032438
#
#
# Mechanical properties :
#
#
# Convention : Reuss Voigt Hill
#
# Bulk Modulus (GPa) = 37.50081 70.18093 53.84087
# Shear Modulus (GPa) = 17.03382 21.95885 19.49633
#
# Velocity S-wave (km/s) = 2.97742 3.38057 3.18538
# Velocity P-wave (km/s) = 5.59794 7.19462 6.44591
#
# Compressibility (1/GPa) = 0.02666609
#
# Stress axis : x y z
#
# Youngs Moduli (GPa) = 74.14426 24.94319 67.10293
#
# Poissons Ratio (x) = 0.11443 0.49849
# Poissons Ratio (y) = 0.34014 0.59662
# Poissons Ratio (z) = 0.55079 0.22177
#
# Static dielectric constant tensor:
#      x y z
#    x 1.661350 0.000000 0.000000 
#    y 0.000000 1.658180 0.000000 
#    z 0.000000 0.000000 1.681900 
# 
# From -- ./inp_files/14725.got.cif
#   From: 2010.05.17/outbox.cif.g08.bks.cpg/sg35_8_cif.got.tgz:14725.got - 2010.06.03 17:29:28.
