data_PCOD9348894
_publ_section_title
;
Structure prediction by ZEFSAII (Michael W. Deem and Ramdas Pophale) SiO2 
 PCOD9348894
Probable space group: C M M 2
;
_chemical_formula_sum "Si O2"
_cell_formula_units_Z 56
_cell_length_a 23.927359
_cell_length_b 8.714240
_cell_length_c 15.881656
_cell_angle_alpha 90.000000
_cell_angle_beta 90.000000
_cell_angle_gamma 90.000000
_cell_volume 3311.464223
_symmetry_space_group_name_H-M "C M M 2"
_symmetry_group_IT_number 35
_symmetry_cell_setting 'orthorhombic'
loop_
_space_group_symop_operation_xyz
x,y,z
-x,-y,z
-x,y,z
x,-y,z
1/2+x,1/2+y,z
1/2-x,1/2-y,z
1/2-x,1/2+y,z
1/2+x,1/2-y,z
loop_
_atom_site_type_symbol
_atom_site_label
_atom_site_fract_x
_atom_site_fract_y
_atom_site_fract_z
Si Si1 0.312036 0.683990 0.125000
Si Si2 0.380981 0.315866 0.293924
Si Si3 0.500000 0.314236 0.222888
Si Si4 0.687229 0.816756 0.448276
Si Si5 0.620703 0.184168 0.966958
Si Si6 0.500000 0.184785 0.033360
Si Si7 0.187200 0.316015 0.635281
Si Si8 0.813127 0.183060 0.809360
O O1 0.311099 0.500000 0.114100
O O2 0.250000 0.750000 0.127679
O O3 0.343427 0.719339 0.212162
O O4 0.344958 0.759787 0.048091
O O5 0.381252 0.500000 0.304544
O O6 0.443867 0.265678 0.271348
O O7 0.353158 0.242701 0.375633
O O8 0.500000 0.500000 0.218350
O O9 0.500000 0.253801 0.127273
O O10 0.750000 0.750000 0.438100
O O11 0.664777 0.777340 0.542245
O O12 0.691966 0.000000 0.443841
O O13 0.648531 0.259016 0.885258
O O14 0.624097 0.000000 0.959871
O O15 0.556346 0.228698 0.984140
O O16 0.500000 0.000000 0.041891
O O17 0.188298 0.500000 0.644455
O O18 0.250000 0.250000 0.633031
O O19 0.162901 0.242451 0.719838
O O20 0.750000 0.250000 0.819479
O O21 0.809181 0.000000 0.808803
#
# Coordination Sequence:
#
# PCOD9348894 Si02
#       8
#     8   8   4   8   8   4   8   8
#     4  11  22  35  51  75 106 140 173 213 262 314
#     4  10  21  35  54  77 105 139 177 219 265 311
#     4  10  20  38  58  77 102 137 180 225 266 310
#     4  10  20  33  53  80 111 142 176 216 263 316
#     4  11  22  37  55  77 105 137 175 219 263 313
#     4  10  22  38  58  79 100 135 180 223 266 310
#     4   9  17  31  51  77 107 140 174 214 261 314
#     4  11  21  34  54  81 110 142 175 214 263 316
#
# _framework density 16.910948000000001
#
# number of rings (size 3 to 8) (size 9 to 14) (size 15 to 20)
#    0.000    1.714    1.429    4.714    0.000    5.143 
#    0.000    0.000    0.000    0.857    0.000    1.000 
#    0.000    0.000    0.000    0.000    0.000    0.000 
#
# Total GULP energy -156291.551896 kJ/mol
# GULP energy per Si atom -5581.841139 kJ/mol
# Density = 1.687246 g / cm^3
# Si number density = 16.910948 Si / 1000 Ang^3
#
#
#
# Elastic Constant Matrix: (Units=GPa)
#
#
# Indices 1 2 3 4 5 6 
#
# 1 131.7958 46.7931 83.8797 0.0000 0.0000 0.0000
# 2 46.7931 71.5634 69.2472 0.0000 0.0000 0.0000
# 3 83.8797 69.2472 183.3691 0.0000 0.0000 0.0000
# 4 0.0000 0.0000 0.0000 38.4279 0.0000 0.0000
# 5 0.0000 0.0000 0.0000 0.0000 -3.9976 0.0000
# 6 0.0000 0.0000 0.0000 0.0000 0.0000 -3.0523
#
#
#
# Elastic Compliance Matrix: (Units=1/GPa)
#
#
# Indices 1 2 3 4 5 6 
#
# 1 0.011313 -0.003766 -0.003753 0.000000 0.000000 0.000000
# 2 -0.003766 0.023274 -0.007066 0.000000 0.000000 0.000000
# 3 -0.003753 -0.007066 0.009839 0.000000 0.000000 0.000000
# 4 0.000000 0.000000 0.000000 0.026023 0.000000 0.000000
# 5 0.000000 0.000000 0.000000 0.000000 -0.250148 0.000000
# 6 0.000000 0.000000 0.000000 0.000000 0.000000 -0.327622
#
#
# Mechanical properties :
#
#
# Convention : Reuss Voigt Hill
#
# Bulk Modulus (GPa) = 65.55135 87.39648 76.47392
# Shear Modulus (GPa) = -10.56936 18.72947 4.08006
#
# Velocity S-wave (km/s) = -2.50271 3.33158 1.55496
# Velocity P-wave (km/s) = 5.52226 8.16038 6.96732
#
# Compressibility (1/GPa) = 0.01525522
#
# Stress axis : x y z
#
# Youngs Moduli (GPa) = 88.39410 42.96697 101.63925
#
# Poissons Ratio (x) = 0.16181 0.38144
# Poissons Ratio (y) = 0.33288 0.71822
# Poissons Ratio (z) = 0.33173 0.30362
#
# Static dielectric constant tensor:
#      x y z
#    x 1.560380 0.000000 0.000000 
#    y 0.000000 1.562650 0.000000 
#    z 0.000000 0.000000 1.578130 
# 
# From -- ./inp_files/15671.got.cif
#   From: 2010.05.17/outbox.cif.g08.bks.cpg/sg35_8_cif.got.tgz:15671.got - 2010.06.03 17:29:28.
