data_PCOD9348136
_publ_section_title
;
Structure prediction by ZEFSAII (Michael W. Deem and Ramdas Pophale) SiO2 
 PCOD9348136
Probable space group: C M M 2
;
_chemical_formula_sum "Si O2"
_cell_formula_units_Z 58
_cell_length_a 31.413618
_cell_length_b 7.695721
_cell_length_c 12.877489
_cell_angle_alpha 90.000000
_cell_angle_beta 90.000000
_cell_angle_gamma 90.000000
_cell_volume 3113.138628
_symmetry_space_group_name_H-M "C M M 2"
_symmetry_group_IT_number 35
_symmetry_cell_setting 'orthorhombic'
loop_
_space_group_symop_operation_xyz
x,y,z
-x,-y,z
-x,y,z
x,-y,z
1/2+x,1/2+y,z
1/2-x,1/2-y,z
1/2-x,1/2+y,z
1/2+x,1/2-y,z
loop_
_atom_site_type_symbol
_atom_site_label
_atom_site_fract_x
_atom_site_fract_y
_atom_site_fract_z
Si Si1 0.452650 0.211360 0.676330
Si Si2 0.434881 0.293753 0.916966
Si Si3 0.637760 0.793070 0.607105
Si Si4 0.797443 0.705849 0.777893
Si Si5 0.659333 0.293961 0.983897
Si Si6 0.000000 0.500000 0.985386
Si Si7 0.298843 0.293191 0.423572
Si Si8 0.201150 0.209332 0.189464
O O1 0.500000 0.268571 0.641916
O O2 0.445650 0.269970 0.795124
O O3 0.411003 0.271159 0.612446
O O4 0.453437 0.000000 0.677093
O O5 0.440921 0.500000 0.942617
O O6 0.386110 0.240603 0.938513
O O7 0.463619 0.155415 0.977050
O O8 0.666282 0.719605 0.701849
O O9 0.665436 0.765960 0.504079
O O10 0.634554 0.000000 0.622021
O O11 0.801317 0.500000 0.774911
O O12 0.750000 0.750000 0.742464
O O13 0.805709 0.761023 0.895734
O O14 0.656512 0.500000 0.997007
O O15 0.672102 0.221134 0.096205
O O16 0.301176 0.500000 0.420018
O O17 0.250000 0.250000 0.454220
O O18 0.306345 0.223877 0.306520
O O19 0.250000 0.250000 0.163303
O O20 0.196674 0.000000 0.193708
#
# Coordination Sequence:
#
# PCOD9348136 Si02
#       8
#     8   8   8   8   8   2   8   8
#     4  10  18  34  55  79 109 144 179 229 282 331
#     4  11  21  34  56  82 111 151 187 230 283 340
#     4  10  21  34  52  77 109 142 180 222 276 331
#     4  11  22  33  48  71 110 150 180 214 269 330
#     4  10  21  35  53  79 109 140 184 226 272 336
#     4  12  22  36  56  78 120 146 194 236 280 330
#     4  10  20  35  56  77 105 140 183 231 278 328
#     4   9  19  36  54  78 106 139 181 232 278 324
#
# _framework density 18.630714999999999
#
# number of rings (size 3 to 8) (size 9 to 14) (size 15 to 20)
#    0.000    1.793    2.759    1.862    0.966    4.966 
#    0.000    0.000    0.000    0.000    1.793    0.000 
#    0.000    0.000    0.000    0.000    0.000    0.000 
#
# Total GULP energy -161478.005428 kJ/mol
# GULP energy per Si atom -5568.207084 kJ/mol
# Density = 1.858831 g / cm^3
# Si number density = 18.630715 Si / 1000 Ang^3
#
#
#
# Elastic Constant Matrix: (Units=GPa)
#
#
# Indices 1 2 3 4 5 6 
#
# 1 160.0399 9.8350 64.0062 0.0000 0.0000 0.0000
# 2 9.8350 43.5632 -2.0905 0.0000 0.0000 0.0000
# 3 64.0062 -2.0905 79.4044 0.0000 0.0000 0.0000
# 4 0.0000 0.0000 0.0000 14.3599 0.0000 0.0000
# 5 0.0000 0.0000 0.0000 0.0000 -0.3803 0.0000
# 6 0.0000 0.0000 0.0000 0.0000 0.0000 21.4007
#
#
#
# Elastic Compliance Matrix: (Units=1/GPa)
#
#
# Indices 1 2 3 4 5 6 
#
# 1 0.009488 -0.002512 -0.007714 0.000000 0.000000 0.000000
# 2 -0.002512 0.023649 0.002648 0.000000 0.000000 0.000000
# 3 -0.007714 0.002648 0.018882 0.000000 0.000000 0.000000
# 4 0.000000 0.000000 0.000000 0.069638 0.000000 0.000000
# 5 0.000000 0.000000 0.000000 0.000000 -2.629490 0.000000
# 6 0.000000 0.000000 0.000000 0.000000 0.000000 0.046727
#
#
# Mechanical properties :
#
#
# Convention : Reuss Voigt Hill
#
# Bulk Modulus (GPa) = 27.12852 47.38988 37.25920
# Shear Modulus (GPa) = -2.05452 21.15986 9.55267
#
# Velocity S-wave (km/s) = -1.05126 3.37375 2.26683
# Velocity P-wave (km/s) = 3.62205 6.37714 5.18590
#
# Compressibility (1/GPa) = 0.03686158
#
# Stress axis : x y z
#
# Youngs Moduli (GPa) = 105.39557 42.28441 52.96111
#
# Poissons Ratio (x) = 0.10623 0.40856
# Poissons Ratio (y) = 0.26478 -0.14023
# Poissons Ratio (z) = 0.81305 -0.11196
#
# Static dielectric constant tensor:
#      x y z
#    x 1.626490 0.000000 0.000000 
#    y 0.000000 1.669290 0.000000 
#    z 0.000000 0.000000 1.659950 
# 
# From -- ./inp_files/14482.got.cif
#   From: 2010.05.17/outbox.cif.g08.bks.cpg/sg35_8_cif.got.tgz:14482.got - 2010.06.03 17:29:28.
