data_PCOD9348224
_publ_section_title
;
Structure prediction by ZEFSAII (Michael W. Deem and Ramdas Pophale) SiO2 
 PCOD9348224
Probable space group: C M M 2
;
_chemical_formula_sum "Si O2"
_cell_formula_units_Z 64
_cell_length_a 29.128499
_cell_length_b 8.745541
_cell_length_c 16.101457
_cell_angle_alpha 90.000000
_cell_angle_beta 90.000000
_cell_angle_gamma 90.000000
_cell_volume 4101.757327
_symmetry_space_group_name_H-M "C M M 2"
_symmetry_group_IT_number 35
_symmetry_cell_setting 'orthorhombic'
loop_
_space_group_symop_operation_xyz
x,y,z
-x,-y,z
-x,y,z
x,-y,z
1/2+x,1/2+y,z
1/2-x,1/2-y,z
1/2-x,1/2+y,z
1/2+x,1/2-y,z
loop_
_atom_site_type_symbol
_atom_site_label
_atom_site_fract_x
_atom_site_fract_y
_atom_site_fract_z
Si Si1 0.801631 0.316564 0.524600
Si Si2 0.301188 0.316199 0.022847
Si Si3 0.052528 0.182738 0.113455
Si Si4 0.641461 0.683972 0.858065
Si Si5 0.947699 0.317710 0.929185
Si Si6 0.198697 0.315910 0.341373
Si Si7 0.856890 0.683570 0.178989
Si Si8 0.301490 0.316510 0.695273
O O1 0.800381 0.500000 0.532423
O O2 0.750000 0.250000 0.522682
O O3 0.820431 0.275845 0.433197
O O4 0.821898 0.245497 0.608422
O O5 0.299518 0.500000 0.027643
O O6 0.250000 0.250000 0.021304
O O7 0.328357 0.251969 0.102037
O O8 0.328186 0.273132 0.938648
O O9 0.091198 0.258716 0.169737
O O10 0.000000 0.221497 0.136452
O O11 0.057677 0.000000 0.114612
O O12 0.059715 0.240638 0.019157
O O13 0.636807 0.500000 0.858750
O O14 0.591653 0.757789 0.868721
O O15 0.667955 0.727981 0.774294
O O16 0.943977 0.500000 0.938970
O O17 0.000000 0.281446 0.902990
O O18 0.202511 0.500000 0.339096
O O19 0.250000 0.250000 0.332084
O O20 0.166917 0.267515 0.265043
O O21 0.855691 0.500000 0.173933
O O22 0.298260 0.500000 0.691682
O O23 0.250000 0.250000 0.704885
#
# Coordination Sequence:
#
# PCOD9348224 Si02
#       8
#     8   8   8   8   8   8   8   8
#     4   9  16  29  47  67  92 123 157 197 240 280
#     4  11  22  34  46  64  94 132 167 195 230 276
#     4  10  20  34  51  70  94 124 158 198 243 287
#     4  10  21  34  48  68  96 129 162 195 236 284
#     4  10  20  33  51  73  94 120 158 201 241 282
#     4   9  19  32  47  69  97 127 160 196 237 281
#     4  11  21  33  49  71  96 126 162 200 238 283
#     4  10  19  31  47  70  97 127 162 197 235 280
#
# _framework density 15.603068
#
# number of rings (size 3 to 8) (size 9 to 14) (size 15 to 20)
#    0.000    2.000    1.250    3.750    0.000    5.500 
#    0.000    0.000    0.000    0.000    0.000    0.875 
#    0.000    1.000    0.000    0.000    0.000    0.000 
#
# Total GULP energy -178506.911974 kJ/mol
# GULP energy per Si atom -5578.340999 kJ/mol
# Density = 1.556755 g / cm^3
# Si number density = 15.603068 Si / 1000 Ang^3
#
#
#
# Elastic Constant Matrix: (Units=GPa)
#
#
# Indices 1 2 3 4 5 6 
#
# 1 102.5699 34.9304 70.4741 0.0000 0.0000 0.0000
# 2 34.9304 41.8768 43.7252 0.0000 0.0000 0.0000
# 3 70.4741 43.7252 152.4796 0.0000 0.0000 0.0000
# 4 0.0000 0.0000 0.0000 20.5589 0.0000 0.0000
# 5 0.0000 0.0000 0.0000 0.0000 8.1332 0.0000
# 6 0.0000 0.0000 0.0000 0.0000 0.0000 26.3332
#
#
#
# Elastic Compliance Matrix: (Units=1/GPa)
#
#
# Indices 1 2 3 4 5 6 
#
# 1 0.015972 -0.008014 -0.005084 0.000000 0.000000 0.000000
# 2 -0.008014 0.038107 -0.007223 0.000000 0.000000 0.000000
# 3 -0.005084 -0.007223 0.010979 0.000000 0.000000 0.000000
# 4 0.000000 0.000000 0.000000 0.048641 0.000000 0.000000
# 5 0.000000 0.000000 0.000000 0.000000 0.122954 0.000000
# 6 0.000000 0.000000 0.000000 0.000000 0.000000 0.037975
#
#
# Mechanical properties :
#
#
# Convention : Reuss Voigt Hill
#
# Bulk Modulus (GPa) = 40.95864 66.13175 53.54520
# Shear Modulus (GPa) = 15.46035 20.85815 18.15925
#
# Velocity S-wave (km/s) = 3.15120 3.66019 3.41519
# Velocity P-wave (km/s) = 6.28867 7.76779 7.06703
#
# Compressibility (1/GPa) = 0.02441487
#
# Stress axis : x y z
#
# Youngs Moduli (GPa) = 62.61093 26.24212 91.08052
#
# Poissons Ratio (x) = 0.21031 0.46303
# Poissons Ratio (y) = 0.50178 0.65791
# Poissons Ratio (z) = 0.31830 0.18956
#
# Static dielectric constant tensor:
#      x y z
#    x 1.506360 0.000000 0.000000 
#    y 0.000000 1.524590 0.000000 
#    z 0.000000 0.000000 1.534390 
# 
# From -- ./inp_files/16203.got.cif
#   From: 2010.05.17/outbox.cif.g08.bks.cpg/sg35_9_cif.got.tgz:16203.got - 2010.06.03 17:29:28.
