data_PCOD9348987
_publ_section_title
;
Structure prediction by ZEFSAII (Michael W. Deem and Ramdas Pophale) SiO2 
 PCOD9348987
Probable space group: C M M 2
;
_chemical_formula_sum "Si O2"
_cell_formula_units_Z 64
_cell_length_a 9.041824
_cell_length_b 19.142877
_cell_length_c 21.251980
_cell_angle_alpha 90.000000
_cell_angle_beta 90.000000
_cell_angle_gamma 90.000000
_cell_volume 3678.431361
_symmetry_space_group_name_H-M "C M M 2"
_symmetry_group_IT_number 35
_symmetry_cell_setting 'orthorhombic'
loop_
_space_group_symop_operation_xyz
x,y,z
-x,-y,z
-x,y,z
x,-y,z
1/2+x,1/2+y,z
1/2-x,1/2-y,z
1/2-x,1/2+y,z
1/2+x,1/2-y,z
loop_
_atom_site_type_symbol
_atom_site_label
_atom_site_fract_x
_atom_site_fract_y
_atom_site_fract_z
Si Si1 0.674524 0.083765 0.078920
Si Si2 0.822692 0.826342 0.970613
Si Si3 0.178702 0.673834 0.459357
Si Si4 0.670022 0.415087 0.208281
Si Si5 0.678019 0.918530 0.579454
Si Si6 0.677616 0.918087 0.338253
Si Si7 0.822333 0.174516 0.828270
Si Si8 0.822389 0.918342 0.710483
O O1 0.500000 0.098422 0.076810
O O2 0.757281 0.122395 0.022602
O O3 0.741317 0.106646 0.146146
O O4 0.694783 0.000000 0.073723
O O5 0.750000 0.750000 0.978135
O O6 0.000000 0.821280 0.976644
O O7 0.787421 0.850660 0.899130
O O8 0.250000 0.750000 0.458863
O O9 0.222752 0.629874 0.521220
O O10 0.219748 0.629288 0.397489
O O11 0.000000 0.679871 0.459869
O O12 0.500000 0.392158 0.205104
O O13 0.671688 0.500000 0.208311
O O14 0.745616 0.394294 0.273751
O O15 0.500000 0.916407 0.584225
O O16 0.748029 0.895099 0.645409
O O17 0.720022 0.000000 0.568596
O O18 0.500000 0.914721 0.330527
O O19 0.714726 0.000000 0.349710
O O20 0.750000 0.250000 0.820392
O O21 0.774494 0.124404 0.771770
O O22 0.000000 0.181240 0.825078
O O23 0.000000 0.912250 0.704552
O O24 0.786383 0.000000 0.718962
#
# Coordination Sequence:
#
# PCOD9348987 Si02
#       8
#     8   8   8   8   8   8   8   8
#     4  10  20  34  53  78 107 137 171 213 258 304
#     4  10  20  35  54  75 102 137 175 214 257 307
#     4  10  21  35  51  73 102 133 164 203 249 296
#     4   9  17  30  50  77 105 131 164 208 255 302
#     4   9  18  34  54  74  97 129 169 207 244 291
#     4   9  17  32  54  75  96 128 168 206 247 297
#     4   9  19  34  52  73  99 133 169 206 249 300
#     4   9  18  33  52  75 102 130 163 205 251 296
#
# _framework density 17.398720000000001
#
# number of rings (size 3 to 8) (size 9 to 14) (size 15 to 20)
#    0.000    2.625    0.000    1.500    0.000    6.750 
#    0.000    4.375    0.000    6.750    0.000    0.000 
#    0.000    0.000    0.000    0.000    0.000    0.000 
#
# Total GULP energy -178461.929375 kJ/mol
# GULP energy per Si atom -5576.935293 kJ/mol
# Density = 1.735912 g / cm^3
# Si number density = 17.398720 Si / 1000 Ang^3
#
#
#
# Elastic Constant Matrix: (Units=GPa)
#
#
# Indices 1 2 3 4 5 6 
#
# 1 51.4742 41.6244 73.1636 0.0000 0.0000 0.0000
# 2 41.6244 66.4019 90.1025 0.0000 0.0000 0.0000
# 3 73.1636 90.1025 208.8138 0.0000 0.0000 0.0000
# 4 0.0000 0.0000 0.0000 -17.8750 0.0000 0.0000
# 5 0.0000 0.0000 0.0000 0.0000 33.5036 0.0000
# 6 0.0000 0.0000 0.0000 0.0000 0.0000 27.1384
#
#
#
# Elastic Compliance Matrix: (Units=1/GPa)
#
#
# Indices 1 2 3 4 5 6 
#
# 1 0.045114 -0.016481 -0.008695 0.000000 0.000000 0.000000
# 2 -0.016481 0.042354 -0.012501 0.000000 0.000000 0.000000
# 3 -0.008695 -0.012501 0.013230 0.000000 0.000000 0.000000
# 4 0.000000 0.000000 0.000000 -0.055944 0.000000 0.000000
# 5 0.000000 0.000000 0.000000 0.000000 0.029848 0.000000
# 6 0.000000 0.000000 0.000000 0.000000 0.000000 0.036848
#
#
# Mechanical properties :
#
#
# Convention : Reuss Voigt Hill
#
# Bulk Modulus (GPa) = 39.45875 81.83012 60.64443
# Shear Modulus (GPa) = 25.60806 16.67336 21.14071
#
# Velocity S-wave (km/s) = 3.84061 3.09902 3.48957
# Velocity P-wave (km/s) = 6.51118 7.74206 7.15315
#
# Compressibility (1/GPa) = 0.02534292
#
# Stress axis : x y z
#
# Youngs Moduli (GPa) = 22.16626 23.61055 75.58669
#
# Poissons Ratio (x) = 0.38912 0.65726
# Poissons Ratio (y) = 0.36531 0.94492
# Poissons Ratio (z) = 0.19275 0.29516
#
# Static dielectric constant tensor:
#      x y z
#    x 1.583630 0.000000 0.000000 
#    y 0.000000 1.567960 0.000000 
#    z 0.000000 0.000000 1.582350 
# 
# From -- ./inp_files/18304.got.cif
#   From: 2010.05.17/outbox.cif.g08.bks.cpg/sg35_10_cif.got.tgz:18304.got - 2010.06.03 17:29:28.
