data_PCOD9348896
_publ_section_title
;
Structure prediction by ZEFSAII (Michael W. Deem and Ramdas Pophale) SiO2 
 PCOD9348896
Probable space group: C M M 2
;
_chemical_formula_sum "Si O2"
_cell_formula_units_Z 64
_cell_length_a 33.795669
_cell_length_b 8.816133
_cell_length_c 11.340430
_cell_angle_alpha 90.000000
_cell_angle_beta 90.000000
_cell_angle_gamma 90.000000
_cell_volume 3378.848376
_symmetry_space_group_name_H-M "C M M 2"
_symmetry_group_IT_number 35
_symmetry_cell_setting 'orthorhombic'
loop_
_space_group_symop_operation_xyz
x,y,z
-x,-y,z
-x,y,z
x,-y,z
1/2+x,1/2+y,z
1/2-x,1/2-y,z
1/2-x,1/2+y,z
1/2+x,1/2-y,z
loop_
_atom_site_type_symbol
_atom_site_label
_atom_site_fract_x
_atom_site_fract_y
_atom_site_fract_z
Si Si1 0.455664 0.828338 0.478160
Si Si2 0.792325 0.819169 0.009904
Si Si3 0.788056 0.325193 0.753444
Si Si4 0.939387 0.175578 0.721383
Si Si5 0.852006 0.170586 0.617574
Si Si6 0.626727 0.820267 0.113193
Si Si7 0.385461 0.325425 0.358961
Si Si8 0.454817 0.183421 0.977869
O O1 0.500000 0.830686 0.432118
O O2 0.456360 0.772363 0.613088
O O3 0.429243 0.715288 0.403194
O O4 0.439308 0.000000 0.473220
O O5 0.750000 0.750000 0.054280
O O6 0.833301 0.758465 0.065303
O O7 0.790567 0.000000 0.020571
O O8 0.794611 0.767573 0.873586
O O9 0.781649 0.500000 0.782561
O O10 0.750000 0.250000 0.694495
O O11 0.824495 0.299107 0.668613
O O12 0.892696 0.175358 0.691206
O O13 0.949006 0.246553 0.847614
O O14 0.952474 0.000000 0.716428
O O15 0.860630 0.192402 0.479439
O O16 0.835181 0.000000 0.633800
O O17 0.624997 0.781983 0.251338
O O18 0.630314 0.000000 0.092260
O O19 0.584277 0.771420 0.054497
O O20 0.382364 0.500000 0.320690
O O21 0.500000 0.224456 0.019100
O O22 0.453948 0.000000 0.970785
#
# Coordination Sequence:
#
# PCOD9348896 Si02
#       8
#     8   8   8   8   8   8   8   8
#     4  10  20  34  54  79 108 144 185 231 283 338
#     4  11  22  39  63  90 120 151 189 235 286 343
#     4  11  21  34  56  86 117 146 178 219 272 333
#     4  10  20  33  53  81 111 143 181 231 287 339
#     4   9  19  36  55  78 110 144 179 223 278 337
#     4  11  23  40  61  84 114 153 197 242 289 341
#     4  10  22  39  58  80 108 144 187 235 283 333
#     4  10  22  38  55  79 114 155 195 235 282 340
#
# _framework density 18.941365000000001
#
# number of rings (size 3 to 8) (size 9 to 14) (size 15 to 20)
#    0.000    1.750    0.000    6.375    0.000    9.250 
#    0.000    1.875    0.000    3.000    0.000    0.000 
#    0.000    0.000    0.000    0.000    0.000    0.000 
#
# Total GULP energy -178495.705990 kJ/mol
# GULP energy per Si atom -5577.990812 kJ/mol
# Density = 1.889825 g / cm^3
# Si number density = 18.941365 Si / 1000 Ang^3
#
#
#
# Elastic Constant Matrix: (Units=GPa)
#
#
# Indices 1 2 3 4 5 6 
#
# 1 115.8680 46.8156 38.8772 0.0000 0.0000 0.0000
# 2 46.8156 78.3639 20.8786 0.0000 0.0000 0.0000
# 3 38.8772 20.8786 43.8428 0.0000 0.0000 0.0000
# 4 0.0000 0.0000 0.0000 30.0117 0.0000 0.0000
# 5 0.0000 0.0000 0.0000 0.0000 -17.4067 0.0000
# 6 0.0000 0.0000 0.0000 0.0000 0.0000 35.5620
#
#
#
# Elastic Compliance Matrix: (Units=1/GPa)
#
#
# Indices 1 2 3 4 5 6 
#
# 1 0.014350 -0.005936 -0.009898 0.000000 0.000000 0.000000
# 2 -0.005936 0.017071 -0.002866 0.000000 0.000000 0.000000
# 3 -0.009898 -0.002866 0.032950 0.000000 0.000000 0.000000
# 4 0.000000 0.000000 0.000000 0.033320 0.000000 0.000000
# 5 0.000000 0.000000 0.000000 0.000000 -0.057449 0.000000
# 6 0.000000 0.000000 0.000000 0.000000 0.000000 0.028120
#
#
# Mechanical properties :
#
#
# Convention : Reuss Voigt Hill
#
# Bulk Modulus (GPa) = 37.07560 50.13529 43.60545
# Shear Modulus (GPa) = 43.57235 18.40028 30.98632
#
# Velocity S-wave (km/s) = 4.80143 3.12016 4.04902
# Velocity P-wave (km/s) = 7.09610 6.28544 6.70304
#
# Compressibility (1/GPa) = 0.02697192
#
# Stress axis : x y z
#
# Youngs Moduli (GPa) = 69.68728 58.58036 30.34857
#
# Poissons Ratio (x) = 0.34771 0.30039
# Poissons Ratio (y) = 0.41364 0.08698
# Poissons Ratio (z) = 0.68976 0.16789
#
# Static dielectric constant tensor:
#      x y z
#    x 1.754980 0.000000 0.000000 
#    y 0.000000 1.655940 0.000000 
#    z 0.000000 0.000000 1.626870 
# 
# From -- ./inp_files/14556.got.cif
#   From: 2010.05.17/outbox.cif.g08.bks.cpg/sg35_8_cif.got.tgz:14556.got - 2010.06.03 17:29:28.
