data_PCOD9348171
_publ_section_title
;
Structure prediction by ZEFSAII (Michael W. Deem and Ramdas Pophale) SiO2 
 PCOD9348171
Probable space group: C M M 2
;
_chemical_formula_sum "Si O2"
_cell_formula_units_Z 56
_cell_length_a 31.087545
_cell_length_b 9.256327
_cell_length_c 12.886272
_cell_angle_alpha 90.000000
_cell_angle_beta 90.000000
_cell_angle_gamma 90.000000
_cell_volume 3708.108299
_symmetry_space_group_name_H-M "C M M 2"
_symmetry_group_IT_number 35
_symmetry_cell_setting 'orthorhombic'
loop_
_space_group_symop_operation_xyz
x,y,z
-x,-y,z
-x,y,z
x,-y,z
1/2+x,1/2+y,z
1/2-x,1/2-y,z
1/2-x,1/2+y,z
1/2+x,1/2-y,z
loop_
_atom_site_type_symbol
_atom_site_label
_atom_site_fract_x
_atom_site_fract_y
_atom_site_fract_z
Si Si1 0.552194 0.665610 0.727750
Si Si2 0.549664 0.826430 0.934958
Si Si3 0.293026 0.667098 0.350609
Si Si4 0.050871 0.825856 0.493932
Si Si5 0.207520 0.165675 0.098154
Si Si6 0.879725 0.672692 0.101982
Si Si7 0.118446 0.327100 0.346790
O O1 0.500000 0.665452 0.726181
O O2 0.566197 0.500000 0.742608
O O3 0.565089 0.761056 0.825658
O O4 0.564540 0.713670 0.611901
O O5 0.500000 0.780960 0.952408
O O6 0.550000 0.000000 0.927977
O O7 0.580631 0.783915 0.029168
O O8 0.294074 0.500000 0.384819
O O9 0.250000 0.750000 0.385846
O O10 0.291514 0.665600 0.224434
O O11 0.336416 0.752743 0.378214
O O12 0.080120 0.742744 0.412309
O O13 0.000000 0.793688 0.481310
O O14 0.055640 0.000000 0.484040
O O15 0.250000 0.250000 0.062854
O O16 0.163692 0.246347 0.069268
O O17 0.207841 0.000000 0.063652
O O18 0.873297 0.500000 0.092523
O O19 0.887972 0.702115 0.223721
O O20 0.120574 0.500000 0.360543
#
# Coordination Sequence:
#
# PCOD9348171 Si02
#       7
#     8   8   8   8   8   8   8
#     4   8  15  29  47  64  82 107 143 187 228 261
#     4   9  17  29  45  64  87 116 148 182 219 257
#     4   9  16  27  43  62  86 115 147 183 221 259
#     4   9  18  32  47  63  87 118 149 184 226 265
#     4   9  16  26  42  62  84 112 146 182 218 256
#     4   9  18  30  42  61  92 123 148 177 215 259
#     4  10  19  29  43  65  92 121 152 182 215 261
#
# _framework density 15.102041
#
# number of rings (size 3 to 8) (size 9 to 14) (size 15 to 20)
#    0.000    3.000    0.000    2.143    0.000    6.000 
#    0.000    2.857    0.000    1.714    0.000    1.000 
#    0.000    2.286    0.000    0.000    0.000    0.000 
#
# Total GULP energy -155901.086207 kJ/mol
# GULP energy per Si atom -5567.895936 kJ/mol
# Density = 1.506767 g / cm^3
# Si number density = 15.102041 Si / 1000 Ang^3
#
#
#
# Elastic Constant Matrix: (Units=GPa)
#
#
# Indices 1 2 3 4 5 6 
#
# 1 114.2844 62.6612 63.7135 0.0000 0.0000 0.0000
# 2 62.6612 66.6349 47.9329 0.0000 0.0000 0.0000
# 3 63.7135 47.9329 71.0371 0.0000 0.0000 0.0000
# 4 0.0000 0.0000 0.0000 21.1497 0.0000 0.0000
# 5 0.0000 0.0000 0.0000 0.0000 -1.3354 0.0000
# 6 0.0000 0.0000 0.0000 0.0000 0.0000 27.6024
#
#
#
# Elastic Compliance Matrix: (Units=1/GPa)
#
#
# Indices 1 2 3 4 5 6 
#
# 1 0.021807 -0.012509 -0.011119 0.000000 0.000000 0.000000
# 2 -0.012509 0.036336 -0.013299 0.000000 0.000000 0.000000
# 3 -0.011119 -0.013299 0.033023 0.000000 0.000000 0.000000
# 4 0.000000 0.000000 0.000000 0.047282 0.000000 0.000000
# 5 0.000000 0.000000 0.000000 0.000000 -0.748815 0.000000
# 6 0.000000 0.000000 0.000000 0.000000 0.000000 0.036229
#
#
# Mechanical properties :
#
#
# Convention : Reuss Voigt Hill
#
# Bulk Modulus (GPa) = 57.75728 66.73016 62.24372
# Shear Modulus (GPa) = -10.11095 14.65992 2.27449
#
# Velocity S-wave (km/s) = -2.59029 3.11903 1.22856
# Velocity P-wave (km/s) = 5.42047 7.56658 6.58159
#
# Compressibility (1/GPa) = 0.01731383
#
# Stress axis : x y z
#
# Youngs Moduli (GPa) = 45.85664 27.52055 30.28170
#
# Poissons Ratio (x) = 0.34424 0.33669
# Poissons Ratio (y) = 0.57360 0.40272
# Poissons Ratio (z) = 0.50986 0.36600
#
# Static dielectric constant tensor:
#      x y z
#    x 1.489730 0.000000 0.000000 
#    y 0.000000 1.507160 0.000000 
#    z 0.000000 0.000000 1.485030 
# 
# From -- ./inp_files/16064.got.cif
#   From: 2010.05.17/outbox.cif.g08.bks.cpg/sg35_9_cif.got.tgz:16064.got - 2010.06.03 17:29:28.
