data_PCOD9348574
_publ_section_title
;
Structure prediction by ZEFSAII (Michael W. Deem and Ramdas Pophale) SiO2 
 PCOD9348574
Probable space group: C M M 2
;
_chemical_formula_sum "Si O2"
_cell_formula_units_Z 60
_cell_length_a 14.077818
_cell_length_b 14.022212
_cell_length_c 15.876242
_cell_angle_alpha 90.000000
_cell_angle_beta 90.000000
_cell_angle_gamma 90.000000
_cell_volume 3134.004281
_symmetry_space_group_name_H-M "C M M 2"
_symmetry_group_IT_number 35
_symmetry_cell_setting 'orthorhombic'
loop_
_space_group_symop_operation_xyz
x,y,z
-x,-y,z
-x,y,z
x,-y,z
1/2+x,1/2+y,z
1/2-x,1/2-y,z
1/2-x,1/2+y,z
1/2+x,1/2-y,z
loop_
_atom_site_type_symbol
_atom_site_label
_atom_site_fract_x
_atom_site_fract_y
_atom_site_fract_z
Si Si1 0.605829 0.112002 0.447070
Si Si2 0.390410 0.613932 0.026025
Si Si3 0.708966 0.114344 0.276609
Si Si4 0.890698 0.308182 0.787487
Si Si5 0.287147 0.143809 0.620373
Si Si6 0.250000 0.250000 0.921776
Si Si7 0.609350 0.292367 0.211558
Si Si8 0.894753 0.900463 0.711519
O O1 0.500000 0.155694 0.448979
O O2 0.668591 0.144280 0.368189
O O3 0.656686 0.118861 0.536895
O O4 0.594946 0.000000 0.431126
O O5 0.500000 0.624513 0.995050
O O6 0.368823 0.500000 0.026663
O O7 0.387695 0.657568 0.120289
O O8 0.317707 0.679025 0.973825
O O9 0.650899 0.184056 0.213016
O O10 0.818274 0.145520 0.267608
O O11 0.698013 0.000000 0.263070
O O12 0.853412 0.360697 0.703431
O O13 0.817968 0.316312 0.863784
O O14 0.884161 0.195021 0.765041
O O15 0.000000 0.331981 0.805397
O O16 0.250000 0.250000 0.609083
O O17 0.188414 0.095034 0.643962
O O18 0.500000 0.291020 0.240045
O O19 0.000000 0.894208 0.672683
O O20 0.890751 0.000000 0.761868
#
# Coordination Sequence:
#
# PCOD9348574 Si02
#       8
#     8   8   8   8   8   4   8   8
#     4  10  21  36  54  77 110 153 200 242 282 342
#     4  10  23  42  65  92 120 154 195 237 292 368
#     4  10  21  37  59  91 124 156 196 245 297 351
#     4  10  20  35  53  80 112 146 192 240 287 340
#     4  10  19  34  52  78 108 153 196 238 287 337
#     4  12  20  38  60  90 118 152 190 244 302 348
#     4  10  21  39  63  90 119 155 195 239 294 360
#     4   9  17  31  51  75 104 141 190 243 291 341
#
# _framework density 19.144836000000002
#
# number of rings (size 3 to 8) (size 9 to 14) (size 15 to 20)
#    0.000    2.000    2.000    2.800    1.867    2.667 
#    0.000    2.000    0.000    4.800    0.000    0.000 
#    0.000    0.000    0.000    0.000    0.000    0.000 
#
# Total GULP energy -167106.400628 kJ/mol
# GULP energy per Si atom -5570.213354 kJ/mol
# Density = 1.910126 g / cm^3
# Si number density = 19.144836 Si / 1000 Ang^3
#
#
#
# Elastic Constant Matrix: (Units=GPa)
#
#
# Indices 1 2 3 4 5 6 
#
# 1 176.6592 39.1688 66.3354 0.0000 0.0000 0.0000
# 2 39.1688 95.1600 25.0352 0.0000 0.0000 0.0000
# 3 66.3354 25.0352 81.1920 0.0000 0.0000 0.0000
# 4 0.0000 0.0000 0.0000 103.2806 0.0000 0.0000
# 5 0.0000 0.0000 0.0000 0.0000 5.4514 0.0000
# 6 0.0000 0.0000 0.0000 0.0000 0.0000 24.5494
#
#
#
# Elastic Compliance Matrix: (Units=1/GPa)
#
#
# Indices 1 2 3 4 5 6 
#
# 1 0.008442 -0.001807 -0.006340 0.000000 0.000000 0.000000
# 2 -0.001807 0.011823 -0.002169 0.000000 0.000000 0.000000
# 3 -0.006340 -0.002169 0.018165 0.000000 0.000000 0.000000
# 4 0.000000 0.000000 0.000000 0.009682 0.000000 0.000000
# 5 0.000000 0.000000 0.000000 0.000000 0.183438 0.000000
# 6 0.000000 0.000000 0.000000 0.000000 0.000000 0.040734
#
#
# Mechanical properties :
#
#
# Convention : Reuss Voigt Hill
#
# Bulk Modulus (GPa) = 56.18678 68.23222 62.20950
# Shear Modulus (GPa) = 16.73079 41.48773 29.10926
#
# Velocity S-wave (km/s) = 2.95940 4.66020 3.90356
# Velocity P-wave (km/s) = 6.41010 8.04202 7.27198
#
# Compressibility (1/GPa) = 0.01779778
#
# Stress axis : x y z
#
# Youngs Moduli (GPa) = 118.45658 84.58055 55.04981
#
# Poissons Ratio (x) = 0.15282 0.34902
# Poissons Ratio (y) = 0.21403 0.11943
# Poissons Ratio (z) = 0.75102 0.18349
#
# Static dielectric constant tensor:
#      x y z
#    x 1.701390 0.000000 0.000000 
#    y 0.000000 1.639040 0.000000 
#    z 0.000000 0.000000 1.672680 
# 
# From -- ./inp_files/16851.got.cif
#   From: 2010.05.17/outbox.cif.g08.bks.cpg/sg35_9_cif.got.tgz:16851.got - 2010.06.03 17:29:28.
