data_PCOD9348537
_publ_section_title
;
Structure prediction by ZEFSAII (Michael W. Deem and Ramdas Pophale) SiO2 
 PCOD9348537
Probable space group: C M M 2
;
_chemical_formula_sum "Si O2"
_cell_formula_units_Z 40
_cell_length_a 18.812093
_cell_length_b 8.470277
_cell_length_c 13.229353
_cell_angle_alpha 90.000000
_cell_angle_beta 90.000000
_cell_angle_gamma 90.000000
_cell_volume 2108.013244
_symmetry_space_group_name_H-M "C M M 2"
_symmetry_group_IT_number 35
_symmetry_cell_setting 'orthorhombic'
loop_
_space_group_symop_operation_xyz
x,y,z
-x,-y,z
-x,y,z
x,-y,z
1/2+x,1/2+y,z
1/2-x,1/2-y,z
1/2-x,1/2+y,z
1/2+x,1/2-y,z
loop_
_atom_site_type_symbol
_atom_site_label
_atom_site_fract_x
_atom_site_fract_y
_atom_site_fract_z
Si Si1 0.830018 0.689602 0.383860
Si Si2 0.418382 0.192764 0.579012
Si Si3 0.830128 0.187879 0.163085
Si Si4 0.330466 0.190977 0.775932
Si Si5 0.582032 0.191010 0.973693
O O1 0.828675 0.500000 0.381029
O O2 0.750000 0.750000 0.402452
O O3 0.880959 0.741700 0.474783
O O4 0.852434 0.751053 0.273771
O O5 0.500000 0.244912 0.585791
O O6 0.372322 0.243710 0.675524
O O7 0.418812 0.000000 0.579826
O O8 0.750000 0.250000 0.144785
O O9 0.828124 0.000000 0.164194
O O10 0.881314 0.247733 0.075142
O O11 0.250000 0.250000 0.776523
O O12 0.372793 0.242744 0.876068
O O13 0.329729 0.000000 0.775598
O O14 0.500000 0.241298 0.965866
O O15 0.583137 0.000000 0.975464
#
# Coordination Sequence:
#
# PCOD9348537 Si02
#       5
#     8   8   8   8   8
#     4  10  19  33  55  80 107 141 180 222 267 317
#     4   9  18  33  54  80 108 139 177 219 264 317
#     4  11  22  37  57  80 109 144 184 228 272 320
#     4  10  20  35  57  82 108 140 178 220 265 317
#     4  10  21  37  57  81 110 144 181 222 271 326
#
# _framework density 18.975211999999999
#
# number of rings (size 3 to 8) (size 9 to 14) (size 15 to 20)
#    0.000    2.000    0.000    5.400    0.000    6.000 
#    0.000    3.000    0.000    6.000    0.000    0.000 
#    0.000    0.000    0.000    0.000    0.000    0.000 
#
# Total GULP energy -111733.846179 kJ/mol
# GULP energy per Si atom -5586.692309 kJ/mol
# Density = 1.893202 g / cm^3
# Si number density = 18.975212 Si / 1000 Ang^3
#
#
#
# Elastic Constant Matrix: (Units=GPa)
#
#
# Indices 1 2 3 4 5 6 
#
# 1 180.3148 31.8103 149.3361 0.0000 0.0000 0.0000
# 2 31.8103 33.7553 34.3468 0.0000 0.0000 0.0000
# 3 149.3361 34.3468 203.7447 0.0000 0.0000 0.0000
# 4 0.0000 0.0000 0.0000 12.3445 0.0000 0.0000
# 5 0.0000 0.0000 0.0000 0.0000 19.6915 0.0000
# 6 0.0000 0.0000 0.0000 0.0000 0.0000 28.3285
#
#
#
# Elastic Compliance Matrix: (Units=1/GPa)
#
#
# Indices 1 2 3 4 5 6 
#
# 1 0.014433 -0.003425 -0.010002 0.000000 0.000000 0.000000
# 2 -0.003425 0.036571 -0.003655 0.000000 0.000000 0.000000
# 3 -0.010002 -0.003655 0.012855 0.000000 0.000000 0.000000
# 4 0.000000 0.000000 0.000000 0.081008 0.000000 0.000000
# 5 0.000000 0.000000 0.000000 0.000000 0.050783 0.000000
# 6 0.000000 0.000000 0.000000 0.000000 0.000000 0.035300
#
#
# Mechanical properties :
#
#
# Convention : Reuss Voigt Hill
#
# Bulk Modulus (GPa) = 33.67342 94.31125 63.99234
# Shear Modulus (GPa) = 18.18097 25.56102 21.87100
#
# Velocity S-wave (km/s) = 3.09875 3.67423 3.39869
# Velocity P-wave (km/s) = 5.53060 8.23470 7.01419
#
# Compressibility (1/GPa) = 0.02969701
#
# Stress axis : x y z
#
# Youngs Moduli (GPa) = 69.28350 27.34384 77.79017
#
# Poissons Ratio (x) = 0.09365 0.77804
# Poissons Ratio (y) = 0.23728 0.28432
# Poissons Ratio (z) = 0.69296 0.09994
#
# Static dielectric constant tensor:
#      x y z
#    x 1.624150 0.000000 0.000000 
#    y 0.000000 1.653540 0.000000 
#    z 0.000000 0.000000 1.643190 
# 
# From -- ./inp_files/11023.got.cif
#   From: 2010.05.17/outbox.cif.g08.bks.cpg/sg35_6_cif.got.tgz:11023.got - 2010.06.03 17:29:28.
