data_PCOD9348040
_publ_section_title
;
Structure prediction by ZEFSAII (Michael W. Deem and Ramdas Pophale) SiO2 
 PCOD9348040
Probable space group: P N N 2
;
_chemical_formula_sum "Si O2"
_cell_formula_units_Z 20
_cell_length_a 31.615798
_cell_length_b 5.114810
_cell_length_c 5.157786
_cell_angle_alpha 90.000000
_cell_angle_beta 90.000000
_cell_angle_gamma 90.000000
_cell_volume 834.059384
_symmetry_space_group_name_H-M "P N N 2"
_symmetry_group_IT_number 34
_symmetry_cell_setting 'orthorhombic'
loop_
_space_group_symop_operation_xyz
x,y,z
-x,-y,z
1/2-x,1/2+y,1/2+z
1/2+x,1/2-y,1/2+z
loop_
_atom_site_type_symbol
_atom_site_label
_atom_site_fract_x
_atom_site_fract_y
_atom_site_fract_z
Si Si1 0.858218 0.246781 0.187010
Si Si2 0.414102 0.760755 0.585598
Si Si3 0.708693 0.381242 0.540221
Si Si4 0.695048 0.038138 0.045067
Si Si5 0.029136 0.254262 0.585530
O O1 0.884461 0.485484 0.070948
O O2 0.842518 0.340304 0.471195
O O3 0.887317 0.991975 0.171790
O O4 0.807079 0.712002 0.799883
O O5 0.436707 0.713323 0.312296
O O6 0.448082 0.808226 0.812674
O O7 0.685375 0.661304 0.543822
O O8 0.759211 0.400197 0.536421
O O9 0.696121 0.239937 0.805109
O O10 0.000000 0.500000 0.656920
O O11 0.000000 0.000000 0.561525
#
# Coordination Sequence:
#
# PCOD9348040 Si02
#       5
#     4   4   4   4   4
#     4  12  28  49  73 114 158 194 256 324 375 443
#     4  12  28  47  78 116 149 192 241 314 388 441
#     4  12  27  46  73 104 148 209 265 315 371 440
#     4  12  27  46  73 104 148 209 265 315 371 440
#     4  12  26  52  81 110 147 192 241 296 379 488
#
# _framework density 23.979108
#
# number of rings (size 3 to 8) (size 9 to 14) (size 15 to 20)
#    0.000    0.000    4.000    4.800    2.800    3.200 
#    0.000    0.000    0.000    0.000    0.000    0.000 
#    0.000    0.000    0.000    0.000    0.000    0.000 
#
# Total GULP energy -112233.614116 kJ/mol
# GULP energy per Si atom -5611.680706 kJ/mol
# Density = 2.392453 g / cm^3
# Si number density = 23.979108 Si / 1000 Ang^3
#
#
#
# Elastic Constant Matrix: (Units=GPa)
#
#
# Indices 1 2 3 4 5 6 
#
# 1 79.7600 39.1195 -1.0799 0.0000 0.0000 0.0000
# 2 39.1195 150.4591 23.0581 0.0000 0.0000 0.0000
# 3 -1.0799 23.0581 122.4808 0.0000 0.0000 0.0000
# 4 0.0000 0.0000 0.0000 39.8017 0.0000 0.0000
# 5 0.0000 0.0000 0.0000 0.0000 62.7663 0.0000
# 6 0.0000 0.0000 0.0000 0.0000 0.0000 56.4165
#
#
#
# Elastic Compliance Matrix: (Units=1/GPa)
#
#
# Indices 1 2 3 4 5 6 
#
# 1 0.014458 -0.003891 0.000860 0.000000 0.000000 0.000000
# 2 -0.003891 0.007891 -0.001520 0.000000 0.000000 0.000000
# 3 0.000860 -0.001520 0.008458 0.000000 0.000000 0.000000
# 4 0.000000 0.000000 0.000000 0.025125 0.000000 0.000000
# 5 0.000000 0.000000 0.000000 0.000000 0.015932 0.000000
# 6 0.000000 0.000000 0.000000 0.000000 0.000000 0.017725
#
#
# Mechanical properties :
#
#
# Convention : Reuss Voigt Hill
#
# Bulk Modulus (GPa) = 46.07162 52.76615 49.41888
# Shear Modulus (GPa) = 47.20320 51.23705 49.22013
#
# Velocity S-wave (km/s) = 4.44161 4.62750 4.53551
# Velocity P-wave (km/s) = 6.74972 7.11368 6.93409
#
# Compressibility (1/GPa) = 0.02170534
#
# Stress axis : x y z
#
# Youngs Moduli (GPa) = 69.16808 126.72917 118.22781
#
# Poissons Ratio (x) = 0.49307 -0.10167
# Poissons Ratio (y) = 0.26912 0.17969
# Poissons Ratio (z) = -0.05948 0.19261
#
# Static dielectric constant tensor:
#      x y z
#    x 1.905980 0.000000 0.000000 
#    y 0.000000 1.918710 0.000000 
#    z 0.000000 0.000000 1.899130 
# 
# From -- ./inp_files/209.got.cif
#   From: 2010.05.17/outbox.cif.g08.bks.cpg/sg34_1_cif.got.tgz:209.got - 2010.06.03 17:23:11.
