data_PCOD9348519
_publ_section_title
;
Structure prediction by ZEFSAII (Michael W. Deem and Ramdas Pophale) SiO2 
 PCOD9348519
Probable space group: C M M 2
;
_chemical_formula_sum "Si O2"
_cell_formula_units_Z 64
_cell_length_a 29.798808
_cell_length_b 9.214103
_cell_length_c 12.613533
_cell_angle_alpha 90.000000
_cell_angle_beta 90.000000
_cell_angle_gamma 90.000000
_cell_volume 3463.288752
_symmetry_space_group_name_H-M "C M M 2"
_symmetry_group_IT_number 35
_symmetry_cell_setting 'orthorhombic'
loop_
_space_group_symop_operation_xyz
x,y,z
-x,-y,z
-x,y,z
x,-y,z
1/2+x,1/2+y,z
1/2-x,1/2-y,z
1/2-x,1/2+y,z
1/2+x,1/2-y,z
loop_
_atom_site_type_symbol
_atom_site_label
_atom_site_fract_x
_atom_site_fract_y
_atom_site_fract_z
Si Si1 0.949533 0.674449 0.815960
Si Si2 0.173415 0.333484 0.516727
Si Si3 0.548706 0.674403 0.358659
Si Si4 0.068788 0.333153 0.574365
Si Si5 0.635947 0.328069 0.897162
Si Si6 0.701634 0.674540 0.087805
Si Si7 0.351312 0.325707 0.304340
Si Si8 0.207592 0.170762 0.716939
O O1 0.944694 0.500000 0.818214
O O2 0.943637 0.718080 0.692051
O O3 0.910770 0.745870 0.885328
O O4 0.000000 0.712224 0.849769
O O5 0.189090 0.500000 0.509404
O O6 0.122397 0.334724 0.560269
O O7 0.171029 0.256829 0.403018
O O8 0.200289 0.242118 0.602787
O O9 0.500000 0.719544 0.312607
O O10 0.549123 0.500000 0.362585
O O11 0.551233 0.736886 0.477801
O O12 0.595618 0.717396 0.302253
O O13 0.053128 0.500000 0.562676
O O14 0.627656 0.500000 0.910091
O O15 0.664020 0.306489 0.789183
O O16 0.668534 0.280767 0.992332
O O17 0.707836 0.500000 0.080148
O O18 0.750000 0.750000 0.083435
O O19 0.675523 0.706071 0.197257
O O20 0.349645 0.500000 0.322237
O O21 0.250000 0.250000 0.768845
O O22 0.215897 0.000000 0.708774
#
# Coordination Sequence:
#
# PCOD9348519 Si02
#       8
#     8   8   8   8   8   8   8   8
#     4  10  20  34  54  81 114 152 190 227 274 329
#     4  10  19  33  54  80 112 148 185 223 273 331
#     4   9  17  29  48  76 108 144 184 222 266 322
#     4   9  17  30  49  74 108 148 185 222 264 316
#     4  10  22  39  58  82 112 144 185 235 282 331
#     4  10  22  41  63  85 107 140 186 237 288 337
#     4   9  19  36  56  79 112 145 181 230 281 332
#     4  11  22  35  54  80 111 145 182 226 280 340
#
# _framework density 18.479545000000002
#
# number of rings (size 3 to 8) (size 9 to 14) (size 15 to 20)
#    0.000    2.250    1.250    1.500    0.000    4.000 
#    0.000    1.875    0.000    2.250    0.000    0.000 
#    0.000    0.000    0.000    0.000    0.000    0.000 
#
# Total GULP energy -178517.904997 kJ/mol
# GULP energy per Si atom -5578.684531 kJ/mol
# Density = 1.843748 g / cm^3
# Si number density = 18.479545 Si / 1000 Ang^3
#
#
#
# Elastic Constant Matrix: (Units=GPa)
#
#
# Indices 1 2 3 4 5 6 
#
# 1 145.2849 53.5822 64.1884 0.0000 0.0000 0.0000
# 2 53.5822 46.7235 45.0679 0.0000 0.0000 0.0000
# 3 64.1884 45.0679 99.2586 0.0000 0.0000 0.0000
# 4 0.0000 0.0000 0.0000 17.9792 0.0000 0.0000
# 5 0.0000 0.0000 0.0000 0.0000 15.8410 0.0000
# 6 0.0000 0.0000 0.0000 0.0000 0.0000 23.5127
#
#
#
# Elastic Compliance Matrix: (Units=1/GPa)
#
#
# Indices 1 2 3 4 5 6 
#
# 1 0.012340 -0.011484 -0.002766 0.000000 0.000000 0.000000
# 2 -0.011484 0.048767 -0.014716 0.000000 0.000000 0.000000
# 3 -0.002766 -0.014716 0.018545 0.000000 0.000000 0.000000
# 4 0.000000 0.000000 0.000000 0.055620 0.000000 0.000000
# 5 0.000000 0.000000 0.000000 0.000000 0.063127 0.000000
# 6 0.000000 0.000000 0.000000 0.000000 0.000000 0.042530
#
#
# Mechanical properties :
#
#
# Convention : Reuss Voigt Hill
#
# Bulk Modulus (GPa) = 46.03945 68.54934 57.29440
# Shear Modulus (GPa) = 16.33445 20.02848 18.18146
#
# Velocity S-wave (km/s) = 2.97631 3.29571 3.14007
# Velocity P-wave (km/s) = 6.06457 7.18732 6.64968
#
# Compressibility (1/GPa) = 0.02172050
#
# Stress axis : x y z
#
# Youngs Moduli (GPa) = 81.03410 20.50581 53.92244
#
# Poissons Ratio (x) = 0.23549 0.14916
# Poissons Ratio (y) = 0.93059 0.79352
# Poissons Ratio (z) = 0.22415 0.30176
#
# Static dielectric constant tensor:
#      x y z
#    x 1.674540 0.000000 0.000000 
#    y 0.000000 1.619880 0.000000 
#    z 0.000000 0.000000 1.613100 
# 
# From -- ./inp_files/11923.got.cif
#   From: 2010.05.17/outbox.cif.g08.bks.cpg/sg35_6_cif.got.tgz:11923.got - 2010.06.03 17:29:28.
