data_PCOD9348044
_publ_section_title
;
Structure prediction by ZEFSAII (Michael W. Deem and Ramdas Pophale) SiO2 
 PCOD9348044
Probable space group: P N N 2
;
_chemical_formula_sum "Si O2"
_cell_formula_units_Z 20
_cell_length_a 8.519644
_cell_length_b 11.286977
_cell_length_c 8.195071
_cell_angle_alpha 90.000000
_cell_angle_beta 90.000000
_cell_angle_gamma 90.000000
_cell_volume 788.046434
_symmetry_space_group_name_H-M "P N N 2"
_symmetry_group_IT_number 34
_symmetry_cell_setting 'orthorhombic'
loop_
_space_group_symop_operation_xyz
x,y,z
-x,-y,z
1/2-x,1/2+y,1/2+z
1/2+x,1/2-y,1/2+z
loop_
_atom_site_type_symbol
_atom_site_label
_atom_site_fract_x
_atom_site_fract_y
_atom_site_fract_z
Si Si1 0.021153 0.253526 0.635060
Si Si2 0.478848 0.746475 0.462834
Si Si3 0.778739 0.904832 0.409205
Si Si4 0.221262 0.404830 0.188689
Si Si5 0.500000 0.000000 0.964093
Si Si6 0.000000 0.000000 0.133799
O O1 0.129534 0.250001 0.798947
O O2 0.883387 0.165861 0.694048
O O3 0.974526 0.383711 0.574067
O O4 0.099464 0.190305 0.481032
O O5 0.616612 0.834141 0.403848
O O6 0.400538 0.809696 0.616862
O O7 0.525474 0.616289 0.523825
O O8 0.853023 0.967503 0.251447
O O9 0.750002 0.000001 0.548946
O O10 0.146976 0.467503 0.346446
#
# Coordination Sequence:
#
# PCOD9348044 Si02
#       6
#     4   4   4   4   2   2
#     4  12  29  48  78 113 152 203 258 313 385 454
#     4  12  29  48  78 113 152 203 258 313 385 454
#     4  12  27  50  77 111 154 201 255 319 379 456
#     4  12  27  50  77 111 154 201 255 319 379 456
#     4  12  28  52  80 110 162 202 256 322 382 458
#     4  12  28  52  80 110 162 202 256 322 382 458
#
# _framework density 25.379214999999999
#
# number of rings (size 3 to 8) (size 9 to 14) (size 15 to 20)
#    0.000    0.000    4.000    3.600   11.200    3.200 
#    0.000    0.000    0.000    0.000    0.000    0.000 
#    0.000    0.000    0.000    0.000    0.000    0.000 
#
# Total GULP energy -112029.804390 kJ/mol
# GULP energy per Si atom -5601.490220 kJ/mol
# Density = 2.532145 g / cm^3
# Si number density = 25.379215 Si / 1000 Ang^3
#
#
#
# Elastic Constant Matrix: (Units=GPa)
#
#
# Indices 1 2 3 4 5 6 
#
# 1 42.6239 2.1668 11.1993 0.0000 0.0000 0.0000
# 2 2.1668 194.5071 74.3695 0.0000 0.0000 0.0000
# 3 11.1993 74.3695 171.1707 0.0000 0.0000 0.0000
# 4 0.0000 0.0000 0.0000 80.2439 0.0000 0.0000
# 5 0.0000 0.0000 0.0000 0.0000 30.0048 0.0000
# 6 0.0000 0.0000 0.0000 0.0000 0.0000 56.5926
#
#
#
# Elastic Compliance Matrix: (Units=1/GPa)
#
#
# Indices 1 2 3 4 5 6 
#
# 1 0.023897 0.000398 -0.001736 0.000000 0.000000 0.000000
# 2 0.000398 0.006172 -0.002708 0.000000 0.000000 0.000000
# 3 -0.001736 -0.002708 0.007132 0.000000 0.000000 0.000000
# 4 0.000000 0.000000 0.000000 0.012462 0.000000 0.000000
# 5 0.000000 0.000000 0.000000 0.000000 0.033328 0.000000
# 6 0.000000 0.000000 0.000000 0.000000 0.000000 0.017670
#
#
# Mechanical properties :
#
#
# Convention : Reuss Voigt Hill
#
# Bulk Modulus (GPa) = 34.35406 64.86367 49.60886
# Shear Modulus (GPa) = 42.20951 54.73933 48.47442
#
# Velocity S-wave (km/s) = 4.08260 4.64924 4.37510
# Velocity P-wave (km/s) = 5.98241 7.37793 6.71651
#
# Compressibility (1/GPa) = 0.02910864
#
# Stress axis : x y z
#
# Youngs Moduli (GPa) = 41.84625 162.02146 140.21086
#
# Poissons Ratio (x) = -0.06443 0.24345
# Poissons Ratio (y) = -0.01664 0.37964
# Poissons Ratio (z) = 0.07266 0.43869
#
# Static dielectric constant tensor:
#      x y z
#    x 2.088700 0.000000 0.000000 
#    y 0.000000 1.962140 0.000000 
#    z 0.000000 0.000000 2.492270 
# 
# From -- ./inp_files/2480.got.cif
#   From: 2010.05.17/outbox.cif.g08.bks.cpg/sg34_2_cif.got.tgz:2480.got - 2010.06.03 17:23:11.
