data_PCOD9348714
_publ_section_title
;
Structure prediction by ZEFSAII (Michael W. Deem and Ramdas Pophale) SiO2 
 PCOD9348714
Probable space group: C M M 2
;
_chemical_formula_sum "Si O2"
_cell_formula_units_Z 40
_cell_length_a 7.865450
_cell_length_b 15.586638
_cell_length_c 16.655399
_cell_angle_alpha 90.000000
_cell_angle_beta 90.000000
_cell_angle_gamma 90.000000
_cell_volume 2041.883994
_symmetry_space_group_name_H-M "C M M 2"
_symmetry_group_IT_number 35
_symmetry_cell_setting 'orthorhombic'
loop_
_space_group_symop_operation_xyz
x,y,z
-x,-y,z
-x,y,z
x,-y,z
1/2+x,1/2+y,z
1/2-x,1/2-y,z
1/2-x,1/2+y,z
1/2+x,1/2-y,z
loop_
_atom_site_type_symbol
_atom_site_label
_atom_site_fract_x
_atom_site_fract_y
_atom_site_fract_z
Si Si1 0.203976 0.500000 0.268790
Si Si2 0.000000 0.103554 0.689039
Si Si3 0.801228 0.842977 0.156248
Si Si4 0.186921 0.603663 0.982811
Si Si5 0.705212 0.000000 0.450795
Si Si6 0.204175 0.345652 0.569370
Si Si7 0.000000 0.895040 0.873933
O O1 0.260507 0.416880 0.219383
O O2 0.270473 0.500000 0.359967
O O3 0.000000 0.500000 0.270674
O O4 0.170387 0.135556 0.644029
O O5 0.000000 0.131949 0.781611
O O6 0.000000 0.000000 0.685914
O O7 0.750000 0.750000 0.188086
O O8 0.000000 0.845368 0.137933
O O9 0.707932 0.859474 0.071932
O O10 0.200049 0.500000 0.990628
O O11 0.334741 0.632936 0.923560
O O12 0.000000 0.624636 0.951309
O O13 0.750155 0.083957 0.502118
O O14 0.500000 0.000000 0.445851
O O15 0.250000 0.250000 0.541424
O O16 0.000000 0.352039 0.586530
O O17 0.000000 0.000000 0.873546
#
# Coordination Sequence:
#
# PCOD9348714 Si02
#       7
#     4   4   8   8   4   8   4
#     4  11  23  43  65  95 130 163 206 267 322 372
#     4  11  22  40  66  97 129 168 209 270 322 378
#     4  12  24  40  62  92 126 172 219 260 312 378
#     4  10  19  36  62  90 124 168 212 259 318 373
#     4   9  22  42  66  96 128 161 210 265 314 382
#     4  11  22  41  67  96 128 171 214 257 319 387
#     4   9  20  36  60  92 127 160 215 267 310 373
#
# _framework density 19.589749999999999
#
# number of rings (size 3 to 8) (size 9 to 14) (size 15 to 20)
#    0.000    1.400    4.000    2.100    0.000    1.600 
#    3.600    5.000    0.000    0.000    0.000    0.000 
#    0.000    0.000    0.000    0.000    0.000    0.000 
#
# Total GULP energy -111753.105259 kJ/mol
# GULP energy per Si atom -5587.655263 kJ/mol
# Density = 1.954516 g / cm^3
# Si number density = 19.589750 Si / 1000 Ang^3
#
#
#
# Elastic Constant Matrix: (Units=GPa)
#
#
# Indices 1 2 3 4 5 6 
#
# 1 132.8209 37.0363 52.7025 0.0000 0.0000 0.0000
# 2 37.0363 125.7340 66.6532 0.0000 0.0000 0.0000
# 3 52.7025 66.6532 154.6916 0.0000 0.0000 0.0000
# 4 0.0000 0.0000 0.0000 -9.7145 0.0000 0.0000
# 5 0.0000 0.0000 0.0000 0.0000 9.5946 0.0000
# 6 0.0000 0.0000 0.0000 0.0000 0.0000 24.7190
#
#
#
# Elastic Compliance Matrix: (Units=1/GPa)
#
#
# Indices 1 2 3 4 5 6 
#
# 1 0.008869 -0.001310 -0.002457 0.000000 0.000000 0.000000
# 2 -0.001310 0.010501 -0.004078 0.000000 0.000000 0.000000
# 3 -0.002457 -0.004078 0.009059 0.000000 0.000000 0.000000
# 4 0.000000 0.000000 0.000000 -0.102939 0.000000 0.000000
# 5 0.000000 0.000000 0.000000 0.000000 0.104226 0.000000
# 6 0.000000 0.000000 0.000000 0.000000 0.000000 0.040455
#
#
# Mechanical properties :
#
#
# Convention : Reuss Voigt Hill
#
# Bulk Modulus (GPa) = 78.50454 80.67005 79.58729
# Shear Modulus (GPa) = 55.48873 22.04344 38.76609
#
# Velocity S-wave (km/s) = 5.32793 3.35812 4.45330
# Velocity P-wave (km/s) = 8.83235 7.50367 8.19498
#
# Compressibility (1/GPa) = 0.01273812
#
# Stress axis : x y z
#
# Youngs Moduli (GPa) = 112.74940 95.22744 110.38774
#
# Poissons Ratio (x) = 0.12474 0.27126
# Poissons Ratio (y) = 0.14769 0.45021
# Poissons Ratio (z) = 0.27706 0.38838
#
# Static dielectric constant tensor:
#      x y z
#    x 1.719440 0.000000 0.000000 
#    y 0.000000 1.691860 0.000000 
#    z 0.000000 0.000000 1.647680 
# 
# From -- ./inp_files/14863.got.cif
#   From: 2010.05.17/outbox.cif.g08.bks.cpg/sg35_8_cif.got.tgz:14863.got - 2010.06.03 17:29:28.
