data_PCOD9348610
_publ_section_title
;
Structure prediction by ZEFSAII (Michael W. Deem and Ramdas Pophale) SiO2 
 PCOD9348610
Probable space group: C M M 2
;
_chemical_formula_sum "Si O2"
_cell_formula_units_Z 64
_cell_length_a 15.820779
_cell_length_b 15.980839
_cell_length_c 12.218737
_cell_angle_alpha 90.000000
_cell_angle_beta 90.000000
_cell_angle_gamma 90.000000
_cell_volume 3089.254992
_symmetry_space_group_name_H-M "C M M 2"
_symmetry_group_IT_number 35
_symmetry_cell_setting 'orthorhombic'
loop_
_space_group_symop_operation_xyz
x,y,z
-x,-y,z
-x,y,z
x,-y,z
1/2+x,1/2+y,z
1/2-x,1/2-y,z
1/2-x,1/2+y,z
1/2+x,1/2-y,z
loop_
_atom_site_type_symbol
_atom_site_label
_atom_site_fract_x
_atom_site_fract_y
_atom_site_fract_z
Si Si1 0.193652 0.664565 0.268440
Si Si2 0.753582 0.353118 0.645121
Si Si3 0.091252 0.899373 0.033632
Si Si4 0.868861 0.905471 0.273072
Si Si5 0.255256 0.850044 0.896669
Si Si6 0.090814 0.150167 0.513479
Si Si7 0.098964 0.400349 0.060140
Si Si8 0.595008 0.152923 0.496366
O O1 0.250000 0.750000 0.270118
O O2 0.267598 0.596023 0.267507
O O3 0.136397 0.651972 0.162008
O O4 0.137512 0.654220 0.376565
O O5 0.750000 0.250000 0.641517
O O6 0.753254 0.379022 0.771160
O O7 0.670872 0.383041 0.579541
O O8 0.836958 0.383134 0.581231
O O9 0.100458 0.867486 0.158419
O O10 0.000000 0.871339 0.988961
O O11 0.090476 0.000000 0.041180
O O12 0.172361 0.877467 0.963060
O O13 0.896534 0.861155 0.383747
O O14 0.900050 0.000000 0.280539
O O15 0.250000 0.750000 0.896180
O O16 0.339445 0.879983 0.958788
O O17 0.087922 0.249697 0.530406
O O18 0.000000 0.113800 0.545733
O O19 0.105287 0.500000 0.084174
O O20 0.000000 0.381135 0.040942
O O21 0.500000 0.117368 0.495523
#
# Coordination Sequence:
#
# PCOD9348610 Si02
#       8
#     8   8   8   8   8   8   8   8
#     4  12  20  37  62  91 121 151 192 241 294 349
#     4   9  19  37  56  83 116 149 193 242 294 343
#     4  10  22  40  61  85 118 160 198 237 295 361
#     4  11  21  35  58  86 120 157 188 227 287 354
#     4  11  23  39  62  89 117 151 198 257 302 348
#     4  10  19  34  57  85 118 153 187 231 287 348
#     4  11  25  43  61  84 119 162 202 243 297 358
#     4  10  19  34  59  88 116 149 190 238 289 342
#
# _framework density 20.716968000000001
#
# number of rings (size 3 to 8) (size 9 to 14) (size 15 to 20)
#    0.000    1.500    3.750    2.250    0.000    2.250 
#    0.000    3.750    0.000    0.000    0.000    0.000 
#    0.000    0.000    0.000    0.000    0.000    0.000 
#
# Total GULP energy -178691.982864 kJ/mol
# GULP energy per Si atom -5584.124464 kJ/mol
# Density = 2.066982 g / cm^3
# Si number density = 20.716968 Si / 1000 Ang^3
#
#
#
# Elastic Constant Matrix: (Units=GPa)
#
#
# Indices 1 2 3 4 5 6 
#
# 1 229.8111 17.9485 107.0663 0.0000 0.0000 0.0000
# 2 17.9485 34.2696 12.0534 0.0000 0.0000 0.0000
# 3 107.0663 12.0534 165.5274 0.0000 0.0000 0.0000
# 4 0.0000 0.0000 0.0000 46.8183 0.0000 0.0000
# 5 0.0000 0.0000 0.0000 0.0000 -7.3297 0.0000
# 6 0.0000 0.0000 0.0000 0.0000 0.0000 1.0337
#
#
#
# Elastic Compliance Matrix: (Units=1/GPa)
#
#
# Indices 1 2 3 4 5 6 
#
# 1 0.006350 -0.001931 -0.003967 0.000000 0.000000 0.000000
# 2 -0.001931 0.030534 -0.000975 0.000000 0.000000 0.000000
# 3 -0.003967 -0.000975 0.008678 0.000000 0.000000 0.000000
# 4 0.000000 0.000000 0.000000 0.021359 0.000000 0.000000
# 5 0.000000 0.000000 0.000000 0.000000 -0.136432 0.000000
# 6 0.000000 0.000000 0.000000 0.000000 0.000000 0.967373
#
#
# Mechanical properties :
#
#
# Convention : Reuss Voigt Hill
#
# Bulk Modulus (GPa) = 31.42845 78.19383 54.81114
# Shear Modulus (GPa) = 5.42173 27.60713 16.51443
#
# Velocity S-wave (km/s) = 1.61948 3.65442 2.82644
# Velocity P-wave (km/s) = 4.32438 7.45870 6.09641
#
# Compressibility (1/GPa) = 0.03181830
#
# Stress axis : x y z
#
# Youngs Moduli (GPa) = 157.47204 32.75001 115.23184
#
# Poissons Ratio (x) = 0.06323 0.45712
# Poissons Ratio (y) = 0.30403 0.11231
# Poissons Ratio (z) = 0.62468 0.03192
#
# Static dielectric constant tensor:
#      x y z
#    x 1.760430 0.000000 0.000000 
#    y 0.000000 1.772390 0.000000 
#    z 0.000000 0.000000 1.710780 
# 
# From -- ./inp_files/13219.got.cif
#   From: 2010.05.17/outbox.cif.g08.bks.cpg/sg35_7_cif.got.tgz:13219.got - 2010.06.03 17:29:28.
