data_PCOD9348148
_publ_section_title
;
Structure prediction by ZEFSAII (Michael W. Deem and Ramdas Pophale) SiO2 
 PCOD9348148
Probable space group: C M M 2
;
_chemical_formula_sum "Si O2"
_cell_formula_units_Z 64
_cell_length_a 31.676870
_cell_length_b 8.683874
_cell_length_c 12.122787
_cell_angle_alpha 90.000000
_cell_angle_beta 90.000000
_cell_angle_gamma 90.000000
_cell_volume 3334.711370
_symmetry_space_group_name_H-M "C M M 2"
_symmetry_group_IT_number 35
_symmetry_cell_setting 'orthorhombic'
loop_
_space_group_symop_operation_xyz
x,y,z
-x,-y,z
-x,y,z
x,-y,z
1/2+x,1/2+y,z
1/2-x,1/2-y,z
1/2-x,1/2+y,z
1/2+x,1/2-y,z
loop_
_atom_site_type_symbol
_atom_site_label
_atom_site_fract_x
_atom_site_fract_y
_atom_site_fract_z
Si Si1 0.294206 0.816795 0.154390
Si Si2 0.372908 0.682843 0.289930
Si Si3 0.125711 0.686264 0.535029
Si Si4 0.452068 0.815071 0.159971
Si Si5 0.678553 0.682865 0.922505
Si Si6 0.705723 0.184404 0.687840
Si Si7 0.584786 0.184926 0.920622
Si Si8 0.452815 0.187263 0.684509
O O1 0.250000 0.750000 0.197381
O O2 0.334064 0.757658 0.223686
O O3 0.293172 0.000000 0.156438
O O4 0.300448 0.759062 0.029257
O O5 0.369171 0.500000 0.283239
O O6 0.371975 0.739153 0.415590
O O7 0.416516 0.736226 0.233561
O O8 0.124491 0.500000 0.523745
O O9 0.166479 0.724704 0.609142
O O10 0.083679 0.736581 0.600679
O O11 0.500000 0.767347 0.185123
O O12 0.449155 0.000000 0.175730
O O13 0.441377 0.785053 0.031523
O O14 0.683785 0.500000 0.927856
O O15 0.697310 0.746815 0.808820
O O16 0.629249 0.728820 0.925270
O O17 0.750000 0.250000 0.645378
O O18 0.707735 0.000000 0.696106
O O19 0.560257 0.228249 0.809307
O O20 0.593176 0.000000 0.915844
O O21 0.500000 0.241793 0.658229
O O22 0.453358 0.000000 0.681159
#
# Coordination Sequence:
#
# PCOD9348148 Si02
#       8
#     8   8   8   8   8   8   8   8
#     4  12  25  44  68  94 125 161 205 255 310 373
#     4  12  26  43  63  90 125 166 210 260 317 370
#     4  10  22  41  63  88 120 162 211 260 307 360
#     4  10  21  38  64  95 126 165 211 257 309 372
#     4  12  23  37  61  94 130 166 202 245 307 371
#     4  11  23  41  64  92 124 161 205 252 305 362
#     4  10  18  34  61  93 126 162 201 250 307 368
#     4   9  17  33  61  94 123 155 201 252 302 360
#
# _framework density 19.192066000000001
#
# number of rings (size 3 to 8) (size 9 to 14) (size 15 to 20)
#    0.000    1.250    2.500    4.500    0.000    3.750 
#    0.000    2.500    0.000    1.875    0.000    0.000 
#    0.000    0.000    0.000    0.000    0.000    0.000 
#
# Total GULP energy -178958.072293 kJ/mol
# GULP energy per Si atom -5592.439759 kJ/mol
# Density = 1.914838 g / cm^3
# Si number density = 19.192066 Si / 1000 Ang^3
#
#
#
# Elastic Constant Matrix: (Units=GPa)
#
#
# Indices 1 2 3 4 5 6 
#
# 1 186.0181 69.5946 74.9086 0.0000 0.0000 0.0000
# 2 69.5946 89.7380 62.6596 0.0000 0.0000 0.0000
# 3 74.9086 62.6596 136.9443 0.0000 0.0000 0.0000
# 4 0.0000 0.0000 0.0000 1.8949 0.0000 0.0000
# 5 0.0000 0.0000 0.0000 0.0000 -8.4839 0.0000
# 6 0.0000 0.0000 0.0000 0.0000 0.0000 28.2167
#
#
#
# Elastic Compliance Matrix: (Units=1/GPa)
#
#
# Indices 1 2 3 4 5 6 
#
# 1 0.008025 -0.004641 -0.002266 0.000000 0.000000 0.000000
# 2 -0.004641 0.019060 -0.006182 0.000000 0.000000 0.000000
# 3 -0.002266 -0.006182 0.011370 0.000000 0.000000 0.000000
# 4 0.000000 0.000000 0.000000 0.527737 0.000000 0.000000
# 5 0.000000 0.000000 0.000000 0.000000 -0.117871 0.000000
# 6 0.000000 0.000000 0.000000 0.000000 0.000000 0.035440
#
#
# Mechanical properties :
#
#
# Convention : Reuss Voigt Hill
#
# Bulk Modulus (GPa) = 81.45822 91.89179 86.67500
# Shear Modulus (GPa) = 9.72703 18.02805 13.87754
#
# Velocity S-wave (km/s) = 2.25372 3.06821 2.69195
# Velocity P-wave (km/s) = 7.02198 7.78048 7.41094
#
# Compressibility (1/GPa) = 0.01227623
#
# Stress axis : x y z
#
# Youngs Moduli (GPa) = 124.61515 52.46697 87.94830
#
# Poissons Ratio (x) = 0.24351 0.19928
# Poissons Ratio (y) = 0.57837 0.54370
# Poissons Ratio (z) = 0.28236 0.32435
#
# Static dielectric constant tensor:
#      x y z
#    x 1.666650 0.000000 0.000000 
#    y 0.000000 1.647710 0.000000 
#    z 0.000000 0.000000 1.637540 
# 
# From -- ./inp_files/14515.got.cif
#   From: 2010.05.17/outbox.cif.g08.bks.cpg/sg35_8_cif.got.tgz:14515.got - 2010.06.03 17:29:28.
