data_PCOD9348800
_publ_section_title
;
Structure prediction by ZEFSAII (Michael W. Deem and Ramdas Pophale) SiO2 
 PCOD9348800
Probable space group: C M M 2
;
_chemical_formula_sum "Si O2"
_cell_formula_units_Z 64
_cell_length_a 8.010513
_cell_length_b 19.951977
_cell_length_c 21.248543
_cell_angle_alpha 90.000000
_cell_angle_beta 90.000000
_cell_angle_gamma 90.000000
_cell_volume 3396.060521
_symmetry_space_group_name_H-M "C M M 2"
_symmetry_group_IT_number 35
_symmetry_cell_setting 'orthorhombic'
loop_
_space_group_symop_operation_xyz
x,y,z
-x,-y,z
-x,y,z
x,-y,z
1/2+x,1/2+y,z
1/2-x,1/2-y,z
1/2-x,1/2+y,z
1/2+x,1/2-y,z
loop_
_atom_site_type_symbol
_atom_site_label
_atom_site_fract_x
_atom_site_fract_y
_atom_site_fract_z
Si Si1 0.694805 0.081292 0.924740
Si Si2 0.698828 0.575940 0.061230
Si Si3 0.295422 0.422676 0.423659
Si Si4 0.798673 0.826135 0.311914
Si Si5 0.298313 0.325887 0.169134
Si Si6 0.700893 0.076369 0.788469
Si Si7 0.201445 0.825968 0.535222
Si Si8 0.301013 0.674455 0.677703
O O1 0.500000 0.098947 0.928351
O O2 0.763437 0.103000 0.856564
O O3 0.707793 0.000000 0.922718
O O4 0.773627 0.102818 0.990550
O O5 0.500000 0.571527 0.070056
O O6 0.767568 0.500000 0.064700
O O7 0.765743 0.623147 0.116359
O O8 0.500000 0.423054 0.423634
O O9 0.241403 0.500000 0.423588
O O10 0.240634 0.380553 0.362518
O O11 0.240796 0.380799 0.484984
O O12 0.750000 0.750000 0.329121
O O13 0.738903 0.839516 0.240550
O O14 0.000000 0.828652 0.311254
O O15 0.500000 0.329841 0.170200
O O16 0.250000 0.250000 0.153406
O O17 0.500000 0.073170 0.794323
O O18 0.741924 0.122688 0.729911
O O19 0.761660 0.000000 0.778911
O O20 0.250000 0.750000 0.517356
O O21 0.263073 0.838579 0.606549
O O22 0.000000 0.828500 0.536097
O O23 0.500000 0.671124 0.675254
O O24 0.250000 0.750000 0.694552
#
# Coordination Sequence:
#
# PCOD9348800 Si02
#       8
#     8   8   8   8   8   8   8   8
#     4   8  15  29  48  69  93 122 155 189 229 280
#     4   9  17  29  46  68  93 120 152 193 235 273
#     4   9  17  29  47  72  98 122 152 192 234 273
#     4   9  17  30  49  69  90 122 159 191 226 273
#     4   9  18  31  46  67  94 122 154 191 231 274
#     4   9  18  33  52  73  98 127 159 198 242 287
#     4   9  18  32  50  70  93 124 159 194 231 276
#     4  10  20  33  50  72  98 128 162 200 241 286
#
# _framework density 18.845365999999999
#
# number of rings (size 3 to 8) (size 9 to 14) (size 15 to 20)
#    0.000    3.000    0.000    1.500    0.000    2.750 
#    0.000    5.625    0.000    3.000    0.000    3.500 
#    0.000    0.000    0.000    0.000    0.000    0.000 
#
# Total GULP energy -178322.992173 kJ/mol
# GULP energy per Si atom -5572.593505 kJ/mol
# Density = 1.880247 g / cm^3
# Si number density = 18.845366 Si / 1000 Ang^3
#
#
#
# Elastic Constant Matrix: (Units=GPa)
#
#
# Indices 1 2 3 4 5 6 
#
# 1 11.2863 5.9267 10.1799 0.0000 0.0000 0.0000
# 2 5.9267 129.2502 125.0268 0.0000 0.0000 0.0000
# 3 10.1799 125.0268 168.1830 0.0000 0.0000 0.0000
# 4 0.0000 0.0000 0.0000 44.2410 0.0000 0.0000
# 5 0.0000 0.0000 0.0000 0.0000 15.8558 0.0000
# 6 0.0000 0.0000 0.0000 0.0000 0.0000 20.9170
#
#
#
# Elastic Compliance Matrix: (Units=1/GPa)
#
#
# Indices 1 2 3 4 5 6 
#
# 1 0.094375 0.004266 -0.008884 0.000000 0.000000 0.000000
# 2 0.004266 0.027737 -0.020878 0.000000 0.000000 0.000000
# 3 -0.008884 -0.020878 0.022004 0.000000 0.000000 0.000000
# 4 0.000000 0.000000 0.000000 0.022603 0.000000 0.000000
# 5 0.000000 0.000000 0.000000 0.000000 0.063069 0.000000
# 6 0.000000 0.000000 0.000000 0.000000 0.000000 0.047808
#
#
# Mechanical properties :
#
#
# Convention : Reuss Voigt Hill
#
# Bulk Modulus (GPa) = 10.73823 65.66514 38.20169
# Shear Modulus (GPa) = 13.90323 27.37518 20.63921
#
# Velocity S-wave (km/s) = 2.71911 3.81546 3.31295
# Velocity P-wave (km/s) = 3.94570 7.37090 5.91180
#
# Compressibility (1/GPa) = 0.09312519
#
# Stress axis : x y z
#
# Youngs Moduli (GPa) = 10.59599 36.05319 45.44625
#
# Poissons Ratio (x) = -0.15379 0.40372
# Poissons Ratio (y) = -0.04520 0.94881
# Poissons Ratio (z) = 0.09413 0.75271
#
# Static dielectric constant tensor:
#      x y z
#    x 1.677620 0.000000 0.000000 
#    y 0.000000 1.616700 0.000000 
#    z 0.000000 0.000000 1.683260 
# 
# From -- ./inp_files/18417.got.cif
#   From: 2010.05.17/outbox.cif.g08.bks.cpg/sg35_10_cif.got.tgz:18417.got - 2010.06.03 17:29:28.
