data_PCOD9348459
_publ_section_title
;
Structure prediction by ZEFSAII (Michael W. Deem and Ramdas Pophale) SiO2 
 PCOD9348459
Probable space group: C M M 2
;
_chemical_formula_sum "Si O2"
_cell_formula_units_Z 58
_cell_length_a 19.143746
_cell_length_b 16.673289
_cell_length_c 8.338126
_cell_angle_alpha 90.000000
_cell_angle_beta 90.000000
_cell_angle_gamma 90.000000
_cell_volume 2661.439847
_symmetry_space_group_name_H-M "C M M 2"
_symmetry_group_IT_number 35
_symmetry_cell_setting 'orthorhombic'
loop_
_space_group_symop_operation_xyz
x,y,z
-x,-y,z
-x,y,z
x,-y,z
1/2+x,1/2+y,z
1/2-x,1/2-y,z
1/2-x,1/2+y,z
1/2+x,1/2-y,z
loop_
_atom_site_type_symbol
_atom_site_label
_atom_site_fract_x
_atom_site_fract_y
_atom_site_fract_z
Si Si1 0.920646 0.684347 0.740790
Si Si2 0.924808 0.655834 0.104485
Si Si3 0.420750 0.625776 0.797286
Si Si4 0.293774 0.907901 0.653557
Si Si5 0.286092 0.590197 0.986580
Si Si6 0.318371 0.280780 0.248968
Si Si7 0.500000 0.000000 0.204267
Si Si8 0.352060 0.412628 0.470012
O O1 0.911218 0.778160 0.778878
O O2 0.859110 0.650736 0.629918
O O3 0.000000 0.671937 0.679525
O O4 0.914700 0.640923 0.914208
O O5 0.864491 0.710188 0.175579
O O6 0.000000 0.701043 0.113818
O O7 0.939919 0.571671 0.190355
O O8 0.500000 0.609074 0.841267
O O9 0.365210 0.592274 0.921544
O O10 0.401101 0.590872 0.624385
O O11 0.261035 0.892089 0.830269
O O12 0.227565 0.903646 0.535439
O O13 0.319052 0.000000 0.650179
O O14 0.268544 0.500000 0.043689
O O15 0.284516 0.660694 0.114834
O O16 0.250000 0.250000 0.341641
O O17 0.365738 0.338411 0.355888
O O18 0.358271 0.500000 0.391679
#
# Coordination Sequence:
#
# PCOD9348459 Si02
#       8
#     8   8   8   8   8   8   2   8
#     4  10  19  32  59  94 122 152 204 254 307 372
#     4   9  20  39  61  95 127 162 202 255 319 376
#     4  10  21  38  63  90 121 156 201 252 305 374
#     4   9  20  36  59  85 122 161 204 256 312 370
#     4  10  21  37  59  91 123 157 201 258 310 367
#     4  12  24  39  62  91 126 166 213 262 310 370
#     4   8  20  40  68  92 140 160 202 256 326 380
#     4  10  24  43  59  86 124 168 210 251 307 370
#
# _framework density 21.792715999999999
#
# number of rings (size 3 to 8) (size 9 to 14) (size 15 to 20)
#    0.414    1.655    1.379    2.483    2.897    3.034 
#    2.483    0.000    0.000    2.483    0.000    0.000 
#    0.000    0.000    0.000    0.000    0.000    0.000 
#
# Total GULP energy -161642.334060 kJ/mol
# GULP energy per Si atom -5573.873588 kJ/mol
# Density = 2.174311 g / cm^3
# Si number density = 21.792716 Si / 1000 Ang^3
#
#
#
# Elastic Constant Matrix: (Units=GPa)
#
#
# Indices 1 2 3 4 5 6 
#
# 1 101.5134 27.6032 -15.0874 0.0000 0.0000 0.0000
# 2 27.6032 94.3975 6.7064 0.0000 0.0000 0.0000
# 3 -15.0874 6.7064 11.2639 0.0000 0.0000 0.0000
# 4 0.0000 0.0000 0.0000 20.5469 0.0000 0.0000
# 5 0.0000 0.0000 0.0000 0.0000 9.2345 0.0000
# 6 0.0000 0.0000 0.0000 0.0000 0.0000 27.9709
#
#
#
# Elastic Compliance Matrix: (Units=1/GPa)
#
#
# Indices 1 2 3 4 5 6 
#
# 1 0.015038 -0.006086 0.023766 0.000000 0.000000 0.000000
# 2 -0.006086 0.013524 -0.016204 0.000000 0.000000 0.000000
# 3 0.023766 -0.016204 0.130260 0.000000 0.000000 0.000000
# 4 0.000000 0.000000 0.000000 0.048669 0.000000 0.000000
# 5 0.000000 0.000000 0.000000 0.000000 0.108289 0.000000
# 6 0.000000 0.000000 0.000000 0.000000 0.000000 0.035752
#
#
# Mechanical properties :
#
#
# Convention : Reuss Voigt Hill
#
# Bulk Modulus (GPa) = 6.18144 27.29101 16.73623
# Shear Modulus (GPa) = 12.42225 24.08063 18.25144
#
# Velocity S-wave (km/s) = 2.39010 3.32774 2.89710
# Velocity P-wave (km/s) = 3.23410 5.22640 4.34596
#
# Compressibility (1/GPa) = 0.16177464
#
# Stress axis : x y z
#
# Youngs Moduli (GPa) = 66.49869 73.94145 7.67698
#
# Poissons Ratio (x) = 0.44999 -0.18245
# Poissons Ratio (y) = 0.40469 0.12439
# Poissons Ratio (z) = -1.58039 1.19812
#
# Static dielectric constant tensor:
#      x y z
#    x 1.792480 0.000000 0.000000 
#    y 0.000000 1.790750 0.000000 
#    z 0.000000 0.000000 1.810140 
# 
# From -- ./inp_files/8579.got.cif
#   From: 2010.05.17/outbox.cif.g08.bks.cpg/sg35_5_cif.got.tgz:8579.got - 2010.06.03 17:29:28.
