data_PCOD9348442
_publ_section_title
;
Structure prediction by ZEFSAII (Michael W. Deem and Ramdas Pophale) SiO2 
 PCOD9348442
Probable space group: C M M 2
;
_chemical_formula_sum "Si O2"
_cell_formula_units_Z 64
_cell_length_a 30.031724
_cell_length_b 8.888422
_cell_length_c 12.655258
_cell_angle_alpha 90.000000
_cell_angle_beta 90.000000
_cell_angle_gamma 90.000000
_cell_volume 3378.126692
_symmetry_space_group_name_H-M "C M M 2"
_symmetry_group_IT_number 35
_symmetry_cell_setting 'orthorhombic'
loop_
_space_group_symop_operation_xyz
x,y,z
-x,-y,z
-x,y,z
x,-y,z
1/2+x,1/2+y,z
1/2-x,1/2-y,z
1/2-x,1/2+y,z
1/2+x,1/2-y,z
loop_
_atom_site_type_symbol
_atom_site_label
_atom_site_fract_x
_atom_site_fract_y
_atom_site_fract_z
Si Si1 0.137467 0.819276 0.300350
Si Si2 0.432129 0.826632 0.984786
Si Si3 0.799353 0.181374 0.494141
Si Si4 0.857057 0.180330 0.700584
Si Si5 0.294310 0.321330 0.120898
Si Si6 0.050044 0.318626 0.220714
Si Si7 0.329657 0.172870 0.918356
Si Si8 0.549394 0.817557 0.750572
O O1 0.169140 0.771022 0.396599
O O2 0.163711 0.779692 0.192967
O O3 0.088906 0.747766 0.292600
O O4 0.133148 0.000000 0.305683
O O5 0.379185 0.827001 0.968511
O O6 0.449672 0.763528 0.873548
O O7 0.447743 0.000000 0.987812
O O8 0.444280 0.761608 0.098935
O O9 0.750000 0.250000 0.490907
O O10 0.826405 0.219754 0.600671
O O11 0.795028 0.000000 0.489293
O O12 0.834562 0.247138 0.806033
O O13 0.907253 0.247126 0.695616
O O14 0.860035 0.000000 0.708165
O O15 0.290409 0.500000 0.119538
O O16 0.250000 0.250000 0.168999
O O17 0.300325 0.258722 0.003454
O O18 0.054827 0.500000 0.218411
O O19 0.000000 0.282414 0.255876
O O20 0.315368 0.000000 0.905733
O O21 0.500000 0.784188 0.707055
O O22 0.554952 0.000000 0.751748
#
# Coordination Sequence:
#
# PCOD9348442 Si02
#       8
#     8   8   8   8   8   8   8   8
#     4  10  22  40  59  82 114 147 186 236 287 338
#     4   8  14  27  49  76 109 148 186 225 268 319
#     4  10  23  43  65  86 108 143 189 240 292 342
#     4  10  21  37  57  83 116 148 188 238 288 340
#     4  11  22  35  55  83 114 147 185 230 283 346
#     4  10  19  32  54  84 116 152 193 232 275 330
#     4  10  19  34  56  81 114 153 188 226 281 337
#     4   9  17  31  53  82 116 155 196 235 278 331
#
# _framework density 18.945412000000001
#
# number of rings (size 3 to 8) (size 9 to 14) (size 15 to 20)
#    0.000    2.250    1.250    2.625    0.000    4.500 
#    0.000    1.875    0.000    5.250    0.000    0.000 
#    0.000    0.000    0.000    0.000    0.000    0.000 
#
# Total GULP energy -178483.508250 kJ/mol
# GULP energy per Si atom -5577.609633 kJ/mol
# Density = 1.890229 g / cm^3
# Si number density = 18.945412 Si / 1000 Ang^3
#
#
#
# Elastic Constant Matrix: (Units=GPa)
#
#
# Indices 1 2 3 4 5 6 
#
# 1 157.2134 45.1446 73.5236 0.0000 0.0000 0.0000
# 2 45.1446 37.3309 40.7648 0.0000 0.0000 0.0000
# 3 73.5236 40.7648 106.8685 0.0000 0.0000 0.0000
# 4 0.0000 0.0000 0.0000 17.1667 0.0000 0.0000
# 5 0.0000 0.0000 0.0000 0.0000 12.7992 0.0000
# 6 0.0000 0.0000 0.0000 0.0000 0.0000 30.9267
#
#
#
# Elastic Compliance Matrix: (Units=1/GPa)
#
#
# Indices 1 2 3 4 5 6 
#
# 1 0.010729 -0.008423 -0.004168 0.000000 0.000000 0.000000
# 2 -0.008423 0.052523 -0.014240 0.000000 0.000000 0.000000
# 3 -0.004168 -0.014240 0.017657 0.000000 0.000000 0.000000
# 4 0.000000 0.000000 0.000000 0.058252 0.000000 0.000000
# 5 0.000000 0.000000 0.000000 0.000000 0.078130 0.000000
# 6 0.000000 0.000000 0.000000 0.000000 0.000000 0.032335
#
#
# Mechanical properties :
#
#
# Convention : Reuss Voigt Hill
#
# Bulk Modulus (GPa) = 36.70213 68.91985 52.81099
# Shear Modulus (GPa) = 16.00664 21.64384 18.82524
#
# Velocity S-wave (km/s) = 2.90984 3.38365 3.15565
# Velocity P-wave (km/s) = 5.54113 7.19184 6.41977
#
# Compressibility (1/GPa) = 0.02724638
#
# Stress axis : x y z
#
# Youngs Moduli (GPa) = 93.20696 19.03925 56.63468
#
# Poissons Ratio (x) = 0.16036 0.23608
# Poissons Ratio (y) = 0.78504 0.80649
# Poissons Ratio (z) = 0.38853 0.27112
#
# Static dielectric constant tensor:
#      x y z
#    x 1.726460 0.000000 0.000000 
#    y 0.000000 1.644350 0.000000 
#    z 0.000000 0.000000 1.659540 
# 
# From -- ./inp_files/14577.got.cif
#   From: 2010.05.17/outbox.cif.g08.bks.cpg/sg35_8_cif.got.tgz:14577.got - 2010.06.03 17:29:28.
