data_PCOD9348924
_publ_section_title
;
Structure prediction by ZEFSAII (Michael W. Deem and Ramdas Pophale) SiO2 
 PCOD9348924
Probable space group: C M M 2
;
_chemical_formula_sum "Si O2"
_cell_formula_units_Z 64
_cell_length_a 8.852694
_cell_length_b 19.283060
_cell_length_c 21.281690
_cell_angle_alpha 90.000000
_cell_angle_beta 90.000000
_cell_angle_gamma 90.000000
_cell_volume 3632.934084
_symmetry_space_group_name_H-M "C M M 2"
_symmetry_group_IT_number 35
_symmetry_cell_setting 'orthorhombic'
loop_
_space_group_symop_operation_xyz
x,y,z
-x,-y,z
-x,y,z
x,-y,z
1/2+x,1/2+y,z
1/2-x,1/2-y,z
1/2-x,1/2+y,z
1/2+x,1/2-y,z
loop_
_atom_site_type_symbol
_atom_site_label
_atom_site_fract_x
_atom_site_fract_y
_atom_site_fract_z
Si Si1 0.318946 0.326662 0.852200
Si Si2 0.818096 0.419542 0.461038
Si Si3 0.182001 0.826236 0.710952
Si Si4 0.818512 0.673180 0.341904
Si Si5 0.820274 0.918372 0.231652
Si Si6 0.318043 0.419384 0.594306
Si Si7 0.317431 0.918961 0.961764
Si Si8 0.674030 0.915843 0.100890
O O1 0.500000 0.323136 0.856661
O O2 0.250000 0.250000 0.859033
O O3 0.278699 0.351429 0.781365
O O4 0.253966 0.375365 0.906093
O O5 0.771297 0.500000 0.449650
O O6 0.771911 0.369677 0.404250
O O7 0.751386 0.396822 0.527928
O O8 0.000000 0.418795 0.464614
O O9 0.250000 0.750000 0.703319
O O10 0.232615 0.875071 0.654131
O O11 0.000000 0.821768 0.708458
O O12 0.750000 0.750000 0.341823
O O13 0.761732 0.629132 0.282434
O O14 0.000000 0.677372 0.340804
O O15 0.771897 0.896953 0.161214
O O16 0.000000 0.912809 0.238774
O O17 0.778235 0.000000 0.239891
O O18 0.500000 0.415037 0.590147
O O19 0.277197 0.500000 0.603270
O O20 0.500000 0.914885 0.959498
O O21 0.275716 0.000000 0.955726
O O22 0.272252 0.893347 0.031741
O O23 0.500000 0.893650 0.110170
O O24 0.672710 0.000000 0.097902
#
# Coordination Sequence:
#
# PCOD9348924 Si02
#       8
#     8   8   8   8   8   8   8   8
#     4  10  20  34  52  73 101 138 177 217 259 307
#     4   9  19  36  56  77 101 132 170 208 249 302
#     4   9  19  34  51  72  99 133 171 209 252 303
#     4  11  23  38  55  76 106 140 173 213 259 305
#     4  10  20  34  55  82 108 135 171 213 254 303
#     4   9  18  33  53  76 102 131 164 206 253 299
#     4   9  18  33  53  78 107 136 169 212 259 307
#     4   8  15  30  52  76 103 136 171 208 254 306
#
# _framework density 17.616614999999999
#
# number of rings (size 3 to 8) (size 9 to 14) (size 15 to 20)
#    0.000    2.625    0.000    2.250    0.000    5.000 
#    0.000    6.875    0.000    4.500    0.000    0.000 
#    0.000    0.000    0.000    0.000    0.000    0.000 
#
# Total GULP energy -178450.500839 kJ/mol
# GULP energy per Si atom -5576.578151 kJ/mol
# Density = 1.757652 g / cm^3
# Si number density = 17.616615 Si / 1000 Ang^3
#
#
#
# Elastic Constant Matrix: (Units=GPa)
#
#
# Indices 1 2 3 4 5 6 
#
# 1 30.8541 35.2071 51.8930 0.0000 0.0000 0.0000
# 2 35.2071 78.4028 95.5523 0.0000 0.0000 0.0000
# 3 51.8930 95.5523 198.2521 0.0000 0.0000 0.0000
# 4 0.0000 0.0000 0.0000 -29.6286 0.0000 0.0000
# 5 0.0000 0.0000 0.0000 0.0000 32.5184 0.0000
# 6 0.0000 0.0000 0.0000 0.0000 0.0000 24.8579
#
#
#
# Elastic Compliance Matrix: (Units=1/GPa)
#
#
# Indices 1 2 3 4 5 6 
#
# 1 0.071138 -0.022422 -0.007814 0.000000 0.000000 0.000000
# 2 -0.022422 0.037980 -0.012436 0.000000 0.000000 0.000000
# 3 -0.007814 -0.012436 0.013083 0.000000 0.000000 0.000000
# 4 0.000000 0.000000 0.000000 -0.033751 0.000000 0.000000
# 5 0.000000 0.000000 0.000000 0.000000 0.030752 0.000000
# 6 0.000000 0.000000 0.000000 0.000000 0.000000 0.040229
#
#
# Mechanical properties :
#
#
# Convention : Reuss Voigt Hill
#
# Bulk Modulus (GPa) = 27.13183 74.75709 50.94446
# Shear Modulus (GPa) = 19.45075 13.87330 16.66202
#
# Velocity S-wave (km/s) = 3.32643 2.80931 3.07874
# Velocity P-wave (km/s) = 5.49438 7.28359 6.45131
#
# Compressibility (1/GPa) = 0.03685708
#
# Stress axis : x y z
#
# Youngs Moduli (GPa) = 14.05728 26.32970 76.43301
#
# Poissons Ratio (x) = 0.59036 0.59723
# Poissons Ratio (y) = 0.31519 0.95055
# Poissons Ratio (z) = 0.10984 0.32745
#
# Static dielectric constant tensor:
#      x y z
#    x 1.593340 0.000000 0.000000 
#    y 0.000000 1.576240 0.000000 
#    z 0.000000 0.000000 1.602260 
# 
# From -- ./inp_files/18347.got.cif
#   From: 2010.05.17/outbox.cif.g08.bks.cpg/sg35_10_cif.got.tgz:18347.got - 2010.06.03 17:29:28.
