data_PCOD9348023
_publ_section_title
;
Structure prediction by ZEFSAII (Michael W. Deem and Ramdas Pophale) SiO2 
 PCOD9348023
Probable space group: P N N 2
;
_chemical_formula_sum "Si O2"
_cell_formula_units_Z 20
_cell_length_a 30.077604
_cell_length_b 5.641426
_cell_length_c 4.723703
_cell_angle_alpha 90.000000
_cell_angle_beta 90.000000
_cell_angle_gamma 90.000000
_cell_volume 801.520652
_symmetry_space_group_name_H-M "P N N 2"
_symmetry_group_IT_number 34
_symmetry_cell_setting 'orthorhombic'
loop_
_space_group_symop_operation_xyz
x,y,z
-x,-y,z
1/2-x,1/2+y,1/2+z
1/2+x,1/2-y,1/2+z
loop_
_atom_site_type_symbol
_atom_site_label
_atom_site_fract_x
_atom_site_fract_y
_atom_site_fract_z
Si Si1 0.007459 0.246056 0.995090
Si Si2 0.195747 0.317900 0.143784
Si Si3 0.864902 0.024708 0.798832
Si Si4 0.925663 0.049751 0.267312
Si Si5 0.707452 0.875376 0.152189
O O1 0.000000 0.500000 0.860343
O O2 0.000000 0.000000 0.820742
O O3 0.055175 0.196034 0.134023
O O4 0.969242 0.215717 0.237590
O O5 0.241133 0.172912 0.092714
O O6 0.191183 0.401425 0.466102
O O7 0.174857 0.846599 0.628876
O O8 0.204067 0.562427 0.981134
O O9 0.902477 0.992223 0.561149
O O10 0.843865 0.815647 0.988053
O O11 0.890534 0.165717 0.048147
#
# Coordination Sequence:
#
# PCOD9348023 Si02
#       5
#     4   4   4   4   4
#     4   8  20  44  74 100 146 182 232 288 370 446
#     4  12  26  42  67  94 134 190 239 294 352 420
#     4  12  24  45  66 102 140 174 246 291 356 422
#     4   9  24  40  70 102 136 182 224 304 358 435
#     4  12  26  42  67  94 134 190 239 294 352 420
#
# _framework density 24.952567999999999
#
# number of rings (size 3 to 8) (size 9 to 14) (size 15 to 20)
#    1.200    0.000    2.000    3.600    2.800    8.000 
#    0.000    2.000    0.000    0.000    0.000    0.000 
#    0.000    0.000    0.000    0.000    0.000    0.000 
#
# Total GULP energy -111534.805421 kJ/mol
# GULP energy per Si atom -5576.740271 kJ/mol
# Density = 2.489577 g / cm^3
# Si number density = 24.952568 Si / 1000 Ang^3
#
#
#
# Elastic Constant Matrix: (Units=GPa)
#
#
# Indices 1 2 3 4 5 6 
#
# 1 127.4674 16.4226 32.7355 0.0000 0.0000 0.0000
# 2 16.4226 97.1141 9.2716 0.0000 0.0000 0.0000
# 3 32.7355 9.2716 103.1650 0.0000 0.0000 0.0000
# 4 0.0000 0.0000 0.0000 36.2664 0.0000 0.0000
# 5 0.0000 0.0000 0.0000 0.0000 24.8068 0.0000
# 6 0.0000 0.0000 0.0000 0.0000 0.0000 23.1257
#
#
#
# Elastic Compliance Matrix: (Units=1/GPa)
#
#
# Indices 1 2 3 4 5 6 
#
# 1 0.008681 -0.001215 -0.002645 0.000000 0.000000 0.000000
# 2 -0.001215 0.010556 -0.000563 0.000000 0.000000 0.000000
# 3 -0.002645 -0.000563 0.010583 0.000000 0.000000 0.000000
# 4 0.000000 0.000000 0.000000 0.027574 0.000000 0.000000
# 5 0.000000 0.000000 0.000000 0.000000 0.040312 0.000000
# 6 0.000000 0.000000 0.000000 0.000000 0.000000 0.043242
#
#
# Mechanical properties :
#
#
# Convention : Reuss Voigt Hill
#
# Bulk Modulus (GPa) = 47.68034 49.40065 48.54049
# Shear Modulus (GPa) = 31.89045 34.79425 33.34235
#
# Velocity S-wave (km/s) = 3.57885 3.73824 3.65941
# Velocity P-wave (km/s) = 6.01892 6.20269 6.11150
#
# Compressibility (1/GPa) = 0.02097301
#
# Stress axis : x y z
#
# Youngs Moduli (GPa) = 115.19258 94.72874 94.48913
#
# Poissons Ratio (x) = 0.11514 0.24996
# Poissons Ratio (y) = 0.14001 0.05320
# Poissons Ratio (z) = 0.30473 0.05334
#
# Static dielectric constant tensor:
#      x y z
#    x 2.083030 0.000000 0.000000 
#    y 0.000000 2.022830 0.000000 
#    z 0.000000 0.000000 1.923710 
# 
# From -- ./inp_files/1786.got.cif
#   From: 2010.05.17/outbox.cif.g08.bks.cpg/sg34_1_cif.got.tgz:1786.got - 2010.06.03 17:23:11.
