data_PCOD9348861
_publ_section_title
;
Structure prediction by ZEFSAII (Michael W. Deem and Ramdas Pophale) SiO2 
 PCOD9348861
Probable space group: C M M 2
;
_chemical_formula_sum "Si O2"
_cell_formula_units_Z 64
_cell_length_a 29.211318
_cell_length_b 7.617317
_cell_length_c 13.246315
_cell_angle_alpha 90.000000
_cell_angle_beta 90.000000
_cell_angle_gamma 90.000000
_cell_volume 2947.462311
_symmetry_space_group_name_H-M "C M M 2"
_symmetry_group_IT_number 35
_symmetry_cell_setting 'orthorhombic'
loop_
_space_group_symop_operation_xyz
x,y,z
-x,-y,z
-x,y,z
x,-y,z
1/2+x,1/2+y,z
1/2-x,1/2-y,z
1/2-x,1/2+y,z
1/2+x,1/2-y,z
loop_
_atom_site_type_symbol
_atom_site_label
_atom_site_fract_x
_atom_site_fract_y
_atom_site_fract_z
Si Si1 0.948405 0.290303 0.210590
Si Si2 0.554074 0.287964 0.579106
Si Si3 0.695791 0.209379 0.729663
Si Si4 0.803585 0.288526 0.509299
Si Si5 0.803096 0.197435 0.952395
Si Si6 0.614267 0.796448 0.387719
Si Si7 0.053366 0.213638 0.802289
Si Si8 0.897352 0.213466 0.004860
O O1 0.951325 0.500000 0.227419
O O2 0.913916 0.216966 0.295158
O O3 0.927892 0.261561 0.100123
O O4 0.000000 0.219627 0.219316
O O5 0.500000 0.245043 0.569797
O O6 0.557758 0.500000 0.574448
O O7 0.582571 0.211200 0.487198
O O8 0.569743 0.229059 0.691138
O O9 0.750000 0.250000 0.725465
O O10 0.679549 0.274286 0.620305
O O11 0.680952 0.293680 0.834814
O O12 0.689281 0.000000 0.738788
O O13 0.807569 0.500000 0.513218
O O14 0.750000 0.250000 0.495464
O O15 0.837114 0.219447 0.422863
O O16 0.750000 0.250000 0.956731
O O17 0.801871 0.000000 0.988233
O O18 0.845169 0.283585 0.011815
O O19 0.623071 0.000000 0.361532
O O20 0.000000 0.262248 0.811554
O O21 0.055033 0.000000 0.801558
O O22 0.080455 0.276215 0.899891
O O23 0.896315 0.000000 0.000242
#
# Coordination Sequence:
#
# PCOD9348861 Si02
#       8
#     8   8   8   8   8   8   8   8
#     4  10  22  40  60  81 107 142 182 225 276 331
#     4   9  18  32  52  80 110 140 177 219 267 327
#     4   9  16  28  47  72 104 142 180 218 261 310
#     4   9  19  34  52  77 109 145 184 223 266 318
#     4  10  20  33  51  78 110 145 184 222 268 322
#     4  10  21  37  56  79 109 145 183 221 272 330
#     4   8  15  30  51  76 107 138 168 212 272 327
#     4  10  21  36  57  82 106 140 186 229 272 323
#
# _framework density 21.713595000000002
#
# number of rings (size 3 to 8) (size 9 to 14) (size 15 to 20)
#    0.000    2.625    0.000    3.000    1.750    4.000 
#    0.000    1.250    0.000    3.750    0.000    0.000 
#    0.000    0.000    0.000    0.000    0.000    0.000 
#
# Total GULP energy -178520.465668 kJ/mol
# GULP energy per Si atom -5578.764552 kJ/mol
# Density = 2.166417 g / cm^3
# Si number density = 21.713595 Si / 1000 Ang^3
#
#
#
# Elastic Constant Matrix: (Units=GPa)
#
#
# Indices 1 2 3 4 5 6 
#
# 1 108.8002 -8.9476 36.7400 0.0000 0.0000 0.0000
# 2 -8.9476 40.4411 -21.7111 0.0000 0.0000 0.0000
# 3 36.7400 -21.7111 59.3499 0.0000 0.0000 0.0000
# 4 0.0000 0.0000 0.0000 -0.9195 0.0000 0.0000
# 5 0.0000 0.0000 0.0000 0.0000 38.5407 0.0000
# 6 0.0000 0.0000 0.0000 0.0000 0.0000 5.0694
#
#
#
# Elastic Compliance Matrix: (Units=1/GPa)
#
#
# Indices 1 2 3 4 5 6 
#
# 1 0.011705 -0.001618 -0.007838 0.000000 0.000000 0.000000
# 2 -0.001618 0.030994 0.012340 0.000000 0.000000 0.000000
# 3 -0.007838 0.012340 0.026215 0.000000 0.000000 0.000000
# 4 0.000000 0.000000 0.000000 -1.087583 0.000000 0.000000
# 5 0.000000 0.000000 0.000000 0.000000 0.025947 0.000000
# 6 0.000000 0.000000 0.000000 0.000000 0.000000 0.197262
#
#
# Mechanical properties :
#
#
# Convention : Reuss Voigt Hill
#
# Bulk Modulus (GPa) = 13.39012 24.52821 18.95917
# Shear Modulus (GPa) = -6.44052 22.03879 7.79914
#
# Velocity S-wave (km/s) = -1.72411 3.18933 1.89727
# Velocity P-wave (km/s) = 1.48885 4.98830 3.68102
#
# Compressibility (1/GPa) = 0.07468192
#
# Stress axis : x y z
#
# Youngs Moduli (GPa) = 85.43564 32.26435 38.14598
#
# Poissons Ratio (x) = 0.05220 0.29897
# Poissons Ratio (y) = 0.13824 -0.47071
# Poissons Ratio (z) = 0.66961 -0.39813
#
# Static dielectric constant tensor:
#      x y z
#    x 1.817660 0.000000 0.000000 
#    y 0.000000 1.866680 0.000000 
#    z 0.000000 0.000000 1.775920 
# 
# From -- ./inp_files/14547.got.cif
#   From: 2010.05.17/outbox.cif.g08.bks.cpg/sg35_8_cif.got.tgz:14547.got - 2010.06.03 17:29:28.
