data_PCOD9348879
_publ_section_title
;
Structure prediction by ZEFSAII (Michael W. Deem and Ramdas Pophale) SiO2 
 PCOD9348879
Probable space group: C M M 2
;
_chemical_formula_sum "Si O2"
_cell_formula_units_Z 48
_cell_length_a 18.610537
_cell_length_b 8.008552
_cell_length_c 17.718538
_cell_angle_alpha 90.000000
_cell_angle_beta 90.000000
_cell_angle_gamma 90.000000
_cell_volume 2640.832091
_symmetry_space_group_name_H-M "C M M 2"
_symmetry_group_IT_number 35
_symmetry_cell_setting 'orthorhombic'
loop_
_space_group_symop_operation_xyz
x,y,z
-x,-y,z
-x,y,z
x,-y,z
1/2+x,1/2+y,z
1/2-x,1/2-y,z
1/2-x,1/2+y,z
1/2+x,1/2-y,z
loop_
_atom_site_type_symbol
_atom_site_label
_atom_site_fract_x
_atom_site_fract_y
_atom_site_fract_z
Si Si1 0.167134 0.702135 0.694620
Si Si2 0.587189 0.500000 0.269945
Si Si3 0.913393 0.304886 0.375650
Si Si4 0.580137 0.197638 0.837890
Si Si5 0.413698 0.500000 0.094801
Si Si6 0.832697 0.299513 0.526806
Si Si7 0.171034 0.814193 0.976223
O O1 0.163449 0.500000 0.694151
O O2 0.250000 0.750000 0.707091
O O3 0.118625 0.766751 0.763053
O O4 0.146098 0.762317 0.610481
O O5 0.500000 0.500000 0.271400
O O6 0.610057 0.331186 0.313445
O O7 0.607539 0.500000 0.182168
O O8 0.892546 0.500000 0.360788
O O9 0.881016 0.249140 0.456080
O O10 0.000000 0.302166 0.379516
O O11 0.500000 0.267749 0.849731
O O12 0.629044 0.218059 0.911552
O O13 0.573423 0.000000 0.825393
O O14 0.500000 0.500000 0.087925
O O15 0.378742 0.656026 0.049628
O O16 0.836599 0.500000 0.529354
O O17 0.750000 0.250000 0.514169
O O18 0.250000 0.750000 0.995149
O O19 0.181431 0.000000 0.943680
#
# Coordination Sequence:
#
# PCOD9348879 Si02
#       7
#     8   4   8   8   4   8   8
#     4   9  18  32  48  70 102 142 185 226 275 327
#     4   9  18  36  60  83 111 146 179 227 281 334
#     4   9  18  33  55  81 108 142 187 228 273 335
#     4  10  20  33  52  80 111 143 188 235 278 330
#     4   9  20  38  62  83 108 148 185 223 284 344
#     4   9  18  31  49  72 103 143 182 225 276 330
#     4  10  21  36  59  79 110 145 182 224 278 340
#
# _framework density 18.176089000000001
#
# number of rings (size 3 to 8) (size 9 to 14) (size 15 to 20)
#    0.500    2.167    0.000    1.500    1.167    2.667 
#    0.000    5.833    0.000    4.000    0.000    0.000 
#    0.000    0.000    0.000    0.000    0.000    0.000 
#
# Total GULP energy -133610.438836 kJ/mol
# GULP energy per Si atom -5567.101618 kJ/mol
# Density = 1.813472 g / cm^3
# Si number density = 18.176089 Si / 1000 Ang^3
#
#
#
# Elastic Constant Matrix: (Units=GPa)
#
#
# Indices 1 2 3 4 5 6 
#
# 1 84.1901 20.5686 72.0904 0.0000 0.0000 0.0000
# 2 20.5686 39.5444 39.1122 0.0000 0.0000 0.0000
# 3 72.0904 39.1122 166.2805 0.0000 0.0000 0.0000
# 4 0.0000 0.0000 0.0000 7.1261 0.0000 0.0000
# 5 0.0000 0.0000 0.0000 0.0000 28.4676 0.0000
# 6 0.0000 0.0000 0.0000 0.0000 0.0000 17.9410
#
#
#
# Elastic Compliance Matrix: (Units=1/GPa)
#
#
# Indices 1 2 3 4 5 6 
#
# 1 0.019046 -0.002267 -0.007724 0.000000 0.000000 0.000000
# 2 -0.002267 0.033225 -0.006832 0.000000 0.000000 0.000000
# 3 -0.007724 -0.006832 0.010970 0.000000 0.000000 0.000000
# 4 0.000000 0.000000 0.000000 0.140329 0.000000 0.000000
# 5 0.000000 0.000000 0.000000 0.000000 0.035128 0.000000
# 6 0.000000 0.000000 0.000000 0.000000 0.000000 0.055738
#
#
# Mechanical properties :
#
#
# Convention : Reuss Voigt Hill
#
# Bulk Modulus (GPa) = 33.79081 61.50639 47.64860
# Shear Modulus (GPa) = 14.79528 21.25652 18.02590
#
# Velocity S-wave (km/s) = 2.85616 3.42347 3.15260
# Velocity P-wave (km/s) = 5.43213 7.03843 6.28679
#
# Compressibility (1/GPa) = 0.02959384
#
# Stress axis : x y z
#
# Youngs Moduli (GPa) = 52.50566 30.09814 91.16022
#
# Poissons Ratio (x) = 0.06823 0.70412
# Poissons Ratio (y) = 0.11902 0.62283
# Poissons Ratio (z) = 0.40555 0.20564
#
# Static dielectric constant tensor:
#      x y z
#    x 1.497860 0.000000 0.000000 
#    y 0.000000 1.668970 0.000000 
#    z 0.000000 0.000000 1.618030 
# 
# From -- ./inp_files/18799.got.cif
#   From: 2010.05.17/outbox.cif.g08.bks.cpg/sg35_10_cif.got.tgz:18799.got - 2010.06.03 17:29:28.
