data_PCOD9348039
_publ_section_title
;
Structure prediction by ZEFSAII (Michael W. Deem and Ramdas Pophale) SiO2 
 PCOD9348039
Probable space group: P N N 2
;
_chemical_formula_sum "Si O2"
_cell_formula_units_Z 20
_cell_length_a 5.287772
_cell_length_b 5.216617
_cell_length_c 30.232210
_cell_angle_alpha 90.000000
_cell_angle_beta 90.000000
_cell_angle_gamma 90.000000
_cell_volume 833.933785
_symmetry_space_group_name_H-M "P N N 2"
_symmetry_group_IT_number 34
_symmetry_cell_setting 'orthorhombic'
loop_
_space_group_symop_operation_xyz
x,y,z
-x,-y,z
1/2-x,1/2+y,1/2+z
1/2+x,1/2-y,1/2+z
loop_
_atom_site_type_symbol
_atom_site_label
_atom_site_fract_x
_atom_site_fract_y
_atom_site_fract_z
Si Si1 0.845129 0.264489 0.470640
Si Si2 0.233931 0.340994 0.602808
Si Si3 0.643382 0.244741 0.376089
Si Si4 0.500000 0.500000 0.802224
Si Si5 0.000000 0.000000 0.679672
Si Si6 0.000000 0.500000 0.240253
Si Si7 0.500000 0.000000 0.534646
O O1 0.786574 0.334511 0.419778
O O2 0.000000 0.500000 0.488620
O O3 0.608136 0.213562 0.501962
O O4 0.000000 0.000000 0.470459
O O5 0.500000 0.500000 0.610179
O O6 0.109003 0.219973 0.647056
O O7 0.000000 0.500000 0.584619
O O8 0.298767 0.119631 0.568134
O O9 0.500000 0.500000 0.359445
O O10 0.788529 0.105026 0.336253
O O11 0.500000 0.000000 0.395932
O O12 0.477209 0.747359 0.770902
O O13 0.247073 0.968645 0.710546
#
# Coordination Sequence:
#
# PCOD9348039 Si02
#       7
#     4   4   4   2   2   2   2
#     4  12  29  49  78 117 169 222 281 343 406 494
#     4  12  29  53  87 117 168 218 277 351 426 512
#     4  12  26  50  79 115 165 220 275 338 414 487
#     4  12  30  52  77 128 156 220 267 352 410 504
#     4  12  30  58  77 128 154 222 267 354 432 504
#     4  12  31  52  92 118 172 210 282 350 421 518
#     4  12  31  50  74 130 158 222 288 340 419 488
#
# _framework density 23.982717999999998
#
# number of rings (size 3 to 8) (size 9 to 14) (size 15 to 20)
#    0.000    0.000    2.000    5.400   16.800    0.000 
#    0.000    0.000    0.000    0.000    0.000    0.000 
#    0.000    0.000    0.000    0.000    0.000    0.000 
#
# Total GULP energy -111794.416563 kJ/mol
# GULP energy per Si atom -5589.720828 kJ/mol
# Density = 2.392813 g / cm^3
# Si number density = 23.982718 Si / 1000 Ang^3
#
#
#
# Elastic Constant Matrix: (Units=GPa)
#
#
# Indices 1 2 3 4 5 6 
#
# 1 162.0762 73.6915 70.7410 0.0000 0.0000 0.0000
# 2 73.6915 171.4081 58.9752 0.0000 0.0000 0.0000
# 3 70.7410 58.9752 165.3429 0.0000 0.0000 0.0000
# 4 0.0000 0.0000 0.0000 896.7257 0.0000 0.0000
# 5 0.0000 0.0000 0.0000 0.0000 -7.5815 0.0000
# 6 0.0000 0.0000 0.0000 0.0000 0.0000 73.1462
#
#
#
# Elastic Compliance Matrix: (Units=1/GPa)
#
#
# Indices 1 2 3 4 5 6 
#
# 1 0.008606 -0.002773 -0.002693 0.000000 0.000000 0.000000
# 2 -0.002773 0.007544 -0.001504 0.000000 0.000000 0.000000
# 3 -0.002693 -0.001504 0.007737 0.000000 0.000000 0.000000
# 4 0.000000 0.000000 0.000000 0.001115 0.000000 0.000000
# 5 0.000000 0.000000 0.000000 0.000000 -0.131901 0.000000
# 6 0.000000 0.000000 0.000000 0.000000 0.000000 0.013671
#
#
# Mechanical properties :
#
#
# Convention : Reuss Voigt Hill
#
# Bulk Modulus (GPa) = 100.54487 100.62696 100.58592
# Shear Modulus (GPa) = -65.81459 212.15272 73.16906
#
# Velocity S-wave (km/s) = -5.24424 9.41556 5.52949
# Velocity P-wave (km/s) = 2.31202 12.65910 9.09940
#
# Compressibility (1/GPa) = 0.00994581
#
# Stress axis : x y z
#
# Youngs Moduli (GPa) = 116.19353 132.55674 129.25406
#
# Poissons Ratio (x) = 0.36764 0.34807
# Poissons Ratio (y) = 0.32226 0.19442
# Poissons Ratio (z) = 0.31290 0.19939
#
# Static dielectric constant tensor:
#      x y z
#    x 1.997380 0.000000 0.000000 
#    y 0.000000 0.827440 0.000000 
#    z 0.000000 0.000000 1.919690 
# 
# From -- ./inp_files/8528.got.cif
#   From: 2010.05.17/outbox.cif.g08.bks.cpg/sg34_5_cif.got.tgz:8528.got - 2010.06.03 17:23:11.
