data_PCOD9348629
_publ_section_title
;
Structure prediction by ZEFSAII (Michael W. Deem and Ramdas Pophale) SiO2 
 PCOD9348629
Probable space group: C M M 2
;
_chemical_formula_sum "Si O2"
_cell_formula_units_Z 64
_cell_length_a 29.350830
_cell_length_b 9.676531
_cell_length_c 12.015627
_cell_angle_alpha 90.000000
_cell_angle_beta 90.000000
_cell_angle_gamma 90.000000
_cell_volume 3412.608887
_symmetry_space_group_name_H-M "C M M 2"
_symmetry_group_IT_number 35
_symmetry_cell_setting 'orthorhombic'
loop_
_space_group_symop_operation_xyz
x,y,z
-x,-y,z
-x,y,z
x,-y,z
1/2+x,1/2+y,z
1/2-x,1/2-y,z
1/2-x,1/2+y,z
1/2+x,1/2-y,z
loop_
_atom_site_type_symbol
_atom_site_label
_atom_site_fract_x
_atom_site_fract_y
_atom_site_fract_z
Si Si1 0.795022 0.160669 0.153900
Si Si2 0.051131 0.237377 0.354146
Si Si3 0.151916 0.846073 0.383890
Si Si4 0.049017 0.337128 0.603717
Si Si5 0.626083 0.335050 0.977497
Si Si6 0.053080 0.656349 0.106568
Si Si7 0.133948 0.664818 0.751760
Si Si8 0.203378 0.663973 0.558648
O O1 0.750000 0.250000 0.150104
O O2 0.822557 0.182822 0.268218
O O3 0.782186 0.000000 0.150321
O O4 0.829388 0.188360 0.053190
O O5 0.097843 0.152616 0.361203
O O6 0.052398 0.318332 0.471060
O O7 0.055214 0.323713 0.240247
O O8 0.000000 0.171994 0.349552
O O9 0.168230 0.730652 0.470344
O O10 0.165314 0.000000 0.423629
O O11 0.047788 0.500000 0.625054
O O12 0.092227 0.286276 0.672351
O O13 0.000000 0.275897 0.638571
O O14 0.619900 0.500000 0.963703
O O15 0.632484 0.255406 0.861985
O O16 0.584066 0.267296 0.044445
O O17 0.067721 0.500000 0.078679
O O18 0.000000 0.671989 0.075153
O O19 0.128755 0.500000 0.775923
O O20 0.179721 0.679777 0.679087
O O21 0.209815 0.500000 0.537550
O O22 0.250000 0.750000 0.550629
#
# Coordination Sequence:
#
# PCOD9348629 Si02
#       8
#     8   8   8   8   8   8   8   8
#     4  10  23  42  61  87 118 154 197 247 304 359
#     4  10  19  34  60  95 130 160 193 238 297 360
#     4  11  22  39  62  92 129 162 198 243 298 364
#     4   9  17  33  58  87 121 156 191 239 295 352
#     4  11  24  42  61  85 120 160 204 254 307 358
#     4  10  21  37  61  93 125 160 203 247 296 362
#     4  10  22  40  61  88 118 155 205 252 300 357
#     4  11  24  42  64  92 123 158 202 251 308 365
#
# _framework density 18.753979999999999
#
# number of rings (size 3 to 8) (size 9 to 14) (size 15 to 20)
#    0.000    1.750    2.500    1.500    0.000    7.000 
#    0.000    5.000    0.000    0.000    0.000    0.000 
#    0.000    0.000    0.000    0.000    0.000    0.000 
#
# Total GULP energy -178479.016558 kJ/mol
# GULP energy per Si atom -5577.469267 kJ/mol
# Density = 1.871130 g / cm^3
# Si number density = 18.753980 Si / 1000 Ang^3
#
#
#
# Elastic Constant Matrix: (Units=GPa)
#
#
# Indices 1 2 3 4 5 6 
#
# 1 134.7169 75.5288 53.3489 0.0000 0.0000 0.0000
# 2 75.5288 95.3401 65.4104 0.0000 0.0000 0.0000
# 3 53.3489 65.4104 102.1425 0.0000 0.0000 0.0000
# 4 0.0000 0.0000 0.0000 -255.7494 0.0000 0.0000
# 5 0.0000 0.0000 0.0000 0.0000 5.8372 0.0000
# 6 0.0000 0.0000 0.0000 0.0000 0.0000 23.0412
#
#
#
# Elastic Compliance Matrix: (Units=1/GPa)
#
#
# Indices 1 2 3 4 5 6 
#
# 1 0.013362 -0.010340 -0.000357 0.000000 0.000000 0.000000
# 2 -0.010340 0.026710 -0.011704 0.000000 0.000000 0.000000
# 3 -0.000357 -0.011704 0.017472 0.000000 0.000000 0.000000
# 4 0.000000 0.000000 0.000000 -0.003910 0.000000 0.000000
# 5 0.000000 0.000000 0.000000 0.000000 0.171315 0.000000
# 6 0.000000 0.000000 0.000000 0.000000 0.000000 0.043400
#
#
# Mechanical properties :
#
#
# Convention : Reuss Voigt Hill
#
# Bulk Modulus (GPa) = 78.48703 80.08618 79.28661
# Shear Modulus (GPa) = 15.75309 -36.18010 -10.21350
#
# Velocity S-wave (km/s) = 2.90140 -4.39703 -2.33621
# Velocity P-wave (km/s) = 7.29149 4.12527 5.92384
#
# Compressibility (1/GPa) = 0.01274096
#
# Stress axis : x y z
#
# Youngs Moduli (GPa) = 74.84181 37.43908 57.23485
#
# Poissons Ratio (x) = 0.38712 0.02044
# Poissons Ratio (y) = 0.77387 0.66988
# Poissons Ratio (z) = 0.02673 0.43819
#
# Static dielectric constant tensor:
#      x y z
#    x 1.671880 0.000000 0.000000 
#    y 0.000000 1.641210 0.000000 
#    z 0.000000 0.000000 1.626120 
# 
# From -- ./inp_files/14557.got.cif
#   From: 2010.05.17/outbox.cif.g08.bks.cpg/sg35_8_cif.got.tgz:14557.got - 2010.06.03 17:29:28.
