data_PCOD9348938
_publ_section_title
;
Structure prediction by ZEFSAII (Michael W. Deem and Ramdas Pophale) SiO2 
 PCOD9348938
Probable space group: C M M 2
;
_chemical_formula_sum "Si O2"
_cell_formula_units_Z 40
_cell_length_a 14.967748
_cell_length_b 8.592051
_cell_length_c 17.250414
_cell_angle_alpha 90.000000
_cell_angle_beta 90.000000
_cell_angle_gamma 90.000000
_cell_volume 2218.466276
_symmetry_space_group_name_H-M "C M M 2"
_symmetry_group_IT_number 35
_symmetry_cell_setting 'orthorhombic'
loop_
_space_group_symop_operation_xyz
x,y,z
-x,-y,z
-x,y,z
x,-y,z
1/2+x,1/2+y,z
1/2-x,1/2-y,z
1/2-x,1/2+y,z
1/2+x,1/2-y,z
loop_
_atom_site_type_symbol
_atom_site_label
_atom_site_fract_x
_atom_site_fract_y
_atom_site_fract_z
Si Si1 0.000000 0.189568 0.524060
Si Si2 0.000000 0.688408 0.106357
Si Si3 0.650705 0.812494 0.988134
Si Si4 0.500000 0.687685 0.279756
Si Si5 0.000000 0.813536 0.701649
Si Si6 0.650011 0.813200 0.813547
Si Si7 0.149217 0.812041 0.402267
O O1 0.911394 0.236888 0.476207
O O2 0.000000 0.242266 0.612672
O O3 0.000000 0.000000 0.523561
O O4 0.000000 0.749514 0.193204
O O5 0.000000 0.500000 0.108438
O O6 0.085232 0.740304 0.055930
O O7 0.750000 0.750000 0.999220
O O8 0.620347 0.767577 0.901095
O O9 0.652551 0.000000 0.989339
O O10 0.500000 0.500000 0.278311
O O11 0.411636 0.735596 0.328308
O O12 0.914664 0.754110 0.748898
O O13 0.000000 0.000000 0.700873
O O14 0.750000 0.750000 0.803721
O O15 0.649712 0.000000 0.809396
O O16 0.250000 0.750000 0.402009
O O17 0.153285 0.000000 0.402523
#
# Coordination Sequence:
#
# PCOD9348938 Si02
#       7
#     4   4   8   4   4   8   8
#     4   8  18  36  54  75 105 136 167 206 252 307
#     4  10  20  34  52  75 104 134 166 209 256 298
#     4   9  19  35  53  73 100 136 175 214 255 301
#     4   9  20  36  52  74 104 134 165 202 249 306
#     4  11  21  34  54  80 109 140 174 215 265 313
#     4  10  20  36  55  76 105 141 181 221 262 309
#     4   9  18  36  58  76  99 133 168 204 250 302
#
# _framework density 18.030474000000002
#
# number of rings (size 3 to 8) (size 9 to 14) (size 15 to 20)
#    0.000    2.600    0.000    2.700    0.000    5.600 
#    0.000   10.500    0.000    0.000    0.000    0.000 
#    0.000    0.000    0.000    0.000    0.000    0.000 
#
# Total GULP energy -111553.685160 kJ/mol
# GULP energy per Si atom -5577.684258 kJ/mol
# Density = 1.798944 g / cm^3
# Si number density = 18.030474 Si / 1000 Ang^3
#
#
#
# Elastic Constant Matrix: (Units=GPa)
#
#
# Indices 1 2 3 4 5 6 
#
# 1 157.2951 29.0727 117.5826 0.0000 0.0000 0.0000
# 2 29.0727 21.8281 37.8302 0.0000 0.0000 0.0000
# 3 117.5826 37.8302 208.2664 0.0000 0.0000 0.0000
# 4 0.0000 0.0000 0.0000 26.8683 0.0000 0.0000
# 5 0.0000 0.0000 0.0000 0.0000 36.1909 0.0000
# 6 0.0000 0.0000 0.0000 0.0000 0.0000 33.9272
#
#
#
# Elastic Compliance Matrix: (Units=1/GPa)
#
#
# Indices 1 2 3 4 5 6 
#
# 1 0.011503 -0.005933 -0.005417 0.000000 0.000000 0.000000
# 2 -0.005933 0.069921 -0.009351 0.000000 0.000000 0.000000
# 3 -0.005417 -0.009351 0.009558 0.000000 0.000000 0.000000
# 4 0.000000 0.000000 0.000000 0.037219 0.000000 0.000000
# 5 0.000000 0.000000 0.000000 0.000000 0.027631 0.000000
# 6 0.000000 0.000000 0.000000 0.000000 0.000000 0.029475
#
#
# Mechanical properties :
#
#
# Convention : Reuss Voigt Hill
#
# Bulk Modulus (GPa) = 20.16919 84.04006 52.10463
# Shear Modulus (GPa) = 20.55617 32.92423 26.74020
#
# Velocity S-wave (km/s) = 3.38017 4.27785 3.85522
# Velocity P-wave (km/s) = 5.14242 8.43274 6.98411
#
# Compressibility (1/GPa) = 0.04958057
#
# Stress axis : x y z
#
# Youngs Moduli (GPa) = 86.93133 14.30186 104.62188
#
# Poissons Ratio (x) = 0.08486 0.56671
# Poissons Ratio (y) = 0.51580 0.97830
# Poissons Ratio (z) = 0.47089 0.13373
#
# Static dielectric constant tensor:
#      x y z
#    x 1.594080 0.000000 0.000000 
#    y 0.000000 1.616720 0.000000 
#    z 0.000000 0.000000 1.613570 
# 
# From -- ./inp_files/14843.got.cif
#   From: 2010.05.17/outbox.cif.g08.bks.cpg/sg35_8_cif.got.tgz:14843.got - 2010.06.03 17:29:28.
