data_PCOD9348734
_publ_section_title
;
Structure prediction by ZEFSAII (Michael W. Deem and Ramdas Pophale) SiO2 
 PCOD9348734
Probable space group: C M M 2
;
_chemical_formula_sum "Si O2"
_cell_formula_units_Z 64
_cell_length_a 17.364874
_cell_length_b 14.585140
_cell_length_c 14.501703
_cell_angle_alpha 90.000000
_cell_angle_beta 90.000000
_cell_angle_gamma 90.000000
_cell_volume 3672.833534
_symmetry_space_group_name_H-M "C M M 2"
_symmetry_group_IT_number 35
_symmetry_cell_setting 'orthorhombic'
loop_
_space_group_symop_operation_xyz
x,y,z
-x,-y,z
-x,y,z
x,-y,z
1/2+x,1/2+y,z
1/2-x,1/2-y,z
1/2-x,1/2+y,z
1/2+x,1/2-y,z
loop_
_atom_site_type_symbol
_atom_site_label
_atom_site_fract_x
_atom_site_fract_y
_atom_site_fract_z
Si Si1 0.715053 0.147687 0.868630
Si Si2 0.695534 0.109530 0.157918
Si Si3 0.409698 0.795421 0.009273
Si Si4 0.834178 0.101818 0.022252
Si Si5 0.590302 0.204579 0.520451
Si Si6 0.834178 0.101818 0.507472
Si Si7 0.804466 0.609530 0.371806
Si Si8 0.715053 0.147687 0.661094
O O1 0.750000 0.250000 0.863043
O O2 0.707885 0.111828 0.764862
O O3 0.634972 0.157914 0.923294
O O4 0.776060 0.098640 0.935020
O O5 0.631597 0.162762 0.099411
O O6 0.777658 0.125021 0.107968
O O7 0.696981 0.135695 0.264862
O O8 0.681136 0.000000 0.151553
O O9 0.500000 0.812335 0.007796
O O10 0.391423 0.686430 0.007999
O O11 0.867895 0.000000 0.035071
O O12 0.500000 0.187665 0.521928
O O13 0.608577 0.313570 0.521725
O O14 0.631597 0.162762 0.430314
O O15 0.634972 0.157914 0.606430
O O16 0.777658 0.125021 0.421756
O O17 0.776060 0.098640 0.594704
O O18 0.867895 0.000000 0.494653
O O19 0.818864 0.500000 0.378171
O O20 0.750000 0.250000 0.666681
#
# Coordination Sequence:
#
# PCOD9348734 Si02
#       8
#     8   8   8   8   8   8   8   8
#     4   8  15  30  50  68  89 122 163 202 234 267
#     4   9  18  34  55  73  90 120 163 207 245 281
#     4  10  20  31  46  73 105 131 155 190 241 297
#     4   9  18  32  50  72  96 126 166 202 232 278
#     4  10  20  31  46  73 105 131 155 190 241 297
#     4   9  18  32  50  72  96 126 166 202 232 278
#     4   9  18  34  55  73  90 120 163 207 245 281
#     4   8  15  30  50  68  89 122 163 202 234 267
#
# _framework density 17.425238
#
# number of rings (size 3 to 8) (size 9 to 14) (size 15 to 20)
#    0.000    3.000    0.000    2.250    0.000    4.500 
#    0.000    1.250    0.000    0.000    0.000   19.250 
#    0.000    0.000    0.000    0.000    0.000    0.000 
#
# Total GULP energy -178298.324432 kJ/mol
# GULP energy per Si atom -5571.822638 kJ/mol
# Density = 1.738558 g / cm^3
# Si number density = 17.425238 Si / 1000 Ang^3
#
#
#
# Elastic Constant Matrix: (Units=GPa)
#
#
# Indices 1 2 3 4 5 6 
#
# 1 29.7269 -2.1129 13.8040 0.0000 0.0000 0.0000
# 2 -2.1129 37.7354 4.8304 0.0000 0.0000 0.0000
# 3 13.8040 4.8304 133.9634 0.0000 0.0000 0.0000
# 4 0.0000 0.0000 0.0000 49.6839 0.0000 0.0000
# 5 0.0000 0.0000 0.0000 0.0000 6.5250 0.0000
# 6 0.0000 0.0000 0.0000 0.0000 0.0000 11.6158
#
#
#
# Elastic Compliance Matrix: (Units=1/GPa)
#
#
# Indices 1 2 3 4 5 6 
#
# 1 0.035558 0.002471 -0.003753 0.000000 0.000000 0.000000
# 2 0.002471 0.026795 -0.001221 0.000000 0.000000 0.000000
# 3 -0.003753 -0.001221 0.007895 0.000000 0.000000 0.000000
# 4 0.000000 0.000000 0.000000 0.020127 0.000000 0.000000
# 5 0.000000 0.000000 0.000000 0.000000 0.153257 0.000000
# 6 0.000000 0.000000 0.000000 0.000000 0.000000 0.086090
#
#
# Mechanical properties :
#
#
# Convention : Reuss Voigt Hill
#
# Bulk Modulus (GPa) = 15.32722 26.05208 20.68965
# Shear Modulus (GPa) = 14.02621 25.89189 19.95905
#
# Velocity S-wave (km/s) = 2.84022 3.85890 3.38806
# Velocity P-wave (km/s) = 4.42390 5.90238 5.21579
#
# Compressibility (1/GPa) = 0.06524339
#
# Stress axis : x y z
#
# Youngs Moduli (GPa) = 28.12306 37.32047 126.65484
#
# Poissons Ratio (x) = -0.09223 0.47535
# Poissons Ratio (y) = -0.06950 0.15462
# Poissons Ratio (z) = 0.10555 0.04556
#
# Static dielectric constant tensor:
#      x y z
#    x 1.542060 0.000000 0.000000 
#    y 0.000000 1.641030 0.000000 
#    z 0.000000 0.000000 1.602710 
# 
# From -- ./inp_files/16893.got.cif
#   From: 2010.05.17/outbox.cif.g08.bks.cpg/sg35_9_cif.got.tgz:16893.got - 2010.06.03 17:29:28.
