data_PCOD9348928
_publ_section_title
;
Structure prediction by ZEFSAII (Michael W. Deem and Ramdas Pophale) SiO2 
 PCOD9348928
Probable space group: C M M 2
;
_chemical_formula_sum "Si O2"
_cell_formula_units_Z 64
_cell_length_a 7.886458
_cell_length_b 20.822329
_cell_length_c 20.661022
_cell_angle_alpha 90.000000
_cell_angle_beta 90.000000
_cell_angle_gamma 90.000000
_cell_volume 3392.837809
_symmetry_space_group_name_H-M "C M M 2"
_symmetry_group_IT_number 35
_symmetry_cell_setting 'orthorhombic'
loop_
_space_group_symop_operation_xyz
x,y,z
-x,-y,z
-x,y,z
x,-y,z
1/2+x,1/2+y,z
1/2-x,1/2-y,z
1/2-x,1/2+y,z
1/2+x,1/2-y,z
loop_
_atom_site_type_symbol
_atom_site_label
_atom_site_fract_x
_atom_site_fract_y
_atom_site_fract_z
Si Si1 0.204374 0.177358 0.847200
Si Si2 0.798433 0.427520 0.453001
Si Si3 0.795375 0.822639 0.699759
Si Si4 0.701591 0.677801 0.348000
Si Si5 0.795420 0.822522 0.201231
Si Si6 0.297398 0.427377 0.598352
Si Si7 0.207131 0.926654 0.950520
Si Si8 0.792905 0.926682 0.098040
O O1 0.250000 0.250000 0.866138
O O2 0.266098 0.166821 0.773508
O O3 0.267329 0.124774 0.898153
O O4 0.000000 0.172877 0.845759
O O5 0.733047 0.500000 0.438886
O O6 0.756084 0.376383 0.398091
O O7 0.733060 0.408299 0.523977
O O8 0.000000 0.431039 0.457664
O O9 0.750000 0.750000 0.680670
O O10 0.730457 0.875592 0.649415
O O11 0.000000 0.826557 0.701048
O O12 0.500000 0.675499 0.344178
O O13 0.750000 0.750000 0.368505
O O14 0.769084 0.667522 0.274771
O O15 0.750000 0.750000 0.181794
O O16 0.732723 0.875343 0.150487
O O17 0.000000 0.827095 0.202757
O O18 0.500000 0.430546 0.607593
O O19 0.229365 0.500000 0.607073
O O20 0.000000 0.925787 0.949933
O O21 0.258157 0.000000 0.935698
O O22 0.259246 0.911597 0.024287
O O23 0.000000 0.925837 0.098577
O O24 0.741692 0.000000 0.112875
#
# Coordination Sequence:
#
# PCOD9348928 Si02
#       8
#     8   8   8   8   8   8   8   8
#     4   9  17  29  45  67  94 122 154 191 232 277
#     4  10  21  36  53  74 100 128 158 195 239 287
#     4   9  18  31  47  68  94 123 154 191 233 277
#     4  10  20  34  52  73  98 128 162 200 241 286
#     4   9  18  31  48  70  95 123 155 193 234 277
#     4   9  18  33  51  70  93 122 157 196 236 278
#     4   8  14  25  43  67  93 121 155 195 233 269
#     4   8  14  26  44  67  94 122 155 194 232 271
#
# _framework density 18.863264999999998
#
# number of rings (size 3 to 8) (size 9 to 14) (size 15 to 20)
#    0.000    3.000    0.000    1.500    0.000    3.750 
#    0.000    5.000    0.000    0.750    0.000    5.250 
#    0.000    0.000    0.000    0.000    0.000    0.000 
#
# Total GULP energy -178405.683101 kJ/mol
# GULP energy per Si atom -5575.177597 kJ/mol
# Density = 1.882033 g / cm^3
# Si number density = 18.863265 Si / 1000 Ang^3
#
#
#
# Elastic Constant Matrix: (Units=GPa)
#
#
# Indices 1 2 3 4 5 6 
#
# 1 19.6387 3.8426 4.5244 0.0000 0.0000 0.0000
# 2 3.8426 164.3607 138.1136 0.0000 0.0000 0.0000
# 3 4.5244 138.1136 139.6932 0.0000 0.0000 0.0000
# 4 0.0000 0.0000 0.0000 45.3371 0.0000 0.0000
# 5 0.0000 0.0000 0.0000 0.0000 6.5965 0.0000
# 6 0.0000 0.0000 0.0000 0.0000 0.0000 22.2269
#
#
#
# Elastic Compliance Matrix: (Units=1/GPa)
#
#
# Indices 1 2 3 4 5 6 
#
# 1 0.051340 0.001164 -0.002814 0.000000 0.000000 0.000000
# 2 0.001164 0.035986 -0.035617 0.000000 0.000000 0.000000
# 3 -0.002814 -0.035617 0.042464 0.000000 0.000000 0.000000
# 4 0.000000 0.000000 0.000000 0.022057 0.000000 0.000000
# 5 0.000000 0.000000 0.000000 0.000000 0.151595 0.000000
# 6 0.000000 0.000000 0.000000 0.000000 0.000000 0.044991
#
#
# Mechanical properties :
#
#
# Convention : Reuss Voigt Hill
#
# Bulk Modulus (GPa) = 18.09717 68.51709 43.30713
# Shear Modulus (GPa) = 11.32798 26.64623 18.98711
#
# Velocity S-wave (km/s) = 2.45323 3.76253 3.17608
# Velocity P-wave (km/s) = 4.19990 7.43488 6.03807
#
# Compressibility (1/GPa) = 0.05525726
#
# Stress axis : x y z
#
# Youngs Moduli (GPa) = 19.47782 27.78847 23.54944
#
# Poissons Ratio (x) = -0.03235 0.06627
# Poissons Ratio (y) = -0.02268 0.83876
# Poissons Ratio (z) = 0.05481 0.98974
#
# Static dielectric constant tensor:
#      x y z
#    x 1.687210 0.000000 0.000000 
#    y 0.000000 1.631260 0.000000 
#    z 0.000000 0.000000 1.652710 
# 
# From -- ./inp_files/18348.got.cif
#   From: 2010.05.17/outbox.cif.g08.bks.cpg/sg35_10_cif.got.tgz:18348.got - 2010.06.03 17:29:28.
