data_PCOD9348074
_publ_section_title
;
Structure prediction by ZEFSAII (Michael W. Deem and Ramdas Pophale) SiO2 
 PCOD9348074
Probable space group: C M M 2
;
_chemical_formula_sum "Si O2"
_cell_formula_units_Z 64
_cell_length_a 8.911754
_cell_length_b 14.886911
_cell_length_c 21.599728
_cell_angle_alpha 90.000000
_cell_angle_beta 90.000000
_cell_angle_gamma 90.000000
_cell_volume 2865.603269
_symmetry_space_group_name_H-M "C M M 2"
_symmetry_group_IT_number 35
_symmetry_cell_setting 'orthorhombic'
loop_
_space_group_symop_operation_xyz
x,y,z
-x,-y,z
-x,y,z
x,-y,z
1/2+x,1/2+y,z
1/2-x,1/2-y,z
1/2-x,1/2+y,z
1/2+x,1/2-y,z
loop_
_atom_site_type_symbol
_atom_site_label
_atom_site_fract_x
_atom_site_fract_y
_atom_site_fract_z
Si Si1 0.328151 0.889805 0.597660
Si Si2 0.828210 0.890177 0.724989
Si Si3 0.678798 0.848978 0.348983
Si Si4 0.819354 0.851585 0.224989
Si Si5 0.833589 0.894227 0.975601
Si Si6 0.671849 0.889805 0.852318
Si Si7 0.166411 0.105773 0.474377
Si Si8 0.321202 0.151022 0.100995
O O1 0.500000 0.860653 0.594055
O O2 0.254060 0.862077 0.662233
O O3 0.237724 0.857955 0.537436
O O4 0.327947 0.000000 0.597213
O O5 0.745938 0.862078 0.787745
O O6 0.000000 0.860224 0.724989
O O7 0.828302 0.000000 0.724989
O O8 0.500000 0.847680 0.341185
O O9 0.750000 0.750000 0.351148
O O10 0.756148 0.892898 0.288593
O O11 0.726957 0.887028 0.415082
O O12 0.750000 0.750000 0.224989
O O13 0.756148 0.892898 0.161384
O O14 0.000000 0.848839 0.224989
O O15 0.762277 0.857955 0.912542
O O16 0.000000 0.855724 0.988659
O O17 0.850834 0.000000 0.964729
O O18 0.726956 0.887028 0.034896
O O19 0.500000 0.860653 0.855923
O O20 0.672052 0.000000 0.852766
O O21 0.000000 0.144276 0.461319
O O22 0.149165 0.000000 0.485249
O O23 0.500000 0.152320 0.108793
O O24 0.250000 0.250000 0.098829
#
# Coordination Sequence:
#
# PCOD9348074 Si02
#       8
#     8   8   8   8   8   8   8   8
#     4   9  16  26  41  63  92 126 163 203 247 294
#     4   9  15  23  37  59  88 123 162 203 246 291
#     4  11  21  35  55  78 103 131 167 207 248 295
#     4  10  18  32  53  76 101 128 163 205 249 293
#     4  10  20  34  51  73 103 136 168 205 252 302
#     4   9  16  26  41  63  92 126 163 203 247 294
#     4  10  20  34  51  73 103 136 168 205 252 302
#     4  11  21  35  55  78 103 131 167 207 248 295
#
# _framework density 22.333866
#
# number of rings (size 3 to 8) (size 9 to 14) (size 15 to 20)
#    0.000    2.125    0.000    6.750    0.000    6.000 
#    0.000    0.625    0.000    3.750    0.000    0.875 
#    0.000    0.000    0.000    0.000    0.000    0.000 
#
# Total GULP energy -178761.542009 kJ/mol
# GULP energy per Si atom -5586.298188 kJ/mol
# Density = 2.228303 g / cm^3
# Si number density = 22.333866 Si / 1000 Ang^3
#
#
#
# Elastic Constant Matrix: (Units=GPa)
#
#
# Indices 1 2 3 4 5 6 
#
# 1 229.2822 10.8234 102.4211 0.0000 0.0000 0.0000
# 2 10.8234 43.3102 9.2081 0.0000 0.0000 0.0000
# 3 102.4211 9.2081 213.9909 0.0000 0.0000 0.0000
# 4 0.0000 0.0000 0.0000 1.5599 0.0000 0.0000
# 5 0.0000 0.0000 0.0000 0.0000 173.0785 0.0000
# 6 0.0000 0.0000 0.0000 0.0000 0.0000 10.5456
#
#
#
# Elastic Compliance Matrix: (Units=1/GPa)
#
#
# Indices 1 2 3 4 5 6 
#
# 1 0.005577 -0.000834 -0.002633 0.000000 0.000000 0.000000
# 2 -0.000834 0.023427 -0.000609 0.000000 0.000000 0.000000
# 3 -0.002633 -0.000609 0.005960 0.000000 0.000000 0.000000
# 4 0.000000 0.000000 0.000000 0.641048 0.000000 0.000000
# 5 0.000000 0.000000 0.000000 0.000000 0.005778 0.000000
# 6 0.000000 0.000000 0.000000 0.000000 0.000000 0.094826
#
#
# Mechanical properties :
#
#
# Convention : Reuss Voigt Hill
#
# Bulk Modulus (GPa) = 37.29758 81.27649 59.28703
# Shear Modulus (GPa) = 6.29957 61.31221 33.80589
#
# Velocity S-wave (km/s) = 1.68130 5.24520 3.89480
# Velocity P-wave (km/s) = 4.52827 8.55298 6.84320
#
# Compressibility (1/GPa) = 0.02681139
#
# Stress axis : x y z
#
# Youngs Moduli (GPa) = 179.30179 42.68562 167.79228
#
# Poissons Ratio (x) = 0.03559 0.44188
# Poissons Ratio (y) = 0.14951 0.10218
# Poissons Ratio (z) = 0.47219 0.02599
#
# Static dielectric constant tensor:
#      x y z
#    x 1.785150 0.000000 0.000000 
#    y 0.000000 1.929860 0.000000 
#    z 0.000000 0.000000 1.843180 
# 
# From -- ./inp_files/18357.got.cif
#   From: 2010.05.17/outbox.cif.g08.bks.cpg/sg35_10_cif.got.tgz:18357.got - 2010.06.03 17:29:28.
