data_PCOD9348606
_publ_section_title
;
Structure prediction by ZEFSAII (Michael W. Deem and Ramdas Pophale) SiO2 
 PCOD9348606
Probable space group: C M M 2
;
_chemical_formula_sum "Si O2"
_cell_formula_units_Z 48
_cell_length_a 8.449670
_cell_length_b 15.707752
_cell_length_c 18.176684
_cell_angle_alpha 90.000000
_cell_angle_beta 90.000000
_cell_angle_gamma 90.000000
_cell_volume 2412.506216
_symmetry_space_group_name_H-M "C M M 2"
_symmetry_group_IT_number 35
_symmetry_cell_setting 'orthorhombic'
loop_
_space_group_symop_operation_xyz
x,y,z
-x,-y,z
-x,y,z
x,-y,z
1/2+x,1/2+y,z
1/2-x,1/2-y,z
1/2-x,1/2+y,z
1/2+x,1/2-y,z
loop_
_atom_site_type_symbol
_atom_site_label
_atom_site_fract_x
_atom_site_fract_y
_atom_site_fract_z
Si Si1 0.678239 0.100237 0.078370
Si Si2 0.688417 0.652251 0.392572
Si Si3 0.811583 0.847749 0.764168
Si Si4 0.690738 0.846136 0.236569
Si Si5 0.810063 0.500000 0.492739
Si Si6 0.310063 0.000000 0.664001
Si Si7 0.309262 0.846136 0.920171
O O1 0.500000 0.139679 0.078370
O O2 0.751525 0.122545 0.157128
O O3 0.662213 0.000000 0.078370
O O4 0.751526 0.122545 0.999612
O O5 0.500000 0.656396 0.392445
O O6 0.750000 0.750000 0.402716
O O7 0.745685 0.616817 0.312925
O O8 0.747349 0.585195 0.452924
O O9 0.750000 0.750000 0.754024
O O10 0.752651 0.914805 0.703816
O O11 0.754315 0.883183 0.843815
O O12 0.000000 0.843604 0.764295
O O13 0.500000 0.853780 0.237467
O O14 0.750000 0.750000 0.240039
O O15 0.763927 0.500000 0.578370
O O16 0.000000 0.500000 0.487654
O O17 0.500000 0.000000 0.669086
O O18 0.500000 0.853780 0.919273
O O19 0.250000 0.750000 0.916701
#
# Coordination Sequence:
#
# PCOD9348606 Si02
#       7
#     8   8   8   8   4   4   8
#     4   9  19  32  49  79 112 153 201 247 298 352
#     4  11  23  41  65  94 128 165 208 253 306 366
#     4  11  23  41  65  94 128 165 208 253 306 366
#     4  10  19  34  57  81 113 155 202 250 300 355
#     4  11  25  45  69  96 125 160 201 249 310 373
#     4  11  25  45  69  96 125 160 201 249 310 373
#     4  10  19  34  57  81 113 155 202 250 300 355
#
# _framework density 19.896322999999999
#
# number of rings (size 3 to 8) (size 9 to 14) (size 15 to 20)
#    0.000    1.667    0.000    7.000    2.333    2.000 
#    0.000    2.500    0.000    4.000    0.000    0.000 
#    0.000    0.000    0.000    0.000    0.000    0.000 
#
# Total GULP energy -133844.554557 kJ/mol
# GULP energy per Si atom -5576.856440 kJ/mol
# Density = 1.985104 g / cm^3
# Si number density = 19.896323 Si / 1000 Ang^3
#
#
#
# Elastic Constant Matrix: (Units=GPa)
#
#
# Indices 1 2 3 4 5 6 
#
# 1 98.4269 29.4310 64.4886 0.0000 0.0000 0.0000
# 2 29.4310 85.8857 83.8950 0.0000 0.0000 0.0000
# 3 64.4886 83.8950 230.2149 0.0000 0.0000 0.0000
# 4 0.0000 0.0000 0.0000 45.0167 0.0000 0.0000
# 5 0.0000 0.0000 0.0000 0.0000 42.0950 0.0000
# 6 0.0000 0.0000 0.0000 0.0000 0.0000 26.4651
#
#
#
# Elastic Compliance Matrix: (Units=1/GPa)
#
#
# Indices 1 2 3 4 5 6 
#
# 1 0.012543 -0.001345 -0.003024 0.000000 0.000000 0.000000
# 2 -0.001345 0.018223 -0.006264 0.000000 0.000000 0.000000
# 3 -0.003024 -0.006264 0.007474 0.000000 0.000000 0.000000
# 4 0.000000 0.000000 0.000000 0.022214 0.000000 0.000000
# 5 0.000000 0.000000 0.000000 0.000000 0.023756 0.000000
# 6 0.000000 0.000000 0.000000 0.000000 0.000000 0.037786
#
#
# Mechanical properties :
#
#
# Convention : Reuss Voigt Hill
#
# Bulk Modulus (GPa) = 58.91105 85.57295 72.24200
# Shear Modulus (GPa) = 33.57545 38.49619 36.03582
#
# Velocity S-wave (km/s) = 4.11240 4.40345 4.26041
# Velocity P-wave (km/s) = 7.22651 8.30401 7.78393
#
# Compressibility (1/GPa) = 0.01697474
#
# Stress axis : x y z
#
# Youngs Moduli (GPa) = 79.72635 54.87499 133.80535
#
# Poissons Ratio (x) = 0.07379 0.40456
# Poissons Ratio (y) = 0.10721 0.83819
# Poissons Ratio (z) = 0.24105 0.34375
#
# Static dielectric constant tensor:
#      x y z
#    x 1.703000 0.000000 0.000000 
#    y 0.000000 1.671490 0.000000 
#    z 0.000000 0.000000 1.795370 
# 
# From -- ./inp_files/15216.got.cif
#   From: 2010.05.17/outbox.cif.g08.bks.cpg/sg35_8_cif.got.tgz:15216.got - 2010.06.03 17:29:28.
