data_PCOD9348125
_publ_section_title
;
Structure prediction by ZEFSAII (Michael W. Deem and Ramdas Pophale) SiO2 
 PCOD9348125
Probable space group: C M M 2
;
_chemical_formula_sum "Si O2"
_cell_formula_units_Z 64
_cell_length_a 15.432341
_cell_length_b 22.444125
_cell_length_c 9.132152
_cell_angle_alpha 90.000000
_cell_angle_beta 90.000000
_cell_angle_gamma 90.000000
_cell_volume 3163.061393
_symmetry_space_group_name_H-M "C M M 2"
_symmetry_group_IT_number 35
_symmetry_cell_setting 'orthorhombic'
loop_
_space_group_symop_operation_xyz
x,y,z
-x,-y,z
-x,y,z
x,-y,z
1/2+x,1/2+y,z
1/2-x,1/2-y,z
1/2-x,1/2+y,z
1/2+x,1/2-y,z
loop_
_atom_site_type_symbol
_atom_site_label
_atom_site_fract_x
_atom_site_fract_y
_atom_site_fract_z
Si Si1 0.646274 0.256937 0.005790
Si Si2 0.595870 0.828261 0.575498
Si Si3 0.901801 0.628218 0.907531
Si Si4 0.868768 0.194971 0.681775
Si Si5 0.601188 0.642818 0.218160
Si Si6 0.243517 0.182964 0.433675
Si Si7 0.406327 0.434568 0.735207
Si Si8 0.276302 0.432416 0.001186
O O1 0.750000 0.250000 0.024996
O O2 0.603851 0.293681 0.135738
O O3 0.604431 0.193103 0.981524
O O4 0.632180 0.292836 0.853862
O O5 0.500000 0.844143 0.528414
O O6 0.610718 0.859823 0.732902
O O7 0.596889 0.755869 0.606398
O O8 0.661780 0.844210 0.444613
O O9 0.000000 0.604145 0.927875
O O10 0.819270 0.593737 0.973237
O O11 0.775508 0.188507 0.607601
O O12 0.907494 0.129249 0.655215
O O13 0.500000 0.625681 0.241442
O O14 0.663373 0.650732 0.358821
O O15 0.659325 0.601688 0.111387
O O16 0.250000 0.250000 0.372963
O O17 0.500000 0.436018 0.814611
O O18 0.400228 0.500000 0.657710
O O19 0.327201 0.431648 0.846855
O O20 0.268218 0.500000 0.051804
#
# Coordination Sequence:
#
# PCOD9348125 Si02
#       8
#     8   8   8   8   8   8   8   8
#     4  11  18  34  61  90 121 155 193 243 305 365
#     4   9  18  33  59  90 120 156 193 239 305 369
#     4  10  20  36  62  95 122 150 196 250 302 363
#     4  10  18  33  57  84 119 157 196 241 297 363
#     4  12  25  39  57  85 122 161 203 250 301 356
#     4  10  22  37  54  83 119 161 194 246 300 364
#     4  10  19  31  52  83 115 151 200 251 296 347
#     4  11  23  39  59  82 117 162 202 249 302 353
#
# _framework density 20.233563
#
# number of rings (size 3 to 8) (size 9 to 14) (size 15 to 20)
#    0.000    1.625    2.500    4.125    0.000    4.500 
#    0.000    1.250    0.000    0.750    0.000    0.000 
#    0.000    0.000    0.000    0.000    0.000    0.000 
#
# Total GULP energy -178168.343966 kJ/mol
# GULP energy per Si atom -5567.760749 kJ/mol
# Density = 2.018751 g / cm^3
# Si number density = 20.233563 Si / 1000 Ang^3
#
#
#
# Elastic Constant Matrix: (Units=GPa)
#
#
# Indices 1 2 3 4 5 6 
#
# 1 187.5940 43.0832 42.7984 0.0000 0.0000 0.0000
# 2 43.0832 82.7593 9.9475 0.0000 0.0000 0.0000
# 3 42.7984 9.9475 51.7790 0.0000 0.0000 0.0000
# 4 0.0000 0.0000 0.0000 6.4847 0.0000 0.0000
# 5 0.0000 0.0000 0.0000 0.0000 20.7254 0.0000
# 6 0.0000 0.0000 0.0000 0.0000 0.0000 10.1533
#
#
#
# Elastic Compliance Matrix: (Units=1/GPa)
#
#
# Indices 1 2 3 4 5 6 
#
# 1 0.007289 -0.003143 -0.005421 0.000000 0.000000 0.000000
# 2 -0.003143 0.013724 -0.000039 0.000000 0.000000 0.000000
# 3 -0.005421 -0.000039 0.023801 0.000000 0.000000 0.000000
# 4 0.000000 0.000000 0.000000 0.154208 0.000000 0.000000
# 5 0.000000 0.000000 0.000000 0.000000 0.048250 0.000000
# 6 0.000000 0.000000 0.000000 0.000000 0.000000 0.098490
#
#
# Mechanical properties :
#
#
# Convention : Reuss Voigt Hill
#
# Bulk Modulus (GPa) = 36.22045 57.08784 46.65414
# Shear Modulus (GPa) = 13.43467 22.55957 17.99712
#
# Velocity S-wave (km/s) = 2.57957 3.34272 2.98563
# Velocity P-wave (km/s) = 5.17806 6.57070 5.91550
#
# Compressibility (1/GPa) = 0.02760872
#
# Stress axis : x y z
#
# Youngs Moduli (GPa) = 137.18702 72.86443 42.01468
#
# Poissons Ratio (x) = 0.22902 0.22777
# Poissons Ratio (y) = 0.43119 0.00162
# Poissons Ratio (z) = 0.74372 0.00282
#
# Static dielectric constant tensor:
#      x y z
#    x 1.869650 0.000000 0.000000 
#    y 0.000000 1.742600 0.000000 
#    z 0.000000 0.000000 1.747940 
# 
# From -- ./inp_files/7869.got.cif
#   From: 2010.05.17/outbox.cif.g08.bks.cpg/sg35_4_cif.got.tgz:7869.got - 2010.06.03 17:29:28.
