data_PCOD9348683
_publ_section_title
;
Structure prediction by ZEFSAII (Michael W. Deem and Ramdas Pophale) SiO2 
 PCOD9348683
Probable space group: C M M 2
;
_chemical_formula_sum "Si O2"
_cell_formula_units_Z 64
_cell_length_a 31.852582
_cell_length_b 8.494649
_cell_length_c 12.238519
_cell_angle_alpha 90.000000
_cell_angle_beta 90.000000
_cell_angle_gamma 90.000000
_cell_volume 3311.455683
_symmetry_space_group_name_H-M "C M M 2"
_symmetry_group_IT_number 35
_symmetry_cell_setting 'orthorhombic'
loop_
_space_group_symop_operation_xyz
x,y,z
-x,-y,z
-x,y,z
x,-y,z
1/2+x,1/2+y,z
1/2-x,1/2-y,z
1/2-x,1/2+y,z
1/2+x,1/2-y,z
loop_
_atom_site_type_symbol
_atom_site_label
_atom_site_fract_x
_atom_site_fract_y
_atom_site_fract_z
Si Si1 0.794783 0.312036 0.197630
Si Si2 0.078835 0.191263 0.432311
Si Si3 0.176781 0.809803 0.429889
Si Si4 0.047257 0.190743 0.669228
Si Si5 0.625069 0.190203 0.057700
Si Si6 0.047019 0.809478 0.196069
Si Si7 0.125905 0.688708 0.806014
Si Si8 0.204966 0.811473 0.669410
O O1 0.794296 0.500000 0.194587
O O2 0.750000 0.250000 0.157895
O O3 0.801971 0.257734 0.322077
O O4 0.834098 0.254823 0.125346
O O5 0.127726 0.237263 0.431487
O O6 0.057161 0.242145 0.544658
O O7 0.057045 0.242882 0.320318
O O8 0.077585 0.000000 0.432622
O O9 0.197426 0.758563 0.543807
O O10 0.178573 0.000000 0.424486
O O11 0.083610 0.254226 0.746893
O O12 0.000000 0.238552 0.700001
O O13 0.049081 0.000000 0.671132
O O14 0.583193 0.247994 0.117322
O O15 0.625186 0.000000 0.059414
O O16 0.626701 0.241909 0.931999
O O17 0.000000 0.759865 0.164896
O O18 0.048315 0.000000 0.195203
O O19 0.127092 0.500000 0.803799
O O20 0.166226 0.752218 0.741304
O O21 0.250000 0.750000 0.707906
O O22 0.204785 0.000000 0.670304
#
# Coordination Sequence:
#
# PCOD9348683 Si02
#       8
#     8   8   8   8   8   8   8   8
#     4  11  23  39  60  86 116 149 191 236 288 345
#     4   9  16  32  58  88 120 151 184 229 288 347
#     4  10  19  35  61  89 119 153 187 228 286 346
#     4  10  20  37  62  90 120 154 193 239 292 349
#     4  10  24  43  59  80 113 155 197 241 291 340
#     4  10  20  35  60  91 118 149 191 236 284 342
#     4  11  24  42  61  82 115 156 201 247 292 341
#     4  11  23  40  62  90 121 153 192 236 290 349
#
# _framework density 19.326847000000001
#
# number of rings (size 3 to 8) (size 9 to 14) (size 15 to 20)
#    0.000    1.750    2.500    1.875    0.000    6.500 
#    0.000    4.375    0.000    1.500    0.000    0.000 
#    0.000    0.000    0.000    0.000    0.000    0.000 
#
# Total GULP energy -178798.161478 kJ/mol
# GULP energy per Si atom -5587.442546 kJ/mol
# Density = 1.928286 g / cm^3
# Si number density = 19.326847 Si / 1000 Ang^3
#
#
#
# Elastic Constant Matrix: (Units=GPa)
#
#
# Indices 1 2 3 4 5 6 
#
# 1 201.3475 31.3148 91.9266 0.0000 0.0000 0.0000
# 2 31.3148 20.5869 26.6891 0.0000 0.0000 0.0000
# 3 91.9266 26.6891 155.7200 0.0000 0.0000 0.0000
# 4 0.0000 0.0000 0.0000 18.7849 0.0000 0.0000
# 5 0.0000 0.0000 0.0000 0.0000 -3.1629 0.0000
# 6 0.0000 0.0000 0.0000 0.0000 0.0000 30.8098
#
#
#
# Elastic Compliance Matrix: (Units=1/GPa)
#
#
# Indices 1 2 3 4 5 6 
#
# 1 0.007578 -0.007363 -0.003211 0.000000 0.000000 0.000000
# 2 -0.007363 0.069606 -0.007583 0.000000 0.000000 0.000000
# 3 -0.003211 -0.007583 0.009617 0.000000 0.000000 0.000000
# 4 0.000000 0.000000 0.000000 0.053234 0.000000 0.000000
# 5 0.000000 0.000000 0.000000 0.000000 -0.316169 0.000000
# 6 0.000000 0.000000 0.000000 0.000000 0.000000 0.032457
#
#
# Mechanical properties :
#
#
# Convention : Reuss Voigt Hill
#
# Bulk Modulus (GPa) = 19.80783 75.27947 47.54365
# Shear Modulus (GPa) = -55.22838 24.46798 -15.38020
#
# Velocity S-wave (km/s) = -5.35145 3.56196 -2.82404
# Velocity P-wave (km/s) = 5.28327 7.48011 3.74427
#
# Compressibility (1/GPa) = 0.05048508
#
# Stress axis : x y z
#
# Youngs Moduli (GPa) = 131.96147 14.36668 103.97954
#
# Poissons Ratio (x) = 0.10579 0.33393
# Poissons Ratio (y) = 0.97169 0.78847
# Poissons Ratio (z) = 0.42379 0.10894
#
# Static dielectric constant tensor:
#      x y z
#    x 1.659500 0.000000 0.000000 
#    y 0.000000 1.668370 0.000000 
#    z 0.000000 0.000000 1.656520 
# 
# From -- ./inp_files/11932.got.cif
#   From: 2010.05.17/outbox.cif.g08.bks.cpg/sg35_6_cif.got.tgz:11932.got - 2010.06.03 17:29:28.
