data_PCOD9348358
_publ_section_title
;
Structure prediction by ZEFSAII (Michael W. Deem and Ramdas Pophale) SiO2 
 PCOD9348358
Probable space group: C M M 2
;
_chemical_formula_sum "Si O2"
_cell_formula_units_Z 64
_cell_length_a 8.338024
_cell_length_b 34.623588
_cell_length_c 11.251230
_cell_angle_alpha 90.000000
_cell_angle_beta 90.000000
_cell_angle_gamma 90.000000
_cell_volume 3248.143553
_symmetry_space_group_name_H-M "C M M 2"
_symmetry_group_IT_number 35
_symmetry_cell_setting 'orthorhombic'
loop_
_space_group_symop_operation_xyz
x,y,z
-x,-y,z
-x,y,z
x,-y,z
1/2+x,1/2+y,z
1/2-x,1/2-y,z
1/2-x,1/2+y,z
1/2+x,1/2-y,z
loop_
_atom_site_type_symbol
_atom_site_label
_atom_site_fract_x
_atom_site_fract_y
_atom_site_fract_z
Si Si1 0.305914 0.625436 0.595910
Si Si2 0.683639 0.207741 0.503126
Si Si3 0.686406 0.382200 0.859517
Si Si4 0.685982 0.365913 0.119741
Si Si5 0.688861 0.956880 0.954877
Si Si6 0.690679 0.543091 0.482215
Si Si7 0.183967 0.709329 0.217198
Si Si8 0.312756 0.939957 0.224222
O O1 0.500000 0.622778 0.596337
O O2 0.263938 0.666782 0.537570
O O3 0.244123 0.627898 0.731872
O O4 0.248634 0.584278 0.537928
O O5 0.500000 0.205588 0.542900
O O6 0.750000 0.250000 0.543845
O O7 0.688385 0.209163 0.359995
O O8 0.500000 0.370843 0.856901
O O9 0.706955 0.427867 0.878607
O O10 0.752563 0.366747 0.984990
O O11 0.500000 0.378902 0.117940
O O12 0.702309 0.323707 0.169660
O O13 0.783747 0.394443 0.204912
O O14 0.500000 0.945510 0.951509
O O15 0.703024 0.000000 0.910295
O O16 0.737426 0.955656 0.094296
O O17 0.500000 0.542652 0.503630
O O18 0.752747 0.500000 0.520791
O O19 0.721949 0.546085 0.340539
O O20 0.250000 0.750000 0.174406
O O21 0.000000 0.702718 0.180415
O O22 0.500000 0.948975 0.239931
#
# Coordination Sequence:
#
# PCOD9348358 Si02
#       8
#     8   8   8   8   8   8   8   8
#     4  10  21  38  57  77 107 145 184 227 270 313
#     4  10  21  37  59  86 112 139 175 218 266 321
#     4   9  20  36  53  74 100 135 178 219 259 308
#     4  10  19  33  53  77 105 136 172 215 263 315
#     4   9  18  32  50  73 101 133 170 216 268 316
#     4  10  21  35  52  77 109 145 183 223 270 323
#     4  10  20  34  54  82 112 138 166 205 256 315
#     4  10  19  32  51  75 104 137 173 216 268 323
#
# _framework density 19.703562000000002
#
# number of rings (size 3 to 8) (size 9 to 14) (size 15 to 20)
#    0.000    2.250    0.000    2.625    0.000    7.000 
#    0.000    1.875    0.000    0.000    0.000    0.000 
#    0.000    0.000    0.000    0.000    0.000    0.000 
#
# Total GULP energy -178255.680794 kJ/mol
# GULP energy per Si atom -5570.490025 kJ/mol
# Density = 1.965872 g / cm^3
# Si number density = 19.703562 Si / 1000 Ang^3
#
#
#
# Elastic Constant Matrix: (Units=GPa)
#
#
# Indices 1 2 3 4 5 6 
#
# 1 21.7413 10.7496 8.8978 0.0000 0.0000 0.0000
# 2 10.7496 127.6622 17.5524 0.0000 0.0000 0.0000
# 3 8.8978 17.5524 30.2622 0.0000 0.0000 0.0000
# 4 0.0000 0.0000 0.0000 -0.9358 0.0000 0.0000
# 5 0.0000 0.0000 0.0000 0.0000 9.5788 0.0000
# 6 0.0000 0.0000 0.0000 0.0000 0.0000 23.4805
#
#
#
# Elastic Compliance Matrix: (Units=1/GPa)
#
#
# Indices 1 2 3 4 5 6 
#
# 1 0.053024 -0.002522 -0.014127 0.000000 0.000000 0.000000
# 2 -0.002522 0.008632 -0.004265 0.000000 0.000000 0.000000
# 3 -0.014127 -0.004265 0.039672 0.000000 0.000000 0.000000
# 4 0.000000 0.000000 0.000000 -1.068587 0.000000 0.000000
# 5 0.000000 0.000000 0.000000 0.000000 0.104397 0.000000
# 6 0.000000 0.000000 0.000000 0.000000 0.000000 0.042589
#
#
# Mechanical properties :
#
#
# Convention : Reuss Voigt Hill
#
# Bulk Modulus (GPa) = 16.80706 28.22946 22.51826
# Shear Modulus (GPa) = -6.59100 15.92242 4.66571
#
# Velocity S-wave (km/s) = -1.83094 2.84579 1.54048
# Velocity P-wave (km/s) = 2.01958 5.01560 3.82328
#
# Compressibility (1/GPa) = 0.05949880
#
# Stress axis : x y z
#
# Youngs Moduli (GPa) = 18.85930 115.84844 25.20667
#
# Poissons Ratio (x) = 0.29222 0.35610
# Poissons Ratio (y) = 0.04757 0.10751
# Poissons Ratio (z) = 0.26643 0.49409
#
# Static dielectric constant tensor:
#      x y z
#    x 1.717930 0.000000 0.000000 
#    y 0.000000 1.730240 0.000000 
#    z 0.000000 0.000000 1.691230 
# 
# From -- ./inp_files/12010.got.cif
#   From: 2010.05.17/outbox.cif.g08.bks.cpg/sg35_7_cif.got.tgz:12010.got - 2010.06.03 17:29:28.
