data_PCOD9348491
_publ_section_title
;
Structure prediction by ZEFSAII (Michael W. Deem and Ramdas Pophale) SiO2 
 PCOD9348491
Probable space group: C M M 2
;
_chemical_formula_sum "Si O2"
_cell_formula_units_Z 56
_cell_length_a 8.619441
_cell_length_b 23.838266
_cell_length_c 15.969530
_cell_angle_alpha 90.000000
_cell_angle_beta 90.000000
_cell_angle_gamma 90.000000
_cell_volume 3281.299689
_symmetry_space_group_name_H-M "C M M 2"
_symmetry_group_IT_number 35
_symmetry_cell_setting 'orthorhombic'
loop_
_space_group_symop_operation_xyz
x,y,z
-x,-y,z
-x,y,z
x,-y,z
1/2+x,1/2+y,z
1/2-x,1/2-y,z
1/2-x,1/2+y,z
1/2+x,1/2-y,z
loop_
_atom_site_type_symbol
_atom_site_label
_atom_site_fract_x
_atom_site_fract_y
_atom_site_fract_z
Si Si1 0.187095 0.186149 0.409190
Si Si2 0.685195 0.500000 0.623786
Si Si3 0.186963 0.813896 0.040560
Si Si4 0.813294 0.500000 0.813308
Si Si5 0.685421 0.312681 0.722342
Si Si6 0.686401 0.686917 0.224939
Si Si7 0.186279 0.621235 0.881828
Si Si8 0.814690 0.617696 0.565549
O O1 0.250000 0.250000 0.418009
O O2 0.232561 0.163861 0.316065
O O3 0.254380 0.147262 0.481547
O O4 0.000000 0.187874 0.415127
O O5 0.500000 0.500000 0.621338
O O6 0.738840 0.500000 0.721040
O O7 0.750204 0.555364 0.579211
O O8 0.250000 0.750000 0.030886
O O9 0.233107 0.835846 0.133735
O O10 0.000000 0.811806 0.035135
O O11 0.252824 0.853485 0.968480
O O12 0.771842 0.443508 0.863278
O O13 0.000000 0.500000 0.801364
O O14 0.500000 0.312430 0.718225
O O15 0.750000 0.250000 0.720713
O O16 0.741416 0.342663 0.806765
O O17 0.753251 0.346287 0.643831
O O18 0.500000 0.688357 0.224881
O O19 0.750000 0.750000 0.225111
O O20 0.000000 0.626059 0.879016
O O21 0.000000 0.616924 0.566535
#
# Coordination Sequence:
#
# PCOD9348491 Si02
#       8
#     8   4   8   4   8   8   8   8
#     4  10  19  34  55  83 114 146 184 226 276 331
#     4  12  24  40  62  83 104 139 188 231 272 322
#     4  10  19  33  53  81 113 146 182 223 272 327
#     4  10  22  40  60  77 104 141 184 229 276 322
#     4  12  24  38  55  79 109 144 180 221 272 328
#     4   8  16  30  51  77 109 144 180 222 269 323
#     4  11  22  37  56  79 107 142 181 227 276 325
#     4  12  24  39  57  80 111 145 181 226 274 323
#
# _framework density 17.066409
#
# number of rings (size 3 to 8) (size 9 to 14) (size 15 to 20)
#    0.000    1.429    1.429    5.357    0.000    1.714 
#    0.000    0.000    0.000    0.857    0.000    5.000 
#    0.000    0.000    0.000    0.000    0.000    0.000 
#
# Total GULP energy -156324.616435 kJ/mol
# GULP energy per Si atom -5583.022016 kJ/mol
# Density = 1.702756 g / cm^3
# Si number density = 17.066409 Si / 1000 Ang^3
#
#
#
# Elastic Constant Matrix: (Units=GPa)
#
#
# Indices 1 2 3 4 5 6 
#
# 1 100.4563 56.7168 65.1229 0.0000 0.0000 0.0000
# 2 56.7168 136.8962 90.2131 0.0000 0.0000 0.0000
# 3 65.1229 90.2131 198.0705 0.0000 0.0000 0.0000
# 4 0.0000 0.0000 0.0000 -22.5383 0.0000 0.0000
# 5 0.0000 0.0000 0.0000 0.0000 -131.6097 0.0000
# 6 0.0000 0.0000 0.0000 0.0000 0.0000 56.4598
#
#
#
# Elastic Compliance Matrix: (Units=1/GPa)
#
#
# Indices 1 2 3 4 5 6 
#
# 1 0.014005 -0.003955 -0.002803 0.000000 0.000000 0.000000
# 2 -0.003955 0.011554 -0.003962 0.000000 0.000000 0.000000
# 3 -0.002803 -0.003962 0.007775 0.000000 0.000000 0.000000
# 4 0.000000 0.000000 0.000000 -0.044369 0.000000 0.000000
# 5 0.000000 0.000000 0.000000 0.000000 -0.007598 0.000000
# 6 0.000000 0.000000 0.000000 0.000000 0.000000 0.017712
#
#
# Mechanical properties :
#
#
# Convention : Reuss Voigt Hill
#
# Bulk Modulus (GPa) = 84.08066 95.50318 89.79192
# Shear Modulus (GPa) = 204.21307 -4.64630 99.78338
#
# Velocity S-wave (km/s) = 10.95069 -1.65178 7.65471
# Velocity P-wave (km/s) = 14.46596 7.24178 11.43913
#
# Compressibility (1/GPa) = 0.01189334
#
# Stress axis : x y z
#
# Youngs Moduli (GPa) = 71.40419 86.54689 128.61689
#
# Poissons Ratio (x) = 0.34229 0.36055
# Poissons Ratio (y) = 0.28240 0.50961
# Poissons Ratio (z) = 0.20017 0.34292
#
# Static dielectric constant tensor:
#      x y z
#    x 1.572310 0.000000 0.000000 
#    y 0.000000 1.544790 0.000000 
#    z 0.000000 0.000000 1.595340 
# 
# From -- ./inp_files/15672.got.cif
#   From: 2010.05.17/outbox.cif.g08.bks.cpg/sg35_8_cif.got.tgz:15672.got - 2010.06.03 17:29:28.
