data_PCOD9348817
_publ_section_title
;
Structure prediction by ZEFSAII (Michael W. Deem and Ramdas Pophale) SiO2 
 PCOD9348817
Probable space group: C M M 2
;
_chemical_formula_sum "Si O2"
_cell_formula_units_Z 64
_cell_length_a 28.869273
_cell_length_b 8.819013
_cell_length_c 15.840896
_cell_angle_alpha 90.000000
_cell_angle_beta 90.000000
_cell_angle_gamma 90.000000
_cell_volume 4033.068263
_symmetry_space_group_name_H-M "C M M 2"
_symmetry_group_IT_number 35
_symmetry_cell_setting 'orthorhombic'
loop_
_space_group_symop_operation_xyz
x,y,z
-x,-y,z
-x,y,z
x,-y,z
1/2+x,1/2+y,z
1/2-x,1/2-y,z
1/2-x,1/2+y,z
1/2+x,1/2-y,z
loop_
_atom_site_type_symbol
_atom_site_label
_atom_site_fract_x
_atom_site_fract_y
_atom_site_fract_z
Si Si1 0.054833 0.681279 0.076090
Si Si2 0.555309 0.179400 0.404458
Si Si3 0.298389 0.318737 0.312056
Si Si4 0.556209 0.325280 0.898151
Si Si5 0.397402 0.319032 0.239325
Si Si6 0.891576 0.180496 0.563364
Si Si7 0.299294 0.818579 0.498941
Si Si8 0.555253 0.180147 0.720705
O O1 0.059215 0.500000 0.076813
O O2 0.083252 0.753330 0.152420
O O3 0.000000 0.717643 0.087218
O O4 0.070162 0.746056 0.985402
O O5 0.500000 0.198940 0.406622
O O6 0.575517 0.243602 0.317376
O O7 0.578814 0.264097 0.482743
O O8 0.565586 0.000000 0.410883
O O9 0.293780 0.500000 0.323539
O O10 0.250000 0.250000 0.280180
O O11 0.342878 0.288911 0.254193
O O12 0.307120 0.243466 0.403602
O O13 0.500000 0.323880 0.898408
O O14 0.571336 0.500000 0.895651
O O15 0.570005 0.237928 0.813243
O O16 0.404311 0.500000 0.242134
O O17 0.841567 0.258477 0.554460
O O18 0.917572 0.234302 0.647371
O O19 0.886776 0.000000 0.561087
O O20 0.250000 0.750000 0.526257
O O21 0.297642 0.000000 0.497675
O O22 0.500000 0.209153 0.711650
O O23 0.562266 0.000000 0.713374
#
# Coordination Sequence:
#
# PCOD9348817 Si02
#       8
#     8   8   8   8   8   8   8   8
#     4  10  20  33  50  73 102 136 173 211 252 300
#     4  11  23  36  49  68  98 137 176 210 249 299
#     4  10  20  34  52  74  98 128 167 212 258 305
#     4   9  17  31  51  74 100 131 168 211 257 300
#     4  11  22  34  50  73 101 133 171 210 253 304
#     4  12  23  35  51  74 102 135 174 211 253 303
#     4  11  21  35  55  75  99 130 167 213 260 304
#     4  10  20  34  52  75 104 137 173 212 255 303
#
# _framework density 15.868811000000001
#
# number of rings (size 3 to 8) (size 9 to 14) (size 15 to 20)
#    0.000    1.500    1.250    6.000    0.000    8.500 
#    0.000    0.000    0.000    0.000    0.000    0.875 
#    0.000    2.000    0.000    0.000    0.000    0.000 
#
# Total GULP energy -178747.581982 kJ/mol
# GULP energy per Si atom -5585.861937 kJ/mol
# Density = 1.583269 g / cm^3
# Si number density = 15.868811 Si / 1000 Ang^3
#
#
#
# Elastic Constant Matrix: (Units=GPa)
#
#
# Indices 1 2 3 4 5 6 
#
# 1 83.0209 66.3091 54.2644 0.0000 0.0000 0.0000
# 2 66.3091 121.5687 57.8512 0.0000 0.0000 0.0000
# 3 54.2644 57.8512 119.6918 0.0000 0.0000 0.0000
# 4 0.0000 0.0000 0.0000 32.2204 0.0000 0.0000
# 5 0.0000 0.0000 0.0000 0.0000 3.3032 0.0000
# 6 0.0000 0.0000 0.0000 0.0000 0.0000 26.0849
#
#
#
# Elastic Compliance Matrix: (Units=1/GPa)
#
#
# Indices 1 2 3 4 5 6 
#
# 1 0.024238 -0.010378 -0.005973 0.000000 0.000000 0.000000
# 2 -0.010378 0.015127 -0.002606 0.000000 0.000000 0.000000
# 3 -0.005973 -0.002606 0.012322 0.000000 0.000000 0.000000
# 4 0.000000 0.000000 0.000000 0.031036 0.000000 0.000000
# 5 0.000000 0.000000 0.000000 0.000000 0.302733 0.000000
# 6 0.000000 0.000000 0.000000 0.000000 0.000000 0.038336
#
#
# Mechanical properties :
#
#
# Convention : Reuss Voigt Hill
#
# Bulk Modulus (GPa) = 72.60549 75.68119 74.14334
# Shear Modulus (GPa) = 10.72274 22.04549 16.38412
#
# Velocity S-wave (km/s) = 2.60227 3.73129 3.21670
# Velocity P-wave (km/s) = 7.40824 8.14608 7.78590
#
# Compressibility (1/GPa) = 0.01377306
#
# Stress axis : x y z
#
# Youngs Moduli (GPa) = 41.25704 66.10764 81.15450
#
# Poissons Ratio (x) = 0.68610 0.48470
# Poissons Ratio (y) = 0.42818 0.21149
# Poissons Ratio (z) = 0.24641 0.17228
#
# Static dielectric constant tensor:
#      x y z
#    x 1.526610 0.000000 0.000000 
#    y 0.000000 1.529910 0.000000 
#    z 0.000000 0.000000 1.502590 
# 
# From -- ./inp_files/17777.got.cif
#   From: 2010.05.17/outbox.cif.g08.bks.cpg/sg35_9_cif.got.tgz:17777.got - 2010.06.03 17:29:28.
