data_PCOD9348520
_publ_section_title
;
Structure prediction by ZEFSAII (Michael W. Deem and Ramdas Pophale) SiO2 
 PCOD9348520
Probable space group: C M M 2
;
_chemical_formula_sum "Si O2"
_cell_formula_units_Z 64
_cell_length_a 21.737543
_cell_length_b 26.318071
_cell_length_c 5.529406
_cell_angle_alpha 90.000000
_cell_angle_beta 90.000000
_cell_angle_gamma 90.000000
_cell_volume 3163.318985
_symmetry_space_group_name_H-M "C M M 2"
_symmetry_group_IT_number 35
_symmetry_cell_setting 'orthorhombic'
loop_
_space_group_symop_operation_xyz
x,y,z
-x,-y,z
-x,y,z
x,-y,z
1/2+x,1/2+y,z
1/2-x,1/2-y,z
1/2-x,1/2+y,z
1/2+x,1/2-y,z
loop_
_atom_site_type_symbol
_atom_site_label
_atom_site_fract_x
_atom_site_fract_y
_atom_site_fract_z
Si Si1 0.825777 0.249976 0.724270
Si Si2 0.070268 0.438507 0.206165
Si Si3 0.760604 0.390348 0.416650
Si Si4 0.189864 0.712378 0.220009
Si Si5 0.569389 0.556109 0.461306
Si Si6 0.860856 0.561334 0.711657
Si Si7 0.317906 0.554299 0.087834
Si Si8 0.853851 0.863806 0.710676
O O1 0.750000 0.250000 0.709972
O O2 0.845563 0.269093 0.460178
O O3 0.855046 0.194949 0.773871
O O4 0.840909 0.283208 0.958620
O O5 0.068712 0.500000 0.196443
O O6 0.108565 0.423311 0.966484
O O7 0.000000 0.420085 0.189612
O O8 0.098746 0.426552 0.469726
O O9 0.792919 0.345441 0.273530
O O10 0.798321 0.409335 0.647519
O O11 0.742240 0.438008 0.252295
O O12 0.695689 0.366696 0.495883
O O13 0.250000 0.750000 0.205293
O O14 0.500000 0.561508 0.367769
O O15 0.572555 0.500000 0.584678
O O16 0.621208 0.554096 0.255084
O O17 0.587041 0.603792 0.628867
O O18 0.851821 0.500000 0.716704
O O19 0.313993 0.500000 0.957662
O O20 0.324663 0.602679 0.921122
#
# Coordination Sequence:
#
# PCOD9348520 Si02
#       8
#     8   8   8   8   8   8   8   8
#     4  10  19  33  54  81 111 141 184 238 285 338
#     4   9  18  35  55  75 104 145 192 233 264 304
#     4  11  22  34  52  81 122 149 188 229 295 366
#     4  10  19  34  53  77 111 146 183 234 279 338
#     4   9  20  38  56  81 116 154 206 260 304 361
#     4  10  21  33  51  82 116 149 185 229 279 338
#     4  10  21  34  52  78 116 162 193 232 296 365
#     4  11  21  34  57  82 113 155 196 242 297 370
#
# _framework density 20.231914
#
# number of rings (size 3 to 8) (size 9 to 14) (size 15 to 20)
#    0.000    2.000    2.500    2.625    3.500    3.500 
#    0.000    1.250    0.000    0.000    0.000    5.250 
#    0.000    0.000    0.000    0.000    0.000    0.000 
#
# Total GULP energy -178396.864286 kJ/mol
# GULP energy per Si atom -5574.902009 kJ/mol
# Density = 2.018587 g / cm^3
# Si number density = 20.231914 Si / 1000 Ang^3
#
#
#
# Elastic Constant Matrix: (Units=GPa)
#
#
# Indices 1 2 3 4 5 6 
#
# 1 55.6333 28.6529 9.5490 0.0000 0.0000 0.0000
# 2 28.6529 64.9896 -0.1001 0.0000 0.0000 0.0000
# 3 9.5490 -0.1001 80.1948 0.0000 0.0000 0.0000
# 4 0.0000 0.0000 0.0000 43.5356 0.0000 0.0000
# 5 0.0000 0.0000 0.0000 0.0000 19.4864 0.0000
# 6 0.0000 0.0000 0.0000 0.0000 0.0000 3.3625
#
#
#
# Elastic Compliance Matrix: (Units=1/GPa)
#
#
# Indices 1 2 3 4 5 6 
#
# 1 0.023893 -0.010538 -0.002858 0.000000 0.000000 0.000000
# 2 -0.010538 0.020035 0.001280 0.000000 0.000000 0.000000
# 3 -0.002858 0.001280 0.012812 0.000000 0.000000 0.000000
# 4 0.000000 0.000000 0.000000 0.022970 0.000000 0.000000
# 5 0.000000 0.000000 0.000000 0.000000 0.051318 0.000000
# 6 0.000000 0.000000 0.000000 0.000000 0.000000 0.297400
#
#
# Mechanical properties :
#
#
# Convention : Reuss Voigt Hill
#
# Bulk Modulus (GPa) = 30.76321 30.78014 30.77168
# Shear Modulus (GPa) = 10.78756 24.12463 17.45610
#
# Velocity S-wave (km/s) = 2.31161 3.45687 2.94053
# Velocity P-wave (km/s) = 4.72895 5.58390 5.17412
#
# Compressibility (1/GPa) = 0.03250636
#
# Stress axis : x y z
#
# Youngs Moduli (GPa) = 41.85310 49.91187 78.05454
#
# Poissons Ratio (x) = 0.52600 0.22309
# Poissons Ratio (y) = 0.44107 -0.09990
# Poissons Ratio (z) = 0.11962 -0.06388
#
# Static dielectric constant tensor:
#      x y z
#    x 1.730110 0.000000 0.000000 
#    y 0.000000 1.735860 0.000000 
#    z 0.000000 0.000000 1.787310 
# 
# From -- ./inp_files/3171.got.cif
#   From: 2010.05.17/outbox.cif.g08.bks.cpg/sg35_2_cif.got.tgz:3171.got - 2010.06.03 17:29:28.
