data_PCOD9348110
_publ_section_title
;
Structure prediction by ZEFSAII (Michael W. Deem and Ramdas Pophale) SiO2 
 PCOD9348110
Probable space group: C M M 2
;
_chemical_formula_sum "Si O2"
_cell_formula_units_Z 48
_cell_length_a 8.864008
_cell_length_b 31.583923
_cell_length_c 9.430175
_cell_angle_alpha 90.000000
_cell_angle_beta 90.000000
_cell_angle_gamma 90.000000
_cell_volume 2640.073171
_symmetry_space_group_name_H-M "C M M 2"
_symmetry_group_IT_number 35
_symmetry_cell_setting 'orthorhombic'
loop_
_space_group_symop_operation_xyz
x,y,z
-x,-y,z
-x,y,z
x,-y,z
1/2+x,1/2+y,z
1/2-x,1/2-y,z
1/2-x,1/2+y,z
1/2+x,1/2-y,z
loop_
_atom_site_type_symbol
_atom_site_label
_atom_site_fract_x
_atom_site_fract_y
_atom_site_fract_z
Si Si1 0.680672 0.407080 0.421730
Si Si2 0.824155 0.365455 0.155730
Si Si3 0.319778 0.796091 0.918453
Si Si4 0.177019 0.000000 0.756540
Si Si5 0.678555 0.000000 0.453873
Si Si6 0.330032 0.647162 0.695759
Si Si7 0.167065 0.919815 0.948265
O O1 0.500000 0.412500 0.428413
O O2 0.728912 0.375686 0.295202
O O3 0.752044 0.454349 0.404448
O O4 0.727567 0.382043 0.566175
O O5 0.000000 0.360804 0.190449
O O6 0.776972 0.326449 0.052851
O O7 0.792834 0.406536 0.058582
O O8 0.500000 0.794400 0.918073
O O9 0.250000 0.750000 0.937587
O O10 0.266060 0.815428 0.767000
O O11 0.282317 0.000000 0.621176
O O12 0.200630 0.960731 0.858197
O O13 0.000000 0.000000 0.708398
O O14 0.500000 0.000000 0.426812
O O15 0.500000 0.661942 0.658138
O O16 0.342375 0.615983 0.829196
O O17 0.000000 0.923654 0.016755
#
# Coordination Sequence:
#
# PCOD9348110 Si02
#       7
#     8   8   8   4   4   8   8
#     4  11  22  39  60  83 115 158 199 235 281 343
#     4  10  22  38  55  82 117 151 188 237 292 340
#     4  10  21  38  62  88 116 147 185 234 288 347
#     4  10  18  33  54  79 108 144 196 242 280 331
#     4  12  24  35  54  83 118 156 194 242 290 331
#     4   9  18  34  58  83 109 143 187 233 280 336
#     4   9  17  32  54  77 105 144 190 235 277 333
#
# _framework density 18.181312999999999
#
# number of rings (size 3 to 8) (size 9 to 14) (size 15 to 20)
#    0.000    2.000    1.667    2.250    0.000    4.667 
#    0.000    3.333    0.000    2.000    0.000    0.000 
#    0.000    0.000    0.000    0.000    0.000    0.000 
#
# Total GULP energy -133633.976028 kJ/mol
# GULP energy per Si atom -5568.082335 kJ/mol
# Density = 1.813993 g / cm^3
# Si number density = 18.181313 Si / 1000 Ang^3
#
#
#
# Elastic Constant Matrix: (Units=GPa)
#
#
# Indices 1 2 3 4 5 6 
#
# 1 52.9841 50.5312 33.3147 0.0000 0.0000 0.0000
# 2 50.5312 112.1982 33.1549 0.0000 0.0000 0.0000
# 3 33.3147 33.1549 73.1368 0.0000 0.0000 0.0000
# 4 0.0000 0.0000 0.0000 64.1172 0.0000 0.0000
# 5 0.0000 0.0000 0.0000 0.0000 27.8664 0.0000
# 6 0.0000 0.0000 0.0000 0.0000 0.0000 28.8955
#
#
#
# Elastic Compliance Matrix: (Units=1/GPa)
#
#
# Indices 1 2 3 4 5 6 
#
# 1 0.040175 -0.014648 -0.011660 0.000000 0.000000 0.000000
# 2 -0.014648 0.015632 -0.000414 0.000000 0.000000 0.000000
# 3 -0.011660 -0.000414 0.019172 0.000000 0.000000 0.000000
# 4 0.000000 0.000000 0.000000 0.015596 0.000000 0.000000
# 5 0.000000 0.000000 0.000000 0.000000 0.035886 0.000000
# 6 0.000000 0.000000 0.000000 0.000000 0.000000 0.034607
#
#
# Mechanical properties :
#
#
# Convention : Reuss Voigt Hill
#
# Bulk Modulus (GPa) = 46.43605 52.48008 49.45806
# Shear Modulus (GPa) = 22.55389 32.26370 27.40880
#
# Velocity S-wave (km/s) = 3.52589 4.21711 3.88690
# Velocity P-wave (km/s) = 6.49399 7.25531 6.88518
#
# Compressibility (1/GPa) = 0.02153499
#
# Stress axis : x y z
#
# Youngs Moduli (GPa) = 24.89111 63.96980 52.15967
#
# Poissons Ratio (x) = 0.93705 0.60817
# Poissons Ratio (y) = 0.36461 0.02160
# Poissons Ratio (z) = 0.29022 0.02649
#
# Static dielectric constant tensor:
#      x y z
#    x 1.651180 0.000000 0.000000 
#    y 0.000000 1.577420 0.000000 
#    z 0.000000 0.000000 1.622830 
# 
# From -- ./inp_files/5368.got.cif
#   From: 2010.05.17/outbox.cif.g08.bks.cpg/sg35_3_cif.got.tgz:5368.got - 2010.06.03 17:29:28.
