data_PCOD9348456
_publ_section_title
;
Structure prediction by ZEFSAII (Michael W. Deem and Ramdas Pophale) SiO2 
 PCOD9348456
Probable space group: C M M 2
;
_chemical_formula_sum "Si O2"
_cell_formula_units_Z 64
_cell_length_a 14.718906
_cell_length_b 18.444194
_cell_length_c 10.894194
_cell_angle_alpha 90.000000
_cell_angle_beta 90.000000
_cell_angle_gamma 90.000000
_cell_volume 2957.537896
_symmetry_space_group_name_H-M "C M M 2"
_symmetry_group_IT_number 35
_symmetry_cell_setting 'orthorhombic'
loop_
_space_group_symop_operation_xyz
x,y,z
-x,-y,z
-x,y,z
x,-y,z
1/2+x,1/2+y,z
1/2-x,1/2-y,z
1/2-x,1/2+y,z
1/2+x,1/2-y,z
loop_
_atom_site_type_symbol
_atom_site_label
_atom_site_fract_x
_atom_site_fract_y
_atom_site_fract_z
Si Si1 0.296177 0.416736 0.857340
Si Si2 0.643230 0.081571 0.179610
Si Si3 0.146447 0.224477 0.760238
Si Si4 0.857838 0.919549 0.126838
Si Si5 0.785767 0.583919 0.443602
Si Si6 0.102887 0.841974 0.361094
Si Si7 0.899633 0.295521 0.513998
Si Si8 0.100626 0.349563 0.933753
O O1 0.294085 0.500000 0.819781
O O2 0.346043 0.361422 0.768557
O O3 0.191422 0.391260 0.884871
O O4 0.356372 0.409693 0.981781
O O5 0.750433 0.078112 0.153111
O O6 0.647203 0.095683 0.324846
O O7 0.606449 0.000000 0.156699
O O8 0.604776 0.138307 0.081383
O O9 0.250000 0.250000 0.751265
O O10 0.098016 0.249440 0.637974
O O11 0.109658 0.268277 0.879361
O O12 0.896107 0.857943 0.215253
O O13 0.894486 0.000000 0.158387
O O14 0.789748 0.500000 0.476995
O O15 0.682956 0.606805 0.411911
O O16 0.827255 0.641381 0.536319
O O17 0.125783 0.760535 0.405147
O O18 0.000000 0.856624 0.405038
O O19 0.000000 0.325021 0.490228
O O20 0.000000 0.376606 0.894085
#
# Coordination Sequence:
#
# PCOD9348456 Si02
#       8
#     8   8   8   8   8   8   8   8
#     4   9  19  37  61  86 113 152 197 238 291 355
#     4   8  16  31  52  82 119 155 187 225 281 347
#     4  10  21  39  60  81 112 154 196 241 292 347
#     4   8  15  31  54  83 120 153 185 230 282 342
#     4  10  21  39  63  88 118 156 196 242 296 354
#     4  10  20  35  60  91 121 155 193 238 295 353
#     4  11  24  42  61  82 114 156 202 250 295 346
#     4  10  19  32  56  88 120 152 187 236 295 350
#
# _framework density 21.639621999999999
#
# number of rings (size 3 to 8) (size 9 to 14) (size 15 to 20)
#    0.000    2.500    0.000    3.750    0.000    3.750 
#    0.000   14.375    0.000    9.000    0.000    0.000 
#    0.000    0.000    0.000    0.000    0.000    0.000 
#
# Total GULP energy -178293.044219 kJ/mol
# GULP energy per Si atom -5571.657632 kJ/mol
# Density = 2.159037 g / cm^3
# Si number density = 21.639622 Si / 1000 Ang^3
#
#
#
# Elastic Constant Matrix: (Units=GPa)
#
#
# Indices 1 2 3 4 5 6 
#
# 1 103.3585 52.2617 26.2632 0.0000 0.0000 0.0000
# 2 52.2617 142.3469 33.2968 0.0000 0.0000 0.0000
# 3 26.2632 33.2968 28.5743 0.0000 0.0000 0.0000
# 4 0.0000 0.0000 0.0000 25.7488 0.0000 0.0000
# 5 0.0000 0.0000 0.0000 0.0000 10.7195 0.0000
# 6 0.0000 0.0000 0.0000 0.0000 0.0000 268.4035
#
#
#
# Elastic Compliance Matrix: (Units=1/GPa)
#
#
# Indices 1 2 3 4 5 6 
#
# 1 0.013389 -0.002800 -0.009043 0.000000 0.000000 0.000000
# 2 -0.002800 0.010243 -0.009362 0.000000 0.000000 0.000000
# 3 -0.009043 -0.009362 0.054217 0.000000 0.000000 0.000000
# 4 0.000000 0.000000 0.000000 0.038837 0.000000 0.000000
# 5 0.000000 0.000000 0.000000 0.000000 0.093288 0.000000
# 6 0.000000 0.000000 0.000000 0.000000 0.000000 0.003726
#
#
# Mechanical properties :
#
#
# Convention : Reuss Voigt Hill
#
# Bulk Modulus (GPa) = 28.21774 55.32477 41.77125
# Shear Modulus (GPa) = 18.66208 71.80488 45.23348
#
# Velocity S-wave (km/s) = 2.93986 5.76664 4.57695
# Velocity P-wave (km/s) = 4.95901 8.36426 6.87578
#
# Compressibility (1/GPa) = 0.03543870
#
# Stress axis : x y z
#
# Youngs Moduli (GPa) = 74.68948 97.62604 18.44433
#
# Poissons Ratio (x) = 0.27339 0.16679
# Poissons Ratio (y) = 0.20916 0.17268
# Poissons Ratio (z) = 0.67539 0.91399
#
# Static dielectric constant tensor:
#      x y z
#    x 1.774520 0.000000 0.000000 
#    y 0.000000 1.787080 0.000000 
#    z 0.000000 0.000000 1.908220 
# 
# From -- ./inp_files/13185.got.cif
#   From: 2010.05.17/outbox.cif.g08.bks.cpg/sg35_7_cif.got.tgz:13185.got - 2010.06.03 17:29:28.
