data_PCOD9348526
_publ_section_title
;
Structure prediction by ZEFSAII (Michael W. Deem and Ramdas Pophale) SiO2 
 PCOD9348526
Probable space group: C M M 2
;
_chemical_formula_sum "Si O2"
_cell_formula_units_Z 64
_cell_length_a 8.678998
_cell_length_b 30.200039
_cell_length_c 12.575631
_cell_angle_alpha 90.000000
_cell_angle_beta 90.000000
_cell_angle_gamma 90.000000
_cell_volume 3296.149321
_symmetry_space_group_name_H-M "C M M 2"
_symmetry_group_IT_number 35
_symmetry_cell_setting 'orthorhombic'
loop_
_space_group_symop_operation_xyz
x,y,z
-x,-y,z
-x,y,z
x,-y,z
1/2+x,1/2+y,z
1/2-x,1/2-y,z
1/2-x,1/2+y,z
1/2+x,1/2-y,z
loop_
_atom_site_type_symbol
_atom_site_label
_atom_site_fract_x
_atom_site_fract_y
_atom_site_fract_z
Si Si1 0.686255 0.551558 0.340410
Si Si2 0.314851 0.703673 0.086939
Si Si3 0.317410 0.203455 0.616386
Si Si4 0.182911 0.609353 0.149243
Si Si5 0.182469 0.048139 0.726156
Si Si6 0.686280 0.612664 0.539332
Si Si7 0.820598 0.407437 0.906982
Si Si8 0.681001 0.683173 0.846228
O O1 0.500000 0.550632 0.340644
O O2 0.738138 0.500000 0.346132
O O3 0.743521 0.577414 0.236333
O O4 0.734468 0.582488 0.439711
O O5 0.500000 0.703257 0.090593
O O6 0.250000 0.750000 0.130405
O O7 0.252222 0.659151 0.142772
O O8 0.267138 0.701328 0.961515
O O9 0.500000 0.203913 0.610981
O O10 0.250000 0.250000 0.577477
O O11 0.253147 0.161683 0.550791
O O12 0.267076 0.198467 0.740428
O O13 0.000000 0.612815 0.166820
O O14 0.208664 0.588858 0.031859
O O15 0.232714 0.085721 0.644616
O O16 0.276601 0.051475 0.834622
O O17 0.000000 0.053186 0.747542
O O18 0.202831 0.000000 0.674998
O O19 0.500000 0.615651 0.538320
O O20 0.712783 0.368754 0.861026
O O21 0.000000 0.395140 0.893244
O O22 0.500000 0.692361 0.832457
#
# Coordination Sequence:
#
# PCOD9348526 Si02
#       8
#     8   8   8   8   8   8   8   8
#     4  10  22  42  68  93 116 150 199 251 303 361
#     4  10  20  34  56  86 121 160 202 245 294 352
#     4  12  24  37  57  86 121 160 201 242 292 351
#     4  10  22  39  59  85 120 158 200 249 300 352
#     4  10  20  34  56  85 117 155 194 235 294 363
#     4  10  21  40  63  87 119 153 194 248 302 352
#     4  10  20  34  53  81 119 160 197 242 296 349
#     4  10  19  33  54  82 118 160 201 243 289 346
#
# _framework density 19.416595999999998
#
# number of rings (size 3 to 8) (size 9 to 14) (size 15 to 20)
#    0.000    1.750    1.250    3.375    0.000    7.000 
#    0.000    3.125    0.000    5.250    0.000    0.000 
#    0.000    0.000    0.000    0.000    0.000    0.000 
#
# Total GULP energy -178624.449187 kJ/mol
# GULP energy per Si atom -5582.014037 kJ/mol
# Density = 1.937240 g / cm^3
# Si number density = 19.416596 Si / 1000 Ang^3
#
#
#
# Elastic Constant Matrix: (Units=GPa)
#
#
# Indices 1 2 3 4 5 6 
#
# 1 37.9674 40.8688 32.1826 0.0000 0.0000 0.0000
# 2 40.8688 170.2253 70.8140 0.0000 0.0000 0.0000
# 3 32.1826 70.8140 89.8328 0.0000 0.0000 0.0000
# 4 0.0000 0.0000 0.0000 10.9915 0.0000 0.0000
# 5 0.0000 0.0000 0.0000 0.0000 23.0540 0.0000
# 6 0.0000 0.0000 0.0000 0.0000 0.0000 27.4280
#
#
#
# Elastic Compliance Matrix: (Units=1/GPa)
#
#
# Indices 1 2 3 4 5 6 
#
# 1 0.041088 -0.005567 -0.010332 0.000000 0.000000 0.000000
# 2 -0.005567 0.009495 -0.005491 0.000000 0.000000 0.000000
# 3 -0.010332 -0.005491 0.019161 0.000000 0.000000 0.000000
# 4 0.000000 0.000000 0.000000 0.090980 0.000000 0.000000
# 5 0.000000 0.000000 0.000000 0.000000 0.043376 0.000000
# 6 0.000000 0.000000 0.000000 0.000000 0.000000 0.036459
#
#
# Mechanical properties :
#
#
# Convention : Reuss Voigt Hill
#
# Bulk Modulus (GPa) = 37.08307 65.08404 51.08355
# Shear Modulus (GPa) = 17.10419 22.57204 19.83812
#
# Velocity S-wave (km/s) = 2.97123 3.41326 3.19989
# Velocity P-wave (km/s) = 5.55977 7.00902 6.32603
#
# Compressibility (1/GPa) = 0.02696649
#
# Stress axis : x y z
#
# Youngs Moduli (GPa) = 24.33810 105.31660 52.18862
#
# Poissons Ratio (x) = 0.58627 0.53919
# Poissons Ratio (y) = 0.13548 0.28655
# Poissons Ratio (z) = 0.25145 0.57826
#
# Static dielectric constant tensor:
#      x y z
#    x 1.662580 0.000000 0.000000 
#    y 0.000000 1.722440 0.000000 
#    z 0.000000 0.000000 1.677100 
# 
# From -- ./inp_files/11828.got.cif
#   From: 2010.05.17/outbox.cif.g08.bks.cpg/sg35_6_cif.got.tgz:11828.got - 2010.06.03 17:29:28.
