data_PCOD9348965
_publ_section_title
;
Structure prediction by ZEFSAII (Michael W. Deem and Ramdas Pophale) SiO2 
 PCOD9348965
Probable space group: C M M 2
;
_chemical_formula_sum "Si O2"
_cell_formula_units_Z 64
_cell_length_a 8.730015
_cell_length_b 19.384843
_cell_length_c 21.311092
_cell_angle_alpha 90.000000
_cell_angle_beta 90.000000
_cell_angle_gamma 90.000000
_cell_volume 3606.475463
_symmetry_space_group_name_H-M "C M M 2"
_symmetry_group_IT_number 35
_symmetry_cell_setting 'orthorhombic'
loop_
_space_group_symop_operation_xyz
x,y,z
-x,-y,z
-x,y,z
x,-y,z
1/2+x,1/2+y,z
1/2-x,1/2-y,z
1/2-x,1/2+y,z
1/2+x,1/2-y,z
loop_
_atom_site_type_symbol
_atom_site_label
_atom_site_fract_x
_atom_site_fract_y
_atom_site_fract_z
Si Si1 0.316580 0.080596 0.553220
Si Si2 0.816155 0.326924 0.306474
Si Si3 0.184304 0.827038 0.664297
Si Si4 0.318237 0.418631 0.417159
Si Si5 0.823096 0.583844 0.912792
Si Si6 0.815285 0.326437 0.165198
Si Si7 0.316114 0.579347 0.780940
Si Si8 0.687297 0.920389 0.050012
O O1 0.500000 0.085742 0.556573
O O2 0.241076 0.130013 0.604279
O O3 0.260415 0.099064 0.483375
O O4 0.273537 0.000000 0.564519
O O5 0.750000 0.250000 0.313852
O O6 0.749060 0.375269 0.360072
O O7 0.774149 0.350597 0.235635
O O8 0.000000 0.324943 0.310987
O O9 0.250000 0.750000 0.664278
O O10 0.235965 0.869898 0.725911
O O11 0.000000 0.824096 0.664046
O O12 0.500000 0.407294 0.422374
O O13 0.291238 0.500000 0.406285
O O14 0.820644 0.500000 0.915597
O O15 0.734758 0.603382 0.849968
O O16 0.000000 0.605204 0.906454
O O17 0.763039 0.606238 0.981178
O O18 0.750000 0.250000 0.157139
O O19 0.762208 0.375286 0.108872
O O20 0.000000 0.323369 0.162754
O O21 0.500000 0.577283 0.779146
O O22 0.260743 0.500000 0.771368
O O23 0.500000 0.920084 0.048406
O O24 0.734540 0.000000 0.057482
#
# Coordination Sequence:
#
# PCOD9348965 Si02
#       8
#     8   8   8   8   8   8   8   8
#     4  10  21  38  60  84 108 135 170 210 251 302
#     4  10  20  34  53  76 103 137 177 217 258 307
#     4  11  23  38  55  77 107 140 174 213 258 305
#     4  10  21  37  57  81 109 138 168 208 257 305
#     4   8  14  26  47  73  98 126 164 209 251 296
#     4   9  18  32  50  71  98 133 169 208 252 301
#     4   9  18  33  53  75 100 132 168 207 254 307
#     4   8  14  27  48  73  98 126 165 210 253 297
#
# _framework density 17.745857999999998
#
# number of rings (size 3 to 8) (size 9 to 14) (size 15 to 20)
#    0.000    2.625    0.000    2.625    0.000    4.500 
#    0.000    6.250    0.000    4.125    0.000    0.000 
#    0.000    0.000    0.000    0.000    0.000    0.000 
#
# Total GULP energy -178440.354620 kJ/mol
# GULP energy per Si atom -5576.261082 kJ/mol
# Density = 1.770547 g / cm^3
# Si number density = 17.745858 Si / 1000 Ang^3
#
#
#
# Elastic Constant Matrix: (Units=GPa)
#
#
# Indices 1 2 3 4 5 6 
#
# 1 31.2096 32.2705 45.4269 0.0000 0.0000 0.0000
# 2 32.2705 83.0004 100.6877 0.0000 0.0000 0.0000
# 3 45.4269 100.6877 193.2254 0.0000 0.0000 0.0000
# 4 0.0000 0.0000 0.0000 -30.5266 0.0000 0.0000
# 5 0.0000 0.0000 0.0000 0.0000 24.9128 0.0000
# 6 0.0000 0.0000 0.0000 0.0000 0.0000 22.1577
#
#
#
# Elastic Compliance Matrix: (Units=1/GPa)
#
#
# Indices 1 2 3 4 5 6 
#
# 1 0.055224 -0.015553 -0.004879 0.000000 0.000000 0.000000
# 2 -0.015553 0.037131 -0.015692 0.000000 0.000000 0.000000
# 3 -0.004879 -0.015692 0.014499 0.000000 0.000000 0.000000
# 4 0.000000 0.000000 0.000000 -0.032758 0.000000 0.000000
# 5 0.000000 0.000000 0.000000 0.000000 0.040140 0.000000
# 6 0.000000 0.000000 0.000000 0.000000 0.000000 0.045131
#
#
# Mechanical properties :
#
#
# Convention : Reuss Voigt Hill
#
# Bulk Modulus (GPa) = 28.89570 73.80063 51.34817
# Shear Modulus (GPa) = 20.56338 11.91214 16.23776
#
# Velocity S-wave (km/s) = 3.40777 2.59369 3.02821
# Velocity P-wave (km/s) = 5.63935 7.11670 6.42066
#
# Compressibility (1/GPa) = 0.03460722
#
# Stress axis : x y z
#
# Youngs Moduli (GPa) = 18.10812 26.93136 68.96819
#
# Poissons Ratio (x) = 0.41885 0.33648
# Poissons Ratio (y) = 0.28163 1.08228
# Poissons Ratio (z) = 0.08834 0.42262
#
# Static dielectric constant tensor:
#      x y z
#    x 1.602610 0.000000 0.000000 
#    y 0.000000 1.581220 0.000000 
#    z 0.000000 0.000000 1.609810 
# 
# From -- ./inp_files/18421.got.cif
#   From: 2010.05.17/outbox.cif.g08.bks.cpg/sg35_10_cif.got.tgz:18421.got - 2010.06.03 17:29:28.
