data_PCOD9348868
_publ_section_title
;
Structure prediction by ZEFSAII (Michael W. Deem and Ramdas Pophale) SiO2 
 PCOD9348868
Probable space group: C M M 2
;
_chemical_formula_sum "Si O2"
_cell_formula_units_Z 64
_cell_length_a 9.062923
_cell_length_b 15.041088
_cell_length_c 21.820385
_cell_angle_alpha 90.000000
_cell_angle_beta 90.000000
_cell_angle_gamma 90.000000
_cell_volume 2974.472454
_symmetry_space_group_name_H-M "C M M 2"
_symmetry_group_IT_number 35
_symmetry_cell_setting 'orthorhombic'
loop_
_space_group_symop_operation_xyz
x,y,z
-x,-y,z
-x,y,z
x,-y,z
1/2+x,1/2+y,z
1/2-x,1/2-y,z
1/2-x,1/2+y,z
1/2+x,1/2-y,z
loop_
_atom_site_type_symbol
_atom_site_label
_atom_site_fract_x
_atom_site_fract_y
_atom_site_fract_z
Si Si1 0.335795 0.395057 0.062910
Si Si2 0.675340 0.654136 0.686162
Si Si3 0.823535 0.347417 0.940296
Si Si4 0.831316 0.390929 0.183025
Si Si5 0.177892 0.849023 0.819777
Si Si6 0.834378 0.605161 0.563346
Si Si7 0.673422 0.108103 0.429665
Si Si8 0.331313 0.391094 0.306734
O O1 0.500000 0.357344 0.050623
O O2 0.352152 0.500000 0.073091
O O3 0.263709 0.359306 0.125065
O O4 0.230144 0.386330 0.004537
O O5 0.500000 0.661213 0.682642
O O6 0.750000 0.750000 0.688842
O O7 0.708133 0.609996 0.752512
O O8 0.736786 0.615391 0.623340
O O9 0.750000 0.250000 0.941304
O O10 0.752574 0.391677 0.879532
O O11 0.000000 0.344841 0.935479
O O12 0.830990 0.500000 0.182423
O O13 0.762555 0.363541 0.247782
O O14 0.000000 0.362131 0.177170
O O15 0.250000 0.750000 0.816915
O O16 0.000000 0.843370 0.827760
O O17 0.850031 0.500000 0.554698
O O18 0.776140 0.638632 0.497495
O O19 0.000000 0.642416 0.573957
O O20 0.500000 0.129799 0.424043
O O21 0.763615 0.139962 0.371108
O O22 0.683899 0.000000 0.427836
O O23 0.500000 0.362731 0.300360
O O24 0.329752 0.500000 0.307186
#
# Coordination Sequence:
#
# PCOD9348868 Si02
#       8
#     8   8   8   8   8   8   8   8
#     4  10  20  34  51  72 101 133 163 200 246 291
#     4  10  20  33  52  75  98 126 161 201 242 288
#     4  11  21  34  54  77 100 127 162 201 241 288
#     4   9  16  26  41  62  90 124 160 197 238 285
#     4   9  17  31  50  72  96 123 158 200 244 285
#     4   9  18  32  49  70  99 132 163 199 245 293
#     4   8  14  25  40  59  86 121 157 193 236 283
#     4   9  15  22  35  58  87 119 156 197 238 279
#
# _framework density 21.51642
#
# number of rings (size 3 to 8) (size 9 to 14) (size 15 to 20)
#    0.000    2.625    0.000    4.500    0.000    6.000 
#    0.000    1.875    0.000    0.750    0.000    0.875 
#    0.000    4.000    0.000    0.000    0.000    0.000 
#
# Total GULP energy -178471.140763 kJ/mol
# GULP energy per Si atom -5577.223149 kJ/mol
# Density = 2.146745 g / cm^3
# Si number density = 21.516420 Si / 1000 Ang^3
#
#
#
# Elastic Constant Matrix: (Units=GPa)
#
#
# Indices 1 2 3 4 5 6 
#
# 1 146.1706 6.6954 99.6508 0.0000 0.0000 0.0000
# 2 6.6954 31.9778 8.8119 0.0000 0.0000 0.0000
# 3 99.6508 8.8119 215.5761 0.0000 0.0000 0.0000
# 4 0.0000 0.0000 0.0000 64.0503 0.0000 0.0000
# 5 0.0000 0.0000 0.0000 0.0000 31.8342 0.0000
# 6 0.0000 0.0000 0.0000 0.0000 0.0000 11.4080
#
#
#
# Elastic Compliance Matrix: (Units=1/GPa)
#
#
# Indices 1 2 3 4 5 6 
#
# 1 0.010011 -0.000830 -0.004594 0.000000 0.000000 0.000000
# 2 -0.000830 0.031697 -0.000912 0.000000 0.000000 0.000000
# 3 -0.004594 -0.000912 0.006799 0.000000 0.000000 0.000000
# 4 0.000000 0.000000 0.000000 0.015613 0.000000 0.000000
# 5 0.000000 0.000000 0.000000 0.000000 0.031413 0.000000
# 6 0.000000 0.000000 0.000000 0.000000 0.000000 0.087658
#
#
# Mechanical properties :
#
#
# Convention : Reuss Voigt Hill
#
# Bulk Modulus (GPa) = 27.90512 69.33784 48.62148
# Shear Modulus (GPa) = 24.06070 40.02959 32.04515
#
# Velocity S-wave (km/s) = 3.34765 4.31794 3.86338
# Velocity P-wave (km/s) = 5.28580 7.56009 6.52283
#
# Compressibility (1/GPa) = 0.03583572
#
# Stress axis : x y z
#
# Youngs Moduli (GPa) = 99.88924 31.54895 147.07024
#
# Poissons Ratio (x) = 0.02619 0.67560
# Poissons Ratio (y) = 0.08293 0.13411
# Poissons Ratio (z) = 0.45886 0.02877
#
# Static dielectric constant tensor:
#      x y z
#    x 1.737580 0.000000 0.000000 
#    y 0.000000 1.821040 0.000000 
#    z 0.000000 0.000000 1.828200 
# 
# From -- ./inp_files/18400.got.cif
#   From: 2010.05.17/outbox.cif.g08.bks.cpg/sg35_10_cif.got.tgz:18400.got - 2010.06.03 17:29:28.
