data_PCOD9348832
_publ_section_title
;
Structure prediction by ZEFSAII (Michael W. Deem and Ramdas Pophale) SiO2 
 PCOD9348832
Probable space group: C M M 2
;
_chemical_formula_sum "Si O2"
_cell_formula_units_Z 64
_cell_length_a 30.414733
_cell_length_b 7.893829
_cell_length_c 12.818321
_cell_angle_alpha 90.000000
_cell_angle_beta 90.000000
_cell_angle_gamma 90.000000
_cell_volume 3077.534043
_symmetry_space_group_name_H-M "C M M 2"
_symmetry_group_IT_number 35
_symmetry_cell_setting 'orthorhombic'
loop_
_space_group_symop_operation_xyz
x,y,z
-x,-y,z
-x,y,z
x,-y,z
1/2+x,1/2+y,z
1/2-x,1/2-y,z
1/2-x,1/2+y,z
1/2+x,1/2-y,z
loop_
_atom_site_type_symbol
_atom_site_label
_atom_site_fract_x
_atom_site_fract_y
_atom_site_fract_z
Si Si1 0.296744 0.703717 0.651820
Si Si2 0.431014 0.303033 0.509560
Si Si3 0.952517 0.300394 0.280380
Si Si4 0.643039 0.199697 0.219963
Si Si5 0.801057 0.700479 0.027350
Si Si6 0.829974 0.196703 0.443083
Si Si7 0.048653 0.207229 0.744618
Si Si8 0.360703 0.295095 0.830620
O O1 0.300513 0.500000 0.644581
O O2 0.250000 0.750000 0.699175
O O3 0.300107 0.772435 0.534234
O O4 0.335167 0.763941 0.727013
O O5 0.444788 0.500000 0.504350
O O6 0.449308 0.215502 0.406094
O O7 0.378493 0.298577 0.494840
O O8 0.443784 0.238439 0.623981
O O9 0.952974 0.500000 0.255643
O O10 0.906693 0.227710 0.234250
O O11 0.000000 0.227499 0.247386
O O12 0.666654 0.217152 0.331639
O O13 0.637376 0.000000 0.199187
O O14 0.673662 0.273469 0.129096
O O15 0.799879 0.500000 0.039535
O O16 0.750000 0.750000 0.015625
O O17 0.831909 0.741546 0.928959
O O18 0.818647 0.000000 0.424003
O O19 0.088927 0.262570 0.817803
O O20 0.000000 0.259662 0.778400
O O21 0.049816 0.000000 0.742387
O O22 0.360901 0.500000 0.830195
#
# Coordination Sequence:
#
# PCOD9348832 Si02
#       8
#     8   8   8   8   8   8   8   8
#     4  10  20  33  50  76 108 140 173 213 265 323
#     4   9  15  27  48  75 107 144 181 215 252 302
#     4   9  17  30  49  75 108 144 178 212 257 313
#     4   9  20  37  55  77 106 138 176 220 266 318
#     4  11  24  42  62  82 103 134 182 234 282 331
#     4   9  17  31  51  76 109 142 173 213 262 314
#     4   9  16  28  51  81 111 146 184 219 262 316
#     4  10  20  37  58  80 111 144 180 225 271 322
#
# _framework density 20.795870000000001
#
# number of rings (size 3 to 8) (size 9 to 14) (size 15 to 20)
#    0.000    2.500    1.250    1.125    0.000    4.250 
#    0.000    3.750    0.000    1.875    0.000    0.000 
#    0.000    0.000    0.000    0.000    0.000    0.000 
#
# Total GULP energy -178411.320987 kJ/mol
# GULP energy per Si atom -5575.353781 kJ/mol
# Density = 2.074854 g / cm^3
# Si number density = 20.795870 Si / 1000 Ang^3
#
#
#
# Elastic Constant Matrix: (Units=GPa)
#
#
# Indices 1 2 3 4 5 6 
#
# 1 168.0234 11.6552 82.3132 0.0000 0.0000 0.0000
# 2 11.6552 20.5468 4.1379 0.0000 0.0000 0.0000
# 3 82.3132 4.1379 113.3646 0.0000 0.0000 0.0000
# 4 0.0000 0.0000 0.0000 18.3450 0.0000 0.0000
# 5 0.0000 0.0000 0.0000 0.0000 16.8316 0.0000
# 6 0.0000 0.0000 0.0000 0.0000 0.0000 10.2601
#
#
#
# Elastic Compliance Matrix: (Units=1/GPa)
#
#
# Indices 1 2 3 4 5 6 
#
# 1 0.009561 -0.004055 -0.006794 0.000000 0.000000 0.000000
# 2 -0.004055 0.050750 0.001092 0.000000 0.000000 0.000000
# 3 -0.006794 0.001092 0.013715 0.000000 0.000000 0.000000
# 4 0.000000 0.000000 0.000000 0.054511 0.000000 0.000000
# 5 0.000000 0.000000 0.000000 0.000000 0.059412 0.000000
# 6 0.000000 0.000000 0.000000 0.000000 0.000000 0.097465
#
#
# Mechanical properties :
#
#
# Convention : Reuss Voigt Hill
#
# Bulk Modulus (GPa) = 18.34509 55.34972 36.84740
# Shear Modulus (GPa) = 15.47512 22.67590 19.07551
#
# Velocity S-wave (km/s) = 2.73086 3.30571 3.03194
# Velocity P-wave (km/s) = 4.33406 6.42213 5.47850
#
# Compressibility (1/GPa) = 0.05451051
#
# Stress axis : x y z
#
# Youngs Moduli (GPa) = 104.58726 19.70452 72.91489
#
# Poissons Ratio (x) = 0.07991 0.49542
# Poissons Ratio (y) = 0.42414 -0.07963
# Poissons Ratio (z) = 0.71061 -0.02152
#
# Static dielectric constant tensor:
#      x y z
#    x 1.811720 0.000000 0.000000 
#    y 0.000000 1.746320 0.000000 
#    z 0.000000 0.000000 1.734840 
# 
# From -- ./inp_files/11985.got.cif
#   From: 2010.05.17/outbox.cif.g08.bks.cpg/sg35_6_cif.got.tgz:11985.got - 2010.06.03 17:29:28.
