data_PCOD9348710
_publ_section_title
;
Structure prediction by ZEFSAII (Michael W. Deem and Ramdas Pophale) SiO2 
 PCOD9348710
Probable space group: C M M 2
;
_chemical_formula_sum "Si O2"
_cell_formula_units_Z 40
_cell_length_a 9.099106
_cell_length_b 29.208164
_cell_length_c 7.798154
_cell_angle_alpha 90.000000
_cell_angle_beta 90.000000
_cell_angle_gamma 90.000000
_cell_volume 2072.501198
_symmetry_space_group_name_H-M "C M M 2"
_symmetry_group_IT_number 35
_symmetry_cell_setting 'orthorhombic'
loop_
_space_group_symop_operation_xyz
x,y,z
-x,-y,z
-x,y,z
x,-y,z
1/2+x,1/2+y,z
1/2-x,1/2-y,z
1/2-x,1/2+y,z
1/2+x,1/2-y,z
loop_
_atom_site_type_symbol
_atom_site_label
_atom_site_fract_x
_atom_site_fract_y
_atom_site_fract_z
Si Si1 0.676251 0.604545 0.837070
Si Si2 0.828330 0.945462 0.192897
Si Si3 0.173025 0.203283 0.973151
Si Si4 0.325349 0.890818 0.492597
Si Si5 0.674056 0.297541 0.385626
O O1 0.500000 0.604297 0.806095
O O2 0.722635 0.656543 0.884045
O O3 0.761705 0.589092 0.669126
O O4 0.704448 0.573843 0.003990
O O5 0.728450 0.921203 0.333466
O O6 0.000000 0.933482 0.228944
O O7 0.813487 0.000000 0.197508
O O8 0.250000 0.250000 0.917382
O O9 0.000000 0.207898 0.941918
O O10 0.193043 0.198095 0.178837
O O11 0.500000 0.887066 0.496366
O O12 0.251403 0.840998 0.469345
O O13 0.500000 0.297092 0.422491
O O14 0.750000 0.250000 0.437635
#
# Coordination Sequence:
#
# PCOD9348710 Si02
#       5
#     8   8   8   8   8
#     4  10  21  40  63  90 122 159 206 257 302 358
#     4  10  22  44  71  92 115 155 206 259 314 368
#     4   9  18  33  57  86 119 156 199 248 296 350
#     4  12  25  39  60  93 130 167 202 246 306 369
#     4  10  19  36  60  89 123 163 210 254 300 357
#
# _framework density 19.300350999999999
#
# number of rings (size 3 to 8) (size 9 to 14) (size 15 to 20)
#    0.000    1.800    2.000    2.400    0.000    4.400 
#    0.000    4.000    0.000    0.000    0.000    0.000 
#    0.000    0.000    0.000    0.000    0.000    0.000 
#
# Total GULP energy -111799.496636 kJ/mol
# GULP energy per Si atom -5589.974832 kJ/mol
# Density = 1.925642 g / cm^3
# Si number density = 19.300351 Si / 1000 Ang^3
#
#
#
# Elastic Constant Matrix: (Units=GPa)
#
#
# Indices 1 2 3 4 5 6 
#
# 1 100.7445 46.3529 76.6046 0.0000 0.0000 0.0000
# 2 46.3529 66.1900 40.3918 0.0000 0.0000 0.0000
# 3 76.6046 40.3918 103.0428 0.0000 0.0000 0.0000
# 4 0.0000 0.0000 0.0000 -7.5486 0.0000 0.0000
# 5 0.0000 0.0000 0.0000 0.0000 22.0254 0.0000
# 6 0.0000 0.0000 0.0000 0.0000 0.0000 24.2843
#
#
#
# Elastic Compliance Matrix: (Units=1/GPa)
#
#
# Indices 1 2 3 4 5 6 
#
# 1 0.025972 -0.008420 -0.016008 0.000000 0.000000 0.000000
# 2 -0.008420 0.022588 -0.002595 0.000000 0.000000 0.000000
# 3 -0.016008 -0.002595 0.022623 0.000000 0.000000 0.000000
# 4 0.000000 0.000000 0.000000 -0.132475 0.000000 0.000000
# 5 0.000000 0.000000 0.000000 0.000000 0.045402 0.000000
# 6 0.000000 0.000000 0.000000 0.000000 0.000000 0.041179
#
#
# Mechanical properties :
#
#
# Convention : Reuss Voigt Hill
#
# Bulk Modulus (GPa) = 58.35094 66.29734 62.32414
# Shear Modulus (GPa) = 58.79150 14.86074 36.82612
#
# Velocity S-wave (km/s) = 5.52517 2.77785 4.37287
# Velocity P-wave (km/s) = 8.42627 6.68681 7.60643
#
# Compressibility (1/GPa) = 0.01713768
#
# Stress axis : x y z
#
# Youngs Moduli (GPa) = 38.50260 44.27172 44.20361
#
# Poissons Ratio (x) = 0.37275 0.70761
# Poissons Ratio (y) = 0.32418 0.11470
# Poissons Ratio (z) = 0.61635 0.11488
#
# Static dielectric constant tensor:
#      x y z
#    x 1.638660 0.000000 0.000000 
#    y 0.000000 1.654210 0.000000 
#    z 0.000000 0.000000 1.693900 
# 
# From -- ./inp_files/4986.got.cif
#   From: 2010.05.17/outbox.cif.g08.bks.cpg/sg35_3_cif.got.tgz:4986.got - 2010.06.03 17:29:28.
