data_PCOD9348300
_publ_section_title
;
Structure prediction by ZEFSAII (Michael W. Deem and Ramdas Pophale) SiO2 
 PCOD9348300
Probable space group: C M M 2
;
_chemical_formula_sum "Si O2"
_cell_formula_units_Z 58
_cell_length_a 17.416958
_cell_length_b 19.046463
_cell_length_c 9.460606
_cell_angle_alpha 90.000000
_cell_angle_beta 90.000000
_cell_angle_gamma 90.000000
_cell_volume 3138.380510
_symmetry_space_group_name_H-M "C M M 2"
_symmetry_group_IT_number 35
_symmetry_cell_setting 'orthorhombic'
loop_
_space_group_symop_operation_xyz
x,y,z
-x,-y,z
-x,y,z
x,-y,z
1/2+x,1/2+y,z
1/2-x,1/2-y,z
1/2-x,1/2+y,z
1/2+x,1/2-y,z
loop_
_atom_site_type_symbol
_atom_site_label
_atom_site_fract_x
_atom_site_fract_y
_atom_site_fract_z
Si Si1 0.753742 0.333731 0.905430
Si Si2 0.325936 0.923713 0.412073
Si Si3 0.591221 0.209170 0.314520
Si Si4 0.584752 0.141389 0.018425
Si Si5 0.000000 0.500000 0.087161
Si Si6 0.694495 0.419755 0.644015
Si Si7 0.300716 0.421707 0.165332
Si Si8 0.591801 0.364147 0.394183
O O1 0.750000 0.250000 0.899358
O O2 0.843546 0.357102 0.913665
O O3 0.710767 0.369025 0.774012
O O4 0.714319 0.364296 0.046595
O O5 0.378672 0.856193 0.403858
O O6 0.271023 0.920804 0.547354
O O7 0.269303 0.919853 0.277266
O O8 0.366178 0.000000 0.409080
O O9 0.500000 0.211244 0.326083
O O10 0.620556 0.284266 0.366476
O O11 0.606889 0.191227 0.150235
O O12 0.500000 0.163941 0.961253
O O13 0.566004 0.063213 0.077395
O O14 0.679157 0.500000 0.688928
O O15 0.628237 0.393402 0.538087
O O16 0.303465 0.500000 0.102977
O O17 0.374958 0.407396 0.261689
O O18 0.500000 0.366065 0.398362
#
# Coordination Sequence:
#
# PCOD9348300 Si02
#       8
#     8   8   8   8   2   8   8   8
#     4  12  24  38  61  93 128 167 203 258 311 366
#     4   9  19  34  55  83 120 154 193 245 294 355
#     4  10  19  31  57  88 121 155 194 245 295 359
#     4   9  20  35  58  93 126 168 206 239 306 372
#     4   8  20  32  64  92 130 180 200 244 314 380
#     4  10  24  41  60  85 115 160 209 253 304 372
#     4  10  21  35  61  90 115 153 199 252 302 359
#     4  10  22  41  63  87 117 157 205 259 320 370
#
# _framework density 18.480868999999998
#
# number of rings (size 3 to 8) (size 9 to 14) (size 15 to 20)
#    0.414    1.655    1.379    2.483    4.828    2.483 
#    0.000    2.069    0.000    2.483    0.000    0.000 
#    0.000    0.000    0.000    0.000    0.000    0.000 
#
# Total GULP energy -161448.359758 kJ/mol
# GULP energy per Si atom -5567.184819 kJ/mol
# Density = 1.843881 g / cm^3
# Si number density = 18.480869 Si / 1000 Ang^3
#
#
#
# Elastic Constant Matrix: (Units=GPa)
#
#
# Indices 1 2 3 4 5 6 
#
# 1 57.3236 17.7729 25.6025 0.0000 0.0000 0.0000
# 2 17.7729 144.3629 48.3621 0.0000 0.0000 0.0000
# 3 25.6025 48.3621 86.7161 0.0000 0.0000 0.0000
# 4 0.0000 0.0000 0.0000 13.1623 0.0000 0.0000
# 5 0.0000 0.0000 0.0000 0.0000 15.2897 0.0000
# 6 0.0000 0.0000 0.0000 0.0000 0.0000 33.2689
#
#
#
# Elastic Compliance Matrix: (Units=1/GPa)
#
#
# Indices 1 2 3 4 5 6 
#
# 1 0.020137 -0.000599 -0.005611 0.000000 0.000000 0.000000
# 2 -0.000599 0.008536 -0.004584 0.000000 0.000000 0.000000
# 3 -0.005611 -0.004584 0.015745 0.000000 0.000000 0.000000
# 4 0.000000 0.000000 0.000000 0.075975 0.000000 0.000000
# 5 0.000000 0.000000 0.000000 0.000000 0.065403 0.000000
# 6 0.000000 0.000000 0.000000 0.000000 0.000000 0.030058
#
#
# Mechanical properties :
#
#
# Convention : Reuss Voigt Hill
#
# Bulk Modulus (GPa) = 43.80273 52.43083 48.11678
# Shear Modulus (GPa) = 20.40378 25.45517 22.92947
#
# Velocity S-wave (km/s) = 3.32633 3.71533 3.52620
# Velocity P-wave (km/s) = 6.20530 6.84375 6.53233
#
# Compressibility (1/GPa) = 0.02282963
#
# Stress axis : x y z
#
# Youngs Moduli (GPa) = 49.66056 117.14562 63.51246
#
# Poissons Ratio (x) = 0.07021 0.35637
# Poissons Ratio (y) = 0.02977 0.29113
# Poissons Ratio (z) = 0.27864 0.53698
#
# Static dielectric constant tensor:
#      x y z
#    x 1.648270 0.000000 0.000000 
#    y 0.000000 1.661450 0.000000 
#    z 0.000000 0.000000 1.630560 
# 
# From -- ./inp_files/8580.got.cif
#   From: 2010.05.17/outbox.cif.g08.bks.cpg/sg35_5_cif.got.tgz:8580.got - 2010.06.03 17:29:28.
