data_PCOD9348524
_publ_section_title
;
Structure prediction by ZEFSAII (Michael W. Deem and Ramdas Pophale) SiO2 
 PCOD9348524
Probable space group: C M M 2
;
_chemical_formula_sum "Si O2"
_cell_formula_units_Z 48
_cell_length_a 18.032317
_cell_length_b 7.836019
_cell_length_c 17.694219
_cell_angle_alpha 90.000000
_cell_angle_beta 90.000000
_cell_angle_gamma 90.000000
_cell_volume 2500.221077
_symmetry_space_group_name_H-M "C M M 2"
_symmetry_group_IT_number 35
_symmetry_cell_setting 'orthorhombic'
loop_
_space_group_symop_operation_xyz
x,y,z
-x,-y,z
-x,y,z
x,-y,z
1/2+x,1/2+y,z
1/2-x,1/2-y,z
1/2-x,1/2+y,z
1/2+x,1/2-y,z
loop_
_atom_site_type_symbol
_atom_site_label
_atom_site_fract_x
_atom_site_fract_y
_atom_site_fract_z
Si Si1 0.415207 0.700807 0.853720
Si Si2 0.084454 0.292697 0.548664
Si Si3 0.909541 0.000000 0.119194
Si Si4 0.909655 0.687279 0.016607
Si Si5 0.910809 0.000000 0.294414
Si Si6 0.835699 0.703835 0.700278
Si Si7 0.836625 0.704668 0.391570
O O1 0.500000 0.760723 0.839843
O O2 0.418105 0.500000 0.870723
O O3 0.368400 0.729149 0.778733
O O4 0.385403 0.787232 0.929872
O O5 0.082715 0.500000 0.552409
O O6 0.119812 0.230845 0.627033
O O7 0.133014 0.251728 0.475384
O O8 0.000000 0.232766 0.539759
O O9 0.884313 0.834743 0.072538
O O10 0.887853 0.000000 0.206445
O O11 0.000000 0.000000 0.118185
O O12 0.888691 0.500000 0.043724
O O13 0.000000 0.697073 0.013597
O O14 0.879608 0.829820 0.334599
O O15 0.000000 0.000000 0.299248
O O16 0.843064 0.500000 0.702077
O O17 0.750000 0.750000 0.692548
O O18 0.847620 0.500000 0.378767
O O19 0.750000 0.750000 0.387377
#
# Coordination Sequence:
#
# PCOD9348524 Si02
#       7
#     8   8   4   8   4   8   8
#     4  10  19  33  54  82 114 148 194 251 301 350
#     4   9  19  36  59  86 119 154 199 256 306 356
#     4   9  18  34  54  85 125 152 187 251 303 356
#     4   9  16  29  53  83 115 152 192 239 302 362
#     4  11  24  40  64  99 130 162 209 263 320 376
#     4  11  22  36  53  77 113 159 201 246 296 358
#     4  11  22  41  66  92 126 171 210 256 313 382
#
# _framework density 19.198301000000001
#
# number of rings (size 3 to 8) (size 9 to 14) (size 15 to 20)
#    0.000    2.000    1.667    2.500    0.000    3.333 
#    3.000    1.667    0.000    1.000    0.000    0.000 
#    0.000    0.000    0.000    0.000    0.000    0.000 
#
# Total GULP energy -133994.453793 kJ/mol
# GULP energy per Si atom -5583.102241 kJ/mol
# Density = 1.915461 g / cm^3
# Si number density = 19.198301 Si / 1000 Ang^3
#
#
#
# Elastic Constant Matrix: (Units=GPa)
#
#
# Indices 1 2 3 4 5 6 
#
# 1 81.3792 21.2046 45.7961 0.0000 0.0000 0.0000
# 2 21.2046 114.7042 67.2956 0.0000 0.0000 0.0000
# 3 45.7961 67.2956 158.3048 0.0000 0.0000 0.0000
# 4 0.0000 0.0000 0.0000 307.7325 0.0000 0.0000
# 5 0.0000 0.0000 0.0000 0.0000 -10.3479 0.0000
# 6 0.0000 0.0000 0.0000 0.0000 0.0000 4.9600
#
#
#
# Elastic Compliance Matrix: (Units=1/GPa)
#
#
# Indices 1 2 3 4 5 6 
#
# 1 0.014685 -0.000296 -0.004122 0.000000 0.000000 0.000000
# 2 -0.000296 0.011621 -0.004854 0.000000 0.000000 0.000000
# 3 -0.004122 -0.004854 0.009573 0.000000 0.000000 0.000000
# 4 0.000000 0.000000 0.000000 0.003250 0.000000 0.000000
# 5 0.000000 0.000000 0.000000 0.000000 -0.096638 0.000000
# 6 0.000000 0.000000 0.000000 0.000000 0.000000 0.201614
#
#
# Mechanical properties :
#
#
# Convention : Reuss Voigt Hill
#
# Bulk Modulus (GPa) = 57.69255 69.22008 63.45632
# Shear Modulus (GPa) = 29.68621 75.14172 52.41396
#
# Velocity S-wave (km/s) = 3.93656 6.26297 5.23074
# Velocity P-wave (km/s) = 7.12588 9.40390 8.34300
#
# Compressibility (1/GPa) = 0.01733326
#
# Stress axis : x y z
#
# Youngs Moduli (GPa) = 68.09578 86.05255 104.45970
#
# Poissons Ratio (x) = 0.02549 0.43062
# Poissons Ratio (y) = 0.02017 0.50708
# Poissons Ratio (z) = 0.28072 0.41773
#
# Static dielectric constant tensor:
#      x y z
#    x 1.642930 0.000000 0.000000 
#    y 0.000000 1.679230 0.000000 
#    z 0.000000 0.000000 1.641810 
# 
# From -- ./inp_files/15214.got.cif
#   From: 2010.05.17/outbox.cif.g08.bks.cpg/sg35_8_cif.got.tgz:15214.got - 2010.06.03 17:29:28.
