data_PCOD9348920
_publ_section_title
;
Structure prediction by ZEFSAII (Michael W. Deem and Ramdas Pophale) SiO2 
 PCOD9348920
Probable space group: C M M 2
;
_chemical_formula_sum "Si O2"
_cell_formula_units_Z 64
_cell_length_a 9.761891
_cell_length_b 14.893125
_cell_length_c 21.557965
_cell_angle_alpha 90.000000
_cell_angle_beta 90.000000
_cell_angle_gamma 90.000000
_cell_volume 3134.206098
_symmetry_space_group_name_H-M "C M M 2"
_symmetry_group_IT_number 35
_symmetry_cell_setting 'orthorhombic'
loop_
_space_group_symop_operation_xyz
x,y,z
-x,-y,z
-x,y,z
x,-y,z
1/2+x,1/2+y,z
1/2-x,1/2-y,z
1/2-x,1/2+y,z
1/2+x,1/2-y,z
loop_
_atom_site_type_symbol
_atom_site_label
_atom_site_fract_x
_atom_site_fract_y
_atom_site_fract_z
Si Si1 0.652506 0.894735 0.099600
Si Si2 0.658853 0.609450 0.575788
Si Si3 0.663962 0.841569 0.827877
Si Si4 0.341988 0.890467 0.323407
Si Si5 0.341984 0.890400 0.462065
Si Si6 0.154588 0.106294 0.713457
Si Si7 0.344222 0.610225 0.208655
Si Si8 0.838317 0.660228 0.962231
O O1 0.500000 0.854873 0.108511
O O2 0.765694 0.859167 0.146645
O O3 0.689111 0.888464 0.027021
O O4 0.641431 0.000000 0.114401
O O5 0.500000 0.632766 0.566481
O O6 0.667491 0.500000 0.575197
O O7 0.750832 0.641606 0.519101
O O8 0.697838 0.640418 0.645309
O O9 0.500000 0.831370 0.819644
O O10 0.750000 0.750000 0.834148
O O11 0.734743 0.881590 0.767188
O O12 0.686109 0.887195 0.895605
O O13 0.500000 0.862729 0.313273
O O14 0.297720 0.862970 0.392764
O O15 0.242239 0.861541 0.268707
O O16 0.342580 0.000000 0.322701
O O17 0.500000 0.864000 0.470333
O O18 0.338603 0.000000 0.462457
O O19 0.000000 0.141633 0.728631
O O20 0.139593 0.000000 0.706421
O O21 0.500000 0.641682 0.210651
O O22 0.347911 0.500000 0.208775
O O23 0.750000 0.750000 0.964446
O O24 0.000000 0.682468 0.961738
#
# Coordination Sequence:
#
# PCOD9348920 Si02
#       8
#     8   8   8   8   8   8   8   8
#     4   9  17  30  47  65  88 119 150 180 219 267
#     4   8  14  24  37  54  80 114 147 180 222 268
#     4  10  20  34  52  72  94 121 154 192 233 278
#     4   8  13  21  32  47  72 109 147 179 216 262
#     4   8  13  20  31  49  74 106 145 184 218 257
#     4   9  18  32  48  68  96 127 157 191 233 279
#     4   9  16  24  35  55  82 110 143 183 222 259
#     4   9  19  34  51  70  91 117 148 184 226 270
#
# _framework density 20.419844000000001
#
# number of rings (size 3 to 8) (size 9 to 14) (size 15 to 20)
#    0.000    3.250    0.000    2.250    0.000    4.250 
#    0.000    5.000    0.000    1.500    0.000    0.000 
#    0.000    1.000    0.000    5.500    0.000    9.250 
#
# Total GULP energy -178234.364657 kJ/mol
# GULP energy per Si atom -5569.823896 kJ/mol
# Density = 2.037337 g / cm^3
# Si number density = 20.419844 Si / 1000 Ang^3
#
#
#
# Elastic Constant Matrix: (Units=GPa)
#
#
# Indices 1 2 3 4 5 6 
#
# 1 118.2559 11.2979 132.5558 0.0000 0.0000 0.0000
# 2 11.2979 27.4541 7.1633 0.0000 0.0000 0.0000
# 3 132.5558 7.1633 220.5097 0.0000 0.0000 0.0000
# 4 0.0000 0.0000 0.0000 67.0806 0.0000 0.0000
# 5 0.0000 0.0000 0.0000 0.0000 41.3559 0.0000
# 6 0.0000 0.0000 0.0000 0.0000 0.0000 8.7624
#
#
#
# Elastic Compliance Matrix: (Units=1/GPa)
#
#
# Indices 1 2 3 4 5 6 
#
# 1 0.027191 -0.006984 -0.016119 0.000000 0.000000 0.000000
# 2 -0.006984 0.038530 0.002947 0.000000 0.000000 0.000000
# 3 -0.016119 0.002947 0.014129 0.000000 0.000000 0.000000
# 4 0.000000 0.000000 0.000000 0.014907 0.000000 0.000000
# 5 0.000000 0.000000 0.000000 0.000000 0.024180 0.000000
# 6 0.000000 0.000000 0.000000 0.000000 0.000000 0.114124
#
#
# Mechanical properties :
#
#
# Convention : Reuss Voigt Hill
#
# Bulk Modulus (GPa) = 25.29244 74.25042 49.77143
# Shear Modulus (GPa) = 17.44874 37.78660 27.61767
#
# Velocity S-wave (km/s) = 2.92635 4.30639 3.68161
# Velocity P-wave (km/s) = 4.88172 7.82097 6.51915
#
# Compressibility (1/GPa) = 0.03953751
#
# Stress axis : x y z
#
# Youngs Moduli (GPa) = 36.77632 25.95404 70.77757
#
# Poissons Ratio (x) = 0.18127 1.14085
# Poissons Ratio (y) = 0.25685 -0.20856
# Poissons Ratio (z) = 0.59279 -0.07648
#
# Static dielectric constant tensor:
#      x y z
#    x 1.698080 0.000000 0.000000 
#    y 0.000000 1.784110 0.000000 
#    z 0.000000 0.000000 1.766310 
# 
# From -- ./inp_files/18467.got.cif
#   From: 2010.05.17/outbox.cif.g08.bks.cpg/sg35_10_cif.got.tgz:18467.got - 2010.06.03 17:29:28.
