data_PCOD9348299
_publ_section_title
;
Structure prediction by ZEFSAII (Michael W. Deem and Ramdas Pophale) SiO2 
 PCOD9348299
Probable space group: C M M 2
;
_chemical_formula_sum "Si O2"
_cell_formula_units_Z 56
_cell_length_a 17.685487
_cell_length_b 17.071243
_cell_length_c 9.603114
_cell_angle_alpha 90.000000
_cell_angle_beta 90.000000
_cell_angle_gamma 90.000000
_cell_volume 2899.307321
_symmetry_space_group_name_H-M "C M M 2"
_symmetry_group_IT_number 35
_symmetry_cell_setting 'orthorhombic'
loop_
_space_group_symop_operation_xyz
x,y,z
-x,-y,z
-x,y,z
x,-y,z
1/2+x,1/2+y,z
1/2-x,1/2-y,z
1/2-x,1/2+y,z
1/2+x,1/2-y,z
loop_
_atom_site_type_symbol
_atom_site_label
_atom_site_fract_x
_atom_site_fract_y
_atom_site_fract_z
Si Si1 0.339905 0.749999 0.657440
Si Si2 0.090484 0.310499 0.925745
Si Si3 0.150708 0.406721 0.182808
Si Si4 0.086475 0.171592 0.120795
Si Si5 0.409022 0.592282 0.568957
Si Si6 0.415515 0.205807 0.376592
Si Si7 0.808074 0.089055 0.293628
O O1 0.250000 0.750000 0.678183
O O2 0.377914 0.806890 0.770827
O O3 0.377496 0.662618 0.665287
O O4 0.358947 0.781601 0.503135
O O5 0.000000 0.323606 0.930557
O O6 0.130696 0.369162 0.033591
O O7 0.105193 0.223647 0.988173
O O8 0.151872 0.500000 0.168966
O O9 0.091419 0.376485 0.297316
O O10 0.229059 0.372178 0.248748
O O11 0.095242 0.231939 0.251081
O O12 0.139823 0.100751 0.158915
O O13 0.000000 0.146660 0.114001
O O14 0.500000 0.601431 0.546859
O O15 0.397722 0.500000 0.609699
O O16 0.360040 0.606503 0.427925
O O17 0.500000 0.217203 0.432965
O O18 0.786478 0.000000 0.317804
#
# Coordination Sequence:
#
# PCOD9348299 Si02
#       7
#     8   8   8   8   8   8   8
#     4  12  24  38  60  91 123 164 201 253 304 362
#     4  10  23  40  60  83 114 158 204 248 298 362
#     4  10  22  39  61  88 118 155 201 255 311 361
#     4   9  18  33  55  82 114 150 188 239 290 350
#     4  10  20  37  63  93 128 167 203 247 306 371
#     4  10  20  35  59  86 114 149 194 247 294 353
#     4  10  19  31  55  89 121 151 189 241 295 352
#
# _framework density 19.314959000000002
#
# number of rings (size 3 to 8) (size 9 to 14) (size 15 to 20)
#    0.000    1.857    1.429    3.857    2.000    3.143 
#    0.000    2.143    0.000    2.571    0.000    0.000 
#    0.000    0.000    0.000    0.000    0.000    0.000 
#
# Total GULP energy -155926.504863 kJ/mol
# GULP energy per Si atom -5568.803745 kJ/mol
# Density = 1.927100 g / cm^3
# Si number density = 19.314959 Si / 1000 Ang^3
#
#
#
# Elastic Constant Matrix: (Units=GPa)
#
#
# Indices 1 2 3 4 5 6 
#
# 1 60.6660 28.1728 23.5676 0.0000 0.0000 0.0000
# 2 28.1728 63.3835 31.4308 0.0000 0.0000 0.0000
# 3 23.5676 31.4308 66.4155 0.0000 0.0000 0.0000
# 4 0.0000 0.0000 0.0000 25.9505 0.0000 0.0000
# 5 0.0000 0.0000 0.0000 0.0000 -48.6634 0.0000
# 6 0.0000 0.0000 0.0000 0.0000 0.0000 25.2298
#
#
#
# Elastic Compliance Matrix: (Units=1/GPa)
#
#
# Indices 1 2 3 4 5 6 
#
# 1 0.021584 -0.007573 -0.004075 0.000000 0.000000 0.000000
# 2 -0.007573 0.023272 -0.008326 0.000000 0.000000 0.000000
# 3 -0.004075 -0.008326 0.020443 0.000000 0.000000 0.000000
# 4 0.000000 0.000000 0.000000 0.038535 0.000000 0.000000
# 5 0.000000 0.000000 0.000000 0.000000 -0.020549 0.000000
# 6 0.000000 0.000000 0.000000 0.000000 0.000000 0.039636
#
#
# Mechanical properties :
#
#
# Convention : Reuss Voigt Hill
#
# Bulk Modulus (GPa) = 39.44703 39.64526 39.54615
# Shear Modulus (GPa) = 29.18560 7.65629 18.42094
#
# Velocity S-wave (km/s) = 3.89142 1.99312 3.09158
# Velocity P-wave (km/s) = 6.37638 5.08595 5.76737
#
# Compressibility (1/GPa) = 0.02535045
#
# Stress axis : x y z
#
# Youngs Moduli (GPa) = 46.33165 42.97080 48.91635
#
# Poissons Ratio (x) = 0.32540 0.19934
# Poissons Ratio (y) = 0.35085 0.40728
# Poissons Ratio (z) = 0.18881 0.35778
#
# Static dielectric constant tensor:
#      x y z
#    x 1.833400 0.000000 0.000000 
#    y 0.000000 1.719820 0.000000 
#    z 0.000000 0.000000 1.660200 
# 
# From -- ./inp_files/8667.got.cif
#   From: 2010.05.17/outbox.cif.g08.bks.cpg/sg35_5_cif.got.tgz:8667.got - 2010.06.03 17:29:28.
