data_PCOD9348223
_publ_section_title
;
Structure prediction by ZEFSAII (Michael W. Deem and Ramdas Pophale) SiO2 
 PCOD9348223
Probable space group: C M M 2
;
_chemical_formula_sum "Si O2"
_cell_formula_units_Z 64
_cell_length_a 31.226610
_cell_length_b 18.782471
_cell_length_c 5.425656
_cell_angle_alpha 90.000000
_cell_angle_beta 90.000000
_cell_angle_gamma 90.000000
_cell_volume 3182.217217
_symmetry_space_group_name_H-M "C M M 2"
_symmetry_group_IT_number 35
_symmetry_cell_setting 'orthorhombic'
loop_
_space_group_symop_operation_xyz
x,y,z
-x,-y,z
-x,y,z
x,-y,z
1/2+x,1/2+y,z
1/2-x,1/2-y,z
1/2-x,1/2+y,z
1/2+x,1/2-y,z
loop_
_atom_site_type_symbol
_atom_site_label
_atom_site_fract_x
_atom_site_fract_y
_atom_site_fract_z
Si Si1 0.860276 0.225920 0.881620
Si Si2 0.415610 0.080043 0.881583
Si Si3 0.815722 0.198323 0.381619
Si Si4 0.051322 0.920009 0.381399
Si Si5 0.050836 0.583824 0.381581
Si Si6 0.551039 0.331910 0.881388
Si Si7 0.222751 0.359942 0.381604
Si Si8 0.179215 0.615262 0.881606
O O1 0.842948 0.189749 0.630976
O O2 0.911762 0.227353 0.881525
O O3 0.838408 0.303468 0.881619
O O4 0.842966 0.189759 0.132321
O O5 0.430688 0.115983 0.630521
O O6 0.365007 0.073569 0.881562
O O7 0.435756 0.000000 0.881596
O O8 0.430681 0.115983 0.132660
O O9 0.797391 0.279743 0.381611
O O10 0.773690 0.149303 0.381566
O O11 0.060084 0.877761 0.634120
O O12 0.000000 0.926946 0.381463
O O13 0.069872 0.000000 0.381454
O O14 0.060072 0.877807 0.128569
O O15 0.064109 0.500000 0.381593
O O16 0.000000 0.587385 0.381554
O O17 0.500000 0.311721 0.881383
O O18 0.205819 0.395554 0.632198
O O19 0.205810 0.395561 0.131041
#
# Coordination Sequence:
#
# PCOD9348223 Si02
#       8
#     8   8   8   8   8   8   8   8
#     4  10  19  31  48  71 100 130 159 194 236 282
#     4  10  19  31  48  70  94 123 164 207 247 288
#     4   9  17  30  49  72  95 119 155 195 237 284
#     4   9  17  30  49  71  92 119 160 203 232 257
#     4   9  17  30  47  65  87 117 157 207 251 281
#     4  10  19  31  47  70 102 133 159 190 232 281
#     4   9  17  30  49  72  94 117 147 196 250 289
#     4  10  19  31  48  71 100 125 154 200 248 292
#
# _framework density 20.111764999999998
#
# number of rings (size 3 to 8) (size 9 to 14) (size 15 to 20)
#    0.000    2.500    0.000    3.000    0.000    6.000 
#    0.000    1.250    0.000    1.500    0.000   17.500 
#    0.000    0.000    0.000    0.000    0.000    0.000 
#
# Total GULP energy -178364.728995 kJ/mol
# GULP energy per Si atom -5573.897781 kJ/mol
# Density = 2.006599 g / cm^3
# Si number density = 20.111765 Si / 1000 Ang^3
#
#
#
# Elastic Constant Matrix: (Units=GPa)
#
#
# Indices 1 2 3 4 5 6 
#
# 1 102.9295 11.9351 64.3402 0.0000 0.0000 0.0000
# 2 11.9351 11.6306 27.4020 0.0000 0.0000 0.0000
# 3 64.3402 27.4020 222.3328 0.0000 0.0000 0.0000
# 4 0.0000 0.0000 0.0000 24.3216 0.0000 0.0000
# 5 0.0000 0.0000 0.0000 0.0000 -7.3266 0.0000
# 6 0.0000 0.0000 0.0000 0.0000 0.0000 24.3173
#
#
#
# Elastic Compliance Matrix: (Units=1/GPa)
#
#
# Indices 1 2 3 4 5 6 
#
# 1 0.012141 -0.005892 -0.002787 0.000000 0.000000 0.000000
# 2 -0.005892 0.124021 -0.013580 0.000000 0.000000 0.000000
# 3 -0.002787 -0.013580 0.006978 0.000000 0.000000 0.000000
# 4 0.000000 0.000000 0.000000 0.041116 0.000000 0.000000
# 5 0.000000 0.000000 0.000000 0.000000 -0.136489 0.000000
# 6 0.000000 0.000000 0.000000 0.000000 0.000000 0.041123
#
#
# Mechanical properties :
#
#
# Convention : Reuss Voigt Hill
#
# Bulk Modulus (GPa) = 10.13978 60.47194 35.30586
# Shear Modulus (GPa) = 30.06925 23.81017 26.93971
#
# Velocity S-wave (km/s) = 3.87086 3.44451 3.66389
# Velocity P-wave (km/s) = 5.00307 6.77884 5.95749
#
# Compressibility (1/GPa) = 0.09862151
#
# Stress axis : x y z
#
# Youngs Moduli (GPa) = 82.36648 8.06312 143.30570
#
# Poissons Ratio (x) = 0.04751 0.39943
# Poissons Ratio (y) = 0.48530 1.94613
# Poissons Ratio (z) = 0.22957 0.10950
#
# Static dielectric constant tensor:
#      x y z
#    x 1.678180 0.000000 0.000000 
#    y 0.000000 1.766740 0.000000 
#    z 0.000000 0.000000 1.815080 
# 
# From -- ./inp_files/3494.got.cif
#   From: 2010.05.17/outbox.cif.g08.bks.cpg/sg35_2_cif.got.tgz:3494.got - 2010.06.03 17:29:28.
