data_PCOD9348233
_publ_section_title
;
Structure prediction by ZEFSAII (Michael W. Deem and Ramdas Pophale) SiO2 
 PCOD9348233
Probable space group: C M M 2
;
_chemical_formula_sum "Si O2"
_cell_formula_units_Z 56
_cell_length_a 8.555389
_cell_length_b 29.699760
_cell_length_c 13.211713
_cell_angle_alpha 90.000000
_cell_angle_beta 90.000000
_cell_angle_gamma 90.000000
_cell_volume 3357.003791
_symmetry_space_group_name_H-M "C M M 2"
_symmetry_group_IT_number 35
_symmetry_cell_setting 'orthorhombic'
loop_
_space_group_symop_operation_xyz
x,y,z
-x,-y,z
-x,y,z
x,-y,z
1/2+x,1/2+y,z
1/2-x,1/2-y,z
1/2-x,1/2+y,z
1/2+x,1/2-y,z
loop_
_atom_site_type_symbol
_atom_site_label
_atom_site_fract_x
_atom_site_fract_y
_atom_site_fract_z
Si Si1 0.188684 0.947578 0.437830
Si Si2 0.188269 0.201729 0.932071
Si Si3 0.185392 0.608555 0.624159
Si Si4 0.312916 0.298507 0.696034
Si Si5 0.689196 0.552127 0.814500
Si Si6 0.809475 0.948310 0.207667
Si Si7 0.190960 0.106994 0.014706
O O1 0.260426 0.915450 0.521505
O O2 0.237439 0.936818 0.322418
O O3 0.000000 0.944562 0.443057
O O4 0.229748 0.000000 0.457536
O O5 0.250000 0.250000 0.967343
O O6 0.236068 0.195765 0.814230
O O7 0.000000 0.202736 0.933803
O O8 0.241599 0.158196 0.994469
O O9 0.250081 0.659058 0.634826
O O10 0.249974 0.579620 0.718549
O O11 0.000000 0.609529 0.629478
O O12 0.500000 0.298428 0.693120
O O13 0.250000 0.250000 0.661997
O O14 0.500000 0.553067 0.811150
O O15 0.738754 0.500000 0.811955
O O16 0.737330 0.576508 0.918592
O O17 0.755455 0.915147 0.119438
O O18 0.000000 0.947955 0.206883
O O19 0.762673 0.000000 0.186329
O O20 0.000000 0.107033 0.015925
#
# Coordination Sequence:
#
# PCOD9348233 Si02
#       7
#     8   8   8   8   8   8   8
#     4   9  18  33  52  73  97 129 171 217 259 298
#     4   9  17  29  47  70  99 129 160 196 238 291
#     4  12  23  33  48  71 101 136 171 208 249 296
#     4  10  19  34  53  75 102 131 166 205 250 300
#     4  10  19  31  48  71 101 134 164 201 252 306
#     4   8  14  26  48  76  99 122 162 211 252 295
#     4   9  15  27  47  74 101 126 158 202 252 302
#
# _framework density 16.681543000000001
#
# number of rings (size 3 to 8) (size 9 to 14) (size 15 to 20)
#    0.000    2.429    1.429    3.429    0.000    4.571 
#    0.000    0.000    0.000    2.571    0.000    4.000 
#    0.000    0.000    0.000    0.000    0.000    0.000 
#
# Total GULP energy -156178.073369 kJ/mol
# GULP energy per Si atom -5577.788335 kJ/mol
# Density = 1.664357 g / cm^3
# Si number density = 16.681543 Si / 1000 Ang^3
#
#
#
# Elastic Constant Matrix: (Units=GPa)
#
#
# Indices 1 2 3 4 5 6 
#
# 1 18.5971 33.7289 23.3202 0.0000 0.0000 0.0000
# 2 33.7289 174.1381 100.2660 0.0000 0.0000 0.0000
# 3 23.3202 100.2660 121.6189 0.0000 0.0000 0.0000
# 4 0.0000 0.0000 0.0000 20.9666 0.0000 0.0000
# 5 0.0000 0.0000 0.0000 0.0000 0.1806 0.0000
# 6 0.0000 0.0000 0.0000 0.0000 0.0000 23.8825
#
#
#
# Elastic Compliance Matrix: (Units=1/GPa)
#
#
# Indices 1 2 3 4 5 6 
#
# 1 0.084559 -0.013406 -0.005161 0.000000 0.000000 0.000000
# 2 -0.013406 0.013057 -0.008194 0.000000 0.000000 0.000000
# 3 -0.005161 -0.008194 0.015968 0.000000 0.000000 0.000000
# 4 0.000000 0.000000 0.000000 0.047695 0.000000 0.000000
# 5 0.000000 0.000000 0.000000 0.000000 5.535596 0.000000
# 6 0.000000 0.000000 0.000000 0.000000 0.000000 0.041872
#
#
# Mechanical properties :
#
#
# Convention : Reuss Voigt Hill
#
# Bulk Modulus (GPa) = 16.65003 69.88713 43.26858
# Shear Modulus (GPa) = 0.86025 19.47522 10.16773
#
# Velocity S-wave (km/s) = 0.71889 3.42053 2.47152
# Velocity P-wave (km/s) = 3.26984 7.58854 5.84285
#
# Compressibility (1/GPa) = 0.06005994
#
# Stress axis : x y z
#
# Youngs Moduli (GPa) = 11.82606 76.58527 62.62676
#
# Poissons Ratio (x) = 1.02673 0.32324
# Poissons Ratio (y) = 0.15854 0.51318
# Poissons Ratio (z) = 0.06104 0.62755
#
# Static dielectric constant tensor:
#      x y z
#    x 1.568920 0.000000 0.000000 
#    y 0.000000 1.555050 0.000000 
#    z 0.000000 0.000000 1.548100 
# 
# From -- ./inp_files/16109.got.cif
#   From: 2010.05.17/outbox.cif.g08.bks.cpg/sg35_9_cif.got.tgz:16109.got - 2010.06.03 17:29:28.
