data_PCOD9348145
_publ_section_title
;
Structure prediction by ZEFSAII (Michael W. Deem and Ramdas Pophale) SiO2 
 PCOD9348145
Probable space group: C M M 2
;
_chemical_formula_sum "Si O2"
_cell_formula_units_Z 64
_cell_length_a 8.592951
_cell_length_b 31.786786
_cell_length_c 12.173113
_cell_angle_alpha 90.000000
_cell_angle_beta 90.000000
_cell_angle_gamma 90.000000
_cell_volume 3324.992017
_symmetry_space_group_name_H-M "C M M 2"
_symmetry_group_IT_number 35
_symmetry_cell_setting 'orthorhombic'
loop_
_space_group_symop_operation_xyz
x,y,z
-x,-y,z
-x,y,z
x,-y,z
1/2+x,1/2+y,z
1/2-x,1/2-y,z
1/2-x,1/2+y,z
1/2+x,1/2-y,z
loop_
_atom_site_type_symbol
_atom_site_label
_atom_site_fract_x
_atom_site_fract_y
_atom_site_fract_z
Si Si1 0.812616 0.453149 0.957470
Si Si2 0.813418 0.204819 0.959036
Si Si3 0.186662 0.177087 0.715147
Si Si4 0.189685 0.953220 0.486614
Si Si5 0.186997 0.873200 0.344824
Si Si6 0.315685 0.795265 0.483941
Si Si7 0.187015 0.626787 0.098638
Si Si8 0.313204 0.577414 0.726294
O O1 0.756945 0.500000 0.987714
O O2 0.762241 0.442499 0.833632
O O3 0.000000 0.453256 0.961848
O O4 0.757781 0.415696 0.036834
O O5 0.750000 0.250000 0.995000
O O6 0.747343 0.166936 0.031358
O O7 0.000000 0.204158 0.964825
O O8 0.768128 0.196968 0.831704
O O9 0.270767 0.197034 0.611096
O O10 0.220215 0.127218 0.720444
O O11 0.000000 0.181926 0.700305
O O12 0.240706 0.915542 0.407678
O O13 0.237390 0.943452 0.611872
O O14 0.000000 0.952664 0.486335
O O15 0.240349 0.000000 0.453680
O O16 0.241986 0.832938 0.413836
O O17 0.252054 0.872000 0.222323
O O18 0.000000 0.873337 0.342062
O O19 0.500000 0.795853 0.471197
O O20 0.250000 0.750000 0.449654
O O21 0.000000 0.627237 0.098557
O O22 0.500000 0.572667 0.735381
#
# Coordination Sequence:
#
# PCOD9348145 Si02
#       8
#     8   8   8   8   8   8   8   8
#     4  10  22  39  59  87 125 164 201 247 302 358
#     4  11  23  40  63  91 123 158 199 246 301 360
#     4  10  20  37  62  93 126 159 197 245 300 357
#     4   9  18  34  59  90 122 156 194 242 298 352
#     4  11  23  42  64  87 120 158 203 256 304 354
#     4  12  25  41  64  92 124 160 201 245 300 362
#     4  11  24  42  62  86 118 159 207 253 303 359
#     4  10  18  34  61  91 123 158 198 244 298 356
#
# _framework density 19.248166000000001
#
# number of rings (size 3 to 8) (size 9 to 14) (size 15 to 20)
#    0.000    1.500    2.500    3.000    0.000    4.750 
#    0.000    2.500    0.000    1.875    0.000    0.000 
#    0.000    0.000    0.000    0.000    0.000    0.000 
#
# Total GULP energy -178887.238056 kJ/mol
# GULP energy per Si atom -5590.226189 kJ/mol
# Density = 1.920436 g / cm^3
# Si number density = 19.248166 Si / 1000 Ang^3
#
#
#
# Elastic Constant Matrix: (Units=GPa)
#
#
# Indices 1 2 3 4 5 6 
#
# 1 41.4884 40.4719 35.2013 0.0000 0.0000 0.0000
# 2 40.4719 186.6691 85.8926 0.0000 0.0000 0.0000
# 3 35.2013 85.8926 147.5609 0.0000 0.0000 0.0000
# 4 0.0000 0.0000 0.0000 -6.0113 0.0000 0.0000
# 5 0.0000 0.0000 0.0000 0.0000 32.4470 0.0000
# 6 0.0000 0.0000 0.0000 0.0000 0.0000 17.9128
#
#
#
# Elastic Compliance Matrix: (Units=1/GPa)
#
#
# Indices 1 2 3 4 5 6 
#
# 1 0.033146 -0.004846 -0.005086 0.000000 0.000000 0.000000
# 2 -0.004846 0.008025 -0.003515 0.000000 0.000000 0.000000
# 3 -0.005086 -0.003515 0.010036 0.000000 0.000000 0.000000
# 4 0.000000 0.000000 0.000000 -0.166352 0.000000 0.000000
# 5 0.000000 0.000000 0.000000 0.000000 0.030819 0.000000
# 6 0.000000 0.000000 0.000000 0.000000 0.000000 0.055826
#
#
# Mechanical properties :
#
#
# Convention : Reuss Voigt Hill
#
# Bulk Modulus (GPa) = 41.13143 77.64998 59.39070
# Shear Modulus (GPa) = 769.21564 23.14655 396.18109
#
# Velocity S-wave (km/s) = 20.01245 3.47152 14.36227
# Velocity P-wave (km/s) = 23.56720 7.51649 17.49158
#
# Compressibility (1/GPa) = 0.02431231
#
# Stress axis : x y z
#
# Youngs Moduli (GPa) = 30.16961 124.60665 99.63692
#
# Poissons Ratio (x) = 0.60384 0.50679
# Poissons Ratio (y) = 0.14620 0.35026
# Poissons Ratio (z) = 0.15345 0.43803
#
# Static dielectric constant tensor:
#      x y z
#    x 1.654500 0.000000 0.000000 
#    y 0.000000 1.670170 0.000000 
#    z 0.000000 0.000000 1.633080 
# 
# From -- ./inp_files/11996.got.cif
#   From: 2010.05.17/outbox.cif.g08.bks.cpg/sg35_6_cif.got.tgz:11996.got - 2010.06.03 17:29:28.
