data_PCOD9348476
_publ_section_title
;
Structure prediction by ZEFSAII (Michael W. Deem and Ramdas Pophale) SiO2 
 PCOD9348476
Probable space group: C M M 2
;
_chemical_formula_sum "Si O2"
_cell_formula_units_Z 48
_cell_length_a 18.952614
_cell_length_b 26.391002
_cell_length_c 5.144080
_cell_angle_alpha 90.000000
_cell_angle_beta 90.000000
_cell_angle_gamma 90.000000
_cell_volume 2572.958084
_symmetry_space_group_name_H-M "C M M 2"
_symmetry_group_IT_number 35
_symmetry_cell_setting 'orthorhombic'
loop_
_space_group_symop_operation_xyz
x,y,z
-x,-y,z
-x,y,z
x,-y,z
1/2+x,1/2+y,z
1/2-x,1/2-y,z
1/2-x,1/2+y,z
1/2+x,1/2-y,z
loop_
_atom_site_type_symbol
_atom_site_label
_atom_site_fract_x
_atom_site_fract_y
_atom_site_fract_z
Si Si1 0.080683 0.238282 0.100730
Si Si2 0.080505 0.061857 0.093908
Si Si3 0.330872 0.439357 0.595018
Si Si4 0.278390 0.306863 0.987712
Si Si5 0.721594 0.140852 0.487813
Si Si6 0.580954 0.191819 0.598869
O O1 0.138765 0.195983 0.049154
O O2 0.091739 0.265252 0.377965
O O3 0.000000 0.220216 0.085667
O O4 0.090075 0.281045 0.877011
O O5 0.115256 0.076040 0.366752
O O6 0.000000 0.079625 0.062911
O O7 0.077806 0.000000 0.087510
O O8 0.132991 0.076954 0.863593
O O9 0.324345 0.500000 0.593273
O O10 0.256203 0.413190 0.544707
O O11 0.250000 0.250000 0.030758
O O12 0.239509 0.342464 0.195301
O O13 0.261624 0.322528 0.693647
O O14 0.639550 0.149403 0.549066
O O15 0.500000 0.174130 0.577357
#
# Coordination Sequence:
#
# PCOD9348476 Si02
#       6
#     8   8   8   8   8   8
#     4  10  20  34  51  74 106 139 168 209 259 307
#     4   9  17  33  56  77 100 138 184 222 262 314
#     4  10  21  36  54  80 109 141 182 229 269 311
#     4  12  21  35  56  79 107 138 174 221 261 322
#     4  12  22  35  55  81 105 141 180 217 268 319
#     4  10  19  33  53  76 100 134 177 212 250 315
#
# _framework density 18.655569
#
# number of rings (size 3 to 8) (size 9 to 14) (size 15 to 20)
#    0.000    1.500    3.333    3.000    0.000    2.000 
#    0.000    5.000    0.000    0.500    0.000    0.000 
#    0.000   10.667    0.000    0.000    0.000    1.667 
#
# Total GULP energy -134103.054678 kJ/mol
# GULP energy per Si atom -5587.627278 kJ/mol
# Density = 1.861311 g / cm^3
# Si number density = 18.655569 Si / 1000 Ang^3
#
#
#
# Elastic Constant Matrix: (Units=GPa)
#
#
# Indices 1 2 3 4 5 6 
#
# 1 102.1099 19.9847 -10.3748 0.0000 0.0000 0.0000
# 2 19.9847 38.7912 0.0111 0.0000 0.0000 0.0000
# 3 -10.3748 0.0111 71.0631 0.0000 0.0000 0.0000
# 4 0.0000 0.0000 0.0000 16.4060 0.0000 0.0000
# 5 0.0000 0.0000 0.0000 0.0000 23.5665 0.0000
# 6 0.0000 0.0000 0.0000 0.0000 0.0000 24.8393
#
#
#
# Elastic Compliance Matrix: (Units=1/GPa)
#
#
# Indices 1 2 3 4 5 6 
#
# 1 0.011074 -0.005706 0.001618 0.000000 0.000000 0.000000
# 2 -0.005706 0.028719 -0.000838 0.000000 0.000000 0.000000
# 3 0.001618 -0.000838 0.014308 0.000000 0.000000 0.000000
# 4 0.000000 0.000000 0.000000 0.060953 0.000000 0.000000
# 5 0.000000 0.000000 0.000000 0.000000 0.042433 0.000000
# 6 0.000000 0.000000 0.000000 0.000000 0.000000 0.040259
#
#
# Mechanical properties :
#
#
# Convention : Reuss Voigt Hill
#
# Bulk Modulus (GPa) = 22.59873 25.68957 24.14415
# Shear Modulus (GPa) = 22.48724 26.45191 24.46958
#
# Velocity S-wave (km/s) = 3.47564 3.76960 3.62560
# Velocity P-wave (km/s) = 5.31476 5.72249 5.52239
#
# Compressibility (1/GPa) = 0.04425027
#
# Stress axis : x y z
#
# Youngs Moduli (GPa) = 90.29779 34.82028 69.88949
#
# Poissons Ratio (x) = 0.19868 -0.11306
# Poissons Ratio (y) = 0.51523 0.05853
# Poissons Ratio (z) = -0.14608 0.02916
#
# Static dielectric constant tensor:
#      x y z
#    x 1.668840 0.000000 0.000000 
#    y 0.000000 1.648560 0.000000 
#    z 0.000000 0.000000 1.634730 
# 
# From -- ./inp_files/2568.got.cif
#   From: 2010.05.17/outbox.cif.g08.bks.cpg/sg35_2_cif.got.tgz:2568.got - 2010.06.03 17:29:28.
