data_PCOD9348176
_publ_section_title
;
Structure prediction by ZEFSAII (Michael W. Deem and Ramdas Pophale) SiO2 
 PCOD9348176
Probable space group: C M M 2
;
_chemical_formula_sum "Si O2"
_cell_formula_units_Z 64
_cell_length_a 30.979415
_cell_length_b 9.186936
_cell_length_c 15.520338
_cell_angle_alpha 90.000000
_cell_angle_beta 90.000000
_cell_angle_gamma 90.000000
_cell_volume 4417.179810
_symmetry_space_group_name_H-M "C M M 2"
_symmetry_group_IT_number 35
_symmetry_cell_setting 'orthorhombic'
loop_
_space_group_symop_operation_xyz
x,y,z
-x,-y,z
-x,y,z
x,-y,z
1/2+x,1/2+y,z
1/2-x,1/2-y,z
1/2-x,1/2+y,z
1/2+x,1/2-y,z
loop_
_atom_site_type_symbol
_atom_site_label
_atom_site_fract_x
_atom_site_fract_y
_atom_site_fract_z
Si Si1 0.050352 0.325550 0.632590
Si Si2 0.207190 0.833399 0.492650
Si Si3 0.382990 0.825337 0.286547
Si Si4 0.947446 0.167843 0.808759
Si Si5 0.448574 0.673312 0.158439
Si Si6 0.552440 0.167286 0.980995
Si Si7 0.880678 0.326217 0.488920
Si Si8 0.293497 0.668442 0.283063
O O1 0.052963 0.500000 0.645924
O O2 0.064809 0.244879 0.719505
O O3 0.080034 0.286897 0.551500
O O4 0.000000 0.290057 0.616596
O O5 0.250000 0.750000 0.522122
O O6 0.163059 0.753487 0.516727
O O7 0.208090 0.832750 0.387808
O O8 0.207492 0.000000 0.521229
O O9 0.420639 0.753320 0.230770
O O10 0.389432 0.792889 0.388398
O O11 0.336969 0.755447 0.260369
O O12 0.382152 0.000000 0.275996
O O13 0.932788 0.256038 0.892981
O O14 0.000000 0.169192 0.810539
O O15 0.933683 0.000000 0.811878
O O16 0.500000 0.697949 0.170885
O O17 0.441163 0.500000 0.159586
O O18 0.436294 0.740791 0.065688
O O19 0.500000 0.164887 0.977947
O O20 0.567031 0.000000 0.987172
O O21 0.873930 0.500000 0.494050
O O22 0.294957 0.500000 0.254882
O O23 0.250000 0.750000 0.253645
#
# Coordination Sequence:
#
# PCOD9348176 Si02
#       8
#     8   8   8   8   8   8   8   8
#     4   9  17  29  43  59  82 114 149 181 212 248
#     4   9  16  26  42  61  81 105 135 173 217 261
#     4  10  19  30  44  62  85 115 150 184 217 255
#     4   9  16  26  41  61  83 106 134 172 217 259
#     4  10  20  32  44  60  85 116 148 182 218 255
#     4   9  16  27  44  63  81 104 136 174 216 260
#     4   9  18  30  43  60  84 114 148 183 215 249
#     4   9  16  27  43  62  83 107 137 175 219 262
#
# _framework density 14.488882
#
# number of rings (size 3 to 8) (size 9 to 14) (size 15 to 20)
#    0.000    2.750    0.000    2.250    0.000    8.250 
#    0.000    1.250    0.000    1.500    0.000    0.000 
#    0.000    1.000    0.000    7.000    0.000    6.000 
#
# Total GULP energy -178259.385113 kJ/mol
# GULP energy per Si atom -5570.605785 kJ/mol
# Density = 1.445590 g / cm^3
# Si number density = 14.488882 Si / 1000 Ang^3
#
#
#
# Elastic Constant Matrix: (Units=GPa)
#
#
# Indices 1 2 3 4 5 6 
#
# 1 78.6073 59.3825 56.4964 0.0000 0.0000 0.0000
# 2 59.3825 98.3853 60.1753 0.0000 0.0000 0.0000
# 3 56.4964 60.1753 83.2949 0.0000 0.0000 0.0000
# 4 0.0000 0.0000 0.0000 19.4507 0.0000 0.0000
# 5 0.0000 0.0000 0.0000 0.0000 -0.7759 0.0000
# 6 0.0000 0.0000 0.0000 0.0000 0.0000 23.6866
#
#
#
# Elastic Compliance Matrix: (Units=1/GPa)
#
#
# Indices 1 2 3 4 5 6 
#
# 1 0.029404 -0.009942 -0.012761 0.000000 0.000000 0.000000
# 2 -0.009942 0.021573 -0.008841 0.000000 0.000000 0.000000
# 3 -0.012761 -0.008841 0.027048 0.000000 0.000000 0.000000
# 4 0.000000 0.000000 0.000000 0.051412 0.000000 0.000000
# 5 0.000000 0.000000 0.000000 0.000000 -1.288813 0.000000
# 6 0.000000 0.000000 0.000000 0.000000 0.000000 0.042218
#
#
# Mechanical properties :
#
#
# Convention : Reuss Voigt Hill
#
# Bulk Modulus (GPa) = 66.95497 68.04401 67.49949
# Shear Modulus (GPa) = -4.76603 14.08785 4.66091
#
# Velocity S-wave (km/s) = -1.81565 3.12159 1.79551
# Velocity P-wave (km/s) = 6.47427 7.74966 7.14050
#
# Compressibility (1/GPa) = 0.01493541
#
# Stress axis : x y z
#
# Youngs Moduli (GPa) = 34.00938 46.35530 36.97100
#
# Poissons Ratio (x) = 0.46087 0.47179
# Poissons Ratio (y) = 0.33813 0.32687
# Poissons Ratio (z) = 0.43399 0.40984
#
# Static dielectric constant tensor:
#      x y z
#    x 1.459100 0.000000 0.000000 
#    y 0.000000 1.487070 0.000000 
#    z 0.000000 0.000000 1.459810 
# 
# From -- ./inp_files/16135.got.cif
#   From: 2010.05.17/outbox.cif.g08.bks.cpg/sg35_9_cif.got.tgz:16135.got - 2010.06.03 17:29:28.
