data_PCOD9348215
_publ_section_title
;
Structure prediction by ZEFSAII (Michael W. Deem and Ramdas Pophale) SiO2 
 PCOD9348215
Probable space group: C M M 2
;
_chemical_formula_sum "Si O2"
_cell_formula_units_Z 64
_cell_length_a 29.543634
_cell_length_b 8.288486
_cell_length_c 16.258969
_cell_angle_alpha 90.000000
_cell_angle_beta 90.000000
_cell_angle_gamma 90.000000
_cell_volume 3981.366205
_symmetry_space_group_name_H-M "C M M 2"
_symmetry_group_IT_number 35
_symmetry_cell_setting 'orthorhombic'
loop_
_space_group_symop_operation_xyz
x,y,z
-x,-y,z
-x,y,z
x,-y,z
1/2+x,1/2+y,z
1/2-x,1/2-y,z
1/2-x,1/2+y,z
1/2+x,1/2-y,z
loop_
_atom_site_type_symbol
_atom_site_label
_atom_site_fract_x
_atom_site_fract_y
_atom_site_fract_z
Si Si1 0.644055 0.194208 0.301500
Si Si2 0.855462 0.192945 0.979262
Si Si3 0.197888 0.304507 0.461178
Si Si4 0.449307 0.305488 0.238523
Si Si5 0.050484 0.196672 0.047408
Si Si6 0.802121 0.305441 0.640724
Si Si7 0.698317 0.193470 0.140041
Si Si8 0.697977 0.806839 0.820387
O O1 0.668077 0.253416 0.384626
O O2 0.591935 0.242037 0.291983
O O3 0.671070 0.252711 0.220531
O O4 0.646826 0.000000 0.301624
O O5 0.832605 0.249856 0.895385
O O6 0.856323 0.000000 0.978845
O O7 0.906860 0.252459 0.994340
O O8 0.825793 0.247091 0.057299
O O9 0.197783 0.500000 0.460368
O O10 0.250000 0.250000 0.451941
O O11 0.180068 0.250911 0.551479
O O12 0.500000 0.253479 0.263106
O O13 0.448390 0.500000 0.239879
O O14 0.442456 0.255896 0.142940
O O15 0.000000 0.249676 0.022199
O O16 0.050288 0.000000 0.046177
O O17 0.804078 0.500000 0.640805
O O18 0.750000 0.250000 0.640413
O O19 0.819517 0.250198 0.730101
O O20 0.750000 0.250000 0.143164
O O21 0.697467 0.000000 0.140045
O O22 0.750000 0.750000 0.830903
O O23 0.698701 0.000000 0.820408
#
# Coordination Sequence:
#
# PCOD9348215 Si02
#       8
#     8   8   8   8   8   8   8   8
#     4  10  20  31  45  67  94 120 149 187 226 264
#     4  11  20  31  48  67  88 118 151 186 223 265
#     4   9  17  30  46  67  92 120 153 186 222 266
#     4   9  17  31  50  68  87 115 152 190 226 268
#     4   8  15  29  48  67  85 109 145 186 224 264
#     4   8  15  28  46  64  86 116 148 185 226 263
#     4  11  22  33  43  60  90 125 156 183 214 256
#     4  10  19  31  46  66  92 120 151 187 224 267
#
# _framework density 16.074884000000001
#
# number of rings (size 3 to 8) (size 9 to 14) (size 15 to 20)
#    0.000    2.500    1.250    2.625    0.000    1.750 
#    0.000    0.000    0.000    1.500    0.000    0.875 
#    0.000    5.000    0.000    0.000    0.000    0.000 
#
# Total GULP energy -178301.685910 kJ/mol
# GULP energy per Si atom -5571.927685 kJ/mol
# Density = 1.603830 g / cm^3
# Si number density = 16.074884 Si / 1000 Ang^3
#
#
#
# Elastic Constant Matrix: (Units=GPa)
#
#
# Indices 1 2 3 4 5 6 
#
# 1 121.2481 11.2659 83.3387 0.0000 0.0000 0.0000
# 2 11.2659 15.4156 19.3204 0.0000 0.0000 0.0000
# 3 83.3387 19.3204 164.1502 0.0000 0.0000 0.0000
# 4 0.0000 0.0000 0.0000 -0.6750 0.0000 0.0000
# 5 0.0000 0.0000 0.0000 0.0000 7.9544 0.0000
# 6 0.0000 0.0000 0.0000 0.0000 0.0000 15.6143
#
#
#
# Elastic Compliance Matrix: (Units=1/GPa)
#
#
# Indices 1 2 3 4 5 6 
#
# 1 0.012694 -0.001407 -0.006279 0.000000 0.000000 0.000000
# 2 -0.001407 0.076250 -0.008260 0.000000 0.000000 0.000000
# 3 -0.006279 -0.008260 0.010252 0.000000 0.000000 0.000000
# 4 0.000000 0.000000 0.000000 -1.481523 0.000000 0.000000
# 5 0.000000 0.000000 0.000000 0.000000 0.125716 0.000000
# 6 0.000000 0.000000 0.000000 0.000000 0.000000 0.064044
#
#
# Mechanical properties :
#
#
# Convention : Reuss Voigt Hill
#
# Bulk Modulus (GPa) = 14.85815 58.74042 36.79929
# Shear Modulus (GPa) = -4.39275 17.03801 6.32263
#
# Velocity S-wave (km/s) = -1.65488 3.25917 1.98539
# Velocity P-wave (km/s) = 2.36890 7.12629 5.31016
#
# Compressibility (1/GPa) = 0.06730314
#
# Stress axis : x y z
#
# Youngs Moduli (GPa) = 78.77574 13.11475 97.54073
#
# Poissons Ratio (x) = 0.01846 0.61248
# Poissons Ratio (y) = 0.11087 0.80569
# Poissons Ratio (z) = 0.49465 0.10833
#
# Static dielectric constant tensor:
#      x y z
#    x 1.521420 0.000000 0.000000 
#    y 0.000000 1.556570 0.000000 
#    z 0.000000 0.000000 1.566310 
# 
# From -- ./inp_files/16222.got.cif
#   From: 2010.05.17/outbox.cif.g08.bks.cpg/sg35_9_cif.got.tgz:16222.got - 2010.06.03 17:29:28.
