data_PCOD9348604
_publ_section_title
;
Structure prediction by ZEFSAII (Michael W. Deem and Ramdas Pophale) SiO2 
 PCOD9348604
Probable space group: C M M 2
;
_chemical_formula_sum "Si O2"
_cell_formula_units_Z 64
_cell_length_a 14.343638
_cell_length_b 25.208716
_cell_length_c 7.774480
_cell_angle_alpha 90.000000
_cell_angle_beta 90.000000
_cell_angle_gamma 90.000000
_cell_volume 2811.132993
_symmetry_space_group_name_H-M "C M M 2"
_symmetry_group_IT_number 35
_symmetry_cell_setting 'orthorhombic'
loop_
_space_group_symop_operation_xyz
x,y,z
-x,-y,z
-x,y,z
x,-y,z
1/2+x,1/2+y,z
1/2-x,1/2-y,z
1/2-x,1/2+y,z
1/2+x,1/2-y,z
loop_
_atom_site_type_symbol
_atom_site_label
_atom_site_fract_x
_atom_site_fract_y
_atom_site_fract_z
Si Si1 0.386368 0.728778 0.079230
Si Si2 0.388438 0.302577 0.469216
Si Si3 0.104130 0.875567 0.919068
Si Si4 0.750540 0.393656 0.499188
Si Si5 0.221849 0.560882 0.847086
Si Si6 0.398948 0.559400 0.262355
Si Si7 0.605805 0.814433 0.553970
Si Si8 0.891829 0.343439 0.958292
O O1 0.500000 0.730040 0.068053
O O2 0.363111 0.707698 0.268956
O O3 0.358253 0.684414 0.938847
O O4 0.355656 0.789178 0.046112
O O5 0.500000 0.311393 0.479645
O O6 0.330132 0.350518 0.549502
O O7 0.365208 0.246543 0.553691
O O8 0.097475 0.896824 0.115285
O O9 0.000000 0.874936 0.845894
O O10 0.171548 0.919519 0.843283
O O11 0.800243 0.428174 0.646861
O O12 0.692763 0.430455 0.372368
O O13 0.830861 0.353062 0.440131
O O14 0.209117 0.500000 0.894385
O O15 0.168438 0.602810 0.969276
O O16 0.500000 0.562973 0.356408
O O17 0.394794 0.500000 0.188384
O O18 0.500000 0.816105 0.489618
O O19 0.608639 0.831729 0.752844
O O20 0.000000 0.351997 0.009267
#
# Coordination Sequence:
#
# PCOD9348604 Si02
#       8
#     8   8   8   8   8   8   8   8
#     4   9  18  35  59  88 117 147 186 232 293 358
#     4  10  19  34  56  86 120 147 183 235 293 360
#     4  10  21  38  57  82 118 155 190 235 293 354
#     4  11  21  36  56  82 115 152 201 243 287 348
#     4  11  25  40  56  84 118 157 205 248 289 342
#     4  10  20  36  58  82 113 155 198 239 288 350
#     4   9  20  36  55  80 115 152 187 238 299 351
#     4   9  20  40  63  85 112 150 194 243 298 350
#
# _framework density 22.766622000000002
#
# number of rings (size 3 to 8) (size 9 to 14) (size 15 to 20)
#    0.000    2.125    1.250    1.500    1.750    3.500 
#    2.250    0.000    0.000    1.125    0.000    0.000 
#    0.000    5.000    0.000    0.000    0.000    0.000 
#
# Total GULP energy -178595.100894 kJ/mol
# GULP energy per Si atom -5581.096903 kJ/mol
# Density = 2.271480 g / cm^3
# Si number density = 22.766622 Si / 1000 Ang^3
#
#
#
# Elastic Constant Matrix: (Units=GPa)
#
#
# Indices 1 2 3 4 5 6 
#
# 1 58.3878 35.3564 -6.4527 0.0000 0.0000 0.0000
# 2 35.3564 179.9994 17.8601 0.0000 0.0000 0.0000
# 3 -6.4527 17.8601 26.5439 0.0000 0.0000 0.0000
# 4 0.0000 0.0000 0.0000 28.2278 0.0000 0.0000
# 5 0.0000 0.0000 0.0000 0.0000 16.9946 0.0000
# 6 0.0000 0.0000 0.0000 0.0000 0.0000 29.7356
#
#
#
# Elastic Compliance Matrix: (Units=1/GPa)
#
#
# Indices 1 2 3 4 5 6 
#
# 1 0.021080 -0.004982 0.008476 0.000000 0.000000 0.000000
# 2 -0.004982 0.007130 -0.006009 0.000000 0.000000 0.000000
# 3 0.008476 -0.006009 0.043777 0.000000 0.000000 0.000000
# 4 0.000000 0.000000 0.000000 0.035426 0.000000 0.000000
# 5 0.000000 0.000000 0.000000 0.000000 0.058842 0.000000
# 6 0.000000 0.000000 0.000000 0.000000 0.000000 0.033630
#
#
# Mechanical properties :
#
#
# Convention : Reuss Voigt Hill
#
# Bulk Modulus (GPa) = 14.93437 39.82876 27.38156
# Shear Modulus (GPa) = 22.00382 29.53610 25.76996
#
# Velocity S-wave (km/s) = 3.11222 3.60577 3.36805
# Velocity P-wave (km/s) = 4.41459 5.90490 5.21327
#
# Compressibility (1/GPa) = 0.06695965
#
# Stress axis : x y z
#
# Youngs Moduli (GPa) = 47.43765 140.24617 22.84306
#
# Poissons Ratio (x) = 0.69867 -0.19363
# Poissons Ratio (y) = 0.23632 0.13726
# Poissons Ratio (z) = -0.40210 0.84270
#
# Static dielectric constant tensor:
#      x y z
#    x 1.904520 0.000000 0.000000 
#    y 0.000000 1.831500 0.000000 
#    z 0.000000 0.000000 1.947980 
# 
# From -- ./inp_files/7873.got.cif
#   From: 2010.05.17/outbox.cif.g08.bks.cpg/sg35_4_cif.got.tgz:7873.got - 2010.06.03 17:29:28.
