data_PCOD9348493
_publ_section_title
;
Structure prediction by ZEFSAII (Michael W. Deem and Ramdas Pophale) SiO2 
 PCOD9348493
Probable space group: C M M 2
;
_chemical_formula_sum "Si O2"
_cell_formula_units_Z 56
_cell_length_a 16.013770
_cell_length_b 13.457254
_cell_length_c 11.397030
_cell_angle_alpha 90.000000
_cell_angle_beta 90.000000
_cell_angle_gamma 90.000000
_cell_volume 2456.075583
_symmetry_space_group_name_H-M "C M M 2"
_symmetry_group_IT_number 35
_symmetry_cell_setting 'orthorhombic'
loop_
_space_group_symop_operation_xyz
x,y,z
-x,-y,z
-x,y,z
x,-y,z
1/2+x,1/2+y,z
1/2-x,1/2-y,z
1/2-x,1/2+y,z
1/2+x,1/2-y,z
loop_
_atom_site_type_symbol
_atom_site_label
_atom_site_fract_x
_atom_site_fract_y
_atom_site_fract_z
Si Si1 0.594190 0.118337 0.486490
Si Si2 0.308572 0.884035 0.880480
Si Si3 0.908951 0.879536 0.197739
Si Si4 0.909614 0.727572 0.722772
Si Si5 0.228374 0.380677 0.287298
Si Si6 0.092669 0.379447 0.098342
Si Si7 0.881190 0.118021 0.926060
O O1 0.500000 0.120198 0.430681
O O2 0.592852 0.206023 0.583834
O O3 0.673127 0.138534 0.402808
O O4 0.602105 0.000000 0.527457
O O5 0.327023 0.829067 0.762192
O O6 0.218279 0.866840 0.931602
O O7 0.317762 0.000000 0.862200
O O8 0.380578 0.849453 0.968422
O O9 0.824201 0.847639 0.266032
O O10 0.000000 0.850598 0.248260
O O11 0.906456 0.000000 0.198105
O O12 0.908848 0.852761 0.058199
O O13 0.907910 0.826573 0.804967
O O14 0.000000 0.679808 0.754276
O O15 0.232705 0.500000 0.280310
O O16 0.167605 0.348771 0.181756
O O17 0.092318 0.500000 0.099928
O O18 0.000000 0.347527 0.130414
O O19 0.898692 0.000000 0.913629
#
# Coordination Sequence:
#
# PCOD9348493 Si02
#       7
#     8   8   8   8   8   8   8
#     4   9  18  32  51  81 126 173 207 243 304 380
#     4  10  19  33  53  82 121 160 200 249 306 370
#     4   9  16  28  50  83 122 160 203 257 312 367
#     4  11  22  34  52  84 125 166 209 253 304 370
#     4   9  15  27  48  79 121 162 201 245 301 368
#     4   9  15  24  44  77 117 158 195 235 292 364
#     4  10  20  36  56  83 122 167 213 260 309 363
#
# _framework density 22.800601
#
# number of rings (size 3 to 8) (size 9 to 14) (size 15 to 20)
#    0.000    2.429    1.429    2.143    0.000    4.000 
#    0.000    0.000    0.000    0.000    7.429    6.000 
#    0.000   17.143    0.000    0.857    0.000    0.571 
#
# Total GULP energy -155930.880456 kJ/mol
# GULP energy per Si atom -5568.960016 kJ/mol
# Density = 2.274871 g / cm^3
# Si number density = 22.800601 Si / 1000 Ang^3
#
#
#
# Elastic Constant Matrix: (Units=GPa)
#
#
# Indices 1 2 3 4 5 6 
#
# 1 192.7825 30.9160 64.9997 0.0000 0.0000 0.0000
# 2 30.9160 75.1805 19.7676 0.0000 0.0000 0.0000
# 3 64.9997 19.7676 87.2949 0.0000 0.0000 0.0000
# 4 0.0000 0.0000 0.0000 28.9095 0.0000 0.0000
# 5 0.0000 0.0000 0.0000 0.0000 28.1501 0.0000
# 6 0.0000 0.0000 0.0000 0.0000 0.0000 5.5460
#
#
#
# Elastic Compliance Matrix: (Units=1/GPa)
#
#
# Indices 1 2 3 4 5 6 
#
# 1 0.007109 -0.001628 -0.004924 0.000000 0.000000 0.000000
# 2 -0.001628 0.014516 -0.002075 0.000000 0.000000 0.000000
# 3 -0.004924 -0.002075 0.015592 0.000000 0.000000 0.000000
# 4 0.000000 0.000000 0.000000 0.034591 0.000000 0.000000
# 5 0.000000 0.000000 0.000000 0.000000 0.035524 0.000000
# 6 0.000000 0.000000 0.000000 0.000000 0.000000 0.180310
#
#
# Mechanical properties :
#
#
# Convention : Reuss Voigt Hill
#
# Bulk Modulus (GPa) = 50.09493 65.18053 57.63773
# Shear Modulus (GPa) = 16.04874 28.49276 22.27075
#
# Velocity S-wave (km/s) = 2.65594 3.53887 3.12871
# Velocity P-wave (km/s) = 5.60571 6.73405 6.19562
#
# Compressibility (1/GPa) = 0.01996210
#
# Stress axis : x y z
#
# Youngs Moduli (GPa) = 140.67333 68.88721 64.13592
#
# Poissons Ratio (x) = 0.11218 0.31583
# Poissons Ratio (y) = 0.22908 0.13306
# Poissons Ratio (z) = 0.69272 0.14292
#
# Static dielectric constant tensor:
#      x y z
#    x 1.852200 0.000000 0.000000 
#    y 0.000000 1.919480 0.000000 
#    z 0.000000 0.000000 1.840870 
# 
# From -- ./inp_files/12985.got.cif
#   From: 2010.05.17/outbox.cif.g08.bks.cpg/sg35_7_cif.got.tgz:12985.got - 2010.06.03 17:29:28.
