data_PCOD9348214
_publ_section_title
;
Structure prediction by ZEFSAII (Michael W. Deem and Ramdas Pophale) SiO2 
 PCOD9348214
Probable space group: C M M 2
;
_chemical_formula_sum "Si O2"
_cell_formula_units_Z 64
_cell_length_a 29.521139
_cell_length_b 8.454624
_cell_length_c 16.155475
_cell_angle_alpha 90.000000
_cell_angle_beta 90.000000
_cell_angle_gamma 90.000000
_cell_volume 4032.247110
_symmetry_space_group_name_H-M "C M M 2"
_symmetry_group_IT_number 35
_symmetry_cell_setting 'orthorhombic'
loop_
_space_group_symop_operation_xyz
x,y,z
-x,-y,z
-x,y,z
x,-y,z
1/2+x,1/2+y,z
1/2-x,1/2-y,z
1/2-x,1/2+y,z
1/2+x,1/2-y,z
loop_
_atom_site_type_symbol
_atom_site_label
_atom_site_fract_x
_atom_site_fract_y
_atom_site_fract_z
Si Si1 0.799081 0.688023 0.469400
Si Si2 0.200925 0.810486 0.656985
Si Si3 0.052376 0.308428 0.885569
Si Si4 0.447373 0.191990 0.247518
Si Si5 0.055010 0.682714 0.066280
Si Si6 0.106401 0.191218 0.728187
Si Si7 0.391202 0.310314 0.403001
Si Si8 0.447910 0.307145 0.564214
O O1 0.798076 0.500000 0.472771
O O2 0.750000 0.750000 0.441603
O O3 0.806291 0.752573 0.562783
O O4 0.840596 0.746184 0.414035
O O5 0.250000 0.750000 0.684792
O O6 0.158209 0.758734 0.711813
O O7 0.201701 0.000000 0.654926
O O8 0.052187 0.500000 0.888951
O O9 0.084051 0.253532 0.811607
O O10 0.000000 0.258481 0.871018
O O11 0.067492 0.248301 0.976767
O O12 0.500000 0.238763 0.261431
O O13 0.432605 0.251033 0.155916
O O14 0.416005 0.252822 0.320573
O O15 0.446523 0.000000 0.245849
O O16 0.070562 0.500000 0.066443
O O17 0.000000 0.679507 0.066083
O O18 0.077000 0.242877 0.648361
O O19 0.105439 0.000000 0.729987
O O20 0.389996 0.500000 0.404211
O O21 0.420241 0.256190 0.483213
O O22 0.500000 0.254537 0.561724
O O23 0.447936 0.500000 0.563977
#
# Coordination Sequence:
#
# PCOD9348214 Si02
#       8
#     8   8   8   8   8   8   8   8
#     4  11  21  34  52  71  92 120 156 199 243 283
#     4  10  19  33  50  69  91 120 156 197 241 284
#     4   9  17  29  46  69  95 124 160 198 234 275
#     4   9  17  30  48  70  96 127 163 199 236 282
#     4   7  12  26  46  65  90 124 157 193 238 282
#     4  10  19  31  46  65  93 126 158 189 232 283
#     4  11  20  32  47  68  97 128 162 196 234 281
#     4   9  17  29  43  59  88 130 163 183 216 270
#
# _framework density 15.872043
#
# number of rings (size 3 to 8) (size 9 to 14) (size 15 to 20)
#    0.000    2.500    1.250    4.875    0.000    2.500 
#    0.000    0.625    0.000    4.500    0.000    0.875 
#    0.000    2.000    0.000    0.000    0.000    0.000 
#
# Total GULP energy -178358.766334 kJ/mol
# GULP energy per Si atom -5573.711448 kJ/mol
# Density = 1.583592 g / cm^3
# Si number density = 15.872043 Si / 1000 Ang^3
#
#
#
# Elastic Constant Matrix: (Units=GPa)
#
#
# Indices 1 2 3 4 5 6 
#
# 1 130.2125 28.1468 84.2586 0.0000 0.0000 0.0000
# 2 28.1468 31.2025 23.8338 0.0000 0.0000 0.0000
# 3 84.2586 23.8338 149.1402 0.0000 0.0000 0.0000
# 4 0.0000 0.0000 0.0000 15.4184 0.0000 0.0000
# 5 0.0000 0.0000 0.0000 0.0000 9.0230 0.0000
# 6 0.0000 0.0000 0.0000 0.0000 0.0000 18.6617
#
#
#
# Elastic Compliance Matrix: (Units=1/GPa)
#
#
# Indices 1 2 3 4 5 6 
#
# 1 0.013380 -0.007171 -0.006413 0.000000 0.000000 0.000000
# 2 -0.007171 0.040348 -0.002397 0.000000 0.000000 0.000000
# 3 -0.006413 -0.002397 0.010711 0.000000 0.000000 0.000000
# 4 0.000000 0.000000 0.000000 0.064857 0.000000 0.000000
# 5 0.000000 0.000000 0.000000 0.000000 0.110828 0.000000
# 6 0.000000 0.000000 0.000000 0.000000 0.000000 0.053586
#
#
# Mechanical properties :
#
#
# Convention : Reuss Voigt Hill
#
# Bulk Modulus (GPa) = 30.79029 64.78149 47.78589
# Shear Modulus (GPa) = 14.85899 20.24170 17.55034
#
# Velocity S-wave (km/s) = 3.06302 3.57502 3.32887
# Velocity P-wave (km/s) = 5.65249 7.61212 6.70429
#
# Compressibility (1/GPa) = 0.03247777
#
# Stress axis : x y z
#
# Youngs Moduli (GPa) = 74.74094 24.78444 93.36005
#
# Poissons Ratio (x) = 0.17772 0.59872
# Poissons Ratio (y) = 0.53595 0.22376
# Poissons Ratio (z) = 0.47931 0.05940
#
# Static dielectric constant tensor:
#      x y z
#    x 1.519440 0.000000 0.000000 
#    y 0.000000 1.547380 0.000000 
#    z 0.000000 0.000000 1.535940 
# 
# From -- ./inp_files/17730.got.cif
#   From: 2010.05.17/outbox.cif.g08.bks.cpg/sg35_9_cif.got.tgz:17730.got - 2010.06.03 17:29:28.
