data_PCOD9348751
_publ_section_title
;
Structure prediction by ZEFSAII (Michael W. Deem and Ramdas Pophale) SiO2 
 PCOD9348751
Probable space group: C M M 2
;
_chemical_formula_sum "Si O2"
_cell_formula_units_Z 64
_cell_length_a 14.997622
_cell_length_b 14.622689
_cell_length_c 13.258696
_cell_angle_alpha 90.000000
_cell_angle_beta 90.000000
_cell_angle_gamma 90.000000
_cell_volume 2907.705781
_symmetry_space_group_name_H-M "C M M 2"
_symmetry_group_IT_number 35
_symmetry_cell_setting 'orthorhombic'
loop_
_space_group_symop_operation_xyz
x,y,z
-x,-y,z
-x,y,z
x,-y,z
1/2+x,1/2+y,z
1/2-x,1/2-y,z
1/2-x,1/2+y,z
1/2+x,1/2-y,z
loop_
_atom_site_type_symbol
_atom_site_label
_atom_site_fract_x
_atom_site_fract_y
_atom_site_fract_z
Si Si1 0.391150 0.104932 0.469320
Si Si2 0.892281 0.896154 0.769483
Si Si3 0.358161 0.394928 0.992918
Si Si4 0.846388 0.605531 0.060450
Si Si5 0.890438 0.278058 0.661021
Si Si6 0.101336 0.896813 0.213228
Si Si7 0.603765 0.102923 0.846398
Si Si8 0.608814 0.206195 0.265941
O O1 0.500000 0.103592 0.471106
O O2 0.362126 0.171762 0.559360
O O3 0.364384 0.146061 0.361623
O O4 0.361713 0.000000 0.483127
O O5 0.862492 0.825756 0.683516
O O6 0.000000 0.900148 0.766383
O O7 0.858048 0.000000 0.758990
O O8 0.869881 0.856522 0.881122
O O9 0.388775 0.500000 0.980232
O O10 0.255881 0.392863 0.026225
O O11 0.403666 0.364206 0.096225
O O12 0.875100 0.500000 0.076764
O O13 0.860972 0.660507 0.161806
O O14 0.892848 0.641969 0.959340
O O15 0.857808 0.336664 0.757334
O O16 0.000000 0.277525 0.660423
O O17 0.143180 0.811036 0.270707
O O18 0.000000 0.905901 0.249884
O O19 0.141681 0.000000 0.216226
O O20 0.500000 0.093499 0.821296
O O21 0.643361 0.000000 0.849959
O O22 0.500000 0.209075 0.264288
#
# Coordination Sequence:
#
# PCOD9348751 Si02
#       8
#     8   8   8   8   8   8   8   8
#     4   9  17  31  51  75 104 137 172 213 259 308
#     4   9  17  30  49  74 104 137 174 217 264 311
#     4   9  18  32  49  72 102 138 174 212 257 311
#     4  10  20  32  47  74 107 138 170 209 263 316
#     4   9  17  29  48  73  99 129 170 211 254 306
#     4   9  18  33  51  71  98 134 175 216 258 303
#     4   9  17  29  45  68 101 135 165 205 255 307
#     4  10  20  32  50  76 106 140 179 215 256 310
#
# _framework density 22.010477999999999
#
# number of rings (size 3 to 8) (size 9 to 14) (size 15 to 20)
#    0.000    2.750    0.000    1.500    1.750    4.750 
#    0.000    0.625    0.000    3.750    6.500    0.000 
#    0.000    0.000    0.000    0.000    0.000    0.000 
#
# Total GULP energy -178483.131570 kJ/mol
# GULP energy per Si atom -5577.597862 kJ/mol
# Density = 2.196038 g / cm^3
# Si number density = 22.010478 Si / 1000 Ang^3
#
#
#
# Elastic Constant Matrix: (Units=GPa)
#
#
# Indices 1 2 3 4 5 6 
#
# 1 31.0941 6.6350 3.9883 0.0000 0.0000 0.0000
# 2 6.6350 152.4043 89.5056 0.0000 0.0000 0.0000
# 3 3.9883 89.5056 126.3695 0.0000 0.0000 0.0000
# 4 0.0000 0.0000 0.0000 40.5686 0.0000 0.0000
# 5 0.0000 0.0000 0.0000 0.0000 -8.9922 0.0000
# 6 0.0000 0.0000 0.0000 0.0000 0.0000 3.2310
#
#
#
# Elastic Compliance Matrix: (Units=1/GPa)
#
#
# Indices 1 2 3 4 5 6 
#
# 1 0.032462 -0.001390 -0.000040 0.000000 0.000000 0.000000
# 2 -0.001390 0.011294 -0.007956 0.000000 0.000000 0.000000
# 3 -0.000040 -0.007956 0.013550 0.000000 0.000000 0.000000
# 4 0.000000 0.000000 0.000000 0.024650 0.000000 0.000000
# 5 0.000000 0.000000 0.000000 0.000000 -0.111207 0.000000
# 6 0.000000 0.000000 0.000000 0.000000 0.000000 0.309502
#
#
# Mechanical properties :
#
#
# Convention : Reuss Voigt Hill
#
# Bulk Modulus (GPa) = 25.95064 56.68065 41.31564
# Shear Modulus (GPa) = 16.03250 20.94406 18.48828
#
# Velocity S-wave (km/s) = 2.70182 3.08807 2.90138
# Velocity P-wave (km/s) = 4.64207 6.20664 5.48048
#
# Compressibility (1/GPa) = 0.03853470
#
# Stress axis : x y z
#
# Youngs Moduli (GPa) = 30.80512 88.54004 73.80342
#
# Poissons Ratio (x) = 0.12303 0.00298
# Poissons Ratio (y) = 0.04281 0.58716
# Poissons Ratio (z) = 0.00124 0.70440
#
# Static dielectric constant tensor:
#      x y z
#    x 1.886330 0.000000 0.000000 
#    y 0.000000 1.863230 0.000000 
#    z 0.000000 0.000000 1.778670 
# 
# From -- ./inp_files/13611.got.cif
#   From: 2010.05.17/outbox.cif.g08.bks.cpg/sg35_7_cif.got.tgz:13611.got - 2010.06.03 17:29:28.
