data_PCOD9348064
_publ_section_title
;
Structure prediction by ZEFSAII (Michael W. Deem and Ramdas Pophale) SiO2 
 PCOD9348064
Probable space group: C M M 2
;
_chemical_formula_sum "Si O2"
_cell_formula_units_Z 46
_cell_length_a 19.612587
_cell_length_b 8.333346
_cell_length_c 14.033010
_cell_angle_alpha 90.000000
_cell_angle_beta 90.000000
_cell_angle_gamma 90.000000
_cell_volume 2293.533732
_symmetry_space_group_name_H-M "C M M 2"
_symmetry_group_IT_number 35
_symmetry_cell_setting 'orthorhombic'
loop_
_space_group_symop_operation_xyz
x,y,z
-x,-y,z
-x,y,z
x,-y,z
1/2+x,1/2+y,z
1/2-x,1/2-y,z
1/2-x,1/2+y,z
1/2+x,1/2-y,z
loop_
_atom_site_type_symbol
_atom_site_label
_atom_site_fract_x
_atom_site_fract_y
_atom_site_fract_z
Si Si1 0.326904 0.188548 0.610440
Si Si2 0.327725 0.310851 0.809333
Si Si3 0.647334 0.175258 0.011248
Si Si4 0.359235 0.500000 0.089140
Si Si5 0.581400 0.500000 0.296910
Si Si6 0.918895 0.684683 0.423698
Si Si7 0.000000 0.000000 0.966859
Si Si8 0.000000 0.332296 0.970826
O O1 0.250000 0.250000 0.590555
O O2 0.355917 0.276020 0.704407
O O3 0.374743 0.208001 0.519090
O O4 0.321904 0.000000 0.633531
O O5 0.331444 0.500000 0.831422
O O6 0.250000 0.250000 0.802587
O O7 0.355265 0.209681 0.898001
O O8 0.676791 0.334559 0.058614
O O9 0.677139 0.000000 0.029974
O O10 0.567018 0.168672 0.036414
O O11 0.377308 0.500000 0.199197
O O12 0.431263 0.500000 0.029886
O O13 0.500000 0.500000 0.276843
O O14 0.596301 0.665190 0.354247
O O15 0.905206 0.500000 0.388620
O O16 0.000000 0.692100 0.444029
O O17 0.000000 0.167410 0.912054
O O18 0.000000 0.500000 0.915991
#
# Coordination Sequence:
#
# PCOD9348064 Si02
#       8
#     8   8   8   4   4   8   2   4
#     4  10  20  35  59  87 115 150 194 238 285 351
#     4  11  21  35  55  82 111 146 191 232 274 339
#     4  10  19  34  52  78 111 147 185 228 275 323
#     4  10  18  32  51  81 107 145 186 229 281 326
#     4  10  20  34  59  84 115 148 189 242 291 343
#     4   9  20  38  58  85 118 152 190 238 300 354
#     4   8  14  26  46  64 104 124 170 224 254 318
#     4   8  16  28  46  68  99 135 172 213 263 312
#
# _framework density 20.056387000000001
#
# number of rings (size 3 to 8) (size 9 to 14) (size 15 to 20)
#    0.000    2.261    1.304    3.130    2.435    0.696 
#    1.565    0.000    0.000    1.043    0.000    0.000 
#    0.000    0.000    0.000    0.000    0.000    0.000 
#
# Total GULP energy -128134.028257 kJ/mol
# GULP energy per Si atom -5571.044707 kJ/mol
# Density = 2.001074 g / cm^3
# Si number density = 20.056387 Si / 1000 Ang^3
#
#
#
# Elastic Constant Matrix: (Units=GPa)
#
#
# Indices 1 2 3 4 5 6 
#
# 1 39.9667 27.6912 20.8491 0.0000 0.0000 0.0000
# 2 27.6912 224.8516 65.3039 0.0000 0.0000 0.0000
# 3 20.8491 65.3039 88.5584 0.0000 0.0000 0.0000
# 4 0.0000 0.0000 0.0000 15.2837 0.0000 0.0000
# 5 0.0000 0.0000 0.0000 0.0000 17.6028 0.0000
# 6 0.0000 0.0000 0.0000 0.0000 0.0000 24.1170
#
#
#
# Elastic Compliance Matrix: (Units=1/GPa)
#
#
# Indices 1 2 3 4 5 6 
#
# 1 0.029240 -0.002038 -0.005381 0.000000 0.000000 0.000000
# 2 -0.002038 0.005802 -0.003798 0.000000 0.000000 0.000000
# 3 -0.005381 -0.003798 0.015360 0.000000 0.000000 0.000000
# 4 0.000000 0.000000 0.000000 0.065429 0.000000 0.000000
# 5 0.000000 0.000000 0.000000 0.000000 0.056809 0.000000
# 6 0.000000 0.000000 0.000000 0.000000 0.000000 0.041465
#
#
# Mechanical properties :
#
#
# Convention : Reuss Voigt Hill
#
# Bulk Modulus (GPa) = 35.75710 64.56279 50.15995
# Shear Modulus (GPa) = 20.33669 27.36952 23.85311
#
# Velocity S-wave (km/s) = 3.18775 3.69810 3.45237
# Velocity P-wave (km/s) = 5.60500 7.10599 6.39965
#
# Compressibility (1/GPa) = 0.02796647
#
# Stress axis : x y z
#
# Youngs Moduli (GPa) = 34.19966 172.36851 65.10556
#
# Poissons Ratio (x) = 0.35133 0.35033
# Poissons Ratio (y) = 0.06971 0.24729
# Poissons Ratio (z) = 0.18403 0.65470
#
# Static dielectric constant tensor:
#      x y z
#    x 1.770670 0.000000 0.000000 
#    y 0.000000 1.797610 0.000000 
#    z 0.000000 0.000000 1.687210 
# 
# From -- ./inp_files/14112.got.cif
#   From: 2010.05.17/outbox.cif.g08.bks.cpg/sg35_8_cif.got.tgz:14112.got - 2010.06.03 17:29:28.
