data_PCOD9348703
_publ_section_title
;
Structure prediction by ZEFSAII (Michael W. Deem and Ramdas Pophale) SiO2 
 PCOD9348703
Probable space group: C M M 2
;
_chemical_formula_sum "Si O2"
_cell_formula_units_Z 48
_cell_length_a 8.571912
_cell_length_b 15.699825
_cell_length_c 19.274991
_cell_angle_alpha 90.000000
_cell_angle_beta 90.000000
_cell_angle_gamma 90.000000
_cell_volume 2593.980454
_symmetry_space_group_name_H-M "C M M 2"
_symmetry_group_IT_number 35
_symmetry_cell_setting 'orthorhombic'
loop_
_space_group_symop_operation_xyz
x,y,z
-x,-y,z
-x,y,z
x,-y,z
1/2+x,1/2+y,z
1/2-x,1/2-y,z
1/2-x,1/2+y,z
1/2+x,1/2-y,z
loop_
_atom_site_type_symbol
_atom_site_label
_atom_site_fract_x
_atom_site_fract_y
_atom_site_fract_z
Si Si1 0.313913 0.000000 0.203560
Si Si2 0.187790 0.157189 0.455049
Si Si3 0.812102 0.656895 0.959447
Si Si4 0.187376 0.156357 0.615116
Si Si5 0.313407 0.343765 0.114243
Si Si6 0.810420 0.000000 0.359293
Si Si7 0.687350 0.000000 0.704174
Si Si8 0.810152 0.500000 0.863582
O O1 0.247679 0.083360 0.165053
O O2 0.260066 0.000000 0.283083
O O3 0.500000 0.000000 0.198584
O O4 0.250000 0.250000 0.435317
O O5 0.235690 0.139706 0.534857
O O6 0.237816 0.083090 0.403126
O O7 0.000000 0.159436 0.454534
O O8 0.750000 0.750000 0.939208
O O9 0.762224 0.583939 0.905932
O O10 0.000000 0.658954 0.962970
O O11 0.747555 0.638191 0.036336
O O12 0.250000 0.250000 0.633814
O O13 0.252464 0.083267 0.664317
O O14 0.000000 0.156238 0.617882
O O15 0.500000 0.342152 0.113965
O O16 0.250000 0.250000 0.133385
O O17 0.000000 0.000000 0.354388
O O18 0.741918 0.000000 0.784085
O O19 0.500000 0.000000 0.703550
O O20 0.000000 0.500000 0.863109
#
# Coordination Sequence:
#
# PCOD9348703 Si02
#       8
#     4   8   8   8   8   4   4   4
#     4  12  25  40  57  83 117 154 189 228 276 332
#     4   9  19  36  59  82 109 142 183 230 279 330
#     4  10  19  36  59  83 110 144 184 231 279 330
#     4  10  20  37  59  85 112 146 188 234 282 333
#     4  11  22  39  62  88 114 146 187 233 279 331
#     4  10  21  38  56  79 112 150 183 224 278 334
#     4  11  22  37  55  81 115 153 190 231 280 334
#     4   9  21  37  54  77 112 151 186 225 278 334
#
# _framework density 18.504380000000001
#
# number of rings (size 3 to 8) (size 9 to 14) (size 15 to 20)
#    0.000    1.833    0.000    5.500    0.000    4.667 
#    0.000    8.750    0.000    0.000    0.000    0.000 
#    0.000    0.000    0.000    0.000    0.000    0.000 
#
# Total GULP energy -134105.280273 kJ/mol
# GULP energy per Si atom -5587.720011 kJ/mol
# Density = 1.846226 g / cm^3
# Si number density = 18.504380 Si / 1000 Ang^3
#
#
#
# Elastic Constant Matrix: (Units=GPa)
#
#
# Indices 1 2 3 4 5 6 
#
# 1 89.3358 58.7429 51.3809 0.0000 0.0000 0.0000
# 2 58.7429 194.4488 149.6167 0.0000 0.0000 0.0000
# 3 51.3809 149.6167 149.8019 0.0000 0.0000 0.0000
# 4 0.0000 0.0000 0.0000 196.0618 0.0000 0.0000
# 5 0.0000 0.0000 0.0000 0.0000 27.6783 0.0000
# 6 0.0000 0.0000 0.0000 0.0000 0.0000 33.4410
#
#
#
# Elastic Compliance Matrix: (Units=1/GPa)
#
#
# Indices 1 2 3 4 5 6 
#
# 1 0.014187 -0.002340 -0.002529 0.000000 0.000000 0.000000
# 2 -0.002340 0.022600 -0.021769 0.000000 0.000000 0.000000
# 3 -0.002529 -0.021769 0.029285 0.000000 0.000000 0.000000
# 4 0.000000 0.000000 0.000000 0.005100 0.000000 0.000000
# 5 0.000000 0.000000 0.000000 0.000000 0.036129 0.000000
# 6 0.000000 0.000000 0.000000 0.000000 0.000000 0.029903
#
#
# Mechanical properties :
#
#
# Convention : Reuss Voigt Hill
#
# Bulk Modulus (GPa) = 78.15181 105.89640 92.02411
# Shear Modulus (GPa) = 25.67441 63.02595 44.35018
#
# Velocity S-wave (km/s) = 3.72893 5.84243 4.90096
# Velocity P-wave (km/s) = 7.80165 10.14219 9.04792
#
# Compressibility (1/GPa) = 0.01279561
#
# Stress axis : x y z
#
# Youngs Moduli (GPa) = 70.48772 44.24817 34.14703
#
# Poissons Ratio (x) = 0.10355 0.08635
# Poissons Ratio (y) = 0.16495 0.74335
# Poissons Ratio (z) = 0.17825 0.96325
#
# Static dielectric constant tensor:
#      x y z
#    x 1.627150 0.000000 0.000000 
#    y 0.000000 1.613250 0.000000 
#    z 0.000000 0.000000 1.615100 
# 
# From -- ./inp_files/17959.got.cif
#   From: 2010.05.17/outbox.cif.g08.bks.cpg/sg35_9_cif.got.tgz:17959.got - 2010.06.03 17:29:28.
