data_PCOD9348706
_publ_section_title
;
Structure prediction by ZEFSAII (Michael W. Deem and Ramdas Pophale) SiO2 
 PCOD9348706
Probable space group: C M M 2
;
_chemical_formula_sum "Si O2"
_cell_formula_units_Z 64
_cell_length_a 13.515041
_cell_length_b 24.522748
_cell_length_c 9.528172
_cell_angle_alpha 90.000000
_cell_angle_beta 90.000000
_cell_angle_gamma 90.000000
_cell_volume 3157.883406
_symmetry_space_group_name_H-M "C M M 2"
_symmetry_group_IT_number 35
_symmetry_cell_setting 'orthorhombic'
loop_
_space_group_symop_operation_xyz
x,y,z
-x,-y,z
-x,y,z
x,-y,z
1/2+x,1/2+y,z
1/2-x,1/2-y,z
1/2-x,1/2+y,z
1/2+x,1/2-y,z
loop_
_atom_site_type_symbol
_atom_site_label
_atom_site_fract_x
_atom_site_fract_y
_atom_site_fract_z
Si Si1 0.381633 0.722561 0.020710
Si Si2 0.257987 0.439211 0.978408
Si Si3 0.883999 0.130877 0.785251
Si Si4 0.884063 0.342651 0.053680
Si Si5 0.246722 0.808162 0.569835
Si Si6 0.385425 0.126868 0.379076
Si Si7 0.386365 0.676244 0.318271
Si Si8 0.302367 0.439632 0.307646
O O1 0.500000 0.730486 0.040259
O O2 0.343626 0.784043 0.004273
O O3 0.349146 0.693358 0.164538
O O4 0.373081 0.681317 0.893241
O O5 0.220679 0.500000 0.945475
O O6 0.342582 0.420763 0.870556
O O7 0.175275 0.392171 0.984226
O O8 0.297269 0.440751 0.138271
O O9 0.811746 0.146633 0.658719
O O10 0.000000 0.125856 0.746845
O O11 0.877309 0.345372 0.224131
O O12 0.000000 0.348281 0.018652
O O13 0.250000 0.750000 0.647522
O O14 0.345740 0.833927 0.502965
O O15 0.177911 0.795553 0.435922
O O16 0.500000 0.111630 0.398731
O O17 0.306204 0.077620 0.365682
O O18 0.500000 0.691271 0.332994
O O19 0.371934 0.611515 0.340345
O O20 0.330852 0.500000 0.356930
#
# Coordination Sequence:
#
# PCOD9348706 Si02
#       8
#     8   8   8   8   8   8   8   8
#     4   9  18  33  58  88 119 156 196 241 298 361
#     4  10  21  37  59  86 118 159 204 249 299 360
#     4  11  24  41  57  85 124 162 203 247 301 359
#     4   9  18  34  61  94 123 153 194 251 307 359
#     4  11  24  38  57  87 118 164 198 248 303 364
#     4   9  19  37  58  85 119 156 201 246 301 360
#     4  10  19  36  59  89 124 160 200 246 302 363
#     4   9  18  33  56  91 122 150 200 254 302 355
#
# _framework density 20.266738
#
# number of rings (size 3 to 8) (size 9 to 14) (size 15 to 20)
#    0.000    2.250    1.250    1.125    1.750    3.000 
#    0.000    6.875    0.000    3.000    0.000    0.000 
#    0.000    0.000    0.000    0.000    0.000    0.000 
#
# Total GULP energy -178566.389737 kJ/mol
# GULP energy per Si atom -5580.199679 kJ/mol
# Density = 2.022061 g / cm^3
# Si number density = 20.266738 Si / 1000 Ang^3
#
#
#
# Elastic Constant Matrix: (Units=GPa)
#
#
# Indices 1 2 3 4 5 6 
#
# 1 74.0513 5.3983 16.9830 0.0000 0.0000 0.0000
# 2 5.3983 116.2410 7.4419 0.0000 0.0000 0.0000
# 3 16.9830 7.4419 37.5493 0.0000 0.0000 0.0000
# 4 0.0000 0.0000 0.0000 11.5354 0.0000 0.0000
# 5 0.0000 0.0000 0.0000 0.0000 25.4148 0.0000
# 6 0.0000 0.0000 0.0000 0.0000 0.0000 18.9290
#
#
#
# Elastic Compliance Matrix: (Units=1/GPa)
#
#
# Indices 1 2 3 4 5 6 
#
# 1 0.015075 -0.000267 -0.006765 0.000000 0.000000 0.000000
# 2 -0.000267 0.008718 -0.001607 0.000000 0.000000 0.000000
# 3 -0.006765 -0.001607 0.030010 0.000000 0.000000 0.000000
# 4 0.000000 0.000000 0.000000 0.086689 0.000000 0.000000
# 5 0.000000 0.000000 0.000000 0.000000 0.039347 0.000000
# 6 0.000000 0.000000 0.000000 0.000000 0.000000 0.052829
#
#
# Mechanical properties :
#
#
# Convention : Reuss Voigt Hill
#
# Bulk Modulus (GPa) = 27.37891 31.94310 29.66101
# Shear Modulus (GPa) = 19.07504 24.37706 21.72605
#
# Velocity S-wave (km/s) = 3.07123 3.47192 3.27770
# Velocity P-wave (km/s) = 5.11030 5.64516 5.38438
#
# Compressibility (1/GPa) = 0.03652447
#
# Stress axis : x y z
#
# Youngs Moduli (GPa) = 66.33416 114.70385 33.32217
#
# Poissons Ratio (x) = 0.03062 0.22544
# Poissons Ratio (y) = 0.01771 0.05355
# Poissons Ratio (z) = 0.44878 0.18434
#
# Static dielectric constant tensor:
#      x y z
#    x 1.738910 0.000000 0.000000 
#    y 0.000000 1.735360 0.000000 
#    z 0.000000 0.000000 1.714120 
# 
# From -- ./inp_files/7866.got.cif
#   From: 2010.05.17/outbox.cif.g08.bks.cpg/sg35_4_cif.got.tgz:7866.got - 2010.06.03 17:29:28.
