data_PCOD9348701
_publ_section_title
;
Structure prediction by ZEFSAII (Michael W. Deem and Ramdas Pophale) SiO2 
 PCOD9348701
Probable space group: C M M 2
;
_chemical_formula_sum "Si O2"
_cell_formula_units_Z 48
_cell_length_a 10.235352
_cell_length_b 17.019163
_cell_length_c 14.797389
_cell_angle_alpha 90.000000
_cell_angle_beta 90.000000
_cell_angle_gamma 90.000000
_cell_volume 2577.662607
_symmetry_space_group_name_H-M "C M M 2"
_symmetry_group_IT_number 35
_symmetry_cell_setting 'orthorhombic'
loop_
_space_group_symop_operation_xyz
x,y,z
-x,-y,z
-x,y,z
x,-y,z
1/2+x,1/2+y,z
1/2-x,1/2-y,z
1/2-x,1/2+y,z
1/2+x,1/2-y,z
loop_
_atom_site_type_symbol
_atom_site_label
_atom_site_fract_x
_atom_site_fract_y
_atom_site_fract_z
Si Si1 0.843990 0.826496 0.781040
Si Si2 0.500000 0.405631 0.079099
Si Si3 0.246123 0.844665 0.970728
Si Si4 0.843817 0.173706 0.579219
Si Si5 0.000000 0.405564 0.074848
Si Si6 0.246807 0.905503 0.398341
Si Si7 0.000000 0.596187 0.286920
Si Si8 0.500000 0.404154 0.284600
O O1 0.750000 0.750000 0.775714
O O2 0.785574 0.871336 0.867712
O O3 0.836255 0.862388 0.680511
O O4 0.000000 0.808914 0.797533
O O5 0.500000 0.500000 0.077087
O O6 0.500000 0.378472 0.182124
O O7 0.626360 0.373586 0.029988
O O8 0.250000 0.750000 0.969230
O O9 0.375391 0.876072 0.018682
O O10 0.750000 0.250000 0.578912
O O11 0.784516 0.121467 0.499436
O O12 0.000000 0.190102 0.563841
O O13 0.000000 0.500000 0.076604
O O14 0.000000 0.379233 0.181012
O O15 0.375797 0.878066 0.346054
O O16 0.126658 0.877735 0.337572
O O17 0.250585 0.000000 0.398146
O O18 0.000000 0.500000 0.284368
O O19 0.500000 0.500000 0.284743
#
# Coordination Sequence:
#
# PCOD9348701 Si02
#       8
#     8   4   8   8   4   8   4   4
#     4   9  19  36  59  84 113 153 193 228 283 356
#     4  11  21  37  60  85 114 150 197 245 286 341
#     4  11  22  38  60  88 117 153 195 241 293 345
#     4  10  21  37  58  86 115 148 188 235 287 342
#     4  11  23  41  62  85 118 160 199 241 292 349
#     4  10  19  36  59  82 108 148 194 233 278 338
#     4   9  20  37  58  81 112 156 197 227 278 353
#     4   9  18  33  56  79 106 148 193 227 274 349
#
# _framework density 18.621523
#
# number of rings (size 3 to 8) (size 9 to 14) (size 15 to 20)
#    0.000    2.000    1.667    2.000    4.667    2.667 
#    0.000    6.667    0.000    1.000    0.000    0.000 
#    0.000    0.000    0.000    0.000    0.000    0.000 
#
# Total GULP energy -133716.154758 kJ/mol
# GULP energy per Si atom -5571.506448 kJ/mol
# Density = 1.857914 g / cm^3
# Si number density = 18.621523 Si / 1000 Ang^3
#
#
#
# Elastic Constant Matrix: (Units=GPa)
#
#
# Indices 1 2 3 4 5 6 
#
# 1 188.7185 23.8287 102.5129 0.0000 0.0000 0.0000
# 2 23.8287 26.9805 30.5977 0.0000 0.0000 0.0000
# 3 102.5129 30.5977 213.4830 0.0000 0.0000 0.0000
# 4 0.0000 0.0000 0.0000 32.8742 0.0000 0.0000
# 5 0.0000 0.0000 0.0000 0.0000 36.8847 0.0000
# 6 0.0000 0.0000 0.0000 0.0000 0.0000 10.9207
#
#
#
# Elastic Compliance Matrix: (Units=1/GPa)
#
#
# Indices 1 2 3 4 5 6 
#
# 1 0.007364 -0.002977 -0.003109 0.000000 0.000000 0.000000
# 2 -0.002977 0.045461 -0.005086 0.000000 0.000000 0.000000
# 3 -0.003109 -0.005086 0.006906 0.000000 0.000000 0.000000
# 4 0.000000 0.000000 0.000000 0.030419 0.000000 0.000000
# 5 0.000000 0.000000 0.000000 0.000000 0.027112 0.000000
# 6 0.000000 0.000000 0.000000 0.000000 0.000000 0.091569
#
#
# Mechanical properties :
#
#
# Convention : Reuss Voigt Hill
#
# Bulk Modulus (GPa) = 26.74809 82.56229 54.65519
# Shear Modulus (GPa) = 20.52219 34.28542 27.40381
#
# Velocity S-wave (km/s) = 3.32334 4.29554 3.84033
# Velocity P-wave (km/s) = 5.39642 8.30876 7.00560
#
# Compressibility (1/GPa) = 0.03738585
#
# Stress axis : x y z
#
# Youngs Moduli (GPa) = 135.79868 21.99667 144.79639
#
# Poissons Ratio (x) = 0.06549 0.45022
# Poissons Ratio (y) = 0.40433 0.73644
# Poissons Ratio (z) = 0.42224 0.11188
#
# Static dielectric constant tensor:
#      x y z
#    x 3.094630 0.000000 0.000000 
#    y 0.000000 1.623150 0.000000 
#    z 0.000000 0.000000 1.667280 
# 
# From -- ./inp_files/15303.got.cif
#   From: 2010.05.17/outbox.cif.g08.bks.cpg/sg35_8_cif.got.tgz:15303.got - 2010.06.03 17:29:28.
