data_PCOD9348133
_publ_section_title
;
Structure prediction by ZEFSAII (Michael W. Deem and Ramdas Pophale) SiO2 
 PCOD9348133
Probable space group: C M M 2
;
_chemical_formula_sum "Si O2"
_cell_formula_units_Z 56
_cell_length_a 17.254615
_cell_length_b 19.751735
_cell_length_c 9.058519
_cell_angle_alpha 90.000000
_cell_angle_beta 90.000000
_cell_angle_gamma 90.000000
_cell_volume 3087.221025
_symmetry_space_group_name_H-M "C M M 2"
_symmetry_group_IT_number 35
_symmetry_cell_setting 'orthorhombic'
loop_
_space_group_symop_operation_xyz
x,y,z
-x,-y,z
-x,y,z
x,-y,z
1/2+x,1/2+y,z
1/2-x,1/2-y,z
1/2-x,1/2+y,z
1/2+x,1/2-y,z
loop_
_atom_site_type_symbol
_atom_site_label
_atom_site_fract_x
_atom_site_fract_y
_atom_site_fract_z
Si Si1 0.842959 0.296235 0.133490
Si Si2 0.627589 0.576530 0.258944
Si Si3 0.725137 0.075289 0.468305
Si Si4 0.698041 0.314547 0.672854
Si Si5 0.326449 0.663379 0.001173
Si Si6 0.411226 0.283809 0.405935
Si Si7 0.410753 0.075836 0.249727
O O1 0.757172 0.320043 0.080234
O O2 0.869540 0.235163 0.028208
O O3 0.856442 0.260966 0.295725
O O4 0.892097 0.364415 0.136919
O O5 0.596281 0.500000 0.271717
O O6 0.712313 0.575394 0.335438
O O7 0.636628 0.602182 0.091875
O O8 0.587216 0.639326 0.341710
O O9 0.751393 0.132814 0.578882
O O10 0.643049 0.087072 0.391892
O O11 0.726779 0.000000 0.535314
O O12 0.750000 0.250000 0.711264
O O13 0.628433 0.290320 0.566022
O O14 0.676353 0.348099 0.827967
O O15 0.500000 0.258047 0.406982
O O16 0.500000 0.077975 0.290431
O O17 0.392395 0.000000 0.193444
#
# Coordination Sequence:
#
# PCOD9348133 Si02
#       7
#     8   8   8   8   8   8   8
#     4  10  18  34  53  78 107 142 183 227 271 317
#     4   9  18  34  59  82 103 139 187 234 273 320
#     4   9  18  32  51  80 107 138 186 231 268 318
#     4  11  21  34  56  80 112 146 183 226 276 331
#     4  10  20  33  54  83 112 138 179 231 281 320
#     4  10  22  36  57  83 110 146 182 229 280 329
#     4  10  19  31  53  82 109 139 178 227 276 319
#
# _framework density 18.139289999999999
#
# number of rings (size 3 to 8) (size 9 to 14) (size 15 to 20)
#    0.000    2.143    2.857    1.286    6.000    0.857 
#    0.000    3.571    0.000    1.714    0.000    2.000 
#    0.000    0.000    0.000    0.000    0.000    0.000 
#
# Total GULP energy -155912.667529 kJ/mol
# GULP energy per Si atom -5568.309555 kJ/mol
# Density = 1.809800 g / cm^3
# Si number density = 18.139290 Si / 1000 Ang^3
#
#
#
# Elastic Constant Matrix: (Units=GPa)
#
#
# Indices 1 2 3 4 5 6 
#
# 1 57.6770 0.3595 24.2761 0.0000 0.0000 0.0000
# 2 0.3595 90.0989 9.8736 0.0000 0.0000 0.0000
# 3 24.2761 9.8736 70.4444 0.0000 0.0000 0.0000
# 4 0.0000 0.0000 0.0000 13.9729 0.0000 0.0000
# 5 0.0000 0.0000 0.0000 0.0000 7.9718 0.0000
# 6 0.0000 0.0000 0.0000 0.0000 0.0000 15.9837
#
#
#
# Elastic Compliance Matrix: (Units=1/GPa)
#
#
# Indices 1 2 3 4 5 6 
#
# 1 0.020322 0.000697 -0.007101 0.000000 0.000000 0.000000
# 2 0.000697 0.011296 -0.001823 0.000000 0.000000 0.000000
# 3 -0.007101 -0.001823 0.016898 0.000000 0.000000 0.000000
# 4 0.000000 0.000000 0.000000 0.071567 0.000000 0.000000
# 5 0.000000 0.000000 0.000000 0.000000 0.125442 0.000000
# 6 0.000000 0.000000 0.000000 0.000000 0.000000 0.062564
#
#
# Mechanical properties :
#
#
# Convention : Reuss Voigt Hill
#
# Bulk Modulus (GPa) = 31.18983 31.91541 31.55262
# Shear Modulus (GPa) = 14.91507 19.83310 17.37408
#
# Velocity S-wave (km/s) = 2.87060 3.31021 3.09822
# Velocity P-wave (km/s) = 5.31217 5.67828 5.49827
#
# Compressibility (1/GPa) = 0.03206173
#
# Stress axis : x y z
#
# Youngs Moduli (GPa) = 49.20680 88.52717 59.17759
#
# Poissons Ratio (x) = -0.06171 0.42022
# Poissons Ratio (y) = -0.03430 0.10791
# Poissons Ratio (z) = 0.34942 0.16143
#
# Static dielectric constant tensor:
#      x y z
#    x 1.650840 0.000000 0.000000 
#    y 0.000000 1.669080 0.000000 
#    z 0.000000 0.000000 1.603780 
# 
# From -- ./inp_files/8656.got.cif
#   From: 2010.05.17/outbox.cif.g08.bks.cpg/sg35_5_cif.got.tgz:8656.got - 2010.06.03 17:29:28.
