data_PCOD9348781
_publ_section_title
;
Structure prediction by ZEFSAII (Michael W. Deem and Ramdas Pophale) SiO2 
 PCOD9348781
Probable space group: C M M 2
;
_chemical_formula_sum "Si O2"
_cell_formula_units_Z 56
_cell_length_a 22.547409
_cell_length_b 8.508351
_cell_length_c 14.756847
_cell_angle_alpha 90.000000
_cell_angle_beta 90.000000
_cell_angle_gamma 90.000000
_cell_volume 2830.972268
_symmetry_space_group_name_H-M "C M M 2"
_symmetry_group_IT_number 35
_symmetry_cell_setting 'orthorhombic'
loop_
_space_group_symop_operation_xyz
x,y,z
-x,-y,z
-x,y,z
x,-y,z
1/2+x,1/2+y,z
1/2-x,1/2-y,z
1/2-x,1/2+y,z
1/2+x,1/2-y,z
loop_
_atom_site_type_symbol
_atom_site_label
_atom_site_fract_x
_atom_site_fract_y
_atom_site_fract_z
Si Si1 0.500000 0.689851 0.172230
Si Si2 0.128685 0.689718 0.399726
Si Si3 0.114486 0.813033 0.054876
Si Si4 0.432002 0.185724 0.874724
Si Si5 0.567070 0.311933 0.674007
Si Si6 0.185832 0.187000 0.572306
Si Si7 0.000000 0.689154 0.377170
Si Si8 0.313717 0.187389 0.213396
O O1 0.500000 0.500000 0.181244
O O2 0.442691 0.737374 0.114210
O O3 0.500000 0.763140 0.271719
O O4 0.132269 0.500000 0.408036
O O5 0.174762 0.765859 0.468106
O O6 0.061555 0.744282 0.420627
O O7 0.142267 0.730664 0.295495
O O8 0.168540 0.762622 0.118045
O O9 0.112630 0.000000 0.044578
O O10 0.110157 0.737270 0.956244
O O11 0.500000 0.220123 0.904165
O O12 0.423423 0.273914 0.780039
O O13 0.426995 0.000000 0.858589
O O14 0.500000 0.251281 0.650178
O O15 0.565398 0.500000 0.661179
O O16 0.625839 0.251477 0.622238
O O17 0.250000 0.250000 0.603139
O O18 0.187078 0.000000 0.581875
O O19 0.000000 0.500000 0.381191
O O20 0.250000 0.250000 0.241386
O O21 0.313956 0.000000 0.204807
#
# Coordination Sequence:
#
# PCOD9348781 Si02
#       8
#     4   8   8   8   8   8   4   8
#     4  10  20  32  52  83 114 149 188 229 280 334
#     4  10  22  38  59  86 119 155 194 239 293 351
#     4  11  21  35  56  84 117 154 193 235 284 340
#     4  10  20  34  57  89 120 151 188 235 293 353
#     4   9  20  40  63  88 118 152 193 244 302 360
#     4  11  24  41  64  89 118 156 199 246 298 357
#     4  10  20  36  56  85 120 155 190 239 298 346
#     4  11  23  39  57  79 112 155 201 247 291 343
#
# _framework density 19.781189999999999
#
# number of rings (size 3 to 8) (size 9 to 14) (size 15 to 20)
#    0.000    1.714    2.143    2.143    1.000    5.143 
#    0.000    0.714    0.000    1.714    0.000    0.000 
#    0.000    0.000    0.000    0.000    0.000    0.000 
#
# Total GULP energy -156311.907361 kJ/mol
# GULP energy per Si atom -5582.568120 kJ/mol
# Density = 1.973617 g / cm^3
# Si number density = 19.781190 Si / 1000 Ang^3
#
#
#
# Elastic Constant Matrix: (Units=GPa)
#
#
# Indices 1 2 3 4 5 6 
#
# 1 119.3540 17.3034 33.4930 0.0000 0.0000 0.0000
# 2 17.3034 8.1605 1.2441 0.0000 0.0000 0.0000
# 3 33.4930 1.2441 61.9095 0.0000 0.0000 0.0000
# 4 0.0000 0.0000 0.0000 22.0014 0.0000 0.0000
# 5 0.0000 0.0000 0.0000 0.0000 28.6844 0.0000
# 6 0.0000 0.0000 0.0000 0.0000 0.0000 24.8288
#
#
#
# Elastic Compliance Matrix: (Units=1/GPa)
#
#
# Indices 1 2 3 4 5 6 
#
# 1 0.014872 -0.030401 -0.007435 0.000000 0.000000 0.000000
# 2 -0.030401 0.185062 0.012728 0.000000 0.000000 0.000000
# 3 -0.007435 0.012728 0.019919 0.000000 0.000000 0.000000
# 4 0.000000 0.000000 0.000000 0.045452 0.000000 0.000000
# 5 0.000000 0.000000 0.000000 0.000000 0.034862 0.000000
# 6 0.000000 0.000000 0.000000 0.000000 0.000000 0.040276
#
#
# Mechanical properties :
#
#
# Convention : Reuss Voigt Hill
#
# Bulk Modulus (GPa) = 5.89492 32.61167 19.25330
# Shear Modulus (GPa) = 11.18055 24.26181 17.72118
#
# Velocity S-wave (km/s) = 2.38000 3.50595 2.99634
# Velocity P-wave (km/s) = 3.24639 5.73681 4.66101
#
# Compressibility (1/GPa) = 0.16963748
#
# Stress axis : x y z
#
# Youngs Moduli (GPa) = 67.23936 5.40359 50.20302
#
# Poissons Ratio (x) = 0.16428 0.37326
# Poissons Ratio (y) = 2.04416 -0.63899
# Poissons Ratio (z) = 0.49992 -0.06878
#
# Static dielectric constant tensor:
#      x y z
#    x 1.718500 0.000000 0.000000 
#    y 0.000000 1.667930 0.000000 
#    z 0.000000 0.000000 1.662220 
# 
# From -- ./inp_files/15727.got.cif
#   From: 2010.05.17/outbox.cif.g08.bks.cpg/sg35_8_cif.got.tgz:15727.got - 2010.06.03 17:29:28.
