data_PCOD9348592
_publ_section_title
;
Structure prediction by ZEFSAII (Michael W. Deem and Ramdas Pophale) SiO2 
 PCOD9348592
Probable space group: C M M 2
;
_chemical_formula_sum "Si O2"
_cell_formula_units_Z 64
_cell_length_a 8.863161
_cell_length_b 18.505037
_cell_length_c 21.314834
_cell_angle_alpha 90.000000
_cell_angle_beta 90.000000
_cell_angle_gamma 90.000000
_cell_volume 3495.912474
_symmetry_space_group_name_H-M "C M M 2"
_symmetry_group_IT_number 35
_symmetry_cell_setting 'orthorhombic'
loop_
_space_group_symop_operation_xyz
x,y,z
-x,-y,z
-x,y,z
x,-y,z
1/2+x,1/2+y,z
1/2-x,1/2-y,z
1/2-x,1/2+y,z
1/2+x,1/2-y,z
loop_
_atom_site_type_symbol
_atom_site_label
_atom_site_fract_x
_atom_site_fract_y
_atom_site_fract_z
Si Si1 0.821158 0.586256 0.312730
Si Si2 0.318712 0.670385 0.196343
Si Si3 0.826077 0.411918 0.573654
Si Si4 0.182045 0.169896 0.948783
Si Si5 0.175434 0.912929 0.704102
Si Si6 0.673983 0.411976 0.444153
Si Si7 0.820151 0.329782 0.818051
Si Si8 0.816545 0.082438 0.072867
O O1 0.793704 0.500000 0.306582
O O2 0.737479 0.627721 0.257365
O O3 0.760581 0.609449 0.381021
O O4 0.000000 0.598466 0.308911
O O5 0.500000 0.674255 0.196615
O O6 0.250000 0.750000 0.195829
O O7 0.268991 0.627590 0.133735
O O8 0.823702 0.500000 0.572662
O O9 0.735884 0.389862 0.635775
O O10 0.751633 0.387365 0.508563
O O11 0.000000 0.389399 0.577600
O O12 0.250000 0.250000 0.957497
O O13 0.248557 0.141694 0.883084
O O14 0.000000 0.173850 0.944929
O O15 0.225965 0.121298 0.008152
O O16 0.271889 0.877954 0.759334
O O17 0.000000 0.893008 0.711365
O O18 0.186666 0.000000 0.707199
O O19 0.500000 0.389337 0.441645
O O20 0.676474 0.500000 0.445414
O O21 0.750000 0.250000 0.809262
O O22 0.000000 0.324892 0.823797
O O23 0.000000 0.080959 0.073839
O O24 0.762828 0.000000 0.075806
#
# Coordination Sequence:
#
# PCOD9348592 Si02
#       8
#     8   8   8   8   8   8   8   8
#     4  10  20  34  53  79 109 139 176 224 273 319
#     4  11  22  37  57  79 107 143 182 221 264 318
#     4   9  16  27  45  72 106 141 177 220 269 317
#     4  10  19  34  56  79 105 138 176 217 263 318
#     4  10  20  34  53  78 108 142 181 225 272 321
#     4   9  16  27  46  73 104 139 178 219 266 319
#     4  11  22  37  56  78 107 142 182 224 268 320
#     4   9  19  35  56  82 109 138 174 217 265 317
#
# _framework density 18.307092999999998
#
# number of rings (size 3 to 8) (size 9 to 14) (size 15 to 20)
#    0.000    2.125    0.000    4.875    0.000    5.500 
#    0.000    3.125    0.000    4.875    0.000    5.250 
#    0.000    0.000    0.000    0.000    0.000    0.000 
#
# Total GULP energy -178646.238838 kJ/mol
# GULP energy per Si atom -5582.694964 kJ/mol
# Density = 1.826543 g / cm^3
# Si number density = 18.307093 Si / 1000 Ang^3
#
#
#
# Elastic Constant Matrix: (Units=GPa)
#
#
# Indices 1 2 3 4 5 6 
#
# 1 110.4916 39.1639 67.1548 0.0000 0.0000 0.0000
# 2 39.1639 45.7723 58.2100 0.0000 0.0000 0.0000
# 3 67.1548 58.2100 181.6289 0.0000 0.0000 0.0000
# 4 0.0000 0.0000 0.0000 -139.2508 0.0000 0.0000
# 5 0.0000 0.0000 0.0000 0.0000 28.6534 0.0000
# 6 0.0000 0.0000 0.0000 0.0000 0.0000 19.6149
#
#
#
# Elastic Compliance Matrix: (Units=1/GPa)
#
#
# Indices 1 2 3 4 5 6 
#
# 1 0.013480 -0.008770 -0.002173 0.000000 0.000000 0.000000
# 2 -0.008770 0.042583 -0.010405 0.000000 0.000000 0.000000
# 3 -0.002173 -0.010405 0.009644 0.000000 0.000000 0.000000
# 4 0.000000 0.000000 0.000000 -0.007181 0.000000 0.000000
# 5 0.000000 0.000000 0.000000 0.000000 0.034900 0.000000
# 6 0.000000 0.000000 0.000000 0.000000 0.000000 0.050982
#
#
# Mechanical properties :
#
#
# Convention : Reuss Voigt Hill
#
# Bulk Modulus (GPa) = 43.45775 74.10558 58.78166
# Shear Modulus (GPa) = 25.67084 -6.63891 9.51597
#
# Velocity S-wave (km/s) = 3.74870 -1.90638 2.28238
# Velocity P-wave (km/s) = 6.52126 5.97673 6.25492
#
# Compressibility (1/GPa) = 0.02301086
#
# Stress axis : x y z
#
# Youngs Moduli (GPa) = 74.18485 23.48351 103.69168
#
# Poissons Ratio (x) = 0.20594 0.22536
# Poissons Ratio (y) = 0.65058 1.07890
# Poissons Ratio (z) = 0.16123 0.24434
#
# Static dielectric constant tensor:
#      x y z
#    x 1.614870 0.000000 0.000000 
#    y 0.000000 1.614060 0.000000 
#    z 0.000000 0.000000 1.615720 
# 
# From -- ./inp_files/18407.got.cif
#   From: 2010.05.17/outbox.cif.g08.bks.cpg/sg35_10_cif.got.tgz:18407.got - 2010.06.03 17:29:28.
