data_PCOD9348239
_publ_section_title
;
Structure prediction by ZEFSAII (Michael W. Deem and Ramdas Pophale) SiO2 
 PCOD9348239
Probable space group: C M M 2
;
_chemical_formula_sum "Si O2"
_cell_formula_units_Z 64
_cell_length_a 29.279906
_cell_length_b 8.677227
_cell_length_c 16.011383
_cell_angle_alpha 90.000000
_cell_angle_beta 90.000000
_cell_angle_gamma 90.000000
_cell_volume 4067.986315
_symmetry_space_group_name_H-M "C M M 2"
_symmetry_group_IT_number 35
_symmetry_cell_setting 'orthorhombic'
loop_
_space_group_symop_operation_xyz
x,y,z
-x,-y,z
-x,y,z
x,-y,z
1/2+x,1/2+y,z
1/2-x,1/2-y,z
1/2-x,1/2+y,z
1/2+x,1/2-y,z
loop_
_atom_site_type_symbol
_atom_site_label
_atom_site_fract_x
_atom_site_fract_y
_atom_site_fract_z
Si Si1 0.301370 0.815778 0.243760
Si Si2 0.301096 0.314699 0.916984
Si Si3 0.552278 0.314565 0.818353
Si Si4 0.198506 0.684765 0.428680
Si Si5 0.301590 0.683810 0.601509
Si Si6 0.949262 0.812577 0.013949
Si Si7 0.354584 0.685970 0.086756
Si Si8 0.355697 0.183265 0.758486
O O1 0.250000 0.750000 0.235303
O O2 0.320117 0.775771 0.336611
O O3 0.332449 0.753766 0.169576
O O4 0.298252 0.000000 0.239172
O O5 0.300599 0.500000 0.910147
O O6 0.250000 0.250000 0.913721
O O7 0.330269 0.247383 0.840763
O O8 0.324572 0.273518 0.005169
O O9 0.500000 0.277938 0.794663
O O10 0.557958 0.500000 0.812834
O O11 0.591586 0.233000 0.766371
O O12 0.557826 0.272245 0.916447
O O13 0.199423 0.500000 0.437420
O O14 0.250000 0.750000 0.426358
O O15 0.178537 0.757837 0.512686
O O16 0.298974 0.500000 0.601673
O O17 0.250000 0.750000 0.609962
O O18 0.331573 0.743707 0.678003
O O19 0.906332 0.760780 0.068270
O O20 0.000000 0.760129 0.039385
O O21 0.949449 0.000000 0.016170
O O22 0.354534 0.500000 0.092888
O O23 0.351308 0.000000 0.755549
#
# Coordination Sequence:
#
# PCOD9348239 Si02
#       8
#     8   8   8   8   8   8   8   8
#     4  10  20  32  48  70  99 131 163 200 241 288
#     4  11  22  35  47  65  95 132 171 204 241 285
#     4   9  17  33  55  74  95 125 163 206 249 291
#     4   9  17  31  49  70  95 124 159 200 245 289
#     4  11  21  34  52  73  99 129 164 203 245 293
#     4   8  14  28  50  72  93 121 159 202 245 285
#     4  10  19  31  49  71  96 127 164 202 241 287
#     4  12  23  34  49  71 100 132 165 202 243 292
#
# _framework density 15.7326
#
# number of rings (size 3 to 8) (size 9 to 14) (size 15 to 20)
#    0.000    2.000    1.250    5.625    0.000    3.750 
#    0.000    0.000    0.000    0.375    0.000    0.875 
#    0.000    3.000    0.000    0.000    0.000    0.000 
#
# Total GULP energy -178507.950360 kJ/mol
# GULP energy per Si atom -5578.373449 kJ/mol
# Density = 1.569679 g / cm^3
# Si number density = 15.732600 Si / 1000 Ang^3
#
#
#
# Elastic Constant Matrix: (Units=GPa)
#
#
# Indices 1 2 3 4 5 6 
#
# 1 103.9769 39.5135 66.9931 0.0000 0.0000 0.0000
# 2 39.5135 72.7173 54.9905 0.0000 0.0000 0.0000
# 3 66.9931 54.9905 145.3924 0.0000 0.0000 0.0000
# 4 0.0000 0.0000 0.0000 22.0610 0.0000 0.0000
# 5 0.0000 0.0000 0.0000 0.0000 5.5232 0.0000
# 6 0.0000 0.0000 0.0000 0.0000 0.0000 20.2653
#
#
#
# Elastic Compliance Matrix: (Units=1/GPa)
#
#
# Indices 1 2 3 4 5 6 
#
# 1 0.014443 -0.003943 -0.005163 0.000000 0.000000 0.000000
# 2 -0.003943 0.020338 -0.005875 0.000000 0.000000 0.000000
# 3 -0.005163 -0.005875 0.011479 0.000000 0.000000 0.000000
# 4 0.000000 0.000000 0.000000 0.045329 0.000000 0.000000
# 5 0.000000 0.000000 0.000000 0.000000 0.181053 0.000000
# 6 0.000000 0.000000 0.000000 0.000000 0.000000 0.049345
#
#
# Mechanical properties :
#
#
# Convention : Reuss Voigt Hill
#
# Bulk Modulus (GPa) = 61.36531 71.67566 66.52048
# Shear Modulus (GPa) = 13.99060 20.27587 17.13323
#
# Velocity S-wave (km/s) = 2.98531 3.59385 3.30362
# Velocity P-wave (km/s) = 7.13951 7.92961 7.54491
#
# Compressibility (1/GPa) = 0.01629585
#
# Stress axis : x y z
#
# Youngs Moduli (GPa) = 69.23790 49.17023 87.11390
#
# Poissons Ratio (x) = 0.19390 0.44981
# Poissons Ratio (y) = 0.27303 0.51180
# Poissons Ratio (z) = 0.35751 0.28888
#
# Static dielectric constant tensor:
#      x y z
#    x 1.514490 0.000000 0.000000 
#    y 0.000000 1.530940 0.000000 
#    z 0.000000 0.000000 1.530760 
# 
# From -- ./inp_files/17746.got.cif
#   From: 2010.05.17/outbox.cif.g08.bks.cpg/sg35_9_cif.got.tgz:17746.got - 2010.06.03 17:29:28.
