data_PCOD9348797
_publ_section_title
;
Structure prediction by ZEFSAII (Michael W. Deem and Ramdas Pophale) SiO2 
 PCOD9348797
Probable space group: C M M 2
;
_chemical_formula_sum "Si O2"
_cell_formula_units_Z 64
_cell_length_a 18.338898
_cell_length_b 7.585575
_cell_length_c 22.170548
_cell_angle_alpha 90.000000
_cell_angle_beta 90.000000
_cell_angle_gamma 90.000000
_cell_volume 3084.169014
_symmetry_space_group_name_H-M "C M M 2"
_symmetry_group_IT_number 35
_symmetry_cell_setting 'orthorhombic'
loop_
_space_group_symop_operation_xyz
x,y,z
-x,-y,z
-x,y,z
x,-y,z
1/2+x,1/2+y,z
1/2-x,1/2-y,z
1/2-x,1/2+y,z
1/2+x,1/2-y,z
loop_
_atom_site_type_symbol
_atom_site_label
_atom_site_fract_x
_atom_site_fract_y
_atom_site_fract_z
Si Si1 0.335198 0.788449 0.260820
Si Si2 0.584248 0.215858 0.140040
Si Si3 0.088751 0.790194 0.640040
Si Si4 0.416562 0.210902 0.900566
Si Si5 0.584201 0.288010 0.510729
Si Si6 0.083438 0.710902 0.379514
Si Si7 0.335198 0.211551 0.019260
Si Si8 0.584201 0.288010 0.769352
O O1 0.250000 0.750000 0.258510
O O2 0.375446 0.723451 0.200651
O O3 0.371258 0.720817 0.322688
O O4 0.343961 0.000000 0.261028
O O5 0.500000 0.268340 0.140040
O O6 0.585971 0.000000 0.140040
O O7 0.624554 0.276549 0.079429
O O8 0.115027 0.721387 0.574909
O O9 0.115027 0.721387 0.705171
O O10 0.000000 0.771078 0.640040
O O11 0.103376 0.000000 0.640040
O O12 0.500000 0.280087 0.902082
O O13 0.371258 0.279183 0.957393
O O14 0.383044 0.245195 0.834411
O O15 0.420903 0.000000 0.906282
O O16 0.500000 0.223919 0.507723
O O17 0.582021 0.500000 0.514698
O O18 0.616956 0.245195 0.445669
O O19 0.079097 0.500000 0.373798
O O20 0.000000 0.780087 0.377998
O O21 0.250000 0.250000 0.021570
O O22 0.343961 0.000000 0.019052
O O23 0.500000 0.223919 0.772357
O O24 0.582021 0.500000 0.765383
#
# Coordination Sequence:
#
# PCOD9348797 Si02
#       8
#     8   8   8   8   8   8   8   8
#     4  10  20  33  50  71  95 123 154 189 227 268
#     4   9  17  32  55  77  94 119 156 190 222 267
#     4   7  10  18  33  55  84 115 146 181 223 271
#     4   9  17  29  44  64  91 121 153 189 228 270
#     4   8  13  22  38  60  86 117 151 186 225 270
#     4   9  17  29  44  64  91 121 153 189 228 270
#     4  10  20  33  50  71  95 123 154 189 227 268
#     4   8  13  22  38  60  86 117 151 186 225 270
#
# _framework density 20.751131999999998
#
# number of rings (size 3 to 8) (size 9 to 14) (size 15 to 20)
#    0.000    3.250    0.000    2.625    0.000    4.000 
#    0.000    0.625    0.000    6.750    0.000    0.875 
#    0.000    0.000    0.000    0.000    0.000    0.000 
#
# Total GULP energy -178256.885561 kJ/mol
# GULP energy per Si atom -5570.527674 kJ/mol
# Density = 2.070390 g / cm^3
# Si number density = 20.751132 Si / 1000 Ang^3
#
#
#
# Elastic Constant Matrix: (Units=GPa)
#
#
# Indices 1 2 3 4 5 6 
#
# 1 78.4656 -1.5293 92.1198 0.0000 0.0000 0.0000
# 2 -1.5293 45.3325 10.1850 0.0000 0.0000 0.0000
# 3 92.1198 10.1850 289.3310 0.0000 0.0000 0.0000
# 4 0.0000 0.0000 0.0000 18.1332 0.0000 0.0000
# 5 0.0000 0.0000 0.0000 0.0000 -6.8258 0.0000
# 6 0.0000 0.0000 0.0000 0.0000 0.0000 14.3860
#
#
#
# Elastic Compliance Matrix: (Units=1/GPa)
#
#
# Indices 1 2 3 4 5 6 
#
# 1 0.020564 0.002182 -0.006624 0.000000 0.000000 0.000000
# 2 0.002182 0.022467 -0.001486 0.000000 0.000000 0.000000
# 3 -0.006624 -0.001486 0.005618 0.000000 0.000000 0.000000
# 4 0.000000 0.000000 0.000000 0.055147 0.000000 0.000000
# 5 0.000000 0.000000 0.000000 0.000000 -0.146504 0.000000
# 6 0.000000 0.000000 0.000000 0.000000 0.000000 0.069512
#
#
# Mechanical properties :
#
#
# Convention : Reuss Voigt Hill
#
# Bulk Modulus (GPa) = 27.17940 68.29778 47.73859
# Shear Modulus (GPa) = 98.18667 25.96226 62.07447
#
# Velocity S-wave (km/s) = 6.88615 3.54096 5.47528
# Velocity P-wave (km/s) = 8.73794 7.04997 7.93895
#
# Compressibility (1/GPa) = 0.03679257
#
# Stress axis : x y z
#
# Youngs Moduli (GPa) = 48.62930 44.51047 178.01271
#
# Poissons Ratio (x) = -0.09712 1.17917
# Poissons Ratio (y) = -0.10611 0.26445
# Poissons Ratio (z) = 0.32212 0.06612
#
# Static dielectric constant tensor:
#      x y z
#    x 1.682980 0.000000 0.000000 
#    y 0.000000 1.792740 0.000000 
#    z 0.000000 0.000000 1.810950 
# 
# From -- ./inp_files/18887.got.cif
#   From: 2010.05.17/outbox.cif.g08.bks.cpg/sg35_10_cif.got.tgz:18887.got - 2010.06.03 17:29:28.
