data_PCOD9348368
_publ_section_title
;
Structure prediction by ZEFSAII (Michael W. Deem and Ramdas Pophale) SiO2 
 PCOD9348368
Probable space group: C M M 2
;
_chemical_formula_sum "Si O2"
_cell_formula_units_Z 64
_cell_length_a 7.937052
_cell_length_b 28.785575
_cell_length_c 14.615773
_cell_angle_alpha 90.000000
_cell_angle_beta 90.000000
_cell_angle_gamma 90.000000
_cell_volume 3339.303741
_symmetry_space_group_name_H-M "C M M 2"
_symmetry_group_IT_number 35
_symmetry_cell_setting 'orthorhombic'
loop_
_space_group_symop_operation_xyz
x,y,z
-x,-y,z
-x,y,z
x,-y,z
1/2+x,1/2+y,z
1/2-x,1/2-y,z
1/2-x,1/2+y,z
1/2+x,1/2-y,z
loop_
_atom_site_type_symbol
_atom_site_label
_atom_site_fract_x
_atom_site_fract_y
_atom_site_fract_z
Si Si1 0.799514 0.051693 0.536090
Si Si2 0.311277 0.873993 0.187819
Si Si3 0.296367 0.804029 0.037369
Si Si4 0.696116 0.054925 0.861526
Si Si5 0.309671 0.554166 0.057323
Si Si6 0.797227 0.617829 0.695771
Si Si7 0.297017 0.196282 0.831091
Si Si8 0.200710 0.447964 0.325869
O O1 0.757304 0.095376 0.600259
O O2 0.727638 0.056787 0.434078
O O3 0.000000 0.049773 0.528560
O O4 0.741663 0.000000 0.570956
O O5 0.500000 0.858616 0.215098
O O6 0.231553 0.833284 0.125067
O O7 0.316718 0.915380 0.114177
O O8 0.230918 0.902456 0.272653
O O9 0.500000 0.809053 0.038191
O O10 0.250000 0.750000 0.046847
O O11 0.238865 0.818463 0.934158
O O12 0.500000 0.067733 0.877583
O O13 0.754731 0.080012 0.771238
O O14 0.704859 0.000000 0.848788
O O15 0.797779 0.067206 0.951485
O O16 0.500000 0.561428 0.090727
O O17 0.267879 0.500000 0.063866
O O18 0.737298 0.665414 0.744847
O O19 0.000000 0.620359 0.691290
O O20 0.500000 0.192522 0.833083
O O21 0.250000 0.250000 0.819965
O O22 0.266551 0.500000 0.299107
O O23 0.000000 0.448570 0.307509
#
# Coordination Sequence:
#
# PCOD9348368 Si02
#       8
#     8   8   8   8   8   8   8   8
#     4  10  21  35  51  74 104 134 163 202 253 303
#     4  10  19  32  52  74  96 127 168 209 246 290
#     4   9  18  33  52  75 103 132 164 203 247 295
#     4   9  17  29  45  65  92 127 163 198 237 285
#     4  10  20  30  41  64  99 133 162 196 240 290
#     4  10  19  32  52  74  95 125 167 209 247 292
#     4   9  18  32  50  73 101 132 165 203 247 294
#     4   9  18  33  53  75  98 128 168 210 249 293
#
# _framework density 19.165672000000001
#
# number of rings (size 3 to 8) (size 9 to 14) (size 15 to 20)
#    0.000    2.500    0.000    2.250    0.000    6.500 
#    0.000    5.000    0.000    0.750    0.000    1.750 
#    0.000    0.000    0.000    0.000    0.000    0.000 
#
# Total GULP energy -178229.047542 kJ/mol
# GULP energy per Si atom -5569.657736 kJ/mol
# Density = 1.912205 g / cm^3
# Si number density = 19.165672 Si / 1000 Ang^3
#
#
#
# Elastic Constant Matrix: (Units=GPa)
#
#
# Indices 1 2 3 4 5 6 
#
# 1 11.0040 15.8008 -0.1745 0.0000 0.0000 0.0000
# 2 15.8008 96.6302 58.7565 0.0000 0.0000 0.0000
# 3 -0.1745 58.7565 98.1773 0.0000 0.0000 0.0000
# 4 0.0000 0.0000 0.0000 35.1096 0.0000 0.0000
# 5 0.0000 0.0000 0.0000 0.0000 -8.0833 0.0000
# 6 0.0000 0.0000 0.0000 0.0000 0.0000 94.2239
#
#
#
# Elastic Compliance Matrix: (Units=1/GPa)
#
#
# Indices 1 2 3 4 5 6 
#
# 1 0.145180 -0.037568 0.022741 0.000000 0.000000 0.000000
# 2 -0.037568 0.025990 -0.015621 0.000000 0.000000 0.000000
# 3 0.022741 -0.015621 0.019575 0.000000 0.000000 0.000000
# 4 0.000000 0.000000 0.000000 0.028482 0.000000 0.000000
# 5 0.000000 0.000000 0.000000 0.000000 -0.123712 0.000000
# 6 0.000000 0.000000 0.000000 0.000000 0.000000 0.010613
#
#
# Mechanical properties :
#
#
# Convention : Reuss Voigt Hill
#
# Bulk Modulus (GPa) = 7.70118 39.39747 23.54933
# Shear Modulus (GPa) = 23.77474 33.01197 28.39335
#
# Velocity S-wave (km/s) = 3.52587 4.15475 3.85316
# Velocity P-wave (km/s) = 4.53901 6.60430 5.66654
#
# Compressibility (1/GPa) = 0.12985015
#
# Stress axis : x y z
#
# Youngs Moduli (GPa) = 6.88799 38.47587 51.08565
#
# Poissons Ratio (x) = 1.44544 -1.16175
# Poissons Ratio (y) = 0.25877 0.79802
# Poissons Ratio (z) = -0.15664 0.60104
#
# Static dielectric constant tensor:
#      x y z
#    x 1.760160 0.000000 0.000000 
#    y 0.000000 1.689090 0.000000 
#    z 0.000000 0.000000 1.692160 
# 
# From -- ./inp_files/16249.got.cif
#   From: 2010.05.17/outbox.cif.g08.bks.cpg/sg35_9_cif.got.tgz:16249.got - 2010.06.03 17:29:28.
