data_PCOD9348093
_publ_section_title
;
Structure prediction by ZEFSAII (Michael W. Deem and Ramdas Pophale) SiO2 
 PCOD9348093
Probable space group: C M M 2
;
_chemical_formula_sum "Si O2"
_cell_formula_units_Z 26
_cell_length_a 8.022075
_cell_length_b 15.038892
_cell_length_c 11.167778
_cell_angle_alpha 90.000000
_cell_angle_beta 90.000000
_cell_angle_gamma 90.000000
_cell_volume 1347.315576
_symmetry_space_group_name_H-M "C M M 2"
_symmetry_group_IT_number 35
_symmetry_cell_setting 'orthorhombic'
loop_
_space_group_symop_operation_xyz
x,y,z
-x,-y,z
-x,y,z
x,-y,z
1/2+x,1/2+y,z
1/2-x,1/2-y,z
1/2-x,1/2+y,z
1/2+x,1/2-y,z
loop_
_atom_site_type_symbol
_atom_site_label
_atom_site_fract_x
_atom_site_fract_y
_atom_site_fract_z
Si Si1 0.685005 0.607151 0.957670
Si Si2 0.000000 0.602993 0.818162
Si Si3 0.199601 0.649347 0.227087
Si Si4 0.311217 0.500000 0.409179
Si Si5 0.500000 0.000000 0.587014
O O1 0.500000 0.643269 0.933830
O O2 0.675267 0.500000 0.944025
O O3 0.830575 0.642217 0.871121
O O4 0.736120 0.626914 0.094001
O O5 0.000000 0.585148 0.676532
O O6 0.000000 0.500000 0.866113
O O7 0.250000 0.750000 0.253623
O O8 0.281971 0.584192 0.322926
O O9 0.000000 0.637776 0.229941
O O10 0.500000 0.500000 0.457065
O O11 0.166256 0.500000 0.508146
#
# Coordination Sequence:
#
# PCOD9348093 Si02
#       5
#     8   4   8   4   2
#     4  10  18  32  57  89 123 153 187 245 310 368
#     4   8  18  33  56  87 112 156 202 247 292 357
#     4  12  23  38  61  95 129 163 201 255 321 381
#     4  12  24  41  61  90 127 163 213 258 304 369
#     4  10  22  38  62  88 112 172 220 252 298 354
#
# _framework density 19.297632
#
# number of rings (size 3 to 8) (size 9 to 14) (size 15 to 20)
#    0.462    0.923    4.615    2.769    0.000    1.231 
#    0.000    0.000    0.000    1.846    0.000    0.000 
#    0.000    0.000    0.000    0.000    0.000    0.000 
#
# Total GULP energy -72569.064931 kJ/mol
# GULP energy per Si atom -5582.235764 kJ/mol
# Density = 1.925371 g / cm^3
# Si number density = 19.297632 Si / 1000 Ang^3
#
#
#
# Elastic Constant Matrix: (Units=GPa)
#
#
# Indices 1 2 3 4 5 6 
#
# 1 213.1027 30.8274 76.7767 0.0000 0.0000 0.0000
# 2 30.8274 56.1259 20.9396 0.0000 0.0000 0.0000
# 3 76.7767 20.9396 127.2134 0.0000 0.0000 0.0000
# 4 0.0000 0.0000 0.0000 -12.8083 0.0000 0.0000
# 5 0.0000 0.0000 0.0000 0.0000 3.3621 0.0000
# 6 0.0000 0.0000 0.0000 0.0000 0.0000 21.4059
#
#
#
# Elastic Compliance Matrix: (Units=1/GPa)
#
#
# Indices 1 2 3 4 5 6 
#
# 1 0.006231 -0.002152 -0.003406 0.000000 0.000000 0.000000
# 2 -0.002152 0.019726 -0.001948 0.000000 0.000000 0.000000
# 3 -0.003406 -0.001948 0.010237 0.000000 0.000000 0.000000
# 4 0.000000 0.000000 0.000000 -0.078075 0.000000 0.000000
# 5 0.000000 0.000000 0.000000 0.000000 0.297431 0.000000
# 6 0.000000 0.000000 0.000000 0.000000 0.000000 0.046716
#
#
# Mechanical properties :
#
#
# Convention : Reuss Voigt Hill
#
# Bulk Modulus (GPa) = 47.21116 72.61436 59.91276
# Shear Modulus (GPa) = 15.41593 20.25185 17.83389
#
# Velocity S-wave (km/s) = 2.82946 3.24303 3.04328
# Velocity P-wave (km/s) = 5.93231 7.19259 6.59263
#
# Compressibility (1/GPa) = 0.02118143
#
# Stress axis : x y z
#
# Youngs Moduli (GPa) = 160.48511 50.69517 97.68088
#
# Poissons Ratio (x) = 0.10907 0.33275
# Poissons Ratio (y) = 0.34529 0.19032
# Poissons Ratio (z) = 0.54669 0.09877
#
# Static dielectric constant tensor:
#      x y z
#    x 1.715320 0.000000 0.000000 
#    y 0.000000 1.699270 0.000000 
#    z 0.000000 0.000000 1.628840 
# 
# From -- ./inp_files/4462.got.cif
#   From: 2010.05.17/outbox.cif.g08.bks.cpg/sg35_3_cif.got.tgz:4462.got - 2010.06.03 17:29:28.
