data_PCOD9348364
_publ_section_title
;
Structure prediction by ZEFSAII (Michael W. Deem and Ramdas Pophale) SiO2 
 PCOD9348364
Probable space group: C M M 2
;
_chemical_formula_sum "Si O2"
_cell_formula_units_Z 64
_cell_length_a 7.911312
_cell_length_b 30.486531
_cell_length_c 12.723879
_cell_angle_alpha 90.000000
_cell_angle_beta 90.000000
_cell_angle_gamma 90.000000
_cell_volume 3068.852763
_symmetry_space_group_name_H-M "C M M 2"
_symmetry_group_IT_number 35
_symmetry_cell_setting 'orthorhombic'
loop_
_space_group_symop_operation_xyz
x,y,z
-x,-y,z
-x,y,z
x,-y,z
1/2+x,1/2+y,z
1/2-x,1/2-y,z
1/2-x,1/2+y,z
1/2+x,1/2-y,z
loop_
_atom_site_type_symbol
_atom_site_label
_atom_site_fract_x
_atom_site_fract_y
_atom_site_fract_z
Si Si1 0.303712 0.568394 0.230730
Si Si2 0.696484 0.669050 0.296947
Si Si3 0.206740 0.951578 0.994299
Si Si4 0.300707 0.047471 0.462178
Si Si5 0.702873 0.296654 0.087257
Si Si6 0.196884 0.643152 0.522330
Si Si7 0.207415 0.138822 0.906372
Si Si8 0.803938 0.800723 0.718407
O O1 0.500000 0.554484 0.236362
O O2 0.300060 0.620851 0.243953
O O3 0.216589 0.550639 0.335626
O O4 0.238429 0.555424 0.115899
O O5 0.500000 0.680049 0.318401
O O6 0.770838 0.699428 0.205786
O O7 0.787032 0.665189 0.407775
O O8 0.262607 0.911394 0.921096
O O9 0.000000 0.950258 0.997095
O O10 0.258300 0.000000 0.959181
O O11 0.500000 0.047388 0.486364
O O12 0.230868 0.093349 0.509209
O O13 0.228878 0.000000 0.495632
O O14 0.500000 0.299939 0.095062
O O15 0.750000 0.250000 0.039922
O O16 0.759121 0.335277 0.011336
O O17 0.279912 0.673915 0.608912
O O18 0.000000 0.639625 0.549570
O O19 0.271787 0.167442 0.808450
O O20 0.000000 0.137968 0.903250
O O21 0.750000 0.750000 0.714948
O O22 0.000000 0.798469 0.743759
#
# Coordination Sequence:
#
# PCOD9348364 Si02
#       8
#     8   8   8   8   8   8   8   8
#     4   9  15  26  47  76 107 142 182 220 258 307
#     4   9  17  31  51  75 110 146 175 215 268 320
#     4   9  15  25  47  79 111 142 176 213 260 317
#     4   9  18  32  50  75 110 150 185 218 263 318
#     4  10  19  32  51  76 107 140 172 210 261 320
#     4  10  21  37  57  80 109 142 183 228 272 323
#     4   9  18  34  53  76 108 141 174 217 267 318
#     4  11  23  40  62  82 103 135 181 232 281 330
#
# _framework density 20.854697000000002
#
# number of rings (size 3 to 8) (size 9 to 14) (size 15 to 20)
#    0.000    2.500    1.250    1.500    0.000    2.250 
#    0.000    2.500    0.000    2.250    0.000    0.000 
#    0.000    0.000    0.000    0.000    0.000    0.000 
#
# Total GULP energy -178421.405045 kJ/mol
# GULP energy per Si atom -5575.668908 kJ/mol
# Density = 2.080723 g / cm^3
# Si number density = 20.854697 Si / 1000 Ang^3
#
#
#
# Elastic Constant Matrix: (Units=GPa)
#
#
# Indices 1 2 3 4 5 6 
#
# 1 17.3741 6.9256 -2.0863 0.0000 0.0000 0.0000
# 2 6.9256 173.7877 73.9601 0.0000 0.0000 0.0000
# 3 -2.0863 73.9601 91.4798 0.0000 0.0000 0.0000
# 4 0.0000 0.0000 0.0000 14.1316 0.0000 0.0000
# 5 0.0000 0.0000 0.0000 0.0000 -6.5147 0.0000
# 6 0.0000 0.0000 0.0000 0.0000 0.0000 7.5962
#
#
#
# Elastic Compliance Matrix: (Units=1/GPa)
#
#
# Indices 1 2 3 4 5 6 
#
# 1 0.059967 -0.004531 0.005031 0.000000 0.000000 0.000000
# 2 -0.004531 0.009115 -0.007473 0.000000 0.000000 0.000000
# 3 0.005031 -0.007473 0.017088 0.000000 0.000000 0.000000
# 4 0.000000 0.000000 0.000000 0.070764 0.000000 0.000000
# 5 0.000000 0.000000 0.000000 0.000000 -0.153499 0.000000
# 6 0.000000 0.000000 0.000000 0.000000 0.000000 0.131645
#
#
# Mechanical properties :
#
#
# Convention : Reuss Voigt Hill
#
# Bulk Modulus (GPa) = 13.84581 48.91559 31.38070
# Shear Modulus (GPa) = 28.88527 16.63209 22.75868
#
# Velocity S-wave (km/s) = 3.72569 2.82711 3.30706
# Velocity P-wave (km/s) = 5.01611 5.84492 5.44630
#
# Compressibility (1/GPa) = 0.07222400
#
# Stress axis : x y z
#
# Youngs Moduli (GPa) = 16.67588 109.71119 58.52216
#
# Poissons Ratio (x) = 0.49706 -0.29440
# Poissons Ratio (y) = 0.07555 0.43731
# Poissons Ratio (z) = -0.08389 0.81982
#
# Static dielectric constant tensor:
#      x y z
#    x 1.787870 0.000000 0.000000 
#    y 0.000000 1.804320 0.000000 
#    z 0.000000 0.000000 1.727220 
# 
# From -- ./inp_files/11876.got.cif
#   From: 2010.05.17/outbox.cif.g08.bks.cpg/sg35_6_cif.got.tgz:11876.got - 2010.06.03 17:29:28.
