data_PCOD9348599
_publ_section_title
;
Structure prediction by ZEFSAII (Michael W. Deem and Ramdas Pophale) SiO2 
 PCOD9348599
Probable space group: C M M 2
;
_chemical_formula_sum "Si O2"
_cell_formula_units_Z 48
_cell_length_a 8.258277
_cell_length_b 15.900782
_cell_length_c 17.910614
_cell_angle_alpha 90.000000
_cell_angle_beta 90.000000
_cell_angle_gamma 90.000000
_cell_volume 2351.897572
_symmetry_space_group_name_H-M "C M M 2"
_symmetry_group_IT_number 35
_symmetry_cell_setting 'orthorhombic'
loop_
_space_group_symop_operation_xyz
x,y,z
-x,-y,z
-x,y,z
x,-y,z
1/2+x,1/2+y,z
1/2-x,1/2-y,z
1/2-x,1/2+y,z
1/2+x,1/2-y,z
loop_
_atom_site_type_symbol
_atom_site_label
_atom_site_fract_x
_atom_site_fract_y
_atom_site_fract_z
Si Si1 0.302398 0.900985 0.841290
Si Si2 0.804099 0.598145 0.518564
Si Si3 0.804786 0.659673 0.000647
Si Si4 0.308814 0.340076 0.361027
Si Si5 0.801640 0.500000 0.097334
Si Si6 0.809865 0.602688 0.680075
Si Si7 0.693012 0.000000 0.267674
O O1 0.500000 0.896839 0.839150
O O2 0.240691 0.870273 0.760281
O O3 0.262699 0.000000 0.849309
O O4 0.245884 0.854134 0.915417
O O5 0.755472 0.500000 0.509506
O O6 0.748626 0.647671 0.446321
O O7 0.741732 0.629136 0.599607
O O8 0.000000 0.599398 0.520993
O O9 0.750000 0.750000 0.028699
O O10 0.749858 0.582803 0.052294
O O11 0.000000 0.656989 0.998729
O O12 0.500000 0.342157 0.360173
O O13 0.250000 0.250000 0.332555
O O14 0.245262 0.417389 0.312384
O O15 0.745244 0.500000 0.182671
O O16 0.000000 0.500000 0.097486
O O17 0.804204 0.500000 0.680124
O O18 0.000000 0.625708 0.680137
O O19 0.500000 0.000000 0.264776
#
# Coordination Sequence:
#
# PCOD9348599 Si02
#       7
#     8   8   8   8   4   8   4
#     4   8  12  23  47  75 106 146 192 233 268 321
#     4   9  16  30  54  82 116 153 192 239 289 338
#     4  10  19  34  56  84 114 148 187 230 276 329
#     4  12  25  41  62  89 119 154 195 238 289 350
#     4   9  20  39  63  86 111 146 184 223 277 343
#     4   7  11  20  41  76 108 142 190 236 274 320
#     4  11  23  43  67  90 117 148 186 239 297 355
#
# _framework density 20.409053
#
# number of rings (size 3 to 8) (size 9 to 14) (size 15 to 20)
#    0.000    2.667    1.667    3.750    0.000    0.667 
#    0.000    4.583    0.000    3.000    0.000    2.333 
#    0.000    0.000    0.000    0.000    0.000    0.000 
#
# Total GULP energy -133877.593067 kJ/mol
# GULP energy per Si atom -5578.233044 kJ/mol
# Density = 2.036260 g / cm^3
# Si number density = 20.409053 Si / 1000 Ang^3
#
#
#
# Elastic Constant Matrix: (Units=GPa)
#
#
# Indices 1 2 3 4 5 6 
#
# 1 18.9048 12.9028 19.7352 0.0000 0.0000 0.0000
# 2 12.9028 128.9730 79.5671 0.0000 0.0000 0.0000
# 3 19.7352 79.5671 170.1001 0.0000 0.0000 0.0000
# 4 0.0000 0.0000 0.0000 -7.5067 0.0000 0.0000
# 5 0.0000 0.0000 0.0000 0.0000 0.0430 0.0000
# 6 0.0000 0.0000 0.0000 0.0000 0.0000 20.5578
#
#
#
# Elastic Compliance Matrix: (Units=1/GPa)
#
#
# Indices 1 2 3 4 5 6 
#
# 1 0.060723 -0.002430 -0.005909 0.000000 0.000000 0.000000
# 2 -0.002430 0.010996 -0.004862 0.000000 0.000000 0.000000
# 3 -0.005909 -0.004862 0.008839 0.000000 0.000000 0.000000
# 4 0.000000 0.000000 0.000000 -0.133214 0.000000 0.000000
# 5 0.000000 0.000000 0.000000 0.000000 23.273046 0.000000
# 6 0.000000 0.000000 0.000000 0.000000 0.000000 0.048643
#
#
# Mechanical properties :
#
#
# Convention : Reuss Voigt Hill
#
# Bulk Modulus (GPa) = 18.46458 60.26535 39.36496
# Shear Modulus (GPa) = 0.21447 16.33698 8.27572
#
# Velocity S-wave (km/s) = 0.32452 2.83234 2.01587
# Velocity P-wave (km/s) = 3.03435 6.34736 4.97475
#
# Compressibility (1/GPa) = 0.05415776
#
# Stress axis : x y z
#
# Youngs Moduli (GPa) = 16.46815 90.94292 113.14104
#
# Poissons Ratio (x) = 0.22096 0.66851
# Poissons Ratio (y) = 0.04001 0.55005
# Poissons Ratio (z) = 0.09730 0.44213
#
# Static dielectric constant tensor:
#      x y z
#    x 1.703890 0.000000 0.000000 
#    y 0.000000 1.712880 0.000000 
#    z 0.000000 0.000000 1.768300 
# 
# From -- ./inp_files/17929.got.cif
#   From: 2010.05.17/outbox.cif.g08.bks.cpg/sg35_9_cif.got.tgz:17929.got - 2010.06.03 17:29:28.
