data_PCOD9348362
_publ_section_title
;
Structure prediction by ZEFSAII (Michael W. Deem and Ramdas Pophale) SiO2 
 PCOD9348362
Probable space group: C M M 2
;
_chemical_formula_sum "Si O2"
_cell_formula_units_Z 48
_cell_length_a 15.842059
_cell_length_b 8.202957
_cell_length_c 18.134795
_cell_angle_alpha 90.000000
_cell_angle_beta 90.000000
_cell_angle_gamma 90.000000
_cell_volume 2356.647961
_symmetry_space_group_name_H-M "C M M 2"
_symmetry_group_IT_number 35
_symmetry_cell_setting 'orthorhombic'
loop_
_space_group_symop_operation_xyz
x,y,z
-x,-y,z
-x,y,z
x,-y,z
1/2+x,1/2+y,z
1/2-x,1/2-y,z
1/2-x,1/2+y,z
1/2+x,1/2-y,z
loop_
_atom_site_type_symbol
_atom_site_label
_atom_site_fract_x
_atom_site_fract_y
_atom_site_fract_z
Si Si1 0.000000 0.199794 0.487840
Si Si2 0.346660 0.695499 0.917955
Si Si3 0.101016 0.812735 0.076171
Si Si4 0.159295 0.803629 0.391522
Si Si5 0.900877 0.800783 0.234024
Si Si6 0.152230 0.307431 0.758462
Si Si7 0.500000 0.694428 0.656248
O O1 0.082766 0.252273 0.442952
O O2 0.000000 0.256135 0.572109
O O3 0.000000 0.000000 0.487948
O O4 0.355693 0.500000 0.917442
O O5 0.250000 0.750000 0.916910
O O6 0.380928 0.756264 0.839816
O O7 0.380839 0.760905 0.996114
O O8 0.131030 0.739378 0.154112
O O9 0.000000 0.819965 0.083441
O O10 0.133157 0.000000 0.073153
O O11 0.250000 0.750000 0.419576
O O12 0.146167 0.744400 0.307297
O O13 0.155830 0.000000 0.389216
O O14 0.000000 0.759297 0.242830
O O15 0.897168 0.000000 0.231090
O O16 0.154943 0.500000 0.755773
O O17 0.250000 0.250000 0.748926
O O18 0.084840 0.246306 0.698972
O O19 0.500000 0.500000 0.653714
#
# Coordination Sequence:
#
# PCOD9348362 Si02
#       7
#     4   8   8   8   8   8   4
#     4   9  20  39  61  84 113 146 184 225 275 341
#     4  10  19  32  51  75 108 147 186 233 283 332
#     4   8  15  26  44  74 104 139 188 233 269 315
#     4  10  19  34  57  85 112 147 187 228 275 330
#     4   8  13  26  49  73 104 145 189 232 269 319
#     4  11  23  41  62  88 119 153 194 240 290 349
#     4  11  23  41  65  90 115 150 190 237 295 355
#
# _framework density 20.367913999999999
#
# number of rings (size 3 to 8) (size 9 to 14) (size 15 to 20)
#    0.000    2.500    0.833    4.250    1.167    1.333 
#    0.000    3.750    0.000    1.000    0.000    4.667 
#    0.000    0.000    0.000    0.000    0.000    0.000 
#
# Total GULP energy -133797.160186 kJ/mol
# GULP energy per Si atom -5574.881674 kJ/mol
# Density = 2.032156 g / cm^3
# Si number density = 20.367914 Si / 1000 Ang^3
#
#
#
# Elastic Constant Matrix: (Units=GPa)
#
#
# Indices 1 2 3 4 5 6 
#
# 1 105.1500 11.7748 85.6516 0.0000 0.0000 0.0000
# 2 11.7748 42.2224 25.9855 0.0000 0.0000 0.0000
# 3 85.6516 25.9855 205.9846 0.0000 0.0000 0.0000
# 4 0.0000 0.0000 0.0000 3.0763 0.0000 0.0000
# 5 0.0000 0.0000 0.0000 0.0000 -16.7981 0.0000
# 6 0.0000 0.0000 0.0000 0.0000 0.0000 22.9345
#
#
#
# Elastic Compliance Matrix: (Units=1/GPa)
#
#
# Indices 1 2 3 4 5 6 
#
# 1 0.014386 -0.000358 -0.005937 0.000000 0.000000 0.000000
# 2 -0.000358 0.025687 -0.003091 0.000000 0.000000 0.000000
# 3 -0.005937 -0.003091 0.007713 0.000000 0.000000 0.000000
# 4 0.000000 0.000000 0.000000 0.325067 0.000000 0.000000
# 5 0.000000 0.000000 0.000000 0.000000 -0.059530 0.000000
# 6 0.000000 0.000000 0.000000 0.000000 0.000000 0.043603
#
#
# Mechanical properties :
#
#
# Convention : Reuss Voigt Hill
#
# Bulk Modulus (GPa) = 34.46701 66.68673 50.57687
# Shear Modulus (GPa) = 12.97455 17.17219 15.07337
#
# Velocity S-wave (km/s) = 2.52664 2.90677 2.72335
# Velocity P-wave (km/s) = 5.04686 6.63912 5.89698
#
# Compressibility (1/GPa) = 0.02901325
#
# Stress axis : x y z
#
# Youngs Moduli (GPa) = 69.51057 38.93070 129.64495
#
# Poissons Ratio (x) = 0.01394 0.76968
# Poissons Ratio (y) = 0.02490 0.40080
# Poissons Ratio (z) = 0.41267 0.12035
#
# Static dielectric constant tensor:
#      x y z
#    x 1.680210 0.000000 0.000000 
#    y 0.000000 1.712950 0.000000 
#    z 0.000000 0.000000 1.781700 
# 
# From -- ./inp_files/18790.got.cif
#   From: 2010.05.17/outbox.cif.g08.bks.cpg/sg35_10_cif.got.tgz:18790.got - 2010.06.03 17:29:28.
