data_PCOD9348805
_publ_section_title
;
Structure prediction by ZEFSAII (Michael W. Deem and Ramdas Pophale) SiO2 
 PCOD9348805
Probable space group: C M M 2
;
_chemical_formula_sum "Si O2"
_cell_formula_units_Z 64
_cell_length_a 9.291532
_cell_length_b 14.893467
_cell_length_c 21.591488
_cell_angle_alpha 90.000000
_cell_angle_beta 90.000000
_cell_angle_gamma 90.000000
_cell_volume 2987.897588
_symmetry_space_group_name_H-M "C M M 2"
_symmetry_group_IT_number 35
_symmetry_cell_setting 'orthorhombic'
loop_
_space_group_symop_operation_xyz
x,y,z
-x,-y,z
-x,y,z
x,-y,z
1/2+x,1/2+y,z
1/2-x,1/2-y,z
1/2-x,1/2+y,z
1/2+x,1/2-y,z
loop_
_atom_site_type_symbol
_atom_site_label
_atom_site_fract_x
_atom_site_fract_y
_atom_site_fract_z
Si Si1 0.672716 0.153481 0.547540
Si Si2 0.661101 0.394928 0.425714
Si Si3 0.664656 0.609777 0.183772
Si Si4 0.164552 0.610016 0.061382
Si Si5 0.164990 0.389821 0.306808
Si Si6 0.671084 0.155067 0.682667
Si Si7 0.832041 0.109411 0.940165
Si Si8 0.338671 0.393922 0.803737
O O1 0.500000 0.160255 0.540074
O O2 0.750000 0.250000 0.549428
O O3 0.746056 0.109967 0.488135
O O4 0.699541 0.110062 0.615470
O O5 0.500000 0.355739 0.433395
O O6 0.643743 0.500000 0.412131
O O7 0.748277 0.357977 0.367184
O O8 0.500000 0.640481 0.186824
O O9 0.662485 0.500000 0.183701
O O10 0.741680 0.637728 0.120419
O O11 0.754325 0.637018 0.244078
O O12 0.164221 0.500000 0.061224
O O13 0.000000 0.639564 0.067102
O O14 0.234861 0.640353 0.996913
O O15 0.162232 0.500000 0.307521
O O16 0.000000 0.359536 0.307977
O O17 0.500000 0.164060 0.687769
O O18 0.750000 0.250000 0.678685
O O19 0.735353 0.116144 0.745500
O O20 0.787552 0.139958 0.871015
O O21 0.000000 0.133267 0.948726
O O22 0.825425 0.000000 0.941702
O O23 0.500000 0.356811 0.790742
O O24 0.354577 0.500000 0.812188
#
# Coordination Sequence:
#
# PCOD9348805 Si02
#       8
#     8   8   8   8   8   8   8   8
#     4  10  21  37  55  74  97 126 160 199 243 289
#     4  10  20  33  50  73 100 130 163 198 239 289
#     4   9  15  22  33  50  76 113 154 192 231 279
#     4   9  15  21  31  50  77 111 151 192 232 275
#     4   9  16  26  40  59  86 119 154 194 238 281
#     4  10  21  36  54  74  97 126 160 199 242 289
#     4   8  14  25  39  56  82 117 153 188 230 279
#     4   9  18  32  50  72  99 130 162 198 242 291
#
# _framework density 21.419743
#
# number of rings (size 3 to 8) (size 9 to 14) (size 15 to 20)
#    0.000    2.750    0.000    3.000    0.000    8.000 
#    0.000    3.750    0.000    0.000    0.000    0.000 
#    0.000    1.000    0.000    7.000    0.000   13.250 
#
# Total GULP energy -178525.859162 kJ/mol
# GULP energy per Si atom -5578.933099 kJ/mol
# Density = 2.137099 g / cm^3
# Si number density = 21.419743 Si / 1000 Ang^3
#
#
#
# Elastic Constant Matrix: (Units=GPa)
#
#
# Indices 1 2 3 4 5 6 
#
# 1 182.0443 8.3673 135.9811 0.0000 0.0000 0.0000
# 2 8.3673 33.3192 8.0553 0.0000 0.0000 0.0000
# 3 135.9811 8.0553 229.7612 0.0000 0.0000 0.0000
# 4 0.0000 0.0000 0.0000 -13.1964 0.0000 0.0000
# 5 0.0000 0.0000 0.0000 0.0000 43.2184 0.0000
# 6 0.0000 0.0000 0.0000 0.0000 0.0000 12.5595
#
#
#
# Elastic Compliance Matrix: (Units=1/GPa)
#
#
# Indices 1 2 3 4 5 6 
#
# 1 0.009884 -0.001077 -0.005812 0.000000 0.000000 0.000000
# 2 -0.001077 0.030387 -0.000428 0.000000 0.000000 0.000000
# 3 -0.005812 -0.000428 0.007807 0.000000 0.000000 0.000000
# 4 0.000000 0.000000 0.000000 -0.075778 0.000000 0.000000
# 5 0.000000 0.000000 0.000000 0.000000 0.023138 0.000000
# 6 0.000000 0.000000 0.000000 0.000000 0.000000 0.079621
#
#
# Mechanical properties :
#
#
# Convention : Reuss Voigt Hill
#
# Bulk Modulus (GPa) = 29.90080 83.32579 56.61330
# Shear Modulus (GPa) = 49.58318 28.03103 38.80711
#
# Velocity S-wave (km/s) = 4.81649 3.62146 4.26108
# Velocity P-wave (km/s) = 6.70233 7.51482 7.12017
#
# Compressibility (1/GPa) = 0.03344392
#
# Stress axis : x y z
#
# Youngs Moduli (GPa) = 101.17351 32.90921 128.08893
#
# Poissons Ratio (x) = 0.03544 0.74445
# Poissons Ratio (y) = 0.10896 0.05481
# Poissons Ratio (z) = 0.58802 0.01408
#
# Static dielectric constant tensor:
#      x y z
#    x 1.733040 0.000000 0.000000 
#    y 0.000000 1.875550 0.000000 
#    z 0.000000 0.000000 1.788110 
# 
# From -- ./inp_files/18502.got.cif
#   From: 2010.05.17/outbox.cif.g08.bks.cpg/sg35_10_cif.got.tgz:18502.got - 2010.06.03 17:29:28.
