data_PCOD9348731
_publ_section_title
;
Structure prediction by ZEFSAII (Michael W. Deem and Ramdas Pophale) SiO2 
 PCOD9348731
Probable space group: C M M 2
;
_chemical_formula_sum "Si O2"
_cell_formula_units_Z 64
_cell_length_a 8.557224
_cell_length_b 29.383866
_cell_length_c 16.148375
_cell_angle_alpha 90.000000
_cell_angle_beta 90.000000
_cell_angle_gamma 90.000000
_cell_volume 4060.417225
_symmetry_space_group_name_H-M "C M M 2"
_symmetry_group_IT_number 35
_symmetry_cell_setting 'orthorhombic'
loop_
_space_group_symop_operation_xyz
x,y,z
-x,-y,z
-x,y,z
x,-y,z
1/2+x,1/2+y,z
1/2-x,1/2-y,z
1/2-x,1/2+y,z
1/2+x,1/2-y,z
loop_
_atom_site_type_symbol
_atom_site_label
_atom_site_fract_x
_atom_site_fract_y
_atom_site_fract_z
Si Si1 0.688910 0.301588 0.713570
Si Si2 0.311279 0.698834 0.388141
Si Si3 0.190625 0.855591 0.552479
Si Si4 0.687336 0.301693 0.896058
Si Si5 0.814253 0.301667 0.069169
Si Si6 0.812837 0.551681 0.291353
Si Si7 0.312724 0.643019 0.224759
Si Si8 0.810986 0.948980 0.477759
O O1 0.500000 0.299511 0.711172
O O2 0.750000 0.250000 0.704398
O O3 0.744121 0.332586 0.637574
O O4 0.731980 0.320062 0.805153
O O5 0.500000 0.699624 0.388326
O O6 0.250000 0.750000 0.384274
O O7 0.260463 0.674082 0.472776
O O8 0.261246 0.670259 0.307587
O O9 0.239698 0.907555 0.536114
O O10 0.000000 0.855207 0.553819
O O11 0.500000 0.301531 0.902764
O O12 0.750000 0.250000 0.894376
O O13 0.757084 0.321217 0.980610
O O14 0.750000 0.250000 0.077845
O O15 0.754486 0.331921 0.144760
O O16 0.000000 0.299232 0.069417
O O17 0.767551 0.500000 0.267546
O O18 0.743158 0.591299 0.235075
O O19 0.752184 0.558866 0.385151
O O20 0.000000 0.554570 0.291069
O O21 0.500000 0.644350 0.221673
O O22 0.000000 0.947851 0.473123
O O23 0.763820 0.000000 0.503767
#
# Coordination Sequence:
#
# PCOD9348731 Si02
#       8
#     8   8   8   8   8   8   8   8
#     4   9  17  28  45  65  92 122 153 192 232 275
#     4  10  20  31  43  61  90 126 158 188 222 266
#     4   9  16  29  44  65  92 120 155 193 231 275
#     4   9  16  28  45  66  88 119 155 193 237 278
#     4  11  21  33  49  70  96 127 158 197 239 283
#     4  10  20  33  49  70  95 121 154 199 244 283
#     4  11  21  34  50  69  93 126 162 197 234 279
#     4   9  16  29  49  67  87 120 159 197 237 280
#
# _framework density 15.761927
#
# number of rings (size 3 to 8) (size 9 to 14) (size 15 to 20)
#    0.000    2.250    1.250    3.750    0.000    3.250 
#    0.000    0.625    0.000    0.000    0.000    0.875 
#    0.000    3.000    0.000    0.000    0.000    0.000 
#
# Total GULP energy -178406.374898 kJ/mol
# GULP energy per Si atom -5575.199216 kJ/mol
# Density = 1.572605 g / cm^3
# Si number density = 15.761927 Si / 1000 Ang^3
#
#
#
# Elastic Constant Matrix: (Units=GPa)
#
#
# Indices 1 2 3 4 5 6 
#
# 1 36.2261 27.8433 35.5092 0.0000 0.0000 0.0000
# 2 27.8433 112.3128 77.5146 0.0000 0.0000 0.0000
# 3 35.5092 77.5146 155.0052 0.0000 0.0000 0.0000
# 4 0.0000 0.0000 0.0000 9.6254 0.0000 0.0000
# 5 0.0000 0.0000 0.0000 0.0000 15.6075 0.0000
# 6 0.0000 0.0000 0.0000 0.0000 0.0000 18.5638
#
#
#
# Elastic Compliance Matrix: (Units=1/GPa)
#
#
# Indices 1 2 3 4 5 6 
#
# 1 0.037441 -0.005134 -0.006010 0.000000 0.000000 0.000000
# 2 -0.005134 0.014300 -0.005975 0.000000 0.000000 0.000000
# 3 -0.006010 -0.005975 0.010816 0.000000 0.000000 0.000000
# 4 0.000000 0.000000 0.000000 0.103892 0.000000 0.000000
# 5 0.000000 0.000000 0.000000 0.000000 0.064072 0.000000
# 6 0.000000 0.000000 0.000000 0.000000 0.000000 0.053868
#
#
# Mechanical properties :
#
#
# Convention : Reuss Voigt Hill
#
# Bulk Modulus (GPa) = 35.31118 65.03092 50.17105
# Shear Modulus (GPa) = 15.24073 19.60446 17.42260
#
# Velocity S-wave (km/s) = 3.11293 3.53056 3.32830
# Velocity P-wave (km/s) = 5.94743 7.61365 6.83153
#
# Compressibility (1/GPa) = 0.02831964
#
# Stress axis : x y z
#
# Youngs Moduli (GPa) = 26.70844 69.92826 92.45466
#
# Poissons Ratio (x) = 0.35904 0.55562
# Poissons Ratio (y) = 0.13713 0.55242
# Poissons Ratio (z) = 0.16051 0.41783
#
# Static dielectric constant tensor:
#      x y z
#    x 1.532370 0.000000 0.000000 
#    y 0.000000 1.512280 0.000000 
#    z 0.000000 0.000000 1.539570 
# 
# From -- ./inp_files/16150.got.cif
#   From: 2010.05.17/outbox.cif.g08.bks.cpg/sg35_9_cif.got.tgz:16150.got - 2010.06.03 17:29:28.
