data_PCOD9348188
_publ_section_title
;
Structure prediction by ZEFSAII (Michael W. Deem and Ramdas Pophale) SiO2 
 PCOD9348188
Probable space group: C M M 2
;
_chemical_formula_sum "Si O2"
_cell_formula_units_Z 56
_cell_length_a 7.360083
_cell_length_b 18.727002
_cell_length_c 19.239338
_cell_angle_alpha 90.000000
_cell_angle_beta 90.000000
_cell_angle_gamma 90.000000
_cell_volume 2651.801997
_symmetry_space_group_name_H-M "C M M 2"
_symmetry_group_IT_number 35
_symmetry_cell_setting 'orthorhombic'
loop_
_space_group_symop_operation_xyz
x,y,z
-x,-y,z
-x,y,z
x,-y,z
1/2+x,1/2+y,z
1/2-x,1/2-y,z
1/2-x,1/2+y,z
1/2+x,1/2-y,z
loop_
_atom_site_type_symbol
_atom_site_label
_atom_site_fract_x
_atom_site_fract_y
_atom_site_fract_z
Si Si1 0.283229 0.335317 0.837410
Si Si2 0.278924 0.583069 0.551681
Si Si3 0.217339 0.165162 0.988823
Si Si4 0.717289 0.665408 0.686747
Si Si5 0.221371 0.083131 0.397581
Si Si6 0.277722 0.582604 0.125392
Si Si7 0.783198 0.165916 0.262221
O O1 0.500000 0.347360 0.837472
O O2 0.250000 0.250000 0.837126
O O3 0.213372 0.360900 0.762331
O O4 0.212926 0.359358 0.912802
O O5 0.500000 0.586474 0.551805
O O6 0.229869 0.500000 0.558732
O O7 0.212566 0.626939 0.617903
O O8 0.220347 0.607276 0.474685
O O9 0.250000 0.250000 0.997027
O O10 0.284534 0.121660 0.055111
O O11 0.000000 0.156052 0.987068
O O12 0.500000 0.654692 0.687919
O O13 0.750000 0.750000 0.681913
O O14 0.285692 0.130947 0.333670
O O15 0.000000 0.084418 0.397721
O O16 0.272865 0.000000 0.388185
O O17 0.500000 0.584179 0.125111
O O18 0.223916 0.500000 0.127791
O O19 0.216014 0.625286 0.193621
O O20 0.750000 0.250000 0.258686
O O21 0.000000 0.155463 0.262809
#
# Coordination Sequence:
#
# PCOD9348188 Si02
#       7
#     8   8   8   8   8   8   8
#     4   8  14  24  38  58  82 107 135 166 203 245
#     4   8  14  25  41  61  84 109 138 172 207 242
#     4   9  16  27  44  63  83 108 138 172 207 243
#     4   9  16  26  41  61  84 109 138 171 206 244
#     4   8  14  26  44  63  82 108 142 173 201 240
#     4   9  17  29  45  64  85 110 140 171 203 242
#     4  10  19  30  46  67  88 109 136 171 207 243
#
# _framework density 21.117713999999999
#
# number of rings (size 3 to 8) (size 9 to 14) (size 15 to 20)
#    0.000    3.286    0.000    1.714    0.000    2.286 
#    0.000    0.714    0.000    7.714    0.000    2.000 
#    0.000   11.429    0.000    0.000    0.000    0.000 
#
# Total GULP energy -156130.744048 kJ/mol
# GULP energy per Si atom -5576.098002 kJ/mol
# Density = 2.106965 g / cm^3
# Si number density = 21.117714 Si / 1000 Ang^3
#
#
#
# Elastic Constant Matrix: (Units=GPa)
#
#
# Indices 1 2 3 4 5 6 
#
# 1 80.2022 -1.9958 13.3315 0.0000 0.0000 0.0000
# 2 -1.9958 99.5739 125.6001 0.0000 0.0000 0.0000
# 3 13.3315 125.6001 300.4107 0.0000 0.0000 0.0000
# 4 0.0000 0.0000 0.0000 -504.3923 0.0000 0.0000
# 5 0.0000 0.0000 0.0000 0.0000 -3.2487 0.0000
# 6 0.0000 0.0000 0.0000 0.0000 0.0000 11.8846
#
#
#
# Elastic Compliance Matrix: (Units=1/GPa)
#
#
# Indices 1 2 3 4 5 6 
#
# 1 0.012756 0.002052 -0.001424 0.000000 0.000000 0.000000
# 2 0.002052 0.021579 -0.009113 0.000000 0.000000 0.000000
# 3 -0.001424 -0.009113 0.007202 0.000000 0.000000 0.000000
# 4 0.000000 0.000000 0.000000 -0.001983 0.000000 0.000000
# 5 0.000000 0.000000 0.000000 0.000000 -0.307812 0.000000
# 6 0.000000 0.000000 0.000000 0.000000 0.000000 0.084142
#
#
# Mechanical properties :
#
#
# Convention : Reuss Voigt Hill
#
# Bulk Modulus (GPa) = 40.70531 83.78428 62.24479
# Shear Modulus (GPa) = -31.45529 -76.26787 -53.86158
#
# Velocity S-wave (km/s) = -3.86362 -6.01614 -5.05577
# Velocity P-wave (km/s) = 0.76559 2.91507 2.13117
#
# Compressibility (1/GPa) = 0.02456682
#
# Stress axis : x y z
#
# Youngs Moduli (GPa) = 78.39304 46.34143 138.84818
#
# Poissons Ratio (x) = -0.09508 0.19771
# Poissons Ratio (y) = -0.16085 1.26534
# Poissons Ratio (z) = 0.11163 0.42231
#
# Static dielectric constant tensor:
#      x y z
#    x 1.810900 0.000000 0.000000 
#    y 0.000000 1.694580 0.000000 
#    z 0.000000 0.000000 1.797850 
# 
# From -- ./inp_files/18182.got.cif
#   From: 2010.05.17/outbox.cif.g08.bks.cpg/sg35_10_cif.got.tgz:18182.got - 2010.06.03 17:29:28.
