data_PCOD9348540
_publ_section_title
;
Structure prediction by ZEFSAII (Michael W. Deem and Ramdas Pophale) SiO2 
 PCOD9348540
Probable space group: C M M 2
;
_chemical_formula_sum "Si O2"
_cell_formula_units_Z 48
_cell_length_a 24.133307
_cell_length_b 7.980185
_cell_length_c 10.245712
_cell_angle_alpha 90.000000
_cell_angle_beta 90.000000
_cell_angle_gamma 90.000000
_cell_volume 1973.203790
_symmetry_space_group_name_H-M "C M M 2"
_symmetry_group_IT_number 35
_symmetry_cell_setting 'orthorhombic'
loop_
_space_group_symop_operation_xyz
x,y,z
-x,-y,z
-x,y,z
x,-y,z
1/2+x,1/2+y,z
1/2-x,1/2-y,z
1/2-x,1/2+y,z
1/2+x,1/2-y,z
loop_
_atom_site_type_symbol
_atom_site_label
_atom_site_fract_x
_atom_site_fract_y
_atom_site_fract_z
Si Si1 0.923023 0.690470 0.060270
Si Si2 0.060183 0.806774 0.774961
Si Si3 0.324322 0.808954 0.724142
Si Si4 0.561690 0.204045 0.353953
Si Si5 0.691360 0.689543 0.010239
Si Si6 0.688816 0.797397 0.434634
O O1 0.941045 0.500000 0.038773
O O2 0.941502 0.749695 0.200728
O O3 0.938488 0.794870 0.932672
O O4 0.856617 0.693739 0.062259
O O5 0.109008 0.693448 0.722982
O O6 0.000000 0.752535 0.730201
O O7 0.069779 0.000000 0.738114
O O8 0.309147 0.705288 0.852532
O O9 0.307266 0.738606 0.585439
O O10 0.179569 0.000000 0.047768
O O11 0.500000 0.257087 0.409853
O O12 0.625342 0.258271 0.393554
O O13 0.562531 0.000000 0.363834
O O14 0.750000 0.750000 0.057904
O O15 0.695123 0.000000 0.741511
O O16 0.750000 0.750000 0.375090
O O17 0.686824 0.000000 0.431695
#
# Coordination Sequence:
#
# PCOD9348540 Si02
#       6
#     8   8   8   8   8   8
#     4  10  19  33  55  81 108 142 184 228 278 335
#     4  10  20  33  51  78 113 148 181 225 281 336
#     4  10  20  34  54  80 108 143 187 230 277 335
#     4   9  19  37  60  85 113 147 190 238 284 332
#     4  11  21  34  53  78 111 146 181 227 279 335
#     4  10  22  39  60  85 113 148 189 235 286 337
#
# _framework density 24.32592
#
# number of rings (size 3 to 8) (size 9 to 14) (size 15 to 20)
#    0.000    2.000    0.000    6.000    0.000    6.000 
#    0.000    5.000    0.000    2.500    0.000    0.000 
#    0.000    0.000    0.000    0.000    0.000    0.000 
#
# Total GULP energy -133887.622938 kJ/mol
# GULP energy per Si atom -5578.650956 kJ/mol
# Density = 2.427055 g / cm^3
# Si number density = 24.325920 Si / 1000 Ang^3
#
#
#
# Elastic Constant Matrix: (Units=GPa)
#
#
# Indices 1 2 3 4 5 6 
#
# 1 244.1018 15.7198 31.2907 0.0000 0.0000 0.0000
# 2 15.7198 50.5255 -4.8046 0.0000 0.0000 0.0000
# 3 31.2907 -4.8046 74.4888 0.0000 0.0000 0.0000
# 4 0.0000 0.0000 0.0000 0.8743 0.0000 0.0000
# 5 0.0000 0.0000 0.0000 0.0000 -7.1881 0.0000
# 6 0.0000 0.0000 0.0000 0.0000 0.0000 -32.9815
#
#
#
# Elastic Compliance Matrix: (Units=1/GPa)
#
#
# Indices 1 2 3 4 5 6 
#
# 1 0.004451 -0.001572 -0.001971 0.000000 0.000000 0.000000
# 2 -0.001572 0.020469 0.001981 0.000000 0.000000 0.000000
# 3 -0.001971 0.001981 0.014381 0.000000 0.000000 0.000000
# 4 0.000000 0.000000 0.000000 1.143766 0.000000 0.000000
# 5 0.000000 0.000000 0.000000 0.000000 -0.139118 0.000000
# 6 0.000000 0.000000 0.000000 0.000000 0.000000 -0.030320
#
#
# Mechanical properties :
#
#
# Convention : Reuss Voigt Hill
#
# Bulk Modulus (GPa) = 27.64277 50.39198 39.01737
# Shear Modulus (GPa) = 4.85997 13.93494 9.39745
#
# Velocity S-wave (km/s) = 1.41499 2.39601 1.96762
# Velocity P-wave (km/s) = 3.74937 5.33055 4.60828
#
# Compressibility (1/GPa) = 0.03617583
#
# Stress axis : x y z
#
# Youngs Moduli (GPa) = 224.69164 48.85323 69.53846
#
# Poissons Ratio (x) = 0.07680 0.13706
# Poissons Ratio (y) = 0.35324 -0.13773
# Poissons Ratio (z) = 0.44286 -0.09676
#
# Static dielectric constant tensor:
#      x y z
#    x 2.038500 0.000000 0.000000 
#    y 0.000000 1.831320 0.000000 
#    z 0.000000 0.000000 1.946490 
# 
# From -- ./inp_files/14077.got.cif
#   From: 2010.05.17/outbox.cif.g08.bks.cpg/sg35_8_cif.got.tgz:14077.got - 2010.06.03 17:29:28.
