data_PCOD9348075
_publ_section_title
;
Structure prediction by ZEFSAII (Michael W. Deem and Ramdas Pophale) SiO2 
 PCOD9348075
Probable space group: C M M 2
;
_chemical_formula_sum "Si O2"
_cell_formula_units_Z 64
_cell_length_a 8.729430
_cell_length_b 19.077597
_cell_length_c 21.184998
_cell_angle_alpha 90.000000
_cell_angle_beta 90.000000
_cell_angle_gamma 90.000000
_cell_volume 3528.076427
_symmetry_space_group_name_H-M "C M M 2"
_symmetry_group_IT_number 35
_symmetry_cell_setting 'orthorhombic'
loop_
_space_group_symop_operation_xyz
x,y,z
-x,-y,z
-x,y,z
x,-y,z
1/2+x,1/2+y,z
1/2-x,1/2-y,z
1/2-x,1/2+y,z
1/2+x,1/2-y,z
loop_
_atom_site_type_symbol
_atom_site_label
_atom_site_fract_x
_atom_site_fract_y
_atom_site_fract_z
Si Si1 0.681355 0.916635 0.930370
Si Si2 0.318306 0.328125 0.303351
Si Si3 0.816873 0.670766 0.173667
Si Si4 0.182267 0.171627 0.043634
Si Si5 0.684757 0.081461 0.559892
Si Si6 0.183589 0.172213 0.673096
Si Si7 0.818064 0.416500 0.415565
Si Si8 0.684281 0.418235 0.794570
O O1 0.500000 0.903892 0.936282
O O2 0.737930 0.897156 0.860284
O O3 0.709172 0.000000 0.937491
O O4 0.769755 0.874140 0.983817
O O5 0.500000 0.322985 0.295275
O O6 0.250000 0.250000 0.311618
O O7 0.244629 0.359933 0.239356
O O8 0.273875 0.373840 0.363675
O O9 0.750000 0.750000 0.173916
O O10 0.753434 0.640194 0.108251
O O11 0.000000 0.672263 0.173174
O O12 0.250000 0.250000 0.035876
O O13 0.000000 0.176262 0.050070
O O14 0.500000 0.085184 0.564243
O O15 0.758645 0.130734 0.611804
O O16 0.725901 0.100866 0.487807
O O17 0.728632 0.000000 0.570224
O O18 0.250000 0.250000 0.674235
O O19 0.231373 0.129353 0.735715
O O20 0.000000 0.174958 0.672246
O O21 0.796887 0.500000 0.407872
O O22 0.000000 0.402050 0.408284
O O23 0.500000 0.413688 0.801757
O O24 0.722258 0.500000 0.782075
#
# Coordination Sequence:
#
# PCOD9348075 Si02
#       8
#     8   8   8   8   8   8   8   8
#     4  10  21  37  57  82 111 143 180 221 267 320
#     4  11  21  34  54  80 109 142 182 224 268 319
#     4  10  18  32  53  77 107 141 180 223 268 320
#     4  11  21  35  56  81 110 143 181 224 270 320
#     4   9  19  37  60  82 106 140 180 220 266 324
#     4  11  23  37  55  81 113 145 178 222 270 316
#     4   9  19  37  58  80 108 141 177 220 271 323
#     4   9  19  37  58  78 103 140 183 223 267 320
#
# _framework density 18.140197000000001
#
# number of rings (size 3 to 8) (size 9 to 14) (size 15 to 20)
#    0.000    2.000    0.000    6.750    0.000    4.250 
#    0.000    4.375    0.000    3.750    0.000    0.000 
#    0.000    0.000    0.000    0.000    0.000    0.000 
#
# Total GULP energy -178676.020192 kJ/mol
# GULP energy per Si atom -5583.625631 kJ/mol
# Density = 1.809891 g / cm^3
# Si number density = 18.140197 Si / 1000 Ang^3
#
#
#
# Elastic Constant Matrix: (Units=GPa)
#
#
# Indices 1 2 3 4 5 6 
#
# 1 117.3828 46.4188 80.7424 0.0000 0.0000 0.0000
# 2 46.4188 56.7697 76.3976 0.0000 0.0000 0.0000
# 3 80.7424 76.3976 174.8347 0.0000 0.0000 0.0000
# 4 0.0000 0.0000 0.0000 33.6289 0.0000 0.0000
# 5 0.0000 0.0000 0.0000 0.0000 34.5094 0.0000
# 6 0.0000 0.0000 0.0000 0.0000 0.0000 19.1400
#
#
#
# Elastic Compliance Matrix: (Units=1/GPa)
#
#
# Indices 1 2 3 4 5 6 
#
# 1 0.013371 -0.006367 -0.003393 0.000000 0.000000 0.000000
# 2 -0.006367 0.045792 -0.017069 0.000000 0.000000 0.000000
# 3 -0.003393 -0.017069 0.014745 0.000000 0.000000 0.000000
# 4 0.000000 0.000000 0.000000 0.029736 0.000000 0.000000
# 5 0.000000 0.000000 0.000000 0.000000 0.028978 0.000000
# 6 0.000000 0.000000 0.000000 0.000000 0.000000 0.052246
#
#
# Mechanical properties :
#
#
# Convention : Reuss Voigt Hill
#
# Bulk Modulus (GPa) = 49.38293 84.01164 66.69729
# Shear Modulus (GPa) = 20.38512 27.15090 23.76801
#
# Velocity S-wave (km/s) = 3.35588 3.87295 3.62365
# Velocity P-wave (km/s) = 6.50369 8.14939 7.37260
#
# Compressibility (1/GPa) = 0.02024991
#
# Stress axis : x y z
#
# Youngs Moduli (GPa) = 74.79080 21.83771 67.81847
#
# Poissons Ratio (x) = 0.13905 0.23008
# Poissons Ratio (y) = 0.47621 1.15762
# Poissons Ratio (z) = 0.25373 0.37276
#
# Static dielectric constant tensor:
#      x y z
#    x 1.607930 0.000000 0.000000 
#    y 0.000000 1.602720 0.000000 
#    z 0.000000 0.000000 1.629800 
# 
# From -- ./inp_files/18390.got.cif
#   From: 2010.05.17/outbox.cif.g08.bks.cpg/sg35_10_cif.got.tgz:18390.got - 2010.06.03 17:29:28.
