data_PCOD9348067
_publ_section_title
;
Structure prediction by ZEFSAII (Michael W. Deem and Ramdas Pophale) SiO2 
 PCOD9348067
Probable space group: C M M 2
;
_chemical_formula_sum "Si O2"
_cell_formula_units_Z 48
_cell_length_a 16.407297
_cell_length_b 15.839904
_cell_length_c 9.710275
_cell_angle_alpha 90.000000
_cell_angle_beta 90.000000
_cell_angle_gamma 90.000000
_cell_volume 2523.603461
_symmetry_space_group_name_H-M "C M M 2"
_symmetry_group_IT_number 35
_symmetry_cell_setting 'orthorhombic'
loop_
_space_group_symop_operation_xyz
x,y,z
-x,-y,z
-x,y,z
x,-y,z
1/2+x,1/2+y,z
1/2-x,1/2-y,z
1/2-x,1/2+y,z
1/2+x,1/2-y,z
loop_
_atom_site_type_symbol
_atom_site_label
_atom_site_fract_x
_atom_site_fract_y
_atom_site_fract_z
Si Si1 0.849017 0.751779 0.242150
Si Si2 0.408646 0.744989 0.930619
Si Si3 0.663280 0.595888 0.435485
Si Si4 0.362448 0.904498 0.429096
Si Si5 0.374998 0.094372 0.746300
Si Si6 0.796157 0.163318 0.712787
O O1 0.750000 0.750000 0.238443
O O2 0.868841 0.837890 0.323947
O O3 0.882586 0.671563 0.327333
O O4 0.881368 0.747949 0.087754
O O5 0.500000 0.711977 0.923385
O O6 0.405343 0.834580 0.850081
O O7 0.346704 0.686812 0.846519
O O8 0.635572 0.500000 0.415579
O O9 0.763002 0.595327 0.431845
O O10 0.648262 0.630083 0.589418
O O11 0.393880 0.888649 0.584763
O O12 0.387567 0.000000 0.389159
O O13 0.276484 0.099963 0.748748
O O14 0.401792 0.000000 0.780358
O O15 0.750000 0.250000 0.665516
#
# Coordination Sequence:
#
# PCOD9348067 Si02
#       6
#     8   8   8   8   8   8
#     4  10  18  32  52  75 104 136 174 215 257 310
#     4  11  23  35  48  72 110 150 178 207 255 311
#     4   9  16  29  54  81  99 121 165 226 275 307
#     4   8  15  29  53  83 105 124 161 217 271 311
#     4   9  17  33  58  83 104 128 168 221 268 313
#     4   9  16  32  56  79 101 130 172 216 261 311
#
# _framework density 19.020420000000001
#
# number of rings (size 3 to 8) (size 9 to 14) (size 15 to 20)
#    0.000    2.667    0.000    6.500    0.000    1.000 
#    0.000    8.333    0.000    6.500    0.000    0.000 
#    0.000    0.000    0.000    0.000    0.000    0.000 
#
# Total GULP energy -133845.202474 kJ/mol
# GULP energy per Si atom -5576.883436 kJ/mol
# Density = 1.897713 g / cm^3
# Si number density = 19.020420 Si / 1000 Ang^3
#
#
#
# Elastic Constant Matrix: (Units=GPa)
#
#
# Indices 1 2 3 4 5 6 
#
# 1 35.8776 19.9276 25.9874 0.0000 0.0000 0.0000
# 2 19.9276 120.9840 80.6776 0.0000 0.0000 0.0000
# 3 25.9874 80.6776 147.3921 0.0000 0.0000 0.0000
# 4 0.0000 0.0000 0.0000 7.5654 0.0000 0.0000
# 5 0.0000 0.0000 0.0000 0.0000 -26.9895 0.0000
# 6 0.0000 0.0000 0.0000 0.0000 0.0000 -3.6505
#
#
#
# Elastic Compliance Matrix: (Units=1/GPa)
#
#
# Indices 1 2 3 4 5 6 
#
# 1 0.032392 -0.002405 -0.004395 0.000000 0.000000 0.000000
# 2 -0.002405 0.013195 -0.006799 0.000000 0.000000 0.000000
# 3 -0.004395 -0.006799 0.011281 0.000000 0.000000 0.000000
# 4 0.000000 0.000000 0.000000 0.132182 0.000000 0.000000
# 5 0.000000 0.000000 0.000000 0.000000 -0.037051 0.000000
# 6 0.000000 0.000000 0.000000 0.000000 0.000000 -0.273935
#
#
# Mechanical properties :
#
#
# Convention : Reuss Voigt Hill
#
# Bulk Modulus (GPa) = 33.70259 61.93766 47.82013
# Shear Modulus (GPa) = -58.92754 7.22914 -25.84920
#
# Velocity S-wave (km/s) = -5.57211 1.95166 -3.69049
# Velocity P-wave (km/s) = 4.86213 6.14110 2.65262
#
# Compressibility (1/GPa) = 0.02967131
#
# Stress axis : x y z
#
# Youngs Moduli (GPa) = 30.87230 75.78448 88.64534
#
# Poissons Ratio (x) = 0.18223 0.38959
# Poissons Ratio (y) = 0.07424 0.60267
# Poissons Ratio (z) = 0.13568 0.51524
#
# Static dielectric constant tensor:
#      x y z
#    x 1.660810 0.000000 0.000000 
#    y 0.000000 1.672240 0.000000 
#    z 0.000000 0.000000 1.633940 
# 
# From -- ./inp_files/8376.got.cif
#   From: 2010.05.17/outbox.cif.g08.bks.cpg/sg35_5_cif.got.tgz:8376.got - 2010.06.03 17:29:28.
