data_PCOD9348394
_publ_section_title
;
Structure prediction by ZEFSAII (Michael W. Deem and Ramdas Pophale) SiO2 
 PCOD9348394
Probable space group: C M M 2
;
_chemical_formula_sum "Si O2"
_cell_formula_units_Z 48
_cell_length_a 15.752049
_cell_length_b 8.562041
_cell_length_c 17.926373
_cell_angle_alpha 90.000000
_cell_angle_beta 90.000000
_cell_angle_gamma 90.000000
_cell_volume 2417.724358
_symmetry_space_group_name_H-M "C M M 2"
_symmetry_group_IT_number 35
_symmetry_cell_setting 'orthorhombic'
loop_
_space_group_symop_operation_xyz
x,y,z
-x,-y,z
-x,y,z
x,-y,z
1/2+x,1/2+y,z
1/2-x,1/2-y,z
1/2-x,1/2+y,z
1/2+x,1/2-y,z
loop_
_atom_site_type_symbol
_atom_site_label
_atom_site_fract_x
_atom_site_fract_y
_atom_site_fract_z
Si Si1 0.000000 0.685594 0.824900
Si Si2 0.660503 0.314677 0.735030
Si Si3 0.154354 0.311468 0.257766
Si Si4 0.100481 0.310796 0.579433
Si Si5 0.346535 0.687232 0.100272
Si Si6 0.000000 0.188914 0.992082
Si Si7 0.101446 0.321437 0.418707
O O1 0.917302 0.749886 0.782878
O O2 0.000000 0.500000 0.819429
O O3 0.000000 0.739318 0.910290
O O4 0.660317 0.500000 0.737663
O O5 0.750000 0.250000 0.763188
O O6 0.647801 0.259035 0.649807
O O7 0.148893 0.500000 0.255394
O O8 0.250000 0.250000 0.256947
O O9 0.118463 0.246479 0.180318
O O10 0.119076 0.253031 0.337313
O O11 0.107619 0.500000 0.580002
O O12 0.130997 0.252113 0.497754
O O13 0.000000 0.274073 0.587839
O O14 0.341239 0.500000 0.102632
O O15 0.250000 0.750000 0.088920
O O16 0.414799 0.733719 0.037567
O O17 0.000000 0.000000 0.986424
O O18 0.134648 0.500000 0.416005
O O19 0.000000 0.329745 0.426157
#
# Coordination Sequence:
#
# PCOD9348394 Si02
#       7
#     4   8   8   8   8   4   8
#     4  12  26  46  70  97 128 159 198 249 308 371
#     4  12  25  42  66  95 128 165 208 252 305 367
#     4  10  19  32  52  77 112 153 198 246 297 349
#     4   9  17  34  59  84 119 162 206 254 308 362
#     4  10  21  39  61  87 121 158 198 245 300 356
#     4  10  24  44  66  91 122 159 194 239 304 367
#     4   8  16  30  50  79 112 153 200 247 295 345
#
# _framework density 19.853379
#
# number of rings (size 3 to 8) (size 9 to 14) (size 15 to 20)
#    0.000    2.000    0.833    5.250    1.167    2.667 
#    0.000    5.000    0.000    2.000    0.000    0.000 
#    0.000    0.000    0.000    0.000    0.000    0.000 
#
# Total GULP energy -133911.453689 kJ/mol
# GULP energy per Si atom -5579.643904 kJ/mol
# Density = 1.980819 g / cm^3
# Si number density = 19.853379 Si / 1000 Ang^3
#
#
#
# Elastic Constant Matrix: (Units=GPa)
#
#
# Indices 1 2 3 4 5 6 
#
# 1 107.0241 36.9672 76.1563 0.0000 0.0000 0.0000
# 2 36.9672 62.3865 51.5559 0.0000 0.0000 0.0000
# 3 76.1563 51.5559 180.1271 0.0000 0.0000 0.0000
# 4 0.0000 0.0000 0.0000 27.4976 0.0000 0.0000
# 5 0.0000 0.0000 0.0000 0.0000 -30.7831 0.0000
# 6 0.0000 0.0000 0.0000 0.0000 0.0000 20.5356
#
#
#
# Elastic Compliance Matrix: (Units=1/GPa)
#
#
# Indices 1 2 3 4 5 6 
#
# 1 0.014287 -0.004550 -0.004738 0.000000 0.000000 0.000000
# 2 -0.004550 0.022444 -0.004500 0.000000 0.000000 0.000000
# 3 -0.004738 -0.004500 0.008843 0.000000 0.000000 0.000000
# 4 0.000000 0.000000 0.000000 0.036367 0.000000 0.000000
# 5 0.000000 0.000000 0.000000 0.000000 -0.032485 0.000000
# 6 0.000000 0.000000 0.000000 0.000000 0.000000 0.048696
#
#
# Mechanical properties :
#
#
# Convention : Reuss Voigt Hill
#
# Bulk Modulus (GPa) = 55.56434 75.43296 65.49865
# Shear Modulus (GPa) = 37.95718 15.77390 26.86554
#
# Velocity S-wave (km/s) = 4.37724 2.82178 3.68257
# Velocity P-wave (km/s) = 7.32087 6.97812 7.15155
#
# Compressibility (1/GPa) = 0.01799716
#
# Stress axis : x y z
#
# Youngs Moduli (GPa) = 69.99430 44.55474 113.08543
#
# Poissons Ratio (x) = 0.20273 0.53580
# Poissons Ratio (y) = 0.31849 0.50891
# Poissons Ratio (z) = 0.33163 0.20050
#
# Static dielectric constant tensor:
#      x y z
#    x 1.688510 0.000000 0.000000 
#    y 0.000000 1.682540 0.000000 
#    z 0.000000 0.000000 1.737310 
# 
# From -- ./inp_files/18764.got.cif
#   From: 2010.05.17/outbox.cif.g08.bks.cpg/sg35_10_cif.got.tgz:18764.got - 2010.06.03 17:29:28.
