data_PCOD9348838
_publ_section_title
;
Structure prediction by ZEFSAII (Michael W. Deem and Ramdas Pophale) SiO2 
 PCOD9348838
Probable space group: C M M 2
;
_chemical_formula_sum "Si O2"
_cell_formula_units_Z 64
_cell_length_a 7.761246
_cell_length_b 18.810545
_cell_length_c 21.470377
_cell_angle_alpha 90.000000
_cell_angle_beta 90.000000
_cell_angle_gamma 90.000000
_cell_volume 3134.530485
_symmetry_space_group_name_H-M "C M M 2"
_symmetry_group_IT_number 35
_symmetry_cell_setting 'orthorhombic'
loop_
_space_group_symop_operation_xyz
x,y,z
-x,-y,z
-x,y,z
x,-y,z
1/2+x,1/2+y,z
1/2-x,1/2-y,z
1/2-x,1/2+y,z
1/2+x,1/2-y,z
loop_
_atom_site_type_symbol
_atom_site_label
_atom_site_fract_x
_atom_site_fract_y
_atom_site_fract_z
Si Si1 0.710995 0.582356 0.815310
Si Si2 0.793050 0.081710 0.573029
Si Si3 0.207540 0.581148 0.435731
Si Si4 0.707507 0.666942 0.937858
Si Si5 0.792526 0.667417 0.316983
Si Si6 0.205425 0.332863 0.178867
Si Si7 0.707429 0.332942 0.692902
Si Si8 0.705306 0.580337 0.057026
O O1 0.500000 0.582433 0.815291
O O2 0.764633 0.500000 0.815810
O O3 0.768304 0.624700 0.876732
O O4 0.768581 0.623643 0.753367
O O5 0.751825 0.110038 0.504102
O O6 0.728076 0.130210 0.629413
O O7 0.000000 0.078506 0.577983
O O8 0.728157 0.000000 0.577716
O O9 0.271426 0.500000 0.433536
O O10 0.273604 0.623953 0.376156
O O11 0.000000 0.579683 0.431934
O O12 0.500000 0.662008 0.938004
O O13 0.750000 0.750000 0.935928
O O14 0.773585 0.628820 0.000552
O O15 0.750000 0.750000 0.325054
O O16 0.728352 0.646493 0.247927
O O17 0.000000 0.659826 0.315999
O O18 0.250000 0.250000 0.168246
O O19 0.268088 0.381484 0.122858
O O20 0.000000 0.338228 0.180069
O O21 0.500000 0.338614 0.692607
O O22 0.750000 0.250000 0.696464
O O23 0.500000 0.575272 0.047628
O O24 0.775328 0.500000 0.056162
#
# Coordination Sequence:
#
# PCOD9348838 Si02
#       8
#     8   8   8   8   8   8   8   8
#     4   9  17  32  55  78  99 130 172 210 245 291
#     4   9  18  33  51  71  96 128 167 207 245 289
#     4   9  18  33  52  73  98 129 164 203 249 298
#     4  10  20  34  54  78 104 135 170 209 252 299
#     4   9  19  34  52  74 100 130 165 206 249 297
#     4  10  20  35  55  77 102 135 173 212 256 306
#     4  10  20  33  51  75 102 131 164 205 249 294
#     4  10  21  36  53  76 106 137 171 213 258 304
#
# _framework density 20.417729999999999
#
# number of rings (size 3 to 8) (size 9 to 14) (size 15 to 20)
#    0.000    2.500    0.000    1.875    0.000    7.250 
#    0.000    3.750    0.000    4.500    0.000    0.000 
#    0.000    0.000    0.000    0.000    0.000    0.000 
#
# Total GULP energy -178628.090885 kJ/mol
# GULP energy per Si atom -5582.127840 kJ/mol
# Density = 2.037126 g / cm^3
# Si number density = 20.417730 Si / 1000 Ang^3
#
#
#
# Elastic Constant Matrix: (Units=GPa)
#
#
# Indices 1 2 3 4 5 6 
#
# 1 28.8493 1.9959 7.1539 0.0000 0.0000 0.0000
# 2 1.9959 157.6004 137.6479 0.0000 0.0000 0.0000
# 3 7.1539 137.6479 238.4526 0.0000 0.0000 0.0000
# 4 0.0000 0.0000 0.0000 47.2303 0.0000 0.0000
# 5 0.0000 0.0000 0.0000 0.0000 19.9478 0.0000
# 6 0.0000 0.0000 0.0000 0.0000 0.0000 22.5286
#
#
#
# Elastic Compliance Matrix: (Units=1/GPa)
#
#
# Indices 1 2 3 4 5 6 
#
# 1 0.034994 0.000956 -0.001601 0.000000 0.000000 0.000000
# 2 0.000956 0.012823 -0.007431 0.000000 0.000000 0.000000
# 3 -0.001601 -0.007431 0.008531 0.000000 0.000000 0.000000
# 4 0.000000 0.000000 0.000000 0.021173 0.000000 0.000000
# 5 0.000000 0.000000 0.000000 0.000000 0.050131 0.000000
# 6 0.000000 0.000000 0.000000 0.000000 0.000000 0.044388
#
#
# Mechanical properties :
#
#
# Convention : Reuss Voigt Hill
#
# Bulk Modulus (GPa) = 24.87886 79.83306 52.35596
# Shear Modulus (GPa) = 24.80256 36.48166 30.64211
#
# Velocity S-wave (km/s) = 3.48912 4.23160 3.87817
# Velocity P-wave (km/s) = 5.33323 7.94103 6.76400
#
# Compressibility (1/GPa) = 0.04019477
#
# Stress axis : x y z
#
# Youngs Moduli (GPa) = 28.57637 77.98352 117.21552
#
# Poissons Ratio (x) = -0.07452 0.18771
# Poissons Ratio (y) = -0.02731 0.87102
# Poissons Ratio (z) = 0.04576 0.57949
#
# Static dielectric constant tensor:
#      x y z
#    x 1.762530 0.000000 0.000000 
#    y 0.000000 1.684060 0.000000 
#    z 0.000000 0.000000 1.730260 
# 
# From -- ./inp_files/18386.got.cif
#   From: 2010.05.17/outbox.cif.g08.bks.cpg/sg35_10_cif.got.tgz:18386.got - 2010.06.03 17:29:28.
