data_PCOD9348114
_publ_section_title
;
Structure prediction by ZEFSAII (Michael W. Deem and Ramdas Pophale) SiO2 
 PCOD9348114
Probable space group: C M M 2
;
_chemical_formula_sum "Si O2"
_cell_formula_units_Z 64
_cell_length_a 29.775915
_cell_length_b 8.525210
_cell_length_c 12.848725
_cell_angle_alpha 90.000000
_cell_angle_beta 90.000000
_cell_angle_gamma 90.000000
_cell_volume 3261.596525
_symmetry_space_group_name_H-M "C M M 2"
_symmetry_group_IT_number 35
_symmetry_cell_setting 'orthorhombic'
loop_
_space_group_symop_operation_xyz
x,y,z
-x,-y,z
-x,y,z
x,-y,z
1/2+x,1/2+y,z
1/2-x,1/2-y,z
1/2-x,1/2+y,z
1/2+x,1/2-y,z
loop_
_atom_site_type_symbol
_atom_site_label
_atom_site_fract_x
_atom_site_fract_y
_atom_site_fract_z
Si Si1 0.297782 0.685431 0.944980
Si Si2 0.386353 0.188751 0.493182
Si Si3 0.447355 0.688550 0.681982
Si Si4 0.701444 0.686521 0.399210
Si Si5 0.951993 0.691399 0.315574
Si Si6 0.817782 0.679108 0.168994
Si Si7 0.605715 0.189647 0.882622
Si Si8 0.921726 0.679236 0.104055
O O1 0.299359 0.500000 0.932833
O O2 0.250000 0.750000 0.905644
O O3 0.342130 0.758202 0.890780
O O4 0.300376 0.728771 0.068088
O O5 0.416845 0.247333 0.587821
O O6 0.336480 0.253778 0.478896
O O7 0.412033 0.242574 0.388591
O O8 0.384744 0.000000 0.495755
O O9 0.500000 0.739512 0.676823
O O10 0.446920 0.500000 0.679600
O O11 0.422407 0.747663 0.785950
O O12 0.701200 0.500000 0.395674
O O13 0.750000 0.750000 0.430503
O O14 0.692283 0.750190 0.281747
O O15 0.949476 0.500000 0.309720
O O16 0.948891 0.753432 0.198272
O O17 0.000000 0.732153 0.363095
O O18 0.800477 0.500000 0.165650
O O19 0.871259 0.672378 0.149996
O O20 0.605400 0.000000 0.883207
O O21 0.582443 0.249130 0.989783
O O22 0.938111 0.500000 0.090041
#
# Coordination Sequence:
#
# PCOD9348114 Si02
#       8
#     8   8   8   8   8   8   8   8
#     4  11  21  35  56  87 126 168 209 253 307 367
#     4  11  22  40  64  90 121 158 204 258 309 367
#     4  11  25  45  67  91 122 161 206 258 313 366
#     4  12  24  38  58  87 122 164 207 252 309 370
#     4   9  16  28  52  87 121 153 190 238 299 360
#     4  10  18  33  54  82 121 166 212 256 300 355
#     4  10  21  38  62  91 121 159 208 259 309 366
#     4   8  15  29  51  83 122 156 192 244 299 352
#
# _framework density 19.622292000000002
#
# number of rings (size 3 to 8) (size 9 to 14) (size 15 to 20)
#    0.000    1.750    1.250    5.250    0.000    2.000 
#    0.000    1.875    0.000    0.000    0.000    0.000 
#    0.000    0.000    0.000    0.000    0.000    0.000 
#
# Total GULP energy -178587.217133 kJ/mol
# GULP energy per Si atom -5580.850535 kJ/mol
# Density = 1.957763 g / cm^3
# Si number density = 19.622292 Si / 1000 Ang^3
#
#
#
# Elastic Constant Matrix: (Units=GPa)
#
#
# Indices 1 2 3 4 5 6 
#
# 1 142.9618 36.4099 73.7217 0.0000 0.0000 0.0000
# 2 36.4099 89.6442 31.8504 0.0000 0.0000 0.0000
# 3 73.7217 31.8504 119.3047 0.0000 0.0000 0.0000
# 4 0.0000 0.0000 0.0000 25.4802 0.0000 0.0000
# 5 0.0000 0.0000 0.0000 0.0000 18.6454 0.0000
# 6 0.0000 0.0000 0.0000 0.0000 0.0000 23.3114
#
#
#
# Elastic Compliance Matrix: (Units=1/GPa)
#
#
# Indices 1 2 3 4 5 6 
#
# 1 0.010643 -0.002194 -0.005991 0.000000 0.000000 0.000000
# 2 -0.002194 0.012777 -0.002055 0.000000 0.000000 0.000000
# 3 -0.005991 -0.002055 0.012632 0.000000 0.000000 0.000000
# 4 0.000000 0.000000 0.000000 0.039246 0.000000 0.000000
# 5 0.000000 0.000000 0.000000 0.000000 0.053633 0.000000
# 6 0.000000 0.000000 0.000000 0.000000 0.000000 0.042897
#
#
# Mechanical properties :
#
#
# Convention : Reuss Voigt Hill
#
# Bulk Modulus (GPa) = 64.21865 70.65275 67.43570
# Shear Modulus (GPa) = 25.31658 27.48265 26.39961
#
# Velocity S-wave (km/s) = 3.59582 3.74650 3.67193
# Velocity P-wave (km/s) = 7.07378 7.40267 7.24009
#
# Compressibility (1/GPa) = 0.01557180
#
# Stress axis : x y z
#
# Youngs Moduli (GPa) = 93.95811 78.26827 79.16130
#
# Poissons Ratio (x) = 0.17174 0.47424
# Poissons Ratio (y) = 0.20617 0.16268
# Poissons Ratio (z) = 0.56289 0.16084
#
# Static dielectric constant tensor:
#      x y z
#    x 1.724830 0.000000 0.000000 
#    y 0.000000 1.671190 0.000000 
#    z 0.000000 0.000000 1.687960 
# 
# From -- ./inp_files/14526.got.cif
#   From: 2010.05.17/outbox.cif.g08.bks.cpg/sg35_8_cif.got.tgz:14526.got - 2010.06.03 17:29:28.
