data_PCOD9348293
_publ_section_title
;
Structure prediction by ZEFSAII (Michael W. Deem and Ramdas Pophale) SiO2 
 PCOD9348293
Probable space group: C M M 2
;
_chemical_formula_sum "Si O2"
_cell_formula_units_Z 44
_cell_length_a 7.626685
_cell_length_b 14.631446
_cell_length_c 15.479902
_cell_angle_alpha 90.000000
_cell_angle_beta 90.000000
_cell_angle_gamma 90.000000
_cell_volume 1727.393437
_symmetry_space_group_name_H-M "C M M 2"
_symmetry_group_IT_number 35
_symmetry_cell_setting 'orthorhombic'
loop_
_space_group_symop_operation_xyz
x,y,z
-x,-y,z
-x,y,z
x,-y,z
1/2+x,1/2+y,z
1/2-x,1/2-y,z
1/2-x,1/2+y,z
1/2+x,1/2-y,z
loop_
_atom_site_type_symbol
_atom_site_label
_atom_site_fract_x
_atom_site_fract_y
_atom_site_fract_z
Si Si1 0.697275 0.608187 0.568260
Si Si2 0.305235 0.104810 0.001963
Si Si3 0.209986 0.856749 0.378839
Si Si4 0.500000 0.672042 0.884777
Si Si5 0.790329 0.858110 0.192300
Si Si6 0.306418 0.888438 0.755284
O O1 0.500000 0.648647 0.566365
O O2 0.680369 0.500000 0.579938
O O3 0.779929 0.617970 0.473350
O O4 0.792196 0.639473 0.654764
O O5 0.500000 0.136999 0.978572
O O6 0.289826 0.103008 0.105296
O O7 0.283632 0.000000 0.970201
O O8 0.152826 0.162439 0.959964
O O9 0.250000 0.750000 0.372928
O O10 0.272320 0.893890 0.286103
O O11 0.000000 0.875048 0.381671
O O12 0.345979 0.655425 0.810830
O O13 0.750000 0.750000 0.189499
O O14 0.000000 0.871746 0.188776
O O15 0.500000 0.862676 0.787787
O O16 0.291281 0.000000 0.760639
#
# Coordination Sequence:
#
# PCOD9348293 Si02
#       6
#     8   8   8   4   8   8
#     4   9  17  32  53  81 114 148 188 233 283 335
#     4  11  23  37  57  89 120 150 194 244 295 345
#     4   9  19  34  56  83 111 150 192 228 278 344
#     4  12  21  36  58  82 118 156 191 238 293 346
#     4  10  20  37  59  84 115 154 198 239 287 351
#     4  10  19  31  52  83 114 148 192 235 282 344
#
# _framework density 25.471903999999999
#
# number of rings (size 3 to 8) (size 9 to 14) (size 15 to 20)
#    0.000    2.000    1.818    2.727    0.000    3.636 
#    0.000    1.818    0.000    3.273    4.727    0.000 
#    0.000    0.000    0.000    0.000    0.000    0.000 
#
# Total GULP energy -122581.139576 kJ/mol
# GULP energy per Si atom -5571.869981 kJ/mol
# Density = 2.541393 g / cm^3
# Si number density = 25.471904 Si / 1000 Ang^3
#
#
#
# Elastic Constant Matrix: (Units=GPa)
#
#
# Indices 1 2 3 4 5 6 
#
# 1 180.9196 18.3174 70.9404 0.0000 0.0000 0.0000
# 2 18.3174 77.2036 -1.0929 0.0000 0.0000 0.0000
# 3 70.9404 -1.0929 267.5323 0.0000 0.0000 0.0000
# 4 0.0000 0.0000 0.0000 130.3214 0.0000 0.0000
# 5 0.0000 0.0000 0.0000 0.0000 91.9070 0.0000
# 6 0.0000 0.0000 0.0000 0.0000 0.0000 -14.0434
#
#
#
# Elastic Compliance Matrix: (Units=1/GPa)
#
#
# Indices 1 2 3 4 5 6 
#
# 1 0.006344 -0.001529 -0.001689 0.000000 0.000000 0.000000
# 2 -0.001529 0.013322 0.000460 0.000000 0.000000 0.000000
# 3 -0.001689 0.000460 0.004187 0.000000 0.000000 0.000000
# 4 0.000000 0.000000 0.000000 0.007673 0.000000 0.000000
# 5 0.000000 0.000000 0.000000 0.000000 0.010881 0.000000
# 6 0.000000 0.000000 0.000000 0.000000 0.000000 -0.071208
#
#
# Mechanical properties :
#
#
# Convention : Reuss Voigt Hill
#
# Bulk Modulus (GPa) = 54.53080 77.99838 66.26459
# Shear Modulus (GPa) = -291.17340 70.80303 -110.18519
#
# Velocity S-wave (km/s) = -10.70326 5.27796 -6.58418
# Velocity P-wave (km/s) = 11.45826 8.23592 5.63300
#
# Compressibility (1/GPa) = 0.01833826
#
# Stress axis : x y z
#
# Youngs Moduli (GPa) = 157.62378 75.06338 238.80703
#
# Poissons Ratio (x) = 0.11478 0.40323
# Poissons Ratio (y) = 0.24103 -0.10983
# Poissons Ratio (z) = 0.26615 -0.03452
#
# Static dielectric constant tensor:
#      x y z
#    x 1.949140 0.000000 0.000000 
#    y 0.000000 2.036580 0.000000 
#    z 0.000000 0.000000 2.020620 
# 
# From -- ./inp_files/14988.got.cif
#   From: 2010.05.17/outbox.cif.g08.bks.cpg/sg35_8_cif.got.tgz:14988.got - 2010.06.03 17:29:28.
