data_PCOD9348497
_publ_section_title
;
Structure prediction by ZEFSAII (Michael W. Deem and Ramdas Pophale) SiO2 
 PCOD9348497
Probable space group: C M M 2
;
_chemical_formula_sum "Si O2"
_cell_formula_units_Z 64
_cell_length_a 16.383481
_cell_length_b 18.346591
_cell_length_c 11.853547
_cell_angle_alpha 90.000000
_cell_angle_beta 90.000000
_cell_angle_gamma 90.000000
_cell_volume 3562.951308
_symmetry_space_group_name_H-M "C M M 2"
_symmetry_group_IT_number 35
_symmetry_cell_setting 'orthorhombic'
loop_
_space_group_symop_operation_xyz
x,y,z
-x,-y,z
-x,y,z
x,-y,z
1/2+x,1/2+y,z
1/2-x,1/2-y,z
1/2-x,1/2+y,z
1/2+x,1/2-y,z
loop_
_atom_site_type_symbol
_atom_site_label
_atom_site_fract_x
_atom_site_fract_y
_atom_site_fract_z
Si Si1 0.596848 0.784318 0.025280
Si Si2 0.405845 0.650102 0.437480
Si Si3 0.094760 0.306243 0.562222
Si Si4 0.316993 0.688066 0.210582
Si Si5 0.184097 0.585528 0.134813
Si Si6 0.403805 0.914884 0.376269
Si Si7 0.400321 0.580652 0.665402
Si Si8 0.100240 0.229796 0.781311
O O1 0.500000 0.790134 0.022160
O O2 0.622679 0.730622 0.126701
O O3 0.634415 0.863464 0.049652
O O4 0.626119 0.752050 0.905952
O O5 0.500000 0.631268 0.412673
O O6 0.405207 0.729921 0.495245
O O7 0.356949 0.656418 0.322667
O O8 0.374793 0.596972 0.536206
O O9 0.130904 0.365868 0.477663
O O10 0.129341 0.286638 0.685032
O O11 0.000000 0.328313 0.579887
O O12 0.250000 0.750000 0.240915
O O13 0.272244 0.622580 0.145932
O O14 0.184619 0.500000 0.108473
O O15 0.142253 0.595359 0.258304
O O16 0.500000 0.895677 0.358884
O O17 0.399735 0.000000 0.405870
O O18 0.500000 0.582251 0.664027
O O19 0.374544 0.500000 0.701524
O O20 0.374660 0.648577 0.742910
O O21 0.000000 0.230602 0.777805
#
# Coordination Sequence:
#
# PCOD9348497 Si02
#       8
#     8   8   8   8   8   8   8   8
#     4  10  19  33  54  76  97 126 171 217 248 284
#     4   9  16  27  47  73  96 121 156 197 241 290
#     4   8  13  24  43  69  99 122 146 193 251 296
#     4  10  20  32  48  70  98 134 169 204 249 295
#     4  10  21  35  50  70 100 136 168 203 251 302
#     4   9  16  27  47  73  97 124 160 200 244 296
#     4   8  14  26  46  72  99 123 149 189 243 298
#     4   8  15  27  45  71  98 123 156 200 247 291
#
# _framework density 17.962636
#
# number of rings (size 3 to 8) (size 9 to 14) (size 15 to 20)
#    0.000    3.000    0.000    3.750    0.000    2.250 
#    0.000    1.250    0.000   22.125    0.000    0.000 
#    0.000    0.000    0.000    0.000    0.000    0.000 
#
# Total GULP energy -178289.647001 kJ/mol
# GULP energy per Si atom -5571.551469 kJ/mol
# Density = 1.792175 g / cm^3
# Si number density = 17.962636 Si / 1000 Ang^3
#
#
#
# Elastic Constant Matrix: (Units=GPa)
#
#
# Indices 1 2 3 4 5 6 
#
# 1 21.7902 15.5489 18.7374 0.0000 0.0000 0.0000
# 2 15.5489 112.5524 55.0404 0.0000 0.0000 0.0000
# 3 18.7374 55.0404 86.0141 0.0000 0.0000 0.0000
# 4 0.0000 0.0000 0.0000 22.3839 0.0000 0.0000
# 5 0.0000 0.0000 0.0000 0.0000 -8.8989 0.0000
# 6 0.0000 0.0000 0.0000 0.0000 0.0000 10.7275
#
#
#
# Elastic Compliance Matrix: (Units=1/GPa)
#
#
# Indices 1 2 3 4 5 6 
#
# 1 0.056997 -0.002623 -0.010738 0.000000 0.000000 0.000000
# 2 -0.002623 0.013052 -0.007781 0.000000 0.000000 0.000000
# 3 -0.010738 -0.007781 0.018944 0.000000 0.000000 0.000000
# 4 0.000000 0.000000 0.000000 0.044675 0.000000 0.000000
# 5 0.000000 0.000000 0.000000 0.000000 -0.112374 0.000000
# 6 0.000000 0.000000 0.000000 0.000000 0.000000 0.093218
#
#
# Mechanical properties :
#
#
# Convention : Reuss Voigt Hill
#
# Bulk Modulus (GPa) = 21.40856 44.33446 32.87151
# Shear Modulus (GPa) = 29.00809 13.57783 21.29296
#
# Velocity S-wave (km/s) = 4.02296 2.75233 3.44670
# Velocity P-wave (km/s) = 5.78992 5.90216 5.84631
#
# Compressibility (1/GPa) = 0.04671029
#
# Stress axis : x y z
#
# Youngs Moduli (GPa) = 17.54469 76.61678 52.78742
#
# Poissons Ratio (x) = 0.20097 0.56682
# Poissons Ratio (y) = 0.04602 0.41071
# Poissons Ratio (z) = 0.18839 0.59612
#
# Static dielectric constant tensor:
#      x y z
#    x 1.637110 0.000000 0.000000 
#    y 0.000000 1.612780 0.000000 
#    z 0.000000 0.000000 1.614910 
# 
# From -- ./inp_files/13242.got.cif
#   From: 2010.05.17/outbox.cif.g08.bks.cpg/sg35_7_cif.got.tgz:13242.got - 2010.06.03 17:29:28.
