data_PCOD9348282
_publ_section_title
;
Structure prediction by ZEFSAII (Michael W. Deem and Ramdas Pophale) SiO2 
 PCOD9348282
Probable space group: C M M 2
;
_chemical_formula_sum "Si O2"
_cell_formula_units_Z 48
_cell_length_a 8.905460
_cell_length_b 15.637584
_cell_length_c 17.452118
_cell_angle_alpha 90.000000
_cell_angle_beta 90.000000
_cell_angle_gamma 90.000000
_cell_volume 2430.379838
_symmetry_space_group_name_H-M "C M M 2"
_symmetry_group_IT_number 35
_symmetry_cell_setting 'orthorhombic'
loop_
_space_group_symop_operation_xyz
x,y,z
-x,-y,z
-x,y,z
x,-y,z
1/2+x,1/2+y,z
1/2-x,1/2-y,z
1/2-x,1/2+y,z
1/2+x,1/2-y,z
loop_
_atom_site_type_symbol
_atom_site_label
_atom_site_fract_x
_atom_site_fract_y
_atom_site_fract_z
Si Si1 0.679417 0.844647 0.940370
Si Si2 0.679066 0.654961 0.788687
Si Si3 0.177186 0.500000 0.340422
Si Si4 0.822271 0.500000 0.523082
Si Si5 0.173344 0.399925 0.110522
Si Si6 0.319956 0.345408 0.616028
Si Si7 0.177135 0.162022 0.258217
O O1 0.500000 0.839370 0.931256
O O2 0.750000 0.750000 0.946478
O O3 0.748830 0.886805 0.864036
O O4 0.711741 0.888997 0.021296
O O5 0.500000 0.659644 0.798585
O O6 0.750000 0.750000 0.787193
O O7 0.709873 0.621574 0.703287
O O8 0.197200 0.500000 0.431681
O O9 0.251832 0.416782 0.303610
O O10 0.000000 0.500000 0.322726
O O11 0.748238 0.584957 0.558956
O O12 0.000000 0.500000 0.540056
O O13 0.180099 0.500000 0.129751
O O14 0.279144 0.350890 0.169025
O O15 0.000000 0.370913 0.120999
O O16 0.500000 0.339026 0.607139
O O17 0.250000 0.250000 0.607498
O O18 0.250000 0.250000 0.285414
O O19 0.000000 0.163531 0.267395
#
# Coordination Sequence:
#
# PCOD9348282 Si02
#       7
#     8   8   4   4   8   8   8
#     4  10  19  31  51  79 112 155 204 252 302 355
#     4   9  17  31  53  80 113 155 200 251 303 353
#     4  11  25  47  69  94 129 160 197 255 308 367
#     4  11  25  43  67  96 125 162 203 247 310 373
#     4  10  21  38  58  82 121 164 204 256 309 358
#     4  10  21  39  64  92 127 166 208 256 309 366
#     4  12  25  42  68  98 125 164 208 249 306 369
#
# _framework density 19.749998999999999
#
# number of rings (size 3 to 8) (size 9 to 14) (size 15 to 20)
#    0.000    1.667    0.833    5.000    0.000    6.667 
#    1.500    0.000    0.000    0.000    0.000    0.000 
#    0.000    0.000    0.000    0.000    0.000    0.000 
#
# Total GULP energy -134071.618223 kJ/mol
# GULP energy per Si atom -5586.317426 kJ/mol
# Density = 1.970505 g / cm^3
# Si number density = 19.749999 Si / 1000 Ang^3
#
#
#
# Elastic Constant Matrix: (Units=GPa)
#
#
# Indices 1 2 3 4 5 6 
#
# 1 142.2281 67.8012 84.5578 0.0000 0.0000 0.0000
# 2 67.8012 116.1262 60.1825 0.0000 0.0000 0.0000
# 3 84.5578 60.1825 111.1801 0.0000 0.0000 0.0000
# 4 0.0000 0.0000 0.0000 28.2631 0.0000 0.0000
# 5 0.0000 0.0000 0.0000 0.0000 32.7574 0.0000
# 6 0.0000 0.0000 0.0000 0.0000 0.0000 25.4500
#
#
#
# Elastic Compliance Matrix: (Units=1/GPa)
#
#
# Indices 1 2 3 4 5 6 
#
# 1 0.013868 -0.003657 -0.008568 0.000000 0.000000 0.000000
# 2 -0.003657 0.012933 -0.004220 0.000000 0.000000 0.000000
# 3 -0.008568 -0.004220 0.017795 0.000000 0.000000 0.000000
# 4 0.000000 0.000000 0.000000 0.035382 0.000000 0.000000
# 5 0.000000 0.000000 0.000000 0.000000 0.030527 0.000000
# 6 0.000000 0.000000 0.000000 0.000000 0.000000 0.039293
#
#
# Mechanical properties :
#
#
# Convention : Reuss Voigt Hill
#
# Bulk Modulus (GPa) = 85.41566 88.29082 86.85324
# Shear Modulus (GPa) = 26.79689 27.76028 27.27858
#
# Velocity S-wave (km/s) = 3.68748 3.75318 3.72047
# Velocity P-wave (km/s) = 7.84043 7.97390 7.90745
#
# Compressibility (1/GPa) = 0.01170746
#
# Stress axis : x y z
#
# Youngs Moduli (GPa) = 72.10935 77.32065 56.19595
#
# Poissons Ratio (x) = 0.28273 0.48148
# Poissons Ratio (y) = 0.26367 0.23714
# Poissons Ratio (z) = 0.61782 0.32628
#
# Static dielectric constant tensor:
#      x y z
#    x 1.659740 0.000000 0.000000 
#    y 0.000000 1.679480 0.000000 
#    z 0.000000 0.000000 1.724440 
# 
# From -- ./inp_files/17898.got.cif
#   From: 2010.05.17/outbox.cif.g08.bks.cpg/sg35_9_cif.got.tgz:17898.got - 2010.06.03 17:29:28.
