data_PCOD9348959
_publ_section_title
;
Structure prediction by ZEFSAII (Michael W. Deem and Ramdas Pophale) SiO2 
 PCOD9348959
Probable space group: C M M 2
;
_chemical_formula_sum "Si O2"
_cell_formula_units_Z 56
_cell_length_a 8.133674
_cell_length_b 19.998538
_cell_length_c 18.330640
_cell_angle_alpha 90.000000
_cell_angle_beta 90.000000
_cell_angle_gamma 90.000000
_cell_volume 2981.691022
_symmetry_space_group_name_H-M "C M M 2"
_symmetry_group_IT_number 35
_symmetry_cell_setting 'orthorhombic'
loop_
_space_group_symop_operation_xyz
x,y,z
-x,-y,z
-x,y,z
x,-y,z
1/2+x,1/2+y,z
1/2-x,1/2-y,z
1/2-x,1/2+y,z
1/2+x,1/2-y,z
loop_
_atom_site_type_symbol
_atom_site_label
_atom_site_fract_x
_atom_site_fract_y
_atom_site_fract_z
Si Si1 0.197879 0.076369 0.395620
Si Si2 0.698510 0.674792 0.944411
Si Si3 0.696195 0.675179 0.110126
Si Si4 0.695905 0.923871 0.236313
Si Si5 0.801557 0.174535 0.687374
Si Si6 0.801344 0.825252 0.521494
Si Si7 0.798647 0.077100 0.816073
O O1 0.242005 0.101376 0.314827
O O2 0.259463 0.122940 0.460909
O O3 0.000000 0.074456 0.400538
O O4 0.259492 0.000000 0.401955
O O5 0.500000 0.673337 0.944973
O O6 0.750000 0.750000 0.923031
O O7 0.754609 0.619096 0.887091
O O8 0.757743 0.662510 0.027328
O O9 0.500000 0.673147 0.107883
O O10 0.750000 0.750000 0.130482
O O11 0.754679 0.622278 0.169256
O O12 0.500000 0.926348 0.239680
O O13 0.759643 0.000000 0.227030
O O14 0.750000 0.250000 0.707653
O O15 0.743947 0.161225 0.604446
O O16 0.745248 0.119394 0.745289
O O17 0.000000 0.173125 0.687039
O O18 0.750000 0.750000 0.502764
O O19 0.000000 0.828297 0.522416
O O20 0.000000 0.076480 0.816017
O O21 0.744843 0.000000 0.815949
#
# Coordination Sequence:
#
# PCOD9348959 Si02
#       7
#     8   8   8   8   8   8   8
#     4   9  18  33  51  70  95 128 165 203 243 290
#     4   9  18  32  51  73  97 128 163 199 240 288
#     4  10  20  34  53  76 101 130 166 207 250 296
#     4  10  21  36  53  74 101 132 166 204 248 299
#     4   9  17  30  49  71  96 128 162 197 239 286
#     4   9  18  31  48  72  98 125 160 200 242 287
#     4   9  17  29  47  73 101 127 160 201 240 279
#
# _framework density 18.781289999999998
#
# number of rings (size 3 to 8) (size 9 to 14) (size 15 to 20)
#    0.000    2.714    0.000    1.286    0.000    3.714 
#    0.000    5.714    0.000    1.714    0.000    4.000 
#    0.000    0.000    0.000    0.000    0.000    0.000 
#
# Total GULP energy -156175.869186 kJ/mol
# GULP energy per Si atom -5577.709614 kJ/mol
# Density = 1.873854 g / cm^3
# Si number density = 18.781290 Si / 1000 Ang^3
#
#
#
# Elastic Constant Matrix: (Units=GPa)
#
#
# Indices 1 2 3 4 5 6 
#
# 1 11.0128 7.1096 9.8845 0.0000 0.0000 0.0000
# 2 7.1096 146.0915 124.0030 0.0000 0.0000 0.0000
# 3 9.8845 124.0030 148.3343 0.0000 0.0000 0.0000
# 4 0.0000 0.0000 0.0000 -91.9899 0.0000 0.0000
# 5 0.0000 0.0000 0.0000 0.0000 6.7544 0.0000
# 6 0.0000 0.0000 0.0000 0.0000 0.0000 24.7520
#
#
#
# Elastic Compliance Matrix: (Units=1/GPa)
#
#
# Indices 1 2 3 4 5 6 
#
# 1 0.096874 0.002634 -0.008657 0.000000 0.000000 0.000000
# 2 0.002634 0.023640 -0.019938 0.000000 0.000000 0.000000
# 3 -0.008657 -0.019938 0.023986 0.000000 0.000000 0.000000
# 4 0.000000 0.000000 0.000000 -0.010871 0.000000 0.000000
# 5 0.000000 0.000000 0.000000 0.000000 0.148052 0.000000
# 6 0.000000 0.000000 0.000000 0.000000 0.000000 0.040401
#
#
# Mechanical properties :
#
#
# Convention : Reuss Voigt Hill
#
# Bulk Modulus (GPa) = 10.80180 65.27029 38.03605
# Shear Modulus (GPa) = 12.34981 -1.13393 5.60794
#
# Velocity S-wave (km/s) = 2.56707 -0.77786 1.72986
# Velocity P-wave (km/s) = 3.81449 5.83280 4.92808
#
# Compressibility (1/GPa) = 0.09257714
#
# Stress axis : x y z
#
# Youngs Moduli (GPa) = 10.32274 42.30033 41.69074
#
# Poissons Ratio (x) = -0.11141 0.36092
# Poissons Ratio (y) = -0.02719 0.83124
# Poissons Ratio (z) = 0.08936 0.84339
#
# Static dielectric constant tensor:
#      x y z
#    x 1.661630 0.000000 0.000000 
#    y 0.000000 1.621590 0.000000 
#    z 0.000000 0.000000 1.655690 
# 
# From -- ./inp_files/15593.got.cif
#   From: 2010.05.17/outbox.cif.g08.bks.cpg/sg35_8_cif.got.tgz:15593.got - 2010.06.03 17:29:28.
