data_PCOD9348893
_publ_section_title
;
Structure prediction by ZEFSAII (Michael W. Deem and Ramdas Pophale) SiO2 
 PCOD9348893
Probable space group: C M M 2
;
_chemical_formula_sum "Si O2"
_cell_formula_units_Z 64
_cell_length_a 15.846698
_cell_length_b 14.463577
_cell_length_c 13.012834
_cell_angle_alpha 90.000000
_cell_angle_beta 90.000000
_cell_angle_gamma 90.000000
_cell_volume 2982.540729
_symmetry_space_group_name_H-M "C M M 2"
_symmetry_group_IT_number 35
_symmetry_cell_setting 'orthorhombic'
loop_
_space_group_symop_operation_xyz
x,y,z
-x,-y,z
-x,y,z
x,-y,z
1/2+x,1/2+y,z
1/2-x,1/2-y,z
1/2-x,1/2+y,z
1/2+x,1/2-y,z
loop_
_atom_site_type_symbol
_atom_site_label
_atom_site_fract_x
_atom_site_fract_y
_atom_site_fract_z
Si Si1 0.850705 0.610806 0.043830
Si Si2 0.160236 0.111372 0.096938
Si Si3 0.596541 0.102913 0.267123
Si Si4 0.603118 0.395687 0.516061
Si Si5 0.397825 0.700935 0.308032
Si Si6 0.327999 0.106735 0.824035
Si Si7 0.904946 0.242734 0.690646
Si Si8 0.372512 0.393386 0.871433
O O1 0.847100 0.500000 0.029668
O O2 0.756970 0.639946 0.077006
O O3 0.905325 0.625786 0.144921
O O4 0.872275 0.643982 0.929399
O O5 0.127545 0.158972 0.198867
O O6 0.157615 0.000000 0.108927
O O7 0.112738 0.132886 0.990266
O O8 0.500000 0.096013 0.302906
O O9 0.635806 0.193744 0.318091
O O10 0.635766 0.000000 0.278614
O O11 0.500000 0.396821 0.520418
O O12 0.631752 0.500000 0.539957
O O13 0.628329 0.363796 0.402232
O O14 0.630459 0.318722 0.597775
O O15 0.500000 0.705790 0.310398
O O16 0.350160 0.171709 0.729539
O O17 0.228881 0.109451 0.851749
O O18 0.351528 0.000000 0.804695
O O19 0.909714 0.173246 0.787093
O O20 0.000000 0.274075 0.664310
O O21 0.398627 0.500000 0.857303
#
# Coordination Sequence:
#
# PCOD9348893 Si02
#       8
#     8   8   8   8   8   8   8   8
#     4   8  16  32  52  74 105 144 180 214 260 323
#     4   9  18  32  52  79 107 137 174 219 274 328
#     4   9  18  32  50  73 104 142 180 218 262 316
#     4   9  19  37  57  77 106 145 184 225 280 341
#     4  10  20  33  53  80 108 142 186 224 271 333
#     4   9  19  36  56  78 109 152 190 220 270 335
#     4  11  22  34  55  84 110 141 188 236 279 327
#     4   9  19  36  56  79 110 147 183 224 279 340
#
# _framework density 21.458214999999999
#
# number of rings (size 3 to 8) (size 9 to 14) (size 15 to 20)
#    0.000    2.750    0.000    2.625    1.750    3.250 
#    0.000    3.125    5.500    2.250    0.000    0.000 
#    0.000    0.000    0.000    0.000    0.000    0.000 
#
# Total GULP energy -178541.031007 kJ/mol
# GULP energy per Si atom -5579.407219 kJ/mol
# Density = 2.140938 g / cm^3
# Si number density = 21.458215 Si / 1000 Ang^3
#
#
#
# Elastic Constant Matrix: (Units=GPa)
#
#
# Indices 1 2 3 4 5 6 
#
# 1 20.4460 12.3092 7.5676 0.0000 0.0000 0.0000
# 2 12.3092 122.3197 57.1020 0.0000 0.0000 0.0000
# 3 7.5676 57.1020 94.2830 0.0000 0.0000 0.0000
# 4 0.0000 0.0000 0.0000 35.8846 0.0000 0.0000
# 5 0.0000 0.0000 0.0000 0.0000 23.1520 0.0000
# 6 0.0000 0.0000 0.0000 0.0000 0.0000 15.2659
#
#
#
# Elastic Compliance Matrix: (Units=1/GPa)
#
#
# Indices 1 2 3 4 5 6 
#
# 1 0.052197 -0.004596 -0.001406 0.000000 0.000000 0.000000
# 2 -0.004596 0.011803 -0.006779 0.000000 0.000000 0.000000
# 3 -0.001406 -0.006779 0.014825 0.000000 0.000000 0.000000
# 4 0.000000 0.000000 0.000000 0.027867 0.000000 0.000000
# 5 0.000000 0.000000 0.000000 0.000000 0.043193 0.000000
# 6 0.000000 0.000000 0.000000 0.000000 0.000000 0.065505
#
#
# Mechanical properties :
#
#
# Convention : Reuss Voigt Hill
#
# Bulk Modulus (GPa) = 18.77523 43.44514 31.11018
# Shear Modulus (GPa) = 19.32691 25.53183 22.42937
#
# Velocity S-wave (km/s) = 3.00438 3.45315 3.23655
# Velocity P-wave (km/s) = 4.56111 6.01575 5.33821
#
# Compressibility (1/GPa) = 0.05326167
#
# Stress axis : x y z
#
# Youngs Moduli (GPa) = 19.15820 84.72738 67.45364
#
# Poissons Ratio (x) = 0.38944 0.09483
# Poissons Ratio (y) = 0.08806 0.45728
# Poissons Ratio (z) = 0.02693 0.57439
#
# Static dielectric constant tensor:
#      x y z
#    x 1.818330 0.000000 0.000000 
#    y 0.000000 1.802550 0.000000 
#    z 0.000000 0.000000 1.764610 
# 
# From -- ./inp_files/13209.got.cif
#   From: 2010.05.17/outbox.cif.g08.bks.cpg/sg35_7_cif.got.tgz:13209.got - 2010.06.03 17:29:28.
