data_PCOD9348619
_publ_section_title
;
Structure prediction by ZEFSAII (Michael W. Deem and Ramdas Pophale) SiO2 
 PCOD9348619
Probable space group: C M M 2
;
_chemical_formula_sum "Si O2"
_cell_formula_units_Z 64
_cell_length_a 27.318632
_cell_length_b 24.011150
_cell_length_c 5.076705
_cell_angle_alpha 90.000000
_cell_angle_beta 90.000000
_cell_angle_gamma 90.000000
_cell_volume 3330.073634
_symmetry_space_group_name_H-M "C M M 2"
_symmetry_group_IT_number 35
_symmetry_cell_setting 'orthorhombic'
loop_
_space_group_symop_operation_xyz
x,y,z
-x,-y,z
-x,y,z
x,-y,z
1/2+x,1/2+y,z
1/2-x,1/2-y,z
1/2-x,1/2+y,z
1/2+x,1/2-y,z
loop_
_atom_site_type_symbol
_atom_site_label
_atom_site_fract_x
_atom_site_fract_y
_atom_site_fract_z
Si Si1 0.133843 0.601905 0.170580
Si Si2 0.053825 0.559634 0.530108
Si Si3 0.693371 0.932726 0.653242
Si Si4 0.635382 0.433054 0.293523
Si Si5 0.442848 0.167380 0.902150
Si Si6 0.803595 0.932801 0.793681
Si Si7 0.941085 0.220938 0.604051
Si Si8 0.558916 0.346468 0.108926
O O1 0.093696 0.562190 0.303897
O O2 0.174663 0.601203 0.399275
O O3 0.158829 0.580687 0.902950
O O4 0.099898 0.656024 0.113694
O O5 0.057922 0.500000 0.670188
O O6 0.057542 0.611371 0.726437
O O7 0.000000 0.563169 0.406544
O O8 0.748633 0.915632 0.725500
O O9 0.692107 0.000000 0.600929
O O10 0.628274 0.500000 0.289526
O O11 0.656673 0.415952 0.575751
O O12 0.586823 0.401189 0.204840
O O13 0.677144 0.417829 0.080925
O O14 0.500000 0.175807 0.996022
O O15 0.427943 0.219155 0.719900
O O16 0.802278 0.000000 0.785191
O O17 0.926098 0.202331 0.313899
O O18 0.000000 0.221992 0.597425
O O19 0.927407 0.174093 0.818197
O O20 0.500000 0.353494 0.119298
#
# Coordination Sequence:
#
# PCOD9348619 Si02
#       8
#     8   8   8   8   8   8   8   8
#     4  12  22  34  52  77 105 141 181 235 287 338
#     4  10  21  35  50  73 109 146 179 220 281 355
#     4  11  22  35  53  76 109 144 183 236 285 329
#     4  10  19  34  58  87 122 152 178 212 263 335
#     4  10  22  38  56  76 108 150 192 235 281 335
#     4   9  19  35  54  80 112 151 188 221 266 325
#     4   9  20  36  56  78 110 149 193 237 266 304
#     4  10  20  35  57  89 120 148 183 222 264 317
#
# _framework density 19.218795
#
# number of rings (size 3 to 8) (size 9 to 14) (size 15 to 20)
#    0.000    1.875    1.250    3.000    1.750    3.250 
#    0.000    1.250    0.000    4.500    0.000   13.125 
#    0.000    0.000    0.000    0.000    0.000    0.000 
#
# Total GULP energy -178477.710761 kJ/mol
# GULP energy per Si atom -5577.428461 kJ/mol
# Density = 1.917505 g / cm^3
# Si number density = 19.218795 Si / 1000 Ang^3
#
#
#
# Elastic Constant Matrix: (Units=GPa)
#
#
# Indices 1 2 3 4 5 6 
#
# 1 65.4775 23.2065 2.2189 0.0000 0.0000 0.0000
# 2 23.2065 46.7722 2.5649 0.0000 0.0000 0.0000
# 3 2.2189 2.5649 59.2501 0.0000 0.0000 0.0000
# 4 0.0000 0.0000 0.0000 22.0702 0.0000 0.0000
# 5 0.0000 0.0000 0.0000 0.0000 26.8911 0.0000
# 6 0.0000 0.0000 0.0000 0.0000 0.0000 22.3733
#
#
#
# Elastic Compliance Matrix: (Units=1/GPa)
#
#
# Indices 1 2 3 4 5 6 
#
# 1 0.018536 -0.009181 -0.000297 0.000000 0.000000 0.000000
# 2 -0.009181 0.025978 -0.000781 0.000000 0.000000 0.000000
# 3 -0.000297 -0.000781 0.016923 0.000000 0.000000 0.000000
# 4 0.000000 0.000000 0.000000 0.045310 0.000000 0.000000
# 5 0.000000 0.000000 0.000000 0.000000 0.037187 0.000000
# 6 0.000000 0.000000 0.000000 0.000000 0.000000 0.044696
#
#
# Mechanical properties :
#
#
# Convention : Reuss Voigt Hill
#
# Bulk Modulus (GPa) = 24.43764 25.27562 24.85663
# Shear Modulus (GPa) = 22.44298 23.83421 23.13859
#
# Velocity S-wave (km/s) = 3.42096 3.52540 3.47357
# Velocity P-wave (km/s) = 5.32420 5.45448 5.38973
#
# Compressibility (1/GPa) = 0.04092049
#
# Stress axis : x y z
#
# Youngs Moduli (GPa) = 53.94818 38.49388 59.09288
#
# Poissons Ratio (x) = 0.35340 0.01754
# Poissons Ratio (y) = 0.49528 0.04614
# Poissons Ratio (z) = 0.01601 0.03005
#
# Static dielectric constant tensor:
#      x y z
#    x 1.688210 0.000000 0.000000 
#    y 0.000000 1.681950 0.000000 
#    z 0.000000 0.000000 1.708770 
# 
# From -- ./inp_files/3817.got.cif
#   From: 2010.05.17/outbox.cif.g08.bks.cpg/sg35_2_cif.got.tgz:3817.got - 2010.06.03 17:29:28.
