data_PCOD9348022
_publ_section_title
;
Structure prediction by ZEFSAII (Michael W. Deem and Ramdas Pophale) SiO2 
 PCOD9348022
Probable space group: P N N 2
;
_chemical_formula_sum "Si O2"
_cell_formula_units_Z 20
_cell_length_a 27.239066
_cell_length_b 4.829583
_cell_length_c 6.293263
_cell_angle_alpha 90.000000
_cell_angle_beta 90.000000
_cell_angle_gamma 90.000000
_cell_volume 827.899705
_symmetry_space_group_name_H-M "P N N 2"
_symmetry_group_IT_number 34
_symmetry_cell_setting 'orthorhombic'
loop_
_space_group_symop_operation_xyz
x,y,z
-x,-y,z
1/2-x,1/2+y,1/2+z
1/2+x,1/2-y,1/2+z
loop_
_atom_site_type_symbol
_atom_site_label
_atom_site_fract_x
_atom_site_fract_y
_atom_site_fract_z
Si Si1 0.101168 0.385260 0.689140
Si Si2 0.805436 0.169923 0.162588
Si Si3 0.407592 0.385601 0.904094
Si Si4 0.702402 0.164138 0.382396
Si Si5 0.031986 0.237418 0.062524
O O1 0.081422 0.585701 0.503821
O O2 0.158804 0.434425 0.728858
O O3 0.096230 0.075027 0.609602
O O4 0.071945 0.384894 0.910341
O O5 0.855023 0.118472 0.289206
O O6 0.755904 0.108052 0.290127
O O7 0.803801 0.489120 0.096559
O O8 0.804564 0.981890 0.950587
O O9 0.443754 0.545122 0.743739
O O10 0.000000 0.500000 0.138156
O O11 0.000000 0.000000 0.940630
#
# Coordination Sequence:
#
# PCOD9348022 Si02
#       5
#     4   4   4   4   4
#     4  12  26  47  77 109 148 193 247 305 372 443
#     4  12  24  43  71 108 152 192 240 297 362 441
#     4  12  26  47  77 109 148 193 247 305 372 443
#     4  12  24  43  71 108 152 192 240 297 362 441
#     4  12  28  50  78 106 150 196 252 318 378 440
#
# _framework density 24.157516999999999
#
# number of rings (size 3 to 8) (size 9 to 14) (size 15 to 20)
#    0.000    0.000    2.000    8.400    2.800    3.200 
#    0.000    0.000    0.000    0.000    0.000    0.000 
#    0.000    0.000    0.000    0.000    0.000    0.000 
#
# Total GULP energy -111982.383770 kJ/mol
# GULP energy per Si atom -5599.119188 kJ/mol
# Density = 2.410253 g / cm^3
# Si number density = 24.157517 Si / 1000 Ang^3
#
#
#
# Elastic Constant Matrix: (Units=GPa)
#
#
# Indices 1 2 3 4 5 6 
#
# 1 110.0676 26.1346 24.5208 0.0000 0.0000 0.0000
# 2 26.1346 102.1624 -5.8902 0.0000 0.0000 0.0000
# 3 24.5208 -5.8902 41.7044 0.0000 0.0000 0.0000
# 4 0.0000 0.0000 0.0000 30.0274 0.0000 0.0000
# 5 0.0000 0.0000 0.0000 0.0000 38.2226 0.0000
# 6 0.0000 0.0000 0.0000 0.0000 0.0000 22.6304
#
#
#
# Elastic Compliance Matrix: (Units=1/GPa)
#
#
# Indices 1 2 3 4 5 6 
#
# 1 0.011494 -0.003357 -0.007232 0.000000 0.000000 0.000000
# 2 -0.003357 0.010849 0.003506 0.000000 0.000000 0.000000
# 3 -0.007232 0.003506 0.028726 0.000000 0.000000 0.000000
# 4 0.000000 0.000000 0.000000 0.033303 0.000000 0.000000
# 5 0.000000 0.000000 0.000000 0.000000 0.026163 0.000000
# 6 0.000000 0.000000 0.000000 0.000000 0.000000 0.044188
#
#
# Mechanical properties :
#
#
# Convention : Reuss Voigt Hill
#
# Bulk Modulus (GPa) = 27.09833 38.16275 32.63054
# Shear Modulus (GPa) = 27.59545 32.12069 29.85807
#
# Velocity S-wave (km/s) = 3.38348 3.65037 3.51946
# Velocity P-wave (km/s) = 5.14836 5.79644 5.48199
#
# Compressibility (1/GPa) = 0.03690264
#
# Stress axis : x y z
#
# Youngs Moduli (GPa) = 87.00486 92.17178 34.81208
#
# Poissons Ratio (x) = 0.30944 0.25176
# Poissons Ratio (y) = 0.29209 -0.12206
# Poissons Ratio (z) = 0.62922 -0.32318
#
# Static dielectric constant tensor:
#      x y z
#    x 2.020300 0.000000 0.000000 
#    y 0.000000 1.870520 0.000000 
#    z 0.000000 0.000000 1.886170 
# 
# From -- ./inp_files/1709.got.cif
#   From: 2010.05.17/outbox.cif.g08.bks.cpg/sg34_1_cif.got.tgz:1709.got - 2010.06.03 17:23:11.
