data_PCOD9348021
_publ_section_title
;
Structure prediction by ZEFSAII (Michael W. Deem and Ramdas Pophale) SiO2 
 PCOD9348021
Probable space group: P N N 2
;
_chemical_formula_sum "Si O2"
_cell_formula_units_Z 16
_cell_length_a 7.678832
_cell_length_b 15.753012
_cell_length_c 4.670314
_cell_angle_alpha 90.000000
_cell_angle_beta 90.000000
_cell_angle_gamma 90.000000
_cell_volume 564.943284
_symmetry_space_group_name_H-M "P N N 2"
_symmetry_group_IT_number 34
_symmetry_cell_setting 'orthorhombic'
loop_
_space_group_symop_operation_xyz
x,y,z
-x,-y,z
1/2-x,1/2+y,1/2+z
1/2+x,1/2-y,1/2+z
loop_
_atom_site_type_symbol
_atom_site_label
_atom_site_fract_x
_atom_site_fract_y
_atom_site_fract_z
Si Si1 0.059382 0.835911 0.655370
Si Si2 0.677384 0.761694 0.651099
Si Si3 0.682632 0.529535 0.603614
Si Si4 0.533235 0.914539 0.938621
O O1 0.116843 0.822641 0.328110
O O2 0.116561 0.922710 0.810143
O O3 0.862191 0.805939 0.696447
O O4 0.162459 0.761960 0.822275
O O5 0.540165 0.831494 0.754308
O O6 0.500000 0.500000 0.749638
O O7 0.781679 0.437691 0.576348
O O8 0.868164 0.581073 0.649565
O O9 0.500000 0.000000 0.751682
#
# Coordination Sequence:
#
# PCOD9348021 Si02
#       4
#     4   4   4   4
#     4  12  24  42  67  94 133 166 219 261 326 376
#     4  12  24  43  65  98 128 173 211 271 315 386
#     4   9  17  38  61  91 125 169 206 264 315 381
#     4   8  19  36  62  90 127 162 217 254 320 377
#
# _framework density 28.321428999999998
#
# number of rings (size 3 to 8) (size 9 to 14) (size 15 to 20)
#    1.500    0.000    2.500    4.500    0.000    0.000 
#    0.000    5.000    0.000    0.000    0.000    0.000 
#    0.000    0.000    0.000    0.000    0.000    0.000 
#
# Total GULP energy -89166.576354 kJ/mol
# GULP energy per Si atom -5572.911022 kJ/mol
# Density = 2.825697 g / cm^3
# Si number density = 28.321429 Si / 1000 Ang^3
#
#
#
# Elastic Constant Matrix: (Units=GPa)
#
#
# Indices 1 2 3 4 5 6 
#
# 1 231.1096 42.4621 35.8124 0.0000 0.0000 0.0000
# 2 42.4621 58.5585 2.8720 0.0000 0.0000 0.0000
# 3 35.8124 2.8720 65.9814 0.0000 0.0000 0.0000
# 4 0.0000 0.0000 0.0000 -16.8283 0.0000 0.0000
# 5 0.0000 0.0000 0.0000 0.0000 28.6803 0.0000
# 6 0.0000 0.0000 0.0000 0.0000 0.0000 73.3708
#
#
#
# Elastic Compliance Matrix: (Units=1/GPa)
#
#
# Indices 1 2 3 4 5 6 
#
# 1 0.005463 -0.003824 -0.002799 0.000000 0.000000 0.000000
# 2 -0.003824 0.019790 0.001214 0.000000 0.000000 0.000000
# 3 -0.002799 0.001214 0.016622 0.000000 0.000000 0.000000
# 4 0.000000 0.000000 0.000000 -0.059424 0.000000 0.000000
# 5 0.000000 0.000000 0.000000 0.000000 0.034867 0.000000
# 6 0.000000 0.000000 0.000000 0.000000 0.000000 0.013629
#
#
# Mechanical properties :
#
#
# Convention : Reuss Voigt Hill
#
# Bulk Modulus (GPa) = 32.19773 57.54918 44.87345
# Shear Modulus (GPa) = 95.93384 35.34475 65.63929
#
# Velocity S-wave (km/s) = 5.82639 3.53652 4.81943
# Velocity P-wave (km/s) = 7.52700 6.08605 6.84455
#
# Compressibility (1/GPa) = 0.03105809
#
# Stress axis : x y z
#
# Youngs Moduli (GPa) = 183.03970 50.52934 60.16108
#
# Poissons Ratio (x) = 0.19324 0.16838
# Poissons Ratio (y) = 0.70000 -0.07305
# Poissons Ratio (z) = 0.51230 -0.06136
#
# Static dielectric constant tensor:
#      x y z
#    x 2.230460 0.000000 0.000000 
#    y 0.000000 2.635620 0.000000 
#    z 0.000000 0.000000 2.141200 
# 
# From -- ./inp_files/361.got.cif
#   From: 2010.05.17/outbox.cif.g08.bks.cpg/sg34_1_cif.got.tgz:361.got - 2010.06.03 17:23:11.
