data_PCOD9348230
_publ_section_title
;
Structure prediction by ZEFSAII (Michael W. Deem and Ramdas Pophale) SiO2 
 PCOD9348230
Probable space group: C M M 2
;
_chemical_formula_sum "Si O2"
_cell_formula_units_Z 64
_cell_length_a 9.053272
_cell_length_b 29.150703
_cell_length_c 15.833329
_cell_angle_alpha 90.000000
_cell_angle_beta 90.000000
_cell_angle_gamma 90.000000
_cell_volume 4178.561875
_symmetry_space_group_name_H-M "C M M 2"
_symmetry_group_IT_number 35
_symmetry_cell_setting 'orthorhombic'
loop_
_space_group_symop_operation_xyz
x,y,z
-x,-y,z
-x,y,z
x,-y,z
1/2+x,1/2+y,z
1/2-x,1/2-y,z
1/2-x,1/2+y,z
1/2+x,1/2-y,z
loop_
_atom_site_type_symbol
_atom_site_label
_atom_site_fract_x
_atom_site_fract_y
_atom_site_fract_z
Si Si1 0.823767 0.445909 0.265470
Si Si2 0.330217 0.555686 0.774675
Si Si3 0.676684 0.297607 0.174088
Si Si4 0.177352 0.553807 0.600809
Si Si5 0.822567 0.389122 0.434714
Si Si6 0.676756 0.701845 0.372795
Si Si7 0.323879 0.054566 0.949143
Si Si8 0.822580 0.104110 0.107377
O O1 0.793565 0.500000 0.272384
O O2 0.788226 0.420291 0.352872
O O3 0.735425 0.423798 0.188442
O O4 0.000000 0.440429 0.250008
O O5 0.500000 0.570747 0.779579
O O6 0.328740 0.500000 0.773733
O O7 0.254832 0.569726 0.686926
O O8 0.240970 0.569047 0.858378
O O9 0.500000 0.292898 0.169420
O O10 0.750000 0.250000 0.146940
O O11 0.714433 0.305332 0.273175
O O12 0.720314 0.342733 0.122350
O O13 0.214064 0.500000 0.586158
O O14 0.218556 0.583850 0.519721
O O15 0.000000 0.556199 0.611441
O O16 0.741602 0.340890 0.423586
O O17 0.000000 0.382168 0.435579
O O18 0.500000 0.704176 0.380048
O O19 0.750000 0.750000 0.398083
O O20 0.500000 0.060320 0.950708
O O21 0.292863 0.000000 0.960476
O O22 0.248526 0.082462 0.024238
O O23 0.000000 0.101407 0.103299
#
# Coordination Sequence:
#
# PCOD9348230 Si02
#       8
#     8   8   8   8   8   8   8   8
#     4  10  20  32  45  64  94 132 169 198 227 273
#     4   9  17  30  48  70  95 124 159 201 246 284
#     4   9  19  33  49  68  91 120 157 200 244 286
#     4   9  17  30  48  70  98 131 165 200 237 282
#     4  10  19  31  48  70  96 129 165 200 239 282
#     4  10  19  33  50  69  93 122 160 204 248 290
#     4  10  20  33  49  70  96 128 165 200 236 283
#     4  11  21  33  47  69  97 126 160 199 242 286
#
# _framework density 15.316274
#
# number of rings (size 3 to 8) (size 9 to 14) (size 15 to 20)
#    0.000    2.250    1.250    2.250    0.000    7.500 
#    0.000    0.000    0.000    2.250    0.000    0.875 
#    0.000    2.000    0.000    0.000    0.000    0.000 
#
# Total GULP energy -178509.850428 kJ/mol
# GULP energy per Si atom -5578.432826 kJ/mol
# Density = 1.528141 g / cm^3
# Si number density = 15.316274 Si / 1000 Ang^3
#
#
#
# Elastic Constant Matrix: (Units=GPa)
#
#
# Indices 1 2 3 4 5 6 
#
# 1 53.4614 56.8906 62.3661 0.0000 0.0000 0.0000
# 2 56.8906 114.6903 75.0547 0.0000 0.0000 0.0000
# 3 62.3661 75.0547 139.1554 0.0000 0.0000 0.0000
# 4 0.0000 0.0000 0.0000 6.5898 0.0000 0.0000
# 5 0.0000 0.0000 0.0000 0.0000 20.6290 0.0000
# 6 0.0000 0.0000 0.0000 0.0000 0.0000 25.2454
#
#
#
# Elastic Compliance Matrix: (Units=1/GPa)
#
#
# Indices 1 2 3 4 5 6 
#
# 1 0.054872 -0.017194 -0.015319 0.000000 0.000000 0.000000
# 2 -0.017194 0.018863 -0.002468 0.000000 0.000000 0.000000
# 3 -0.015319 -0.002468 0.015383 0.000000 0.000000 0.000000
# 4 0.000000 0.000000 0.000000 0.151749 0.000000 0.000000
# 5 0.000000 0.000000 0.000000 0.000000 0.048476 0.000000
# 6 0.000000 0.000000 0.000000 0.000000 0.000000 0.039611
#
#
# Mechanical properties :
#
#
# Convention : Reuss Voigt Hill
#
# Bulk Modulus (GPa) = 52.20105 77.32553 64.76329
# Shear Modulus (GPa) = 12.33656 18.02589 15.18123
#
# Velocity S-wave (km/s) = 2.84113 3.43434 3.15172
# Velocity P-wave (km/s) = 6.70215 8.14381 7.45790
#
# Compressibility (1/GPa) = 0.01915670
#
# Stress axis : x y z
#
# Youngs Moduli (GPa) = 18.22435 53.01381 65.00756
#
# Poissons Ratio (x) = 0.91150 0.99582
# Poissons Ratio (y) = 0.31334 0.16045
# Poissons Ratio (z) = 0.27917 0.13085
#
# Static dielectric constant tensor:
#      x y z
#    x 1.511130 0.000000 0.000000 
#    y 0.000000 1.490800 0.000000 
#    z 0.000000 0.000000 1.489420 
# 
# From -- ./inp_files/15944.got.cif
#   From: 2010.05.17/outbox.cif.g08.bks.cpg/sg35_8_cif.got.tgz:15944.got - 2010.06.03 17:29:28.
