data_PCOD9348234
_publ_section_title
;
Structure prediction by ZEFSAII (Michael W. Deem and Ramdas Pophale) SiO2 
 PCOD9348234
Probable space group: C M M 2
;
_chemical_formula_sum "Si O2"
_cell_formula_units_Z 56
_cell_length_a 8.846044
_cell_length_b 18.271627
_cell_length_c 19.179239
_cell_angle_alpha 90.000000
_cell_angle_beta 90.000000
_cell_angle_gamma 90.000000
_cell_volume 3099.971401
_symmetry_space_group_name_H-M "C M M 2"
_symmetry_group_IT_number 35
_symmetry_cell_setting 'orthorhombic'
loop_
_space_group_symop_operation_xyz
x,y,z
-x,-y,z
-x,y,z
x,-y,z
1/2+x,1/2+y,z
1/2-x,1/2-y,z
1/2-x,1/2+y,z
1/2+x,1/2-y,z
loop_
_atom_site_type_symbol
_atom_site_label
_atom_site_fract_x
_atom_site_fract_y
_atom_site_fract_z
Si Si1 0.181901 0.586085 0.475950
Si Si2 0.820748 0.668891 0.050616
Si Si3 0.174686 0.911792 0.178541
Si Si4 0.318079 0.667592 0.909421
Si Si5 0.824358 0.410877 0.322138
Si Si6 0.181747 0.831651 0.758416
Si Si7 0.818741 0.168743 0.606739
O O1 0.217337 0.500000 0.479896
O O2 0.229278 0.613572 0.398817
O O3 0.256097 0.625687 0.540891
O O4 0.000000 0.593707 0.478961
O O5 0.750000 0.750000 0.058098
O O6 0.774746 0.622986 0.118076
O O7 0.000000 0.674899 0.043529
O O8 0.751438 0.634606 0.979631
O O9 0.229154 0.887595 0.255289
O O10 0.000000 0.891668 0.167428
O O11 0.186916 0.000000 0.176142
O O12 0.500000 0.670571 0.915671
O O13 0.250000 0.750000 0.907630
O O14 0.277438 0.634008 0.833554
O O15 0.821283 0.500000 0.324153
O O16 0.000000 0.389864 0.312975
O O17 0.250000 0.750000 0.758251
O O18 0.223753 0.864603 0.683090
O O19 0.000000 0.825369 0.758910
O O20 0.750000 0.250000 0.604651
O O21 0.000000 0.172548 0.603068
#
# Coordination Sequence:
#
# PCOD9348234 Si02
#       7
#     8   8   8   8   8   8   8
#     4   9  18  33  52  73  98 128 161 198 241 287
#     4  11  21  33  50  73 102 131 161 198 241 287
#     4  10  20  34  53  76 100 126 159 198 240 287
#     4   9  15  26  44  66  93 123 159 199 239 283
#     4   8  15  30  51  72  94 123 160 199 238 283
#     4   8  15  26  42  65  92 123 158 197 238 280
#     4  10  19  31  48  72 101 130 162 200 242 287
#
# _framework density 18.064684
#
# number of rings (size 3 to 8) (size 9 to 14) (size 15 to 20)
#    0.000    2.714    0.000    4.286    0.000    2.857 
#    0.000    2.143    0.000    4.286    0.000    2.000 
#    0.000    0.000    0.000    0.000    0.000    0.000 
#
# Total GULP energy -155922.603822 kJ/mol
# GULP energy per Si atom -5568.664422 kJ/mol
# Density = 1.802357 g / cm^3
# Si number density = 18.064684 Si / 1000 Ang^3
#
#
#
# Elastic Constant Matrix: (Units=GPa)
#
#
# Indices 1 2 3 4 5 6 
#
# 1 69.1386 17.8233 58.1083 0.0000 0.0000 0.0000
# 2 17.8233 9.6666 31.5568 0.0000 0.0000 0.0000
# 3 58.1083 31.5568 196.0782 0.0000 0.0000 0.0000
# 4 0.0000 0.0000 0.0000 30.0667 0.0000 0.0000
# 5 0.0000 0.0000 0.0000 0.0000 31.0685 0.0000
# 6 0.0000 0.0000 0.0000 0.0000 0.0000 18.3912
#
#
#
# Elastic Compliance Matrix: (Units=1/GPa)
#
#
# Indices 1 2 3 4 5 6 
#
# 1 0.027567 -0.050901 0.000023 0.000000 0.000000 0.000000
# 2 -0.050901 0.311955 -0.035121 0.000000 0.000000 0.000000
# 3 0.000023 -0.035121 0.010746 0.000000 0.000000 0.000000
# 4 0.000000 0.000000 0.000000 0.033259 0.000000 0.000000
# 5 0.000000 0.000000 0.000000 0.000000 0.032187 0.000000
# 6 0.000000 0.000000 0.000000 0.000000 0.000000 0.054374
#
#
# Mechanical properties :
#
#
# Convention : Reuss Voigt Hill
#
# Bulk Modulus (GPa) = 5.60955 54.42891 30.01923
# Shear Modulus (GPa) = 7.12749 27.06493 17.09621
#
# Velocity S-wave (km/s) = 1.98849 3.87489 3.07968
# Velocity P-wave (km/s) = 2.89554 7.08626 5.41291
#
# Compressibility (1/GPa) = 0.17826755
#
# Stress axis : x y z
#
# Youngs Moduli (GPa) = 36.27582 3.20559 93.06033
#
# Poissons Ratio (x) = 0.16317 -0.00210
# Poissons Ratio (y) = 1.84648 3.26839
# Poissons Ratio (z) = -0.00082 0.11258
#
# Static dielectric constant tensor:
#      x y z
#    x 1.607910 0.000000 0.000000 
#    y 0.000000 1.598750 0.000000 
#    z 0.000000 0.000000 1.683830 
# 
# From -- ./inp_files/18226.got.cif
#   From: 2010.05.17/outbox.cif.g08.bks.cpg/sg35_10_cif.got.tgz:18226.got - 2010.06.03 17:29:28.
