data_PCOD9348643
_publ_section_title
;
Structure prediction by ZEFSAII (Michael W. Deem and Ramdas Pophale) SiO2 
 PCOD9348643
Probable space group: C M M 2
;
_chemical_formula_sum "Si O2"
_cell_formula_units_Z 40
_cell_length_a 8.411847
_cell_length_b 14.941438
_cell_length_c 15.766501
_cell_angle_alpha 90.000000
_cell_angle_beta 90.000000
_cell_angle_gamma 90.000000
_cell_volume 1981.614104
_symmetry_space_group_name_H-M "C M M 2"
_symmetry_group_IT_number 35
_symmetry_cell_setting 'orthorhombic'
loop_
_space_group_symop_operation_xyz
x,y,z
-x,-y,z
-x,y,z
x,-y,z
1/2+x,1/2+y,z
1/2-x,1/2-y,z
1/2-x,1/2+y,z
1/2+x,1/2-y,z
loop_
_atom_site_type_symbol
_atom_site_label
_atom_site_fract_x
_atom_site_fract_y
_atom_site_fract_z
Si Si1 0.810063 0.000000 0.722620
Si Si2 0.689860 0.648471 0.047622
Si Si3 0.305621 0.500000 0.916311
Si Si4 0.807906 0.647147 0.409971
Si Si5 0.309111 0.851925 0.595674
Si Si6 0.690965 0.853169 0.227054
O O1 0.753511 0.913964 0.670167
O O2 0.750515 0.000000 0.819464
O O3 0.000000 0.000000 0.725003
O O4 0.500000 0.650346 0.048085
O O5 0.750000 0.750000 0.039383
O O6 0.744533 0.609971 0.138713
O O7 0.744944 0.586450 0.970394
O O8 0.500000 0.500000 0.915311
O O9 0.750000 0.750000 0.409866
O O10 0.756917 0.612056 0.502142
O O11 0.757196 0.608117 0.318688
O O12 0.000000 0.645076 0.409436
O O13 0.500000 0.852451 0.597175
O O14 0.250000 0.750000 0.603860
O O15 0.500000 0.855133 0.223510
O O16 0.750000 0.750000 0.227743
#
# Coordination Sequence:
#
# PCOD9348643 Si02
#       6
#     4   8   4   8   8   8
#     4  11  23  41  60  81 108 142 185 237 286 333
#     4  10  19  35  56  79 106 140 176 217 265 318
#     4   9  22  41  58  75 104 140 177 223 278 327
#     4   8  15  27  47  74 108 143 176 211 256 311
#     4  10  20  37  59  85 114 148 185 226 274 329
#     4   9  15  26  46  76 108 141 175 212 255 308
#
# _framework density 20.185565
#
# number of rings (size 3 to 8) (size 9 to 14) (size 15 to 20)
#    0.000    2.600    0.000    3.300    0.000    2.400 
#    0.000    9.000    0.000    3.600    0.000    0.000 
#    0.000    0.000    0.000    0.000    0.000    0.000 
#
# Total GULP energy -111514.652173 kJ/mol
# GULP energy per Si atom -5575.732609 kJ/mol
# Density = 2.013962 g / cm^3
# Si number density = 20.185565 Si / 1000 Ang^3
#
#
#
# Elastic Constant Matrix: (Units=GPa)
#
#
# Indices 1 2 3 4 5 6 
#
# 1 42.4223 16.3845 39.6711 0.0000 0.0000 0.0000
# 2 16.3845 98.1946 85.1024 0.0000 0.0000 0.0000
# 3 39.6711 85.1024 258.3172 0.0000 0.0000 0.0000
# 4 0.0000 0.0000 0.0000 54.8452 0.0000 0.0000
# 5 0.0000 0.0000 0.0000 0.0000 27.7737 0.0000
# 6 0.0000 0.0000 0.0000 0.0000 0.0000 16.1218
#
#
#
# Elastic Compliance Matrix: (Units=1/GPa)
#
#
# Indices 1 2 3 4 5 6 
#
# 1 0.027645 -0.001306 -0.003815 0.000000 0.000000 0.000000
# 2 -0.001306 0.014315 -0.004516 0.000000 0.000000 0.000000
# 3 -0.003815 -0.004516 0.005945 0.000000 0.000000 0.000000
# 4 0.000000 0.000000 0.000000 0.018233 0.000000 0.000000
# 5 0.000000 0.000000 0.000000 0.000000 0.036005 0.000000
# 6 0.000000 0.000000 0.000000 0.000000 0.000000 0.062028
#
#
# Mechanical properties :
#
#
# Convention : Reuss Voigt Hill
#
# Bulk Modulus (GPa) = 34.92724 75.69444 55.31084
# Shear Modulus (GPa) = 25.90826 36.93323 31.42074
#
# Velocity S-wave (km/s) = 3.58649 4.28212 3.94965
# Velocity P-wave (km/s) = 5.87292 7.87588 6.94697
#
# Compressibility (1/GPa) = 0.02863095
#
# Stress axis : x y z
#
# Youngs Moduli (GPa) = 36.17314 69.85523 168.21463
#
# Poissons Ratio (x) = 0.09124 0.64178
# Poissons Ratio (y) = 0.04725 0.75959
# Poissons Ratio (z) = 0.13801 0.31544
#
# Static dielectric constant tensor:
#      x y z
#    x 1.692540 0.000000 0.000000 
#    y 0.000000 1.577340 0.000000 
#    z 0.000000 0.000000 1.761830 
# 
# From -- ./inp_files/14817.got.cif
#   From: 2010.05.17/outbox.cif.g08.bks.cpg/sg35_8_cif.got.tgz:14817.got - 2010.06.03 17:29:28.
