data_PCOD9348899
_publ_section_title
;
Structure prediction by ZEFSAII (Michael W. Deem and Ramdas Pophale) SiO2 
 PCOD9348899
Probable space group: C M M 2
;
_chemical_formula_sum "Si O2"
_cell_formula_units_Z 56
_cell_length_a 8.682643
_cell_length_b 23.784404
_cell_length_c 15.867090
_cell_angle_alpha 90.000000
_cell_angle_beta 90.000000
_cell_angle_gamma 90.000000
_cell_volume 3276.736380
_symmetry_space_group_name_H-M "C M M 2"
_symmetry_group_IT_number 35
_symmetry_cell_setting 'orthorhombic'
loop_
_space_group_symop_operation_xyz
x,y,z
-x,-y,z
-x,y,z
x,-y,z
1/2+x,1/2+y,z
1/2-x,1/2-y,z
1/2-x,1/2+y,z
1/2+x,1/2-y,z
loop_
_atom_site_type_symbol
_atom_site_label
_atom_site_fract_x
_atom_site_fract_y
_atom_site_fract_z
Si Si1 0.184230 0.617949 0.000000
Si Si2 0.685173 0.500000 0.740095
Si Si3 0.684365 0.312590 0.842818
Si Si4 0.685193 0.118464 0.685585
Si Si5 0.685187 0.500000 0.940135
Si Si6 0.685133 0.686310 0.156049
Si Si7 0.816100 0.813166 0.344266
Si Si8 0.815963 0.313304 0.517897
O O1 0.248564 0.655677 0.923743
O O2 0.248346 0.555616 0.983617
O O3 0.000000 0.617580 0.998353
O O4 0.243971 0.646124 0.085821
O O5 0.500000 0.500000 0.734897
O O6 0.752738 0.444408 0.697079
O O7 0.726146 0.500000 0.840164
O O8 0.500000 0.312171 0.846754
O O9 0.750000 0.250000 0.840679
O O10 0.740426 0.345236 0.760183
O O11 0.500000 0.118940 0.694163
O O12 0.725453 0.147634 0.596863
O O13 0.500000 0.500000 0.945423
O O14 0.500000 0.688821 0.147298
O O15 0.750000 0.750000 0.147052
O O16 0.721450 0.664597 0.250927
O O17 0.750000 0.750000 0.343118
O O18 0.745544 0.838108 0.429440
O O19 0.000000 0.811535 0.352522
O O20 0.750000 0.250000 0.529255
O O21 0.000000 0.308633 0.513411
#
# Coordination Sequence:
#
# PCOD9348899 Si02
#       8
#     8   4   8   8   4   8   8   8
#     4  12  24  38  58  82 109 145 184 227 275 326
#     4  11  23  39  61  82 104 143 188 232 277 323
#     4  12  24  38  55  79 111 146 181 223 274 327
#     4  11  23  38  57  81 110 145 184 229 275 325
#     4  11  23  41  61  82 106 141 188 232 275 323
#     4  10  20  35  55  83 116 148 184 227 275 329
#     4   9  17  30  52  79 110 147 182 221 269 323
#     4  10  20  33  53  82 114 147 181 223 274 326
#
# _framework density 17.090174999999999
#
# number of rings (size 3 to 8) (size 9 to 14) (size 15 to 20)
#    0.000    1.286    1.429    6.429    0.000    5.714 
#    0.000    0.000    0.000    0.857    0.000    4.000 
#    0.000    0.000    0.000    0.000    0.000    0.000 
#
# Total GULP energy -156412.766096 kJ/mol
# GULP energy per Si atom -5586.170218 kJ/mol
# Density = 1.705128 g / cm^3
# Si number density = 17.090175 Si / 1000 Ang^3
#
#
#
# Elastic Constant Matrix: (Units=GPa)
#
#
# Indices 1 2 3 4 5 6 
#
# 1 110.6025 56.7760 80.4721 0.0000 0.0000 0.0000
# 2 56.7760 136.8330 87.0216 0.0000 0.0000 0.0000
# 3 80.4721 87.0216 189.9309 0.0000 0.0000 0.0000
# 4 0.0000 0.0000 0.0000 -39.9962 0.0000 0.0000
# 5 0.0000 0.0000 0.0000 0.0000 30.2688 0.0000
# 6 0.0000 0.0000 0.0000 0.0000 0.0000 30.5556
#
#
#
# Elastic Compliance Matrix: (Units=1/GPa)
#
#
# Indices 1 2 3 4 5 6 
#
# 1 0.013808 -0.002835 -0.004552 0.000000 0.000000 0.000000
# 2 -0.002835 0.010895 -0.003791 0.000000 0.000000 0.000000
# 3 -0.004552 -0.003791 0.008930 0.000000 0.000000 0.000000
# 4 0.000000 0.000000 0.000000 -0.025002 0.000000 0.000000
# 5 0.000000 0.000000 0.000000 0.000000 0.033037 0.000000
# 6 0.000000 0.000000 0.000000 0.000000 0.000000 0.032727
#
#
# Mechanical properties :
#
#
# Convention : Reuss Voigt Hill
#
# Bulk Modulus (GPa) = 88.65682 98.43398 93.54540
# Shear Modulus (GPa) = 49.74606 18.37208 34.05907
#
# Velocity S-wave (km/s) = 5.40103 3.28229 4.46904
# Velocity P-wave (km/s) = 9.53328 8.49037 9.02690
#
# Compressibility (1/GPa) = 0.01127945
#
# Stress axis : x y z
#
# Youngs Moduli (GPa) = 72.42065 91.78282 111.97646
#
# Poissons Ratio (x) = 0.26018 0.50967
# Poissons Ratio (y) = 0.20529 0.42449
# Poissons Ratio (z) = 0.32963 0.34794
#
# Static dielectric constant tensor:
#      x y z
#    x 1.570470 0.000000 0.000000 
#    y 0.000000 1.556980 0.000000 
#    z 0.000000 0.000000 1.596680 
# 
# From -- ./inp_files/15736.got.cif
#   From: 2010.05.17/outbox.cif.g08.bks.cpg/sg35_8_cif.got.tgz:15736.got - 2010.06.03 17:29:28.
