data_PCOD9348123
_publ_section_title
;
Structure prediction by ZEFSAII (Michael W. Deem and Ramdas Pophale) SiO2 
 PCOD9348123
Probable space group: C M M 2
;
_chemical_formula_sum "Si O2"
_cell_formula_units_Z 48
_cell_length_a 14.910918
_cell_length_b 15.749633
_cell_length_c 10.270688
_cell_angle_alpha 90.000000
_cell_angle_beta 90.000000
_cell_angle_gamma 90.000000
_cell_volume 2411.983634
_symmetry_space_group_name_H-M "C M M 2"
_symmetry_group_IT_number 35
_symmetry_cell_setting 'orthorhombic'
loop_
_space_group_symop_operation_xyz
x,y,z
-x,-y,z
-x,y,z
x,-y,z
1/2+x,1/2+y,z
1/2-x,1/2-y,z
1/2-x,1/2+y,z
1/2+x,1/2-y,z
loop_
_atom_site_type_symbol
_atom_site_label
_atom_site_fract_x
_atom_site_fract_y
_atom_site_fract_z
Si Si1 0.704958 0.896926 0.299680
Si Si2 0.103566 0.603532 0.034255
Si Si3 0.731900 0.901841 0.802964
Si Si4 0.166047 0.683806 0.560293
Si Si5 0.400093 0.599517 0.388386
Si Si6 0.903581 0.840380 0.680068
O O1 0.657593 0.873789 0.164962
O O2 0.651973 0.854104 0.418973
O O3 0.809658 0.868788 0.317344
O O4 0.703316 0.000000 0.312205
O O5 0.100328 0.500000 0.029593
O O6 0.000000 0.632991 0.032445
O O7 0.163322 0.631287 0.911203
O O8 0.687745 0.890324 0.661303
O O9 0.825618 0.853467 0.784325
O O10 0.751085 0.000000 0.830274
O O11 0.250000 0.750000 0.553078
O O12 0.094820 0.744243 0.628279
O O13 0.500000 0.636519 0.360022
O O14 0.404699 0.500000 0.357809
O O15 0.386193 0.608634 0.544642
O O16 0.000000 0.866819 0.731438
#
# Coordination Sequence:
#
# PCOD9348123 Si02
#       6
#     8   8   8   8   8   8
#     4  10  18  33  57  82 110 145 186 232 280 332
#     4   9  20  37  55  77 108 145 186 236 289 331
#     4  10  19  35  58  81 108 146 188 230 276 327
#     4  10  19  32  52  80 113 144 180 226 271 324
#     4   9  16  28  51  81 110 142 178 219 272 330
#     4  10  20  33  53  82 116 146 178 224 279 331
#
# _framework density 19.900632000000002
#
# number of rings (size 3 to 8) (size 9 to 14) (size 15 to 20)
#    0.000    2.333    3.333    1.000    0.000    2.333 
#    0.000    3.333    0.000    8.000    0.000    0.000 
#    0.000    0.000    0.000    0.000    0.000    0.000 
#
# Total GULP energy -133651.813549 kJ/mol
# GULP energy per Si atom -5568.825565 kJ/mol
# Density = 1.985534 g / cm^3
# Si number density = 19.900632 Si / 1000 Ang^3
#
#
#
# Elastic Constant Matrix: (Units=GPa)
#
#
# Indices 1 2 3 4 5 6 
#
# 1 170.1586 22.5773 78.6997 0.0000 0.0000 0.0000
# 2 22.5773 27.8358 12.7734 0.0000 0.0000 0.0000
# 3 78.6997 12.7734 115.4975 0.0000 0.0000 0.0000
# 4 0.0000 0.0000 0.0000 13.4221 0.0000 0.0000
# 5 0.0000 0.0000 0.0000 0.0000 14.5774 0.0000
# 6 0.0000 0.0000 0.0000 0.0000 0.0000 10.9765
#
#
#
# Elastic Compliance Matrix: (Units=1/GPa)
#
#
# Indices 1 2 3 4 5 6 
#
# 1 0.009153 -0.004806 -0.005706 0.000000 0.000000 0.000000
# 2 -0.004806 0.040369 -0.001190 0.000000 0.000000 0.000000
# 3 -0.005706 -0.001190 0.012678 0.000000 0.000000 0.000000
# 4 0.000000 0.000000 0.000000 0.074504 0.000000 0.000000
# 5 0.000000 0.000000 0.000000 0.000000 0.068599 0.000000
# 6 0.000000 0.000000 0.000000 0.000000 0.000000 0.091103
#
#
# Mechanical properties :
#
#
# Convention : Reuss Voigt Hill
#
# Bulk Modulus (GPa) = 25.77508 60.17700 42.97604
# Shear Modulus (GPa) = 15.02666 21.09131 18.05898
#
# Velocity S-wave (km/s) = 2.75086 3.25904 3.01567
# Velocity P-wave (km/s) = 4.80309 6.66829 5.81102
#
# Compressibility (1/GPa) = 0.03879717
#
# Stress axis : x y z
#
# Youngs Moduli (GPa) = 109.24847 24.77146 78.87947
#
# Poissons Ratio (x) = 0.11905 0.45006
# Poissons Ratio (y) = 0.52505 0.09385
# Poissons Ratio (z) = 0.62333 0.02947
#
# Static dielectric constant tensor:
#      x y z
#    x 1.800310 0.000000 0.000000 
#    y 0.000000 1.742210 0.000000 
#    z 0.000000 0.000000 1.673650 
# 
# From -- ./inp_files/7307.got.cif
#   From: 2010.05.17/outbox.cif.g08.bks.cpg/sg35_4_cif.got.tgz:7307.got - 2010.06.03 17:29:28.
