data_PCOD9348113
_publ_section_title
;
Structure prediction by ZEFSAII (Michael W. Deem and Ramdas Pophale) SiO2 
 PCOD9348113
Probable space group: C M M 2
;
_chemical_formula_sum "Si O2"
_cell_formula_units_Z 64
_cell_length_a 29.955408
_cell_length_b 8.487354
_cell_length_c 12.934053
_cell_angle_alpha 90.000000
_cell_angle_beta 90.000000
_cell_angle_gamma 90.000000
_cell_volume 3288.381468
_symmetry_space_group_name_H-M "C M M 2"
_symmetry_group_IT_number 35
_symmetry_cell_setting 'orthorhombic'
loop_
_space_group_symop_operation_xyz
x,y,z
-x,-y,z
-x,y,z
x,-y,z
1/2+x,1/2+y,z
1/2-x,1/2-y,z
1/2-x,1/2+y,z
1/2+x,1/2-y,z
loop_
_atom_site_type_symbol
_atom_site_label
_atom_site_fract_x
_atom_site_fract_y
_atom_site_fract_z
Si Si1 0.885970 0.809117 0.507770
Si Si2 0.182045 0.179698 0.186388
Si Si3 0.547984 0.307682 0.332601
Si Si4 0.297498 0.185674 0.963846
Si Si5 0.078607 0.819675 0.122503
Si Si6 0.393480 0.308702 0.903658
Si Si7 0.298278 0.186948 0.415061
Si Si8 0.448080 0.307765 0.700107
O O1 0.912402 0.755376 0.405393
O O2 0.836402 0.745110 0.493622
O O3 0.916448 0.759953 0.604549
O O4 0.883954 0.000000 0.508396
O O5 0.128810 0.173975 0.168101
O O6 0.192420 0.249115 0.298557
O O7 0.199109 0.000000 0.182415
O O8 0.199588 0.271326 0.086127
O O9 0.500000 0.269480 0.379315
O O10 0.550845 0.500000 0.327163
O O11 0.551304 0.245946 0.215969
O O12 0.250000 0.250000 0.924872
O O13 0.341801 0.256614 0.909975
O O14 0.298718 0.000000 0.951879
O O15 0.062385 0.000000 0.108425
O O16 0.082936 0.748614 0.009060
O O17 0.393008 0.500000 0.907932
O O18 0.422169 0.260457 0.804597
O O19 0.250000 0.250000 0.446592
O O20 0.298234 0.000000 0.410804
O O21 0.500000 0.255515 0.694581
O O22 0.449458 0.500000 0.698789
#
# Coordination Sequence:
#
# PCOD9348113 Si02
#       8
#     8   8   8   8   8   8   8   8
#     4  10  19  35  56  80 112 147 187 237 285 334
#     4  10  18  33  54  80 115 154 191 230 276 329
#     4   9  15  24  45  78 109 140 180 223 271 328
#     4  11  21  34  53  81 115 154 195 234 280 336
#     4   8  14  25  44  73 110 147 177 217 268 319
#     4   9  18  33  53  80 114 149 188 236 285 334
#     4  12  24  37  55  81 112 150 191 233 283 341
#     4   9  18  34  60  90 114 143 189 243 289 334
#
# _framework density 19.462461999999999
#
# number of rings (size 3 to 8) (size 9 to 14) (size 15 to 20)
#    0.000    2.250    1.250    4.125    0.000    2.000 
#    0.000    3.750    0.000    2.625    0.000    0.000 
#    0.000    0.000    0.000    0.000    0.000    0.000 
#
# Total GULP energy -178442.624517 kJ/mol
# GULP energy per Si atom -5576.332016 kJ/mol
# Density = 1.941816 g / cm^3
# Si number density = 19.462462 Si / 1000 Ang^3
#
#
#
# Elastic Constant Matrix: (Units=GPa)
#
#
# Indices 1 2 3 4 5 6 
#
# 1 143.9382 20.1234 78.7716 0.0000 0.0000 0.0000
# 2 20.1234 43.8908 22.0488 0.0000 0.0000 0.0000
# 3 78.7716 22.0488 123.1995 0.0000 0.0000 0.0000
# 4 0.0000 0.0000 0.0000 13.3807 0.0000 0.0000
# 5 0.0000 0.0000 0.0000 0.0000 5.1964 0.0000
# 6 0.0000 0.0000 0.0000 0.0000 0.0000 17.2137
#
#
#
# Elastic Compliance Matrix: (Units=1/GPa)
#
#
# Indices 1 2 3 4 5 6 
#
# 1 0.010792 -0.001628 -0.006609 0.000000 0.000000 0.000000
# 2 -0.001628 0.025280 -0.003483 0.000000 0.000000 0.000000
# 3 -0.006609 -0.003483 0.012966 0.000000 0.000000 0.000000
# 4 0.000000 0.000000 0.000000 0.074735 0.000000 0.000000
# 5 0.000000 0.000000 0.000000 0.000000 0.192441 0.000000
# 6 0.000000 0.000000 0.000000 0.000000 0.000000 0.058093
#
#
# Mechanical properties :
#
#
# Convention : Reuss Voigt Hill
#
# Bulk Modulus (GPa) = 39.06631 61.43514 50.25073
# Shear Modulus (GPa) = 12.30681 19.83047 16.06864
#
# Velocity S-wave (km/s) = 2.51736 3.19550 2.87648
# Velocity P-wave (km/s) = 5.34469 6.72677 6.07516
#
# Compressibility (1/GPa) = 0.02559750
#
# Stress axis : x y z
#
# Youngs Moduli (GPa) = 92.66398 39.55667 77.12591
#
# Poissons Ratio (x) = 0.06440 0.50970
# Poissons Ratio (y) = 0.15085 0.26867
# Poissons Ratio (z) = 0.61238 0.13779
#
# Static dielectric constant tensor:
#      x y z
#    x 1.721440 0.000000 0.000000 
#    y 0.000000 1.674840 0.000000 
#    z 0.000000 0.000000 1.689830 
# 
# From -- ./inp_files/14535.got.cif
#   From: 2010.05.17/outbox.cif.g08.bks.cpg/sg35_8_cif.got.tgz:14535.got - 2010.06.03 17:29:28.
