data_PCOD9348453
_publ_section_title
;
Structure prediction by ZEFSAII (Michael W. Deem and Ramdas Pophale) SiO2 
 PCOD9348453
Probable space group: C M M 2
;
_chemical_formula_sum "Si O2"
_cell_formula_units_Z 52
_cell_length_a 8.082777
_cell_length_b 22.474505
_cell_length_c 15.340584
_cell_angle_alpha 90.000000
_cell_angle_beta 90.000000
_cell_angle_gamma 90.000000
_cell_volume 2786.715449
_symmetry_space_group_name_H-M "C M M 2"
_symmetry_group_IT_number 35
_symmetry_cell_setting 'orthorhombic'
loop_
_space_group_symop_operation_xyz
x,y,z
-x,-y,z
-x,y,z
x,-y,z
1/2+x,1/2+y,z
1/2-x,1/2-y,z
1/2-x,1/2+y,z
1/2+x,1/2-y,z
loop_
_atom_site_type_symbol
_atom_site_label
_atom_site_fract_x
_atom_site_fract_y
_atom_site_fract_z
Si Si1 0.805693 0.188143 0.728190
Si Si2 0.000000 0.066458 0.520086
Si Si3 0.690209 0.815241 0.355549
Si Si4 0.198112 0.567560 0.823759
Si Si5 0.500000 0.398469 0.321853
Si Si6 0.317669 0.855170 0.552229
Si Si7 0.500000 0.431525 0.126873
Si Si8 0.816289 0.570876 0.030308
O O1 0.750000 0.250000 0.773567
O O2 0.771321 0.125428 0.776560
O O3 0.706060 0.184274 0.637522
O O4 0.000000 0.191734 0.710875
O O5 0.000000 0.067750 0.414290
O O6 0.835091 0.099664 0.550797
O O7 0.000000 0.000000 0.552966
O O8 0.500000 0.827239 0.328415
O O9 0.750000 0.750000 0.329712
O O10 0.691999 0.819946 0.461229
O O11 0.831159 0.860116 0.323626
O O12 0.256714 0.500000 0.799862
O O13 0.000000 0.568181 0.808710
O O14 0.223459 0.575159 0.927644
O O15 0.500000 0.431950 0.230731
O O16 0.500000 0.883917 0.555146
O O17 0.500000 0.500000 0.095422
O O18 0.332560 0.403847 0.087861
O O19 0.828181 0.500000 0.048898
O O20 0.000000 0.596218 0.046237
#
# Coordination Sequence:
#
# PCOD9348453 Si02
#       8
#     8   4   8   8   4   8   4   8
#     4  12  24  37  56  85 118 154 195 245 291 342
#     4  10  21  38  55  78 115 155 191 229 281 345
#     4  10  19  33  56  79 101 140 184 233 278 328
#     4   9  19  37  59  84 115 150 190 237 290 344
#     4  10  21  34  52  82 114 140 179 228 285 337
#     4  10  21  37  56  80 110 146 196 236 281 328
#     4  10  19  32  55  84 111 145 180 223 278 330
#     4   8  16  32  55  82 109 139 180 228 275 330
#
# _framework density 18.659960999999999
#
# number of rings (size 3 to 8) (size 9 to 14) (size 15 to 20)
#    0.000    2.154    1.538    3.000    1.077    3.077 
#    0.000    0.000    0.000    3.692    0.000    0.000 
#    0.000    0.000    0.000    0.000    0.000    0.000 
#
# Total GULP energy -144874.860645 kJ/mol
# GULP energy per Si atom -5572.110025 kJ/mol
# Density = 1.861749 g / cm^3
# Si number density = 18.659961 Si / 1000 Ang^3
#
#
#
# Elastic Constant Matrix: (Units=GPa)
#
#
# Indices 1 2 3 4 5 6 
#
# 1 144.2673 42.3881 34.0135 0.0000 0.0000 0.0000
# 2 42.3881 85.6445 12.7227 0.0000 0.0000 0.0000
# 3 34.0135 12.7227 40.7480 0.0000 0.0000 0.0000
# 4 0.0000 0.0000 0.0000 8.5027 0.0000 0.0000
# 5 0.0000 0.0000 0.0000 0.0000 -27.2030 0.0000
# 6 0.0000 0.0000 0.0000 0.0000 0.0000 8.6890
#
#
#
# Elastic Compliance Matrix: (Units=1/GPa)
#
#
# Indices 1 2 3 4 5 6 
#
# 1 0.009660 -0.003758 -0.006890 0.000000 0.000000 0.000000
# 2 -0.003758 0.013706 -0.001143 0.000000 0.000000 0.000000
# 3 -0.006890 -0.001143 0.030650 0.000000 0.000000 0.000000
# 4 0.000000 0.000000 0.000000 0.117610 0.000000 0.000000
# 5 0.000000 0.000000 0.000000 0.000000 -0.036761 0.000000
# 6 0.000000 0.000000 0.000000 0.000000 0.000000 0.115088
#
#
# Mechanical properties :
#
#
# Convention : Reuss Voigt Hill
#
# Bulk Modulus (GPa) = 32.85811 49.87872 41.36842
# Shear Modulus (GPa) = 17.62556 10.10008 13.86282
#
# Velocity S-wave (km/s) = 3.07671 2.32905 2.72861
# Velocity P-wave (km/s) = 5.50170 5.83275 5.66964
#
# Compressibility (1/GPa) = 0.03043388
#
# Stress axis : x y z
#
# Youngs Moduli (GPa) = 103.51835 72.96258 32.62695
#
# Poissons Ratio (x) = 0.27416 0.22481
# Poissons Ratio (y) = 0.38897 0.03729
# Poissons Ratio (z) = 0.71328 0.08338
#
# Static dielectric constant tensor:
#      x y z
#    x 1.745380 0.000000 0.000000 
#    y 0.000000 1.700100 0.000000 
#    z 0.000000 0.000000 1.627890 
# 
# From -- ./inp_files/15581.got.cif
#   From: 2010.05.17/outbox.cif.g08.bks.cpg/sg35_8_cif.got.tgz:15581.got - 2010.06.03 17:29:28.
