data_PCOD9348103
_publ_section_title
;
Structure prediction by ZEFSAII (Michael W. Deem and Ramdas Pophale) SiO2 
 PCOD9348103
Probable space group: C M M 2
;
_chemical_formula_sum "Si O2"
_cell_formula_units_Z 64
_cell_length_a 20.732393
_cell_length_b 18.379975
_cell_length_c 9.875282
_cell_angle_alpha 90.000000
_cell_angle_beta 90.000000
_cell_angle_gamma 90.000000
_cell_volume 3763.083501
_symmetry_space_group_name_H-M "C M M 2"
_symmetry_group_IT_number 35
_symmetry_cell_setting 'orthorhombic'
loop_
_space_group_symop_operation_xyz
x,y,z
-x,-y,z
-x,y,z
x,-y,z
1/2+x,1/2+y,z
1/2-x,1/2-y,z
1/2-x,1/2+y,z
1/2+x,1/2-y,z
loop_
_atom_site_type_symbol
_atom_site_label
_atom_site_fract_x
_atom_site_fract_y
_atom_site_fract_z
Si Si1 0.573065 0.306359 0.710700
Si Si2 0.885721 0.086133 0.492558
Si Si3 0.286642 0.085906 0.248944
Si Si4 0.315855 0.203430 0.759976
Si Si5 0.322975 0.217946 0.076042
Si Si6 0.861266 0.131470 0.193849
Si Si7 0.922539 0.078371 0.926534
Si Si8 0.265479 0.084921 0.559934
O O1 0.500000 0.280595 0.736568
O O2 0.572340 0.364992 0.591108
O O3 0.624893 0.243786 0.686631
O O4 0.599176 0.353461 0.837945
O O5 0.890680 0.116342 0.340549
O O6 0.811653 0.096402 0.544066
O O7 0.899919 0.000000 0.495263
O O8 0.326664 0.144185 0.162863
O O9 0.212155 0.102078 0.207687
O O10 0.292367 0.101982 0.409397
O O11 0.299771 0.000000 0.226903
O O12 0.250000 0.250000 0.753924
O O13 0.297316 0.131157 0.678660
O O14 0.335074 0.199067 0.918577
O O15 0.250000 0.250000 0.081052
O O16 0.362091 0.284486 0.144283
O O17 0.896911 0.087175 0.077094
O O18 0.000000 0.079591 0.924305
O O19 0.901026 0.000000 0.869581
O O20 0.275550 0.000000 0.584995
#
# Coordination Sequence:
#
# PCOD9348103 Si02
#       8
#     8   8   8   8   8   8   8   8
#     4  11  23  37  52  76 111 146 181 224 268 316
#     4  10  20  33  52  79 110 146 182 219 264 315
#     4   9  18  31  49  77 108 136 166 213 272 318
#     4  11  20  35  55  80 106 139 182 222 262 313
#     4   9  19  30  47  75 104 136 174 217 260 308
#     4  10  18  33  50  74 106 138 180 217 255 307
#     4  10  20  34  51  70 101 148 186 212 253 307
#     4   9  19  33  53  81 110 138 174 219 272 321
#
# _framework density 17.00733
#
# number of rings (size 3 to 8) (size 9 to 14) (size 15 to 20)
#    0.000    2.125    2.500    2.250    1.750    2.250 
#    0.000    0.000    0.000    0.375    0.000    0.000 
#    0.000    0.500    0.000    0.000    0.000    0.000 
#
# Total GULP energy -178359.414102 kJ/mol
# GULP energy per Si atom -5573.731691 kJ/mol
# Density = 1.696862 g / cm^3
# Si number density = 17.007330 Si / 1000 Ang^3
#
#
#
# Elastic Constant Matrix: (Units=GPa)
#
#
# Indices 1 2 3 4 5 6 
#
# 1 25.7629 16.9779 13.1344 0.0000 0.0000 0.0000
# 2 16.9779 89.2936 44.3470 0.0000 0.0000 0.0000
# 3 13.1344 44.3470 76.9775 0.0000 0.0000 0.0000
# 4 0.0000 0.0000 0.0000 32.3563 0.0000 0.0000
# 5 0.0000 0.0000 0.0000 0.0000 14.7225 0.0000
# 6 0.0000 0.0000 0.0000 0.0000 0.0000 9.7508
#
#
#
# Elastic Compliance Matrix: (Units=1/GPa)
#
#
# Indices 1 2 3 4 5 6 
#
# 1 0.045183 -0.006671 -0.003866 0.000000 0.000000 0.000000
# 2 -0.006671 0.016672 -0.008467 0.000000 0.000000 0.000000
# 3 -0.003866 -0.008467 0.018528 0.000000 0.000000 0.000000
# 4 0.000000 0.000000 0.000000 0.030906 0.000000 0.000000
# 5 0.000000 0.000000 0.000000 0.000000 0.067923 0.000000
# 6 0.000000 0.000000 0.000000 0.000000 0.000000 0.102556
#
#
# Mechanical properties :
#
#
# Convention : Reuss Voigt Hill
#
# Bulk Modulus (GPa) = 23.59846 37.88363 30.74104
# Shear Modulus (GPa) = 14.97447 19.20422 17.08935
#
# Velocity S-wave (km/s) = 2.97049 3.36396 3.17333
# Velocity P-wave (km/s) = 5.06663 6.11650 5.61615
#
# Compressibility (1/GPa) = 0.04237564
#
# Stress axis : x y z
#
# Youngs Moduli (GPa) = 22.13234 59.97980 53.97160
#
# Poissons Ratio (x) = 0.40010 0.20868
# Poissons Ratio (y) = 0.14764 0.45696
# Poissons Ratio (z) = 0.08557 0.50783
#
# Static dielectric constant tensor:
#      x y z
#    x 1.580560 0.000000 0.000000 
#    y 0.000000 1.589930 0.000000 
#    z 0.000000 0.000000 1.602390 
# 
# From -- ./inp_files/8834.got.cif
#   From: 2010.05.17/outbox.cif.g08.bks.cpg/sg35_5_cif.got.tgz:8834.got - 2010.06.03 17:29:28.
