data_PCOD9348243
_publ_section_title
;
Structure prediction by ZEFSAII (Michael W. Deem and Ramdas Pophale) SiO2 
 PCOD9348243
Probable space group: C M M 2
;
_chemical_formula_sum "Si O2"
_cell_formula_units_Z 64
_cell_length_a 8.235319
_cell_length_b 19.653837
_cell_length_c 21.539939
_cell_angle_alpha 90.000000
_cell_angle_beta 90.000000
_cell_angle_gamma 90.000000
_cell_volume 3486.360123
_symmetry_space_group_name_H-M "C M M 2"
_symmetry_group_IT_number 35
_symmetry_cell_setting 'orthorhombic'
loop_
_space_group_symop_operation_xyz
x,y,z
-x,-y,z
-x,y,z
x,-y,z
1/2+x,1/2+y,z
1/2-x,1/2-y,z
1/2-x,1/2+y,z
1/2+x,1/2-y,z
loop_
_atom_site_type_symbol
_atom_site_label
_atom_site_fract_x
_atom_site_fract_y
_atom_site_fract_z
Si Si1 0.696545 0.828557 0.177270
Si Si2 0.301213 0.078539 0.062408
Si Si3 0.695625 0.421960 0.698923
Si Si4 0.804169 0.671413 0.313386
Si Si5 0.303716 0.827029 0.949437
Si Si6 0.694082 0.828151 0.448368
Si Si7 0.193530 0.673636 0.809463
Si Si8 0.695720 0.421737 0.560748
O O1 0.500000 0.828397 0.176756
O O2 0.750000 0.750000 0.168613
O O3 0.751875 0.877719 0.122150
O O4 0.751317 0.854099 0.245781
O O5 0.500000 0.078175 0.062612
O O6 0.248691 0.000000 0.063766
O O7 0.248540 0.119055 0.000761
O O8 0.500000 0.421832 0.698206
O O9 0.749697 0.500000 0.707237
O O10 0.750709 0.376135 0.755546
O O11 0.750327 0.399391 0.629897
O O12 0.750000 0.750000 0.313788
O O13 0.747593 0.644499 0.380532
O O14 0.000000 0.667540 0.313172
O O15 0.500000 0.827710 0.949471
O O16 0.250000 0.750000 0.964524
O O17 0.246507 0.843299 0.879315
O O18 0.500000 0.828023 0.447287
O O19 0.750000 0.750000 0.455137
O O20 0.749916 0.873507 0.505544
O O21 0.250000 0.750000 0.795633
O O22 0.000000 0.672547 0.811582
O O23 0.500000 0.422219 0.561376
O O24 0.749860 0.500000 0.551505
#
# Coordination Sequence:
#
# PCOD9348243 Si02
#       8
#     8   8   8   8   8   8   8   8
#     4   9  16  28  48  70  91 121 159 195 233 278
#     4   9  17  29  46  69  96 125 157 193 233 277
#     4   9  19  36  55  73  96 127 161 198 240 287
#     4   8  15  27  43  67  95 121 154 194 235 278
#     4   9  18  32  50  71  95 124 158 195 233 276
#     4  10  19  31  49  73 100 128 160 201 245 287
#     4  10  20  33  51  75 101 128 159 199 243 286
#     4   9  19  36  54  71  95 128 163 198 239 288
#
# _framework density 18.357254000000001
#
# number of rings (size 3 to 8) (size 9 to 14) (size 15 to 20)
#    0.000    2.875    0.000    1.875    0.000    3.000 
#    0.000    3.125    0.000    3.750    0.000    0.000 
#    0.000    0.000    0.000    0.000    0.000    0.000 
#
# Total GULP energy -178277.722801 kJ/mol
# GULP energy per Si atom -5571.178838 kJ/mol
# Density = 1.831547 g / cm^3
# Si number density = 18.357254 Si / 1000 Ang^3
#
#
#
# Elastic Constant Matrix: (Units=GPa)
#
#
# Indices 1 2 3 4 5 6 
#
# 1 9.9741 12.7875 21.8369 0.0000 0.0000 0.0000
# 2 12.7875 105.2331 123.4276 0.0000 0.0000 0.0000
# 3 21.8369 123.4276 215.7517 0.0000 0.0000 0.0000
# 4 0.0000 0.0000 0.0000 -18.2279 0.0000 0.0000
# 5 0.0000 0.0000 0.0000 0.0000 13.3149 0.0000
# 6 0.0000 0.0000 0.0000 0.0000 0.0000 20.6267
#
#
#
# Elastic Compliance Matrix: (Units=1/GPa)
#
#
# Indices 1 2 3 4 5 6 
#
# 1 0.128843 -0.001098 -0.012413 0.000000 0.000000 0.000000
# 2 -0.001098 0.028892 -0.016418 0.000000 0.000000 0.000000
# 3 -0.012413 -0.016418 0.015284 0.000000 0.000000 0.000000
# 4 0.000000 0.000000 0.000000 -0.054861 0.000000 0.000000
# 5 0.000000 0.000000 0.000000 0.000000 0.075104 0.000000
# 6 0.000000 0.000000 0.000000 0.000000 0.000000 0.048481
#
#
# Mechanical properties :
#
#
# Convention : Reuss Voigt Hill
#
# Bulk Modulus (GPa) = 8.83682 71.89588 40.36635
# Shear Modulus (GPa) = 14.73536 14.66986 14.70261
#
# Velocity S-wave (km/s) = 2.83627 2.82996 2.83312
# Velocity P-wave (km/s) = 3.94337 7.06598 5.72181
#
# Compressibility (1/GPa) = 0.11316285
#
# Stress axis : x y z
#
# Youngs Moduli (GPa) = 7.76139 34.61113 65.42968
#
# Poissons Ratio (x) = 0.03799 0.81216
# Poissons Ratio (y) = 0.00852 1.07421
# Poissons Ratio (z) = 0.09634 0.56824
#
# Static dielectric constant tensor:
#      x y z
#    x 1.642420 0.000000 0.000000 
#    y 0.000000 1.586000 0.000000 
#    z 0.000000 0.000000 1.677740 
# 
# From -- ./inp_files/18396.got.cif
#   From: 2010.05.17/outbox.cif.g08.bks.cpg/sg35_10_cif.got.tgz:18396.got - 2010.06.03 17:29:28.
