data_PCOD9348597
_publ_section_title
;
Structure prediction by ZEFSAII (Michael W. Deem and Ramdas Pophale) SiO2 
 PCOD9348597
Probable space group: C M M 2
;
_chemical_formula_sum "Si O2"
_cell_formula_units_Z 58
_cell_length_a 8.175059
_cell_length_b 31.353053
_cell_length_c 12.380725
_cell_angle_alpha 90.000000
_cell_angle_beta 90.000000
_cell_angle_gamma 90.000000
_cell_volume 3173.341486
_symmetry_space_group_name_H-M "C M M 2"
_symmetry_group_IT_number 35
_symmetry_cell_setting 'orthorhombic'
loop_
_space_group_symop_operation_xyz
x,y,z
-x,-y,z
-x,y,z
x,-y,z
1/2+x,1/2+y,z
1/2-x,1/2-y,z
1/2-x,1/2+y,z
1/2+x,1/2-y,z
loop_
_atom_site_type_symbol
_atom_site_label
_atom_site_fract_x
_atom_site_fract_y
_atom_site_fract_z
Si Si1 0.193831 0.113048 0.298330
Si Si2 0.500000 0.500000 0.516847
Si Si3 0.805319 0.202888 0.626021
Si Si4 0.196461 0.202933 0.377938
Si Si5 0.808017 0.452133 0.126555
Si Si6 0.312470 0.935168 0.505053
Si Si7 0.808169 0.047317 0.884990
Si Si8 0.312902 0.118105 0.723002
O O1 0.244981 0.162704 0.304246
O O2 0.223402 0.086199 0.190002
O O3 0.290995 0.088820 0.391951
O O4 0.000000 0.111452 0.323021
O O5 0.649674 0.464004 0.515700
O O6 0.750000 0.250000 0.659175
O O7 0.743115 0.196109 0.502042
O O8 0.749823 0.165867 0.706415
O O9 0.000000 0.201663 0.620727
O O10 0.250000 0.250000 0.342498
O O11 0.000000 0.203426 0.381666
O O12 0.745436 0.500000 0.157211
O O13 0.000000 0.451064 0.151924
O O14 0.784306 0.447941 0.998166
O O15 0.500000 0.953196 0.508634
O O16 0.303560 0.902735 0.604711
O O17 0.776081 0.085672 0.803535
O O18 0.000000 0.046538 0.910374
O O19 0.765449 0.000000 0.838138
O O20 0.500000 0.119314 0.758884
#
# Coordination Sequence:
#
# PCOD9348597 Si02
#       8
#     8   2   8   8   8   8   8   8
#     4  11  21  37  58  84 119 156 195 244 294 352
#     4  12  26  40  56  74 126 164 194 248 288 356
#     4  10  19  34  56  82 116 152 192 235 290 349
#     4   9  19  33  54  81 114 151 191 236 290 348
#     4  10  22  39  58  82 113 150 197 248 293 346
#     4  11  25  39  56  85 117 160 202 237 295 356
#     4  10  22  39  61  84 109 149 198 243 296 353
#     4  11  23  37  57  84 118 152 194 243 290 353
#
# _framework density 18.277263999999999
#
# number of rings (size 3 to 8) (size 9 to 14) (size 15 to 20)
#    0.000    1.655    2.069    2.276    3.862    3.310 
#    0.000    0.000    0.000    0.828    0.000    3.862 
#    0.000    0.000    0.000    0.000    0.000    0.000 
#
# Total GULP energy -161461.600975 kJ/mol
# GULP energy per Si atom -5567.641413 kJ/mol
# Density = 1.823566 g / cm^3
# Si number density = 18.277264 Si / 1000 Ang^3
#
#
#
# Elastic Constant Matrix: (Units=GPa)
#
#
# Indices 1 2 3 4 5 6 
#
# 1 82.8136 32.7115 2.2489 0.0000 0.0000 0.0000
# 2 32.7115 153.2794 40.9307 0.0000 0.0000 0.0000
# 3 2.2489 40.9307 44.4001 0.0000 0.0000 0.0000
# 4 0.0000 0.0000 0.0000 19.2677 0.0000 0.0000
# 5 0.0000 0.0000 0.0000 0.0000 24.6432 0.0000
# 6 0.0000 0.0000 0.0000 0.0000 0.0000 28.7245
#
#
#
# Elastic Compliance Matrix: (Units=1/GPa)
#
#
# Indices 1 2 3 4 5 6 
#
# 1 0.013409 -0.003556 0.002599 0.000000 0.000000 0.000000
# 2 -0.003556 0.009597 -0.008667 0.000000 0.000000 0.000000
# 3 0.002599 -0.008667 0.030381 0.000000 0.000000 0.000000
# 4 0.000000 0.000000 0.000000 0.051900 0.000000 0.000000
# 5 0.000000 0.000000 0.000000 0.000000 0.040579 0.000000
# 6 0.000000 0.000000 0.000000 0.000000 0.000000 0.034813
#
#
# Mechanical properties :
#
#
# Convention : Reuss Voigt Hill
#
# Bulk Modulus (GPa) = 29.29221 48.03058 38.66139
# Shear Modulus (GPa) = 23.66211 28.16723 25.91467
#
# Velocity S-wave (km/s) = 3.60199 3.92995 3.76954
# Velocity P-wave (km/s) = 5.77585 6.85045 6.33597
#
# Compressibility (1/GPa) = 0.03413877
#
# Stress axis : x y z
#
# Youngs Moduli (GPa) = 74.57566 104.19632 32.91553
#
# Poissons Ratio (x) = 0.37048 -0.08553
# Poissons Ratio (y) = 0.26516 0.28529
# Poissons Ratio (z) = -0.19379 0.90309
#
# Static dielectric constant tensor:
#      x y z
#    x 1.637560 0.000000 0.000000 
#    y 0.000000 1.643860 0.000000 
#    z 0.000000 0.000000 1.609980 
# 
# From -- ./inp_files/11817.got.cif
#   From: 2010.05.17/outbox.cif.g08.bks.cpg/sg35_6_cif.got.tgz:11817.got - 2010.06.03 17:29:28.
