data_PCOD9348969
_publ_section_title
;
Structure prediction by ZEFSAII (Michael W. Deem and Ramdas Pophale) SiO2 
 PCOD9348969
Probable space group: C M M 2
;
_chemical_formula_sum "Si O2"
_cell_formula_units_Z 58
_cell_length_a 9.077203
_cell_length_b 25.823450
_cell_length_c 13.565391
_cell_angle_alpha 90.000000
_cell_angle_beta 90.000000
_cell_angle_gamma 90.000000
_cell_volume 3179.791378
_symmetry_space_group_name_H-M "C M M 2"
_symmetry_group_IT_number 35
_symmetry_cell_setting 'orthorhombic'
loop_
_space_group_symop_operation_xyz
x,y,z
-x,-y,z
-x,y,z
x,-y,z
1/2+x,1/2+y,z
1/2-x,1/2-y,z
1/2-x,1/2+y,z
1/2+x,1/2-y,z
loop_
_atom_site_type_symbol
_atom_site_label
_atom_site_fract_x
_atom_site_fract_y
_atom_site_fract_z
Si Si1 0.500000 0.000000 0.498680
Si Si2 0.823834 0.056127 0.153027
Si Si3 0.324085 0.666686 0.224644
Si Si4 0.836487 0.396931 0.557378
Si Si5 0.671114 0.439047 0.745184
Si Si6 0.677257 0.696194 0.446025
Si Si7 0.671870 0.799292 0.024047
Si Si8 0.673337 0.086181 0.949457
O O1 0.626897 0.047191 0.506695
O O2 0.786524 0.105414 0.219734
O O3 0.000000 0.057847 0.136000
O O4 0.786238 0.000000 0.196234
O O5 0.743842 0.062345 0.048189
O O6 0.500000 0.672047 0.210605
O O7 0.285467 0.689958 0.329807
O O8 0.243058 0.691179 0.131351
O O9 0.758945 0.408977 0.661035
O O10 0.741684 0.355091 0.497915
O O11 0.000000 0.374074 0.574298
O O12 0.500000 0.423602 0.748244
O O13 0.678910 0.500000 0.721421
O O14 0.744514 0.431386 0.851659
O O15 0.500000 0.697940 0.455998
O O16 0.750000 0.750000 0.481423
O O17 0.500000 0.789076 0.036425
O O18 0.750000 0.750000 0.977252
O O19 0.690086 0.852039 0.963442
O O20 0.500000 0.073643 0.944546
#
# Coordination Sequence:
#
# PCOD9348969 Si02
#       8
#     2   8   8   8   8   8   8   8
#     4   8  20  40  66  88 116 150 190 238 304 352
#     4   9  17  32  50  74 109 148 185 227 275 329
#     4   9  19  35  55  79 109 144 187 231 279 333
#     4  10  20  40  62  86 116 148 189 237 293 349
#     4  11  21  35  57  85 111 143 183 227 276 337
#     4  11  23  39  60  88 118 155 197 243 293 350
#     4  10  20  34  53  76 104 140 182 227 274 324
#     4  10  21  33  50  76 109 142 181 225 274 331
#
# _framework density 18.240190999999999
#
# number of rings (size 3 to 8) (size 9 to 14) (size 15 to 20)
#    0.414    1.655    0.690    2.897    0.000    6.621 
#    1.241    0.690    0.000    1.655    0.000    0.000 
#    0.000    0.000    0.000    0.000    0.000    0.000 
#
# Total GULP energy -161455.766530 kJ/mol
# GULP energy per Si atom -5567.440225 kJ/mol
# Density = 1.819868 g / cm^3
# Si number density = 18.240191 Si / 1000 Ang^3
#
#
#
# Elastic Constant Matrix: (Units=GPa)
#
#
# Indices 1 2 3 4 5 6 
#
# 1 58.1682 35.0450 22.2711 0.0000 0.0000 0.0000
# 2 35.0450 108.8736 14.1784 0.0000 0.0000 0.0000
# 3 22.2711 14.1784 44.2547 0.0000 0.0000 0.0000
# 4 0.0000 0.0000 0.0000 8.6545 0.0000 0.0000
# 5 0.0000 0.0000 0.0000 0.0000 16.1215 0.0000
# 6 0.0000 0.0000 0.0000 0.0000 0.0000 33.5613
#
#
#
# Elastic Compliance Matrix: (Units=1/GPa)
#
#
# Indices 1 2 3 4 5 6 
#
# 1 0.025320 -0.006773 -0.010572 0.000000 0.000000 0.000000
# 2 -0.006773 0.011397 -0.000243 0.000000 0.000000 0.000000
# 3 -0.010572 -0.000243 0.027995 0.000000 0.000000 0.000000
# 4 0.000000 0.000000 0.000000 0.115547 0.000000 0.000000
# 5 0.000000 0.000000 0.000000 0.000000 0.062029 0.000000
# 6 0.000000 0.000000 0.000000 0.000000 0.000000 0.029796
#
#
# Mechanical properties :
#
#
# Convention : Reuss Voigt Hill
#
# Bulk Modulus (GPa) = 33.85804 39.36505 36.61155
# Shear Modulus (GPa) = 15.76764 20.98761 18.37763
#
# Velocity S-wave (km/s) = 2.94333 3.39577 3.17761
# Velocity P-wave (km/s) = 5.49123 6.08303 5.79469
#
# Compressibility (1/GPa) = 0.02953508
#
# Stress axis : x y z
#
# Youngs Moduli (GPa) = 39.49418 87.74364 35.72112
#
# Poissons Ratio (x) = 0.59433 0.37765
# Poissons Ratio (y) = 0.26751 0.00867
# Poissons Ratio (z) = 0.41754 0.02129
#
# Static dielectric constant tensor:
#      x y z
#    x 1.620650 0.000000 0.000000 
#    y 0.000000 1.675050 0.000000 
#    z 0.000000 0.000000 1.584840 
# 
# From -- ./inp_files/11603.got.cif
#   From: 2010.05.17/outbox.cif.g08.bks.cpg/sg35_6_cif.got.tgz:11603.got - 2010.06.03 17:29:28.
