data_PCOD9348725
_publ_section_title
;
Structure prediction by ZEFSAII (Michael W. Deem and Ramdas Pophale) SiO2 
 PCOD9348725
Probable space group: C M M 2
;
_chemical_formula_sum "Si O2"
_cell_formula_units_Z 48
_cell_length_a 13.882820
_cell_length_b 13.671640
_cell_length_c 11.822280
_cell_angle_alpha 90.000000
_cell_angle_beta 90.000000
_cell_angle_gamma 90.000000
_cell_volume 2243.879588
_symmetry_space_group_name_H-M "C M M 2"
_symmetry_group_IT_number 35
_symmetry_cell_setting 'orthorhombic'
loop_
_space_group_symop_operation_xyz
x,y,z
-x,-y,z
-x,y,z
x,-y,z
1/2+x,1/2+y,z
1/2-x,1/2-y,z
1/2-x,1/2+y,z
1/2+x,1/2-y,z
loop_
_atom_site_type_symbol
_atom_site_label
_atom_site_fract_x
_atom_site_fract_y
_atom_site_fract_z
Si Si1 0.112449 0.120221 0.449950
Si Si2 0.889047 0.105821 0.206590
Si Si3 0.000000 0.619393 0.463237
Si Si4 0.638620 0.230525 0.046039
Si Si5 0.198860 0.618965 0.585658
Si Si6 0.000000 0.615764 0.203292
Si Si7 0.389848 0.886026 0.818085
O O1 0.148915 0.151703 0.323712
O O2 0.197353 0.149794 0.536609
O O3 0.000000 0.148921 0.474645
O O4 0.112137 0.000000 0.447445
O O5 0.895528 0.164844 0.091042
O O6 0.000000 0.093965 0.240277
O O7 0.842643 0.000000 0.188458
O O8 0.101657 0.650283 0.518949
O O9 0.000000 0.500000 0.467439
O O10 0.000000 0.649321 0.332185
O O11 0.750000 0.250000 0.055623
O O12 0.591916 0.157019 0.136385
O O13 0.615828 0.186210 0.924268
O O14 0.198301 0.500000 0.579498
O O15 0.181056 0.642477 0.717181
O O16 0.000000 0.500000 0.199608
O O17 0.500000 0.884125 0.773871
O O18 0.371605 0.000000 0.852390
#
# Coordination Sequence:
#
# PCOD9348725 Si02
#       7
#     8   8   4   8   8   4   8
#     4   8  15  28  52  86 125 165 206 256 327 410
#     4   9  18  36  60  86 123 169 208 254 326 395
#     4   9  18  31  55  96 131 159 210 271 321 382
#     4  12  25  39  62  92 132 165 222 274 322 392
#     4   9  16  30  58  93 124 160 214 272 325 389
#     4  11  24  43  66  98 139 177 213 267 340 404
#     4  10  19  37  65  92 124 171 220 268 331 395
#
# _framework density 21.391521999999998
#
# number of rings (size 3 to 8) (size 9 to 14) (size 15 to 20)
#    0.000    2.333    2.500    1.500    2.333    1.333 
#    0.000    0.000    5.500    0.000    0.000    0.000 
#    0.000    1.333    0.000    0.000    0.000    0.000 
#
# Total GULP energy -133751.019724 kJ/mol
# GULP energy per Si atom -5572.959155 kJ/mol
# Density = 2.134283 g / cm^3
# Si number density = 21.391522 Si / 1000 Ang^3
#
#
#
# Elastic Constant Matrix: (Units=GPa)
#
#
# Indices 1 2 3 4 5 6 
#
# 1 131.6191 36.4319 67.6159 0.0000 0.0000 0.0000
# 2 36.4319 72.9125 53.7762 0.0000 0.0000 0.0000
# 3 67.6159 53.7762 165.0633 0.0000 0.0000 0.0000
# 4 0.0000 0.0000 0.0000 4.5911 0.0000 0.0000
# 5 0.0000 0.0000 0.0000 0.0000 39.8399 0.0000
# 6 0.0000 0.0000 0.0000 0.0000 0.0000 44.1543
#
#
#
# Elastic Compliance Matrix: (Units=1/GPa)
#
#
# Indices 1 2 3 4 5 6 
#
# 1 0.009982 -0.002596 -0.003244 0.000000 0.000000 0.000000
# 2 -0.002596 0.018728 -0.005038 0.000000 0.000000 0.000000
# 3 -0.003244 -0.005038 0.009028 0.000000 0.000000 0.000000
# 4 0.000000 0.000000 0.000000 0.217815 0.000000 0.000000
# 5 0.000000 0.000000 0.000000 0.000000 0.025100 0.000000
# 6 0.000000 0.000000 0.000000 0.000000 0.000000 0.022648
#
#
# Mechanical properties :
#
#
# Convention : Reuss Voigt Hill
#
# Bulk Modulus (GPa) = 62.56234 76.13811 69.35022
# Shear Modulus (GPa) = 15.13388 31.83512 23.48450
#
# Velocity S-wave (km/s) = 2.66272 3.86192 3.31696
# Velocity P-wave (km/s) = 6.22601 7.45358 6.86728
#
# Compressibility (1/GPa) = 0.01598406
#
# Stress axis : x y z
#
# Youngs Moduli (GPa) = 100.17604 53.39645 110.76253
#
# Poissons Ratio (x) = 0.13860 0.35926
# Poissons Ratio (y) = 0.26002 0.55803
# Poissons Ratio (z) = 0.32492 0.26902
#
# Static dielectric constant tensor:
#      x y z
#    x 1.785010 0.000000 0.000000 
#    y 0.000000 1.885490 0.000000 
#    z 0.000000 0.000000 1.770230 
# 
# From -- ./inp_files/12911.got.cif
#   From: 2010.05.17/outbox.cif.g08.bks.cpg/sg35_7_cif.got.tgz:12911.got - 2010.06.03 17:29:28.
