data_PCOD9348248
_publ_section_title
;
Structure prediction by ZEFSAII (Michael W. Deem and Ramdas Pophale) SiO2 
 PCOD9348248
Probable space group: C M M 2
;
_chemical_formula_sum "Si O2"
_cell_formula_units_Z 56
_cell_length_a 8.256230
_cell_length_b 19.044523
_cell_length_c 18.971402
_cell_angle_alpha 90.000000
_cell_angle_beta 90.000000
_cell_angle_gamma 90.000000
_cell_volume 2982.986646
_symmetry_space_group_name_H-M "C M M 2"
_symmetry_group_IT_number 35
_symmetry_cell_setting 'orthorhombic'
loop_
_space_group_symop_operation_xyz
x,y,z
-x,-y,z
-x,y,z
x,-y,z
1/2+x,1/2+y,z
1/2-x,1/2-y,z
1/2-x,1/2+y,z
1/2+x,1/2-y,z
loop_
_atom_site_type_symbol
_atom_site_label
_atom_site_fract_x
_atom_site_fract_y
_atom_site_fract_z
Si Si1 0.698302 0.418949 0.975000
Si Si2 0.695559 0.081304 0.707186
Si Si3 0.695479 0.668820 0.264576
Si Si4 0.193568 0.830457 0.417245
Si Si5 0.304943 0.919703 0.549540
Si Si6 0.303975 0.669032 0.110455
Si Si7 0.806944 0.169924 0.840024
O O1 0.500000 0.418937 0.974864
O O2 0.750026 0.500000 0.972661
O O3 0.753792 0.375508 0.906656
O O4 0.751441 0.379005 0.045874
O O5 0.500000 0.081987 0.708120
O O6 0.749015 0.102652 0.628127
O O7 0.756134 0.131898 0.768069
O O8 0.746512 0.000000 0.719000
O O9 0.500000 0.665528 0.264425
O O10 0.750000 0.750000 0.264950
O O11 0.751224 0.640116 0.340638
O O12 0.750521 0.641898 0.187953
O O13 0.250000 0.750000 0.422424
O O14 0.251080 0.872709 0.484842
O O15 0.000000 0.831294 0.416532
O O16 0.500000 0.919903 0.550855
O O17 0.249946 0.000000 0.539308
O O18 0.500000 0.668856 0.110018
O O19 0.250000 0.750000 0.101817
O O20 0.750000 0.250000 0.843226
O O21 0.000000 0.170036 0.843620
#
# Coordination Sequence:
#
# PCOD9348248 Si02
#       7
#     8   8   8   8   8   8   8
#     4   9  18  32  50  73 100 130 164 201 243 293
#     4   9  19  37  58  77  99 129 165 204 248 300
#     4   8  15  27  44  69  97 127 163 201 244 290
#     4  10  19  31  49  74 103 133 169 211 251 294
#     4   9  19  36  55  74  99 132 167 203 248 301
#     4   9  16  29  50  72  96 127 163 203 245 289
#     4  11  22  35  53  77 104 132 166 207 248 293
#
# _framework density 18.773129999999998
#
# number of rings (size 3 to 8) (size 9 to 14) (size 15 to 20)
#    0.000    2.714    0.000    2.571    0.000    2.857 
#    0.000    2.857    0.000    4.714    0.000    0.000 
#    0.000    0.000    0.000    0.000    0.000    0.000 
#
# Total GULP energy -156053.550298 kJ/mol
# GULP energy per Si atom -5573.341082 kJ/mol
# Density = 1.873040 g / cm^3
# Si number density = 18.773130 Si / 1000 Ang^3
#
#
#
# Elastic Constant Matrix: (Units=GPa)
#
#
# Indices 1 2 3 4 5 6 
#
# 1 12.6229 14.4999 23.7222 0.0000 0.0000 0.0000
# 2 14.4999 111.0050 118.0213 0.0000 0.0000 0.0000
# 3 23.7222 118.0213 238.5375 0.0000 0.0000 0.0000
# 4 0.0000 0.0000 0.0000 120.8494 0.0000 0.0000
# 5 0.0000 0.0000 0.0000 0.0000 15.4696 0.0000
# 6 0.0000 0.0000 0.0000 0.0000 0.0000 10.0209
#
#
#
# Elastic Compliance Matrix: (Units=1/GPa)
#
#
# Indices 1 2 3 4 5 6 
#
# 1 0.098827 -0.005190 -0.007260 0.000000 0.000000 0.000000
# 2 -0.005190 0.019280 -0.009023 0.000000 0.000000 0.000000
# 3 -0.007260 -0.009023 0.009379 0.000000 0.000000 0.000000
# 4 0.000000 0.000000 0.000000 0.008275 0.000000 0.000000
# 5 0.000000 0.000000 0.000000 0.000000 0.064643 0.000000
# 6 0.000000 0.000000 0.000000 0.000000 0.000000 0.099791
#
#
# Mechanical properties :
#
#
# Convention : Reuss Voigt Hill
#
# Bulk Modulus (GPa) = 11.82885 74.96136 43.39510
# Shear Modulus (GPa) = 13.46546 42.99612 28.23079
#
# Velocity S-wave (km/s) = 2.68110 4.79090 3.88208
# Velocity P-wave (km/s) = 3.98736 8.40360 6.57721
#
# Compressibility (1/GPa) = 0.08453909
#
# Stress axis : x y z
#
# Youngs Moduli (GPa) = 10.11866 51.86783 106.62653
#
# Poissons Ratio (x) = 0.26919 0.77415
# Poissons Ratio (y) = 0.05251 0.96208
# Poissons Ratio (z) = 0.07347 0.46800
#
# Static dielectric constant tensor:
#      x y z
#    x 1.659690 0.000000 0.000000 
#    y 0.000000 1.602940 0.000000 
#    z 0.000000 0.000000 1.692340 
# 
# From -- ./inp_files/18270.got.cif
#   From: 2010.05.17/outbox.cif.g08.bks.cpg/sg35_10_cif.got.tgz:18270.got - 2010.06.03 17:29:28.
