data_PCOD9348407
_publ_section_title
;
Structure prediction by ZEFSAII (Michael W. Deem and Ramdas Pophale) SiO2 
 PCOD9348407
Probable space group: C M M 2
;
_chemical_formula_sum "Si O2"
_cell_formula_units_Z 48
_cell_length_a 8.402180
_cell_length_b 19.673259
_cell_length_c 15.560425
_cell_angle_alpha 90.000000
_cell_angle_beta 90.000000
_cell_angle_gamma 90.000000
_cell_volume 2572.111229
_symmetry_space_group_name_H-M "C M M 2"
_symmetry_group_IT_number 35
_symmetry_cell_setting 'orthorhombic'
loop_
_space_group_symop_operation_xyz
x,y,z
-x,-y,z
-x,y,z
x,-y,z
1/2+x,1/2+y,z
1/2-x,1/2-y,z
1/2-x,1/2+y,z
1/2+x,1/2-y,z
loop_
_atom_site_type_symbol
_atom_site_label
_atom_site_fract_x
_atom_site_fract_y
_atom_site_fract_z
Si Si1 0.692303 0.422171 0.625000
Si Si2 0.809164 0.174063 0.779554
Si Si3 0.309178 0.825885 0.971027
Si Si4 0.805403 0.577895 0.126240
Si Si5 0.807912 0.675026 0.279025
Si Si6 0.309240 0.825225 0.476065
O O1 0.500000 0.422964 0.626575
O O2 0.748641 0.500000 0.625650
O O3 0.746386 0.379745 0.708518
O O4 0.746071 0.381471 0.540975
O O5 0.750000 0.250000 0.758202
O O6 0.750347 0.157449 0.875369
O O7 0.000000 0.175184 0.780240
O O8 0.500000 0.824679 0.969969
O O9 0.250000 0.750000 0.992427
O O10 0.255333 0.879680 0.042425
O O11 0.751928 0.500000 0.125042
O O12 0.753971 0.618637 0.211254
O O13 0.000000 0.577383 0.126453
O O14 0.750000 0.750000 0.253290
O O15 0.755649 0.662676 0.377407
O O16 0.000000 0.675518 0.278738
O O17 0.500000 0.825345 0.477775
O O18 0.250000 0.750000 0.501398
#
# Coordination Sequence:
#
# PCOD9348407 Si02
#       6
#     8   8   8   8   8   8
#     4  10  22  38  54  75 106 141 172 209 261 313
#     4  10  20  35  55  76 100 132 170 211 255 304
#     4  10  19  32  53  77 100 130 168 210 253 297
#     4   9  18  32  50  74 104 136 168 204 249 299
#     4   9  18  33  54  77 102 133 169 210 252 297
#     4  10  20  34  55  81 105 135 175 217 259 304
#
# _framework density 18.661712000000001
#
# number of rings (size 3 to 8) (size 9 to 14) (size 15 to 20)
#    0.000    2.333    0.000    3.500    0.000    5.000 
#    0.000    2.500    0.000    4.000    0.000    0.000 
#    0.000    0.000    0.000    0.000    0.000    0.000 
#
# Total GULP energy -133985.312102 kJ/mol
# GULP energy per Si atom -5582.721338 kJ/mol
# Density = 1.861924 g / cm^3
# Si number density = 18.661712 Si / 1000 Ang^3
#
#
#
# Elastic Constant Matrix: (Units=GPa)
#
#
# Indices 1 2 3 4 5 6 
#
# 1 20.3259 21.1984 19.1144 0.0000 0.0000 0.0000
# 2 21.1984 191.1070 137.1824 0.0000 0.0000 0.0000
# 3 19.1144 137.1824 137.9253 0.0000 0.0000 0.0000
# 4 0.0000 0.0000 0.0000 13.1870 0.0000 0.0000
# 5 0.0000 0.0000 0.0000 0.0000 -14.9858 0.0000
# 6 0.0000 0.0000 0.0000 0.0000 0.0000 22.0982
#
#
#
# Elastic Compliance Matrix: (Units=1/GPa)
#
#
# Indices 1 2 3 4 5 6 
#
# 1 0.056852 -0.002275 -0.005617 0.000000 0.000000 0.000000
# 2 -0.002275 0.018385 -0.017970 0.000000 0.000000 0.000000
# 3 -0.005617 -0.017970 0.025902 0.000000 0.000000 0.000000
# 4 0.000000 0.000000 0.000000 0.075832 0.000000 0.000000
# 5 0.000000 0.000000 0.000000 0.000000 -0.066730 0.000000
# 6 0.000000 0.000000 0.000000 0.000000 0.000000 0.045253
#
#
# Mechanical properties :
#
#
# Convention : Reuss Voigt Hill
#
# Bulk Modulus (GPa) = 20.23625 78.26094 49.24859
# Shear Modulus (GPa) = 22.35241 15.51742 18.93491
#
# Velocity S-wave (km/s) = 3.46463 2.88672 3.18880
# Velocity P-wave (km/s) = 5.18384 7.28962 6.32498
#
# Compressibility (1/GPa) = 0.04941628
#
# Stress axis : x y z
#
# Youngs Moduli (GPa) = 17.58940 54.39301 38.60658
#
# Poissons Ratio (x) = 0.12372 0.21683
# Poissons Ratio (y) = 0.04001 0.69378
# Poissons Ratio (z) = 0.09879 0.97747
#
# Static dielectric constant tensor:
#      x y z
#    x 1.641400 0.000000 0.000000 
#    y 0.000000 1.615840 0.000000 
#    z 0.000000 0.000000 1.643380 
# 
# From -- ./inp_files/15124.got.cif
#   From: 2010.05.17/outbox.cif.g08.bks.cpg/sg35_8_cif.got.tgz:15124.got - 2010.06.03 17:29:28.
