data_PCOD9348001
_publ_section_title
;
Structure prediction by ZEFSAII (Michael W. Deem and Ramdas Pophale) SiO2 
 PCOD9348001
Probable space group: P N N 2
;
_chemical_formula_sum "Si O2"
_cell_formula_units_Z 20
_cell_length_a 17.539366
_cell_length_b 8.413420
_cell_length_c 5.103792
_cell_angle_alpha 90.000000
_cell_angle_beta 90.000000
_cell_angle_gamma 90.000000
_cell_volume 753.146439
_symmetry_space_group_name_H-M "P N N 2"
_symmetry_group_IT_number 34
_symmetry_cell_setting 'orthorhombic'
loop_
_space_group_symop_operation_xyz
x,y,z
-x,-y,z
1/2-x,1/2+y,1/2+z
1/2+x,1/2-y,1/2+z
loop_
_atom_site_type_symbol
_atom_site_label
_atom_site_fract_x
_atom_site_fract_y
_atom_site_fract_z
Si Si1 0.343945 0.207028 0.292790
Si Si2 0.581243 0.550744 0.617656
Si Si3 0.733528 0.570936 0.950285
Si Si4 0.915599 0.536607 0.407107
Si Si5 0.124877 0.267261 0.893193
O O1 0.411341 0.278798 0.472059
O O2 0.289437 0.077850 0.424805
O O3 0.373920 0.120877 0.026015
O O4 0.291728 0.358580 0.226835
O O5 0.500000 0.500000 0.740374
O O6 0.654077 0.539673 0.806217
O O7 0.594727 0.409061 0.412159
O O8 0.785674 0.712026 0.826925
O O9 0.881513 0.643527 0.174179
O O10 0.000000 0.500000 0.316108
O O11 0.919903 0.641918 0.668838
#
# Coordination Sequence:
#
# PCOD9348001 Si02
#       5
#     4   4   4   4   4
#     4  11  28  46  83 109 160 216 272 332 406 487
#     4  12  29  49  81 120 164 207 274 343 409 470
#     4  11  27  47  78 111 157 212 269 326 399 490
#     4  11  26  50  81 117 165 209 268 329 415 475
#     4  11  27  48  79 119 161 214 267 330 398 496
#
# _framework density 26.555261000000002
#
# number of rings (size 3 to 8) (size 9 to 14) (size 15 to 20)
#    0.000    0.800    2.000    1.800   19.600    0.800 
#    0.000    0.000    0.000    0.000    0.000    0.000 
#    0.000    0.000    0.000    0.000    0.000    0.000 
#
# Total GULP energy -111958.931358 kJ/mol
# GULP energy per Si atom -5597.946568 kJ/mol
# Density = 2.649482 g / cm^3
# Si number density = 26.555261 Si / 1000 Ang^3
#
#
#
# Elastic Constant Matrix: (Units=GPa)
#
#
# Indices 1 2 3 4 5 6 
#
# 1 119.7275 54.2925 1.6187 0.0000 0.0000 0.0000
# 2 54.2925 109.2103 55.8468 0.0000 0.0000 0.0000
# 3 1.6187 55.8468 99.3526 0.0000 0.0000 0.0000
# 4 0.0000 0.0000 0.0000 50.7478 0.0000 0.0000
# 5 0.0000 0.0000 0.0000 0.0000 25.6559 0.0000
# 6 0.0000 0.0000 0.0000 0.0000 0.0000 37.3319
#
#
#
# Elastic Compliance Matrix: (Units=1/GPa)
#
#
# Indices 1 2 3 4 5 6 
#
# 1 0.012036 -0.008257 0.004445 0.000000 0.000000 0.000000
# 2 -0.008257 0.018515 -0.010273 0.000000 0.000000 0.000000
# 3 0.004445 -0.010273 0.015767 0.000000 0.000000 0.000000
# 4 0.000000 0.000000 0.000000 0.019705 0.000000 0.000000
# 5 0.000000 0.000000 0.000000 0.000000 0.038977 0.000000
# 6 0.000000 0.000000 0.000000 0.000000 0.000000 0.026787
#
#
# Mechanical properties :
#
#
# Convention : Reuss Voigt Hill
#
# Bulk Modulus (GPa) = 55.09848 61.31180 58.20514
# Shear Modulus (GPa) = 30.11940 37.18261 33.65100
#
# Velocity S-wave (km/s) = 3.37147 3.74598 3.56365
# Velocity P-wave (km/s) = 5.99578 6.46903 6.23689
#
# Compressibility (1/GPa) = 0.01814932
#
# Stress axis : x y z
#
# Youngs Moduli (GPa) = 83.08115 54.01156 63.42337
#
# Poissons Ratio (x) = 0.44597 -0.28193
# Poissons Ratio (y) = 0.68599 0.65152
# Poissons Ratio (z) = -0.36931 0.55484
#
# Static dielectric constant tensor:
#      x y z
#    x 2.121220 0.000000 0.000000 
#    y 0.000000 2.140030 0.000000 
#    z 0.000000 0.000000 2.064640 
# 
# From -- ./inp_files/419.got.cif
#   From: 2010.05.17/outbox.cif.g08.bks.cpg/sg34_1_cif.got.tgz:419.got - 2010.06.03 17:23:11.
