data_PCOD9348011
_publ_section_title
;
Structure prediction by ZEFSAII (Michael W. Deem and Ramdas Pophale) SiO2 
 PCOD9348011
Probable space group: P N N 2
;
_chemical_formula_sum "Si O2"
_cell_formula_units_Z 18
_cell_length_a 8.190581
_cell_length_b 5.021208
_cell_length_c 17.612470
_cell_angle_alpha 90.000000
_cell_angle_beta 90.000000
_cell_angle_gamma 90.000000
_cell_volume 724.341200
_symmetry_space_group_name_H-M "P N N 2"
_symmetry_group_IT_number 34
_symmetry_cell_setting 'orthorhombic'
loop_
_space_group_symop_operation_xyz
x,y,z
-x,-y,z
1/2-x,1/2+y,1/2+z
1/2+x,1/2-y,1/2+z
loop_
_atom_site_type_symbol
_atom_site_label
_atom_site_fract_x
_atom_site_fract_y
_atom_site_fract_z
Si Si1 0.222605 0.530178 0.995590
Si Si2 0.000000 0.000000 0.382140
Si Si3 0.000000 0.500000 0.277456
Si Si4 0.000000 0.500000 0.867589
Si Si5 0.151537 0.806488 0.729762
Si Si6 0.810884 0.479539 0.584331
O O1 0.366966 0.612312 0.939771
O O2 0.115358 0.373644 0.931794
O O3 0.257955 0.308925 0.056905
O O4 0.197832 0.795154 0.046517
O O5 0.954914 0.244661 0.328586
O O6 0.830565 0.562730 0.234433
O O7 0.904007 0.301445 0.812510
O O8 0.179009 0.551486 0.675179
O O9 0.000000 0.000000 0.704258
O O10 0.000000 0.500000 0.559483
#
# Coordination Sequence:
#
# PCOD9348011 Si02
#       6
#     4   2   2   2   4   4
#     4  12  26  45  76 113 152 207 264 339 400 496
#     4  12  22  46  74 112 142 206 264 322 410 484
#     4  12  28  47  81 114 164 202 272 344 416 485
#     4  12  28  47  83 122 166 202 294 350 412 487
#     4  12  28  51  81 120 160 224 275 350 410 513
#     4  12  25  48  76 109 157 218 269 323 425 500
#
# _framework density 24.850169000000001
#
# number of rings (size 3 to 8) (size 9 to 14) (size 15 to 20)
#    0.000    0.000    5.556    4.000    3.111    0.889 
#    0.000    2.222    0.000    0.000    0.000    0.000 
#    0.000    0.000    0.000    0.000    0.000    0.000 
#
# Total GULP energy -100398.577441 kJ/mol
# GULP energy per Si atom -5577.698747 kJ/mol
# Density = 2.479361 g / cm^3
# Si number density = 24.850169 Si / 1000 Ang^3
#
#
#
# Elastic Constant Matrix: (Units=GPa)
#
#
# Indices 1 2 3 4 5 6 
#
# 1 101.2472 18.6157 38.2084 0.0000 0.0000 0.0000
# 2 18.6157 135.5954 47.1305 0.0000 0.0000 0.0000
# 3 38.2084 47.1305 131.8474 0.0000 0.0000 0.0000
# 4 0.0000 0.0000 0.0000 68.7808 0.0000 0.0000
# 5 0.0000 0.0000 0.0000 0.0000 77.6332 0.0000
# 6 0.0000 0.0000 0.0000 0.0000 0.0000 14.9473
#
#
#
# Elastic Compliance Matrix: (Units=1/GPa)
#
#
# Indices 1 2 3 4 5 6 
#
# 1 0.011115 -0.000464 -0.003055 0.000000 0.000000 0.000000
# 2 -0.000464 0.008441 -0.002883 0.000000 0.000000 0.000000
# 3 -0.003055 -0.002883 0.009500 0.000000 0.000000 0.000000
# 4 0.000000 0.000000 0.000000 0.014539 0.000000 0.000000
# 5 0.000000 0.000000 0.000000 0.000000 0.012881 0.000000
# 6 0.000000 0.000000 0.000000 0.000000 0.000000 0.066902
#
#
# Mechanical properties :
#
#
# Convention : Reuss Voigt Hill
#
# Bulk Modulus (GPa) = 61.53041 64.06657 62.79849
# Shear Modulus (GPa) = 35.31100 49.92129 42.61615
#
# Velocity S-wave (km/s) = 3.77365 4.48693 4.14566
# Velocity P-wave (km/s) = 6.61827 7.25813 6.94557
#
# Compressibility (1/GPa) = 0.01625213
#
# Stress axis : x y z
#
# Youngs Moduli (GPa) = 89.96775 118.47540 105.25916
#
# Poissons Ratio (x) = 0.05498 0.32159
# Poissons Ratio (y) = 0.04175 0.30343
# Poissons Ratio (z) = 0.27487 0.34153
#
# Static dielectric constant tensor:
#      x y z
#    x 1.375940 0.000000 0.000000 
#    y 0.000000 1.910430 0.000000 
#    z 0.000000 0.000000 1.906910 
# 
# From -- ./inp_files/7085.got.cif
#   From: 2010.05.17/outbox.cif.g08.bks.cpg/sg34_4_cif.got.tgz:7085.got - 2010.06.03 17:23:11.
