data_PCOD9348666
_publ_section_title
;
Structure prediction by ZEFSAII (Michael W. Deem and Ramdas Pophale) SiO2 
 PCOD9348666
Probable space group: C M M 2
;
_chemical_formula_sum "Si O2"
_cell_formula_units_Z 64
_cell_length_a 29.624177
_cell_length_b 9.218085
_cell_length_c 12.611862
_cell_angle_alpha 90.000000
_cell_angle_beta 90.000000
_cell_angle_gamma 90.000000
_cell_volume 3444.024342
_symmetry_space_group_name_H-M "C M M 2"
_symmetry_group_IT_number 35
_symmetry_cell_setting 'orthorhombic'
loop_
_space_group_symop_operation_xyz
x,y,z
-x,-y,z
-x,y,z
x,-y,z
1/2+x,1/2+y,z
1/2-x,1/2-y,z
1/2-x,1/2+y,z
1/2+x,1/2-y,z
loop_
_atom_site_type_symbol
_atom_site_label
_atom_site_fract_x
_atom_site_fract_y
_atom_site_fract_z
Si Si1 0.183904 0.333767 0.070630
Si Si2 0.892963 0.326789 0.756935
Si Si3 0.294485 0.672549 0.284810
Si Si4 0.295509 0.173551 0.826903
Si Si5 0.896251 0.174018 0.346582
Si Si6 0.420753 0.165942 0.133213
Si Si7 0.949343 0.166943 0.934343
Si Si8 0.553431 0.826214 0.540356
O O1 0.200336 0.500000 0.087383
O O2 0.200856 0.229625 0.163713
O O3 0.130000 0.337259 0.085402
O O4 0.195758 0.288167 0.951174
O O5 0.895926 0.500000 0.776559
O O6 0.840006 0.288273 0.759581
O O7 0.916425 0.244256 0.852951
O O8 0.920002 0.295418 0.649517
O O9 0.288973 0.500000 0.286434
O O10 0.250000 0.750000 0.330481
O O11 0.342351 0.708674 0.340970
O O12 0.250000 0.250000 0.790789
O O13 0.290180 0.000000 0.823326
O O14 0.917881 0.247405 0.242623
O O15 0.921476 0.240036 0.447454
O O16 0.900612 0.000000 0.342591
O O17 0.435463 0.000000 0.149471
O O18 0.448751 0.249805 0.045348
O O19 0.000000 0.171406 0.889950
O O20 0.936182 0.000000 0.951281
O O21 0.500000 0.790641 0.547609
O O22 0.556717 0.000000 0.521029
#
# Coordination Sequence:
#
# PCOD9348666 Si02
#       8
#     8   8   8   8   8   8   8   8
#     4   9  17  31  51  78 112 151 193 234 276 330
#     4  10  21  41  63  84 114 151 196 245 288 341
#     4  10  20  33  52  81 115 154 195 233 280 337
#     4  10  20  34  53  82 116 152 192 233 283 338
#     4  10  22  39  59  86 119 152 189 239 296 350
#     4  10  19  35  58  83 115 155 195 237 283 339
#     4  11  23  36  54  85 121 154 189 233 293 356
#     4  10  22  41  66  90 109 143 197 248 295 349
#
# _framework density 18.582912
#
# number of rings (size 3 to 8) (size 9 to 14) (size 15 to 20)
#    0.000    2.000    1.250    2.250    0.000    6.750 
#    0.000    0.625    0.000    3.000    0.000    0.000 
#    0.000    0.000    0.000    0.000    0.000    0.000 
#
# Total GULP energy -178630.870847 kJ/mol
# GULP energy per Si atom -5582.214714 kJ/mol
# Density = 1.854062 g / cm^3
# Si number density = 18.582912 Si / 1000 Ang^3
#
#
#
# Elastic Constant Matrix: (Units=GPa)
#
#
# Indices 1 2 3 4 5 6 
#
# 1 141.1129 67.0289 74.9848 0.0000 0.0000 0.0000
# 2 67.0289 72.9357 66.6017 0.0000 0.0000 0.0000
# 3 74.9848 66.6017 95.6630 0.0000 0.0000 0.0000
# 4 0.0000 0.0000 0.0000 -62.2231 0.0000 0.0000
# 5 0.0000 0.0000 0.0000 0.0000 17.4510 0.0000
# 6 0.0000 0.0000 0.0000 0.0000 0.0000 28.1567
#
#
#
# Elastic Compliance Matrix: (Units=1/GPa)
#
#
# Indices 1 2 3 4 5 6 
#
# 1 0.013502 -0.007534 -0.005338 0.000000 0.000000 0.000000
# 2 -0.007534 0.041844 -0.023227 0.000000 0.000000 0.000000
# 3 -0.005338 -0.023227 0.030809 0.000000 0.000000 0.000000
# 4 0.000000 0.000000 0.000000 -0.016071 0.000000 0.000000
# 5 0.000000 0.000000 0.000000 0.000000 0.057303 0.000000
# 6 0.000000 0.000000 0.000000 0.000000 0.000000 0.035516
#
#
# Mechanical properties :
#
#
# Convention : Reuss Voigt Hill
#
# Bulk Modulus (GPa) = 71.65107 80.77140 76.21124
# Shear Modulus (GPa) = 20.85481 3.41667 12.13574
#
# Velocity S-wave (km/s) = 3.35364 1.35742 2.55827
# Velocity P-wave (km/s) = 7.32374 6.78355 7.05881
#
# Compressibility (1/GPa) = 0.01395653
#
# Stress axis : x y z
#
# Youngs Moduli (GPa) = 74.06536 23.89805 32.45818
#
# Poissons Ratio (x) = 0.18004 0.17327
# Poissons Ratio (y) = 0.55797 0.75392
# Poissons Ratio (z) = 0.39538 0.55509
#
# Static dielectric constant tensor:
#      x y z
#    x 1.670320 0.000000 0.000000 
#    y 0.000000 1.627410 0.000000 
#    z 0.000000 0.000000 1.611000 
# 
# From -- ./inp_files/11964.got.cif
#   From: 2010.05.17/outbox.cif.g08.bks.cpg/sg35_6_cif.got.tgz:11964.got - 2010.06.03 17:29:28.
