data_PCOD9348785
_publ_section_title
;
Structure prediction by ZEFSAII (Michael W. Deem and Ramdas Pophale) SiO2 
 PCOD9348785
Probable space group: C M M 2
;
_chemical_formula_sum "Si O2"
_cell_formula_units_Z 48
_cell_length_a 13.746616
_cell_length_b 15.558076
_cell_length_c 11.361342
_cell_angle_alpha 90.000000
_cell_angle_beta 90.000000
_cell_angle_gamma 90.000000
_cell_volume 2429.860399
_symmetry_space_group_name_H-M "C M M 2"
_symmetry_group_IT_number 35
_symmetry_cell_setting 'orthorhombic'
loop_
_space_group_symop_operation_xyz
x,y,z
-x,-y,z
-x,y,z
x,-y,z
1/2+x,1/2+y,z
1/2-x,1/2-y,z
1/2-x,1/2+y,z
1/2+x,1/2-y,z
loop_
_atom_site_type_symbol
_atom_site_label
_atom_site_fract_x
_atom_site_fract_y
_atom_site_fract_z
Si Si1 0.250000 0.250000 0.475770
Si Si2 0.616093 0.000000 0.159602
Si Si3 0.385423 0.315185 0.076506
Si Si4 0.210045 0.839388 0.822590
Si Si5 0.709070 0.000000 0.904766
Si Si6 0.888351 0.000000 0.066412
Si Si7 0.114154 0.897815 0.596350
Si Si8 0.382932 0.177297 0.274566
O O1 0.188295 0.172198 0.538466
O O2 0.328517 0.203798 0.391836
O O3 0.648265 0.915374 0.227312
O O4 0.500000 0.000000 0.159299
O O5 0.648576 0.000000 0.024160
O O6 0.500000 0.304358 0.051739
O O7 0.370746 0.410431 0.131080
O O8 0.358760 0.243273 0.169329
O O9 0.330785 0.316375 0.952184
O O10 0.250000 0.750000 0.773122
O O11 0.130927 0.879790 0.735443
O O12 0.295482 0.910854 0.835489
O O13 0.819957 0.000000 0.953258
O O14 0.000000 0.000000 0.029123
O O15 0.000000 0.883099 0.565304
O O16 0.135598 0.000000 0.573076
O O17 0.500000 0.178792 0.290569
#
# Coordination Sequence:
#
# PCOD9348785 Si02
#       8
#     4   4   8   8   4   4   8   8
#     4  12  26  44  70  92 124 166 228 274 318 382
#     4  10  22  40  59  87 129 175 210 247 309 383
#     4   9  18  33  54  89 127 159 196 245 314 384
#     4  11  20  35  61  94 126 165 205 255 318 385
#     4  10  20  32  59  89 130 161 210 246 312 390
#     4   8  16  28  48  82 125 158 188 241 303 375
#     4  11  25  47  70  95 128 169 219 278 333 381
#     4  10  23  41  63  92 128 167 208 260 320 381
#
# _framework density 19.754221000000001
#
# number of rings (size 3 to 8) (size 9 to 14) (size 15 to 20)
#    0.000    1.833    1.667    2.000    7.000    0.667 
#    1.500    0.833    0.000    0.000    0.000    0.000 
#    0.000    0.000    0.000    0.000    0.000    0.000 
#
# Total GULP energy -133784.428087 kJ/mol
# GULP energy per Si atom -5574.351170 kJ/mol
# Density = 1.970926 g / cm^3
# Si number density = 19.754221 Si / 1000 Ang^3
#
#
#
# Elastic Constant Matrix: (Units=GPa)
#
#
# Indices 1 2 3 4 5 6 
#
# 1 69.9023 30.8189 22.3278 0.0000 0.0000 0.0000
# 2 30.8189 180.2595 46.6988 0.0000 0.0000 0.0000
# 3 22.3278 46.6988 66.3486 0.0000 0.0000 0.0000
# 4 0.0000 0.0000 0.0000 -9.1117 0.0000 0.0000
# 5 0.0000 0.0000 0.0000 0.0000 -0.2956 0.0000
# 6 0.0000 0.0000 0.0000 0.0000 0.0000 12.5729
#
#
#
# Elastic Compliance Matrix: (Units=1/GPa)
#
#
# Indices 1 2 3 4 5 6 
#
# 1 0.016436 -0.001684 -0.004346 0.000000 0.000000 0.000000
# 2 -0.001684 0.006957 -0.004330 0.000000 0.000000 0.000000
# 3 -0.004346 -0.004330 0.019582 0.000000 0.000000 0.000000
# 4 0.000000 0.000000 0.000000 -0.109749 0.000000 0.000000
# 5 0.000000 0.000000 0.000000 0.000000 -3.382521 0.000000
# 6 0.000000 0.000000 0.000000 0.000000 0.000000 0.079536
#
#
# Mechanical properties :
#
#
# Convention : Reuss Voigt Hill
#
# Bulk Modulus (GPa) = 44.93263 57.35569 51.14416
# Shear Modulus (GPa) = -1.49628 15.07745 6.79058
#
# Velocity S-wave (km/s) = -0.87126 2.76570 1.85607
# Velocity P-wave (km/s) = 4.66724 6.26869 5.52628
#
# Compressibility (1/GPa) = 0.02225554
#
# Stress axis : x y z
#
# Youngs Moduli (GPa) = 60.84073 143.73455 51.06740
#
# Poissons Ratio (x) = 0.24209 0.22193
# Poissons Ratio (y) = 0.10247 0.22112
# Poissons Ratio (z) = 0.26440 0.62237
#
# Static dielectric constant tensor:
#      x y z
#    x 1.785650 0.000000 0.000000 
#    y 0.000000 1.815430 0.000000 
#    z 0.000000 0.000000 1.667160 
# 
# From -- ./inp_files/12945.got.cif
#   From: 2010.05.17/outbox.cif.g08.bks.cpg/sg35_7_cif.got.tgz:12945.got - 2010.06.03 17:29:28.
