data_PCOD9348609
_publ_section_title
;
Structure prediction by ZEFSAII (Michael W. Deem and Ramdas Pophale) SiO2 
 PCOD9348609
Probable space group: C M M 2
;
_chemical_formula_sum "Si O2"
_cell_formula_units_Z 56
_cell_length_a 22.497716
_cell_length_b 14.061256
_cell_length_c 9.122391
_cell_angle_alpha 90.000000
_cell_angle_beta 90.000000
_cell_angle_gamma 90.000000
_cell_volume 2885.833218
_symmetry_space_group_name_H-M "C M M 2"
_symmetry_group_IT_number 35
_symmetry_cell_setting 'orthorhombic'
loop_
_space_group_symop_operation_xyz
x,y,z
-x,-y,z
-x,y,z
x,-y,z
1/2+x,1/2+y,z
1/2-x,1/2-y,z
1/2-x,1/2+y,z
1/2+x,1/2-y,z
loop_
_atom_site_type_symbol
_atom_site_label
_atom_site_fract_x
_atom_site_fract_y
_atom_site_fract_z
Si Si1 0.929175 0.103824 0.616360
Si Si2 0.749996 0.608490 0.645005
Si Si3 0.180651 0.268002 0.072563
Si Si4 0.844908 0.108997 0.876098
Si Si5 0.678594 0.113281 0.368131
Si Si6 0.373968 0.107932 0.820213
Si Si7 0.930338 0.309764 0.542920
O O1 0.904867 0.110059 0.781965
O O2 0.910863 0.198933 0.530983
O O3 0.000000 0.105572 0.617735
O O4 0.909617 0.000000 0.558378
O O5 0.728801 0.500000 0.623681
O O6 0.701509 0.653039 0.754687
O O7 0.769768 0.642112 0.484650
O O8 0.811812 0.605450 0.731744
O O9 0.250000 0.250000 0.036120
O O10 0.153054 0.166593 0.026233
O O11 0.144139 0.338568 0.967010
O O12 0.179626 0.316867 0.230291
O O13 0.826807 0.000000 0.904915
O O14 0.614889 0.127804 0.447729
O O15 0.685769 0.000000 0.333764
O O16 0.419544 0.160691 0.712416
O O17 0.393490 0.000000 0.846653
O O18 0.000000 0.320253 0.505902
#
# Coordination Sequence:
#
# PCOD9348609 Si02
#       7
#     8   8   8   8   8   8   8
#     4   9  18  33  56  87 118 145 187 253 309 348
#     4   8  16  33  57  80 106 146 194 245 295 348
#     4  12  23  36  55  87 121 161 193 237 306 376
#     4  10  19  34  58  84 112 151 200 247 296 360
#     4  10  23  40  57  84 125 166 199 247 310 362
#     4  10  19  34  57  85 116 147 194 255 303 346
#     4  10  20  38  64  89 114 157 214 255 300 364
#
# _framework density 19.405141
#
# number of rings (size 3 to 8) (size 9 to 14) (size 15 to 20)
#    0.000    2.143    2.857    1.714    0.000    2.857 
#    0.000    2.143    0.000    1.714    0.000    0.000 
#    0.000    0.000    0.000    0.000    0.000    0.000 
#
# Total GULP energy -155921.712229 kJ/mol
# GULP energy per Si atom -5568.632580 kJ/mol
# Density = 1.936097 g / cm^3
# Si number density = 19.405141 Si / 1000 Ang^3
#
#
#
# Elastic Constant Matrix: (Units=GPa)
#
#
# Indices 1 2 3 4 5 6 
#
# 1 35.8577 13.8679 2.8797 0.0000 0.0000 0.0000
# 2 13.8679 115.0588 41.6136 0.0000 0.0000 0.0000
# 3 2.8797 41.6136 103.9477 0.0000 0.0000 0.0000
# 4 0.0000 0.0000 0.0000 33.8830 0.0000 0.0000
# 5 0.0000 0.0000 0.0000 0.0000 9.6884 0.0000
# 6 0.0000 0.0000 0.0000 0.0000 0.0000 20.5311
#
#
#
# Elastic Compliance Matrix: (Units=1/GPa)
#
#
# Indices 1 2 3 4 5 6 
#
# 1 0.029296 -0.003786 0.000704 0.000000 0.000000 0.000000
# 2 -0.003786 0.010652 -0.004159 0.000000 0.000000 0.000000
# 3 0.000704 -0.004159 0.011266 0.000000 0.000000 0.000000
# 4 0.000000 0.000000 0.000000 0.029513 0.000000 0.000000
# 5 0.000000 0.000000 0.000000 0.000000 0.103216 0.000000
# 6 0.000000 0.000000 0.000000 0.000000 0.000000 0.048707
#
#
# Mechanical properties :
#
#
# Convention : Reuss Voigt Hill
#
# Bulk Modulus (GPa) = 27.22485 41.28739 34.25612
# Shear Modulus (GPa) = 19.27711 25.92071 22.59891
#
# Velocity S-wave (km/s) = 3.15525 3.65878 3.41630
# Velocity P-wave (km/s) = 5.22822 6.25872 5.76654
#
# Compressibility (1/GPa) = 0.03673114
#
# Stress axis : x y z
#
# Youngs Moduli (GPa) = 34.13490 93.88075 88.76372
#
# Poissons Ratio (x) = 0.35539 -0.06248
# Poissons Ratio (y) = 0.12922 0.36920
# Poissons Ratio (z) = -0.02403 0.39049
#
# Static dielectric constant tensor:
#      x y z
#    x 1.684030 0.000000 0.000000 
#    y 0.000000 1.771010 0.000000 
#    z 0.000000 0.000000 1.673990 
# 
# From -- ./inp_files/9280.got.cif
#   From: 2010.05.17/outbox.cif.g08.bks.cpg/sg35_5_cif.got.tgz:9280.got - 2010.06.03 17:29:28.
