data_PCOD9348605
_publ_section_title
;
Structure prediction by ZEFSAII (Michael W. Deem and Ramdas Pophale) SiO2 
 PCOD9348605
Probable space group: C M M 2
;
_chemical_formula_sum "Si O2"
_cell_formula_units_Z 64
_cell_length_a 31.602474
_cell_length_b 9.527253
_cell_length_c 11.726926
_cell_angle_alpha 90.000000
_cell_angle_beta 90.000000
_cell_angle_gamma 90.000000
_cell_volume 3530.798762
_symmetry_space_group_name_H-M "C M M 2"
_symmetry_group_IT_number 35
_symmetry_cell_setting 'orthorhombic'
loop_
_space_group_symop_operation_xyz
x,y,z
-x,-y,z
-x,y,z
x,-y,z
1/2+x,1/2+y,z
1/2-x,1/2-y,z
1/2-x,1/2+y,z
1/2+x,1/2-y,z
loop_
_atom_site_type_symbol
_atom_site_label
_atom_site_fract_x
_atom_site_fract_y
_atom_site_fract_z
Si Si1 0.629198 0.834706 0.125000
Si Si2 0.590058 0.163110 0.562582
Si Si3 0.786056 0.840884 0.485170
Si Si4 0.319812 0.162562 0.689566
Si Si5 0.794342 0.331772 0.949040
Si Si6 0.875116 0.837702 0.356387
Si Si7 0.450108 0.344258 0.746245
Si Si8 0.549771 0.163078 0.961482
O O1 0.628082 0.735771 0.234494
O O2 0.633775 0.000000 0.156602
O O3 0.668492 0.800020 0.040504
O O4 0.584098 0.820493 0.060739
O O5 0.632199 0.169194 0.642578
O O6 0.598249 0.242212 0.443930
O O7 0.557088 0.250788 0.635676
O O8 0.579524 0.000000 0.545684
O O9 0.750000 0.750000 0.425898
O O10 0.795536 0.767131 0.605737
O O11 0.828605 0.839073 0.412476
O O12 0.772298 0.000000 0.500629
O O13 0.312372 0.198763 0.821649
O O14 0.306344 0.000000 0.674728
O O15 0.786664 0.500000 0.954667
O O16 0.750000 0.250000 0.966542
O O17 0.889820 0.000000 0.350438
O O18 0.500000 0.358355 0.762145
O O19 0.430959 0.500000 0.734622
O O20 0.435591 0.261736 0.858290
O O21 0.500000 0.190765 0.991030
O O22 0.551674 0.000000 0.923560
#
# Coordination Sequence:
#
# PCOD9348605 Si02
#       8
#     8   8   8   8   8   8   8   8
#     4  10  21  38  57  77 105 142 183 228 274 318
#     4  10  19  34  57  80 104 138 178 219 267 321
#     4  10  20  33  51  75 102 133 172 219 268 319
#     4   9  18  33  53  77 104 134 171 218 270 321
#     4  10  21  35  51  75 108 142 177 218 265 319
#     4  10  22  38  54  75 103 137 180 224 267 320
#     4  10  20  33  52  82 117 145 170 208 261 319
#     4   9  18  35  60  86 109 137 178 224 269 323
#
# _framework density 18.126208999999999
#
# number of rings (size 3 to 8) (size 9 to 14) (size 15 to 20)
#    0.000    2.250    0.000    2.625    0.000    7.750 
#    0.000    4.375    0.000    2.250    0.000    0.000 
#    0.000    0.000    0.000    0.000    0.000    0.000 
#
# Total GULP energy -178422.586295 kJ/mol
# GULP energy per Si atom -5575.705822 kJ/mol
# Density = 1.808495 g / cm^3
# Si number density = 18.126209 Si / 1000 Ang^3
#
#
#
# Elastic Constant Matrix: (Units=GPa)
#
#
# Indices 1 2 3 4 5 6 
#
# 1 36.5459 34.8015 32.1587 0.0000 0.0000 0.0000
# 2 34.8015 132.6849 78.2860 0.0000 0.0000 0.0000
# 3 32.1587 78.2860 117.5947 0.0000 0.0000 0.0000
# 4 0.0000 0.0000 0.0000 -44.8755 0.0000 0.0000
# 5 0.0000 0.0000 0.0000 0.0000 3.6703 0.0000
# 6 0.0000 0.0000 0.0000 0.0000 0.0000 24.0390
#
#
#
# Elastic Compliance Matrix: (Units=1/GPa)
#
#
# Indices 1 2 3 4 5 6 
#
# 1 0.039177 -0.006512 -0.006378 0.000000 0.000000 0.000000
# 2 -0.006512 0.013494 -0.007203 0.000000 0.000000 0.000000
# 3 -0.006378 -0.007203 0.015043 0.000000 0.000000 0.000000
# 4 0.000000 0.000000 0.000000 -0.022284 0.000000 0.000000
# 5 0.000000 0.000000 0.000000 0.000000 0.272455 0.000000
# 6 0.000000 0.000000 0.000000 0.000000 0.000000 0.041599
#
#
# Mechanical properties :
#
#
# Convention : Reuss Voigt Hill
#
# Bulk Modulus (GPa) = 36.32690 64.14643 50.23667
# Shear Modulus (GPa) = 12.22952 6.00540 9.11746
#
# Velocity S-wave (km/s) = 2.60029 1.82217 2.24520
# Velocity P-wave (km/s) = 5.39444 6.31606 5.87336
#
# Compressibility (1/GPa) = 0.02752781
#
# Stress axis : x y z
#
# Youngs Moduli (GPa) = 25.52529 74.10462 66.47565
#
# Poissons Ratio (x) = 0.48259 0.42400
# Poissons Ratio (y) = 0.16623 0.47880
# Poissons Ratio (z) = 0.16281 0.53375
#
# Static dielectric constant tensor:
#      x y z
#    x 1.655950 0.000000 0.000000 
#    y 0.000000 1.640810 0.000000 
#    z 0.000000 0.000000 1.593010 
# 
# From -- ./inp_files/11843.got.cif
#   From: 2010.05.17/outbox.cif.g08.bks.cpg/sg35_6_cif.got.tgz:11843.got - 2010.06.03 17:29:28.
