data_PCOD9348229
_publ_section_title
;
Structure prediction by ZEFSAII (Michael W. Deem and Ramdas Pophale) SiO2 
 PCOD9348229
Probable space group: C M M 2
;
_chemical_formula_sum "Si O2"
_cell_formula_units_Z 64
_cell_length_a 9.178172
_cell_length_b 14.935287
_cell_length_c 22.101307
_cell_angle_alpha 90.000000
_cell_angle_beta 90.000000
_cell_angle_gamma 90.000000
_cell_volume 3029.616950
_symmetry_space_group_name_H-M "C M M 2"
_symmetry_group_IT_number 35
_symmetry_cell_setting 'orthorhombic'
loop_
_space_group_symop_operation_xyz
x,y,z
-x,-y,z
-x,y,z
x,-y,z
1/2+x,1/2+y,z
1/2-x,1/2-y,z
1/2-x,1/2+y,z
1/2+x,1/2-y,z
loop_
_atom_site_type_symbol
_atom_site_label
_atom_site_fract_x
_atom_site_fract_y
_atom_site_fract_z
Si Si1 0.175317 0.152261 0.015350
Si Si2 0.833853 0.109821 0.384013
Si Si3 0.334824 0.890264 0.504615
Si Si4 0.324999 0.652953 0.146472
Si Si5 0.661965 0.894820 0.266936
Si Si6 0.676237 0.346687 0.754669
Si Si7 0.163834 0.894310 0.620992
Si Si8 0.675918 0.651831 0.884978
O O1 0.250000 0.250000 0.014981
O O2 0.210517 0.109748 0.080656
O O3 0.000000 0.163344 0.015645
O O4 0.214209 0.109406 0.950250
O O5 0.760431 0.136567 0.446996
O O6 0.743735 0.141652 0.325782
O O7 0.000000 0.140013 0.380395
O O8 0.835298 0.000000 0.383290
O O9 0.500000 0.859434 0.497926
O O10 0.266491 0.859308 0.568050
O O11 0.337374 0.000000 0.504870
O O12 0.500000 0.657545 0.152023
O O13 0.250000 0.750000 0.144020
O O14 0.256378 0.611552 0.206282
O O15 0.500000 0.855423 0.258340
O O16 0.645358 0.000000 0.279023
O O17 0.500000 0.341872 0.753411
O O18 0.750000 0.250000 0.756139
O O19 0.719480 0.386002 0.689788
O O20 0.714864 0.390561 0.819772
O O21 0.000000 0.855512 0.617185
O O22 0.150929 0.000000 0.609625
O O23 0.500000 0.661434 0.884667
O O24 0.750000 0.750000 0.885214
#
# Coordination Sequence:
#
# PCOD9348229 Si02
#       8
#     8   8   8   8   8   8   8   8
#     4   8  14  24  40  62  87 114 146 186 226 265
#     4   9  16  27  45  68  92 118 149 186 227 270
#     4   9  16  26  42  65  90 115 146 185 225 263
#     4  10  19  31  48  70  96 125 157 193 234 280
#     4  10  20  33  49  70  96 125 157 193 232 275
#     4   9  17  28  44  65  89 117 148 184 224 267
#     4   9  17  29  44  63  88 118 150 182 219 265
#     4   8  13  23  39  60  85 111 143 183 224 263
#
# _framework density 21.124783000000001
#
# number of rings (size 3 to 8) (size 9 to 14) (size 15 to 20)
#    0.000    3.000    0.000    1.500    0.000    4.750 
#    0.000    0.000    0.000    1.500    0.000    7.000 
#    0.000    2.000    0.000    0.000    0.000    0.000 
#
# Total GULP energy -178202.816062 kJ/mol
# GULP energy per Si atom -5568.838002 kJ/mol
# Density = 2.107670 g / cm^3
# Si number density = 21.124783 Si / 1000 Ang^3
#
#
#
# Elastic Constant Matrix: (Units=GPa)
#
#
# Indices 1 2 3 4 5 6 
#
# 1 91.1549 7.2448 88.2354 0.0000 0.0000 0.0000
# 2 7.2448 34.4694 6.5405 0.0000 0.0000 0.0000
# 3 88.2354 6.5405 236.3701 0.0000 0.0000 0.0000
# 4 0.0000 0.0000 0.0000 13.0905 0.0000 0.0000
# 5 0.0000 0.0000 0.0000 0.0000 -60.2452 0.0000
# 6 0.0000 0.0000 0.0000 0.0000 0.0000 7.1492
#
#
#
# Elastic Compliance Matrix: (Units=1/GPa)
#
#
# Indices 1 2 3 4 5 6 
#
# 1 0.017378 -0.002434 -0.006420 0.000000 0.000000 0.000000
# 2 -0.002434 0.029505 0.000092 0.000000 0.000000 0.000000
# 3 -0.006420 0.000092 0.006625 0.000000 0.000000 0.000000
# 4 0.000000 0.000000 0.000000 0.076391 0.000000 0.000000
# 5 0.000000 0.000000 0.000000 0.000000 -0.016599 0.000000
# 6 0.000000 0.000000 0.000000 0.000000 0.000000 0.139875
#
#
# Mechanical properties :
#
#
# Convention : Reuss Voigt Hill
#
# Bulk Modulus (GPa) = 27.78991 62.89287 45.34139
# Shear Modulus (GPa) = 17.68700 9.33049 13.50875
#
# Velocity S-wave (km/s) = 2.89669 2.10391 2.53153
# Velocity P-wave (km/s) = 4.93674 5.97818 5.48225
#
# Compressibility (1/GPa) = 0.03598429
#
# Stress axis : x y z
#
# Youngs Moduli (GPa) = 57.54436 33.89213 150.95411
#
# Poissons Ratio (x) = 0.08251 0.96908
# Poissons Ratio (y) = 0.14008 -0.01393
# Poissons Ratio (z) = 0.36942 -0.00313
#
# Static dielectric constant tensor:
#      x y z
#    x 1.745220 0.000000 0.000000 
#    y 0.000000 1.809340 0.000000 
#    z 0.000000 0.000000 1.821000 
# 
# From -- ./inp_files/18489.got.cif
#   From: 2010.05.17/outbox.cif.g08.bks.cpg/sg35_10_cif.got.tgz:18489.got - 2010.06.03 17:29:28.
