data_PCOD9348514
_publ_section_title
;
Structure prediction by ZEFSAII (Michael W. Deem and Ramdas Pophale) SiO2 
 PCOD9348514
Probable space group: C M M 2
;
_chemical_formula_sum "Si O2"
_cell_formula_units_Z 56
_cell_length_a 7.841168
_cell_length_b 22.690284
_cell_length_c 15.183142
_cell_angle_alpha 90.000000
_cell_angle_beta 90.000000
_cell_angle_gamma 90.000000
_cell_volume 2701.359251
_symmetry_space_group_name_H-M "C M M 2"
_symmetry_group_IT_number 35
_symmetry_cell_setting 'orthorhombic'
loop_
_space_group_symop_operation_xyz
x,y,z
-x,-y,z
-x,y,z
x,-y,z
1/2+x,1/2+y,z
1/2-x,1/2-y,z
1/2-x,1/2+y,z
1/2+x,1/2-y,z
loop_
_atom_site_type_symbol
_atom_site_label
_atom_site_fract_x
_atom_site_fract_y
_atom_site_fract_z
Si Si1 0.708648 0.000000 0.110830
Si Si2 0.708157 0.567119 0.595475
Si Si3 0.206121 0.500000 0.317509
Si Si4 0.201406 0.881526 0.419716
Si Si5 0.205534 0.933123 0.797219
Si Si6 0.298073 0.184521 0.905451
Si Si7 0.796885 0.183735 0.255484
Si Si8 0.203013 0.625921 0.075750
O O1 0.770398 0.059614 0.065048
O O2 0.500000 0.000000 0.109028
O O3 0.755954 0.000000 0.214399
O O4 0.500000 0.569242 0.595469
O O5 0.755592 0.500000 0.571672
O O6 0.771786 0.609668 0.518010
O O7 0.762885 0.577084 0.695778
O O8 0.275714 0.557162 0.367455
O O9 0.000000 0.500000 0.321654
O O10 0.274189 0.834236 0.351222
O O11 0.000000 0.869535 0.430027
O O12 0.253898 0.875102 0.852027
O O13 0.000000 0.935710 0.797191
O O14 0.264794 0.000000 0.823854
O O15 0.500000 0.186736 0.909086
O O16 0.250000 0.250000 0.872938
O O17 0.226825 0.171621 0.004085
O O18 0.750000 0.250000 0.234344
O O19 0.731456 0.143880 0.176195
O O20 0.000000 0.177016 0.257522
O O21 0.000000 0.623496 0.062683
#
# Coordination Sequence:
#
# PCOD9348514 Si02
#       8
#     4   8   4   8   8   8   8   8
#     4   9  18  33  53  80 113 146 176 217 277 333
#     4   8  14  29  56  83 109 145 180 217 272 334
#     4  11  19  29  51  80 111 144 174 217 269 311
#     4  10  19  33  54  79 109 145 185 223 262 322
#     4   9  19  37  62  90 118 149 188 236 291 348
#     4  11  24  40  62  85 113 152 194 240 289 346
#     4  11  23  36  53  76 106 146 190 233 275 320
#     4  10  21  38  59  81 111 148 184 224 278 340
#
# _framework density 20.730302999999999
#
# number of rings (size 3 to 8) (size 9 to 14) (size 15 to 20)
#    0.000    2.143    2.143    2.357    1.000    3.143 
#    0.000    1.786    0.000    1.714    0.000    0.000 
#    0.000    0.000    0.000    0.000    0.000    0.000 
#
# Total GULP energy -156134.936379 kJ/mol
# GULP energy per Si atom -5576.247728 kJ/mol
# Density = 2.068312 g / cm^3
# Si number density = 20.730303 Si / 1000 Ang^3
#
#
#
# Elastic Constant Matrix: (Units=GPa)
#
#
# Indices 1 2 3 4 5 6 
#
# 1 27.9605 10.0290 10.4656 0.0000 0.0000 0.0000
# 2 10.0290 129.4456 45.9258 0.0000 0.0000 0.0000
# 3 10.4656 45.9258 89.2233 0.0000 0.0000 0.0000
# 4 0.0000 0.0000 0.0000 22.3402 0.0000 0.0000
# 5 0.0000 0.0000 0.0000 0.0000 29.8818 0.0000
# 6 0.0000 0.0000 0.0000 0.0000 0.0000 13.7974
#
#
#
# Elastic Compliance Matrix: (Units=1/GPa)
#
#
# Indices 1 2 3 4 5 6 
#
# 1 0.037694 -0.001654 -0.003570 0.000000 0.000000 0.000000
# 2 -0.001654 0.009524 -0.004708 0.000000 0.000000 0.000000
# 3 -0.003570 -0.004708 0.014050 0.000000 0.000000 0.000000
# 4 0.000000 0.000000 0.000000 0.044762 0.000000 0.000000
# 5 0.000000 0.000000 0.000000 0.000000 0.033465 0.000000
# 6 0.000000 0.000000 0.000000 0.000000 0.000000 0.072477
#
#
# Mechanical properties :
#
#
# Convention : Reuss Voigt Hill
#
# Bulk Modulus (GPa) = 24.15233 42.16334 33.15784
# Shear Modulus (GPa) = 20.35513 25.21783 22.78648
#
# Velocity S-wave (km/s) = 3.13693 3.49158 3.31900
# Velocity P-wave (km/s) = 4.97961 6.05293 5.54231
#
# Compressibility (1/GPa) = 0.04140387
#
# Stress axis : x y z
#
# Youngs Moduli (GPa) = 26.52922 105.00012 71.17412
#
# Poissons Ratio (x) = 0.17365 0.25410
# Poissons Ratio (y) = 0.04387 0.33510
# Poissons Ratio (z) = 0.09471 0.49436
#
# Static dielectric constant tensor:
#      x y z
#    x 1.729960 0.000000 0.000000 
#    y 0.000000 1.778080 0.000000 
#    z 0.000000 0.000000 1.768040 
# 
# From -- ./inp_files/15684.got.cif
#   From: 2010.05.17/outbox.cif.g08.bks.cpg/sg35_8_cif.got.tgz:15684.got - 2010.06.03 17:29:28.
