data_PCOD9348254
_publ_section_title
;
Structure prediction by ZEFSAII (Michael W. Deem and Ramdas Pophale) SiO2 
 PCOD9348254
Probable space group: C M M 2
;
_chemical_formula_sum "Si O2"
_cell_formula_units_Z 56
_cell_length_a 14.554105
_cell_length_b 23.047462
_cell_length_c 9.300466
_cell_angle_alpha 90.000000
_cell_angle_beta 90.000000
_cell_angle_gamma 90.000000
_cell_volume 3119.703505
_symmetry_space_group_name_H-M "C M M 2"
_symmetry_group_IT_number 35
_symmetry_cell_setting 'orthorhombic'
loop_
_space_group_symop_operation_xyz
x,y,z
-x,-y,z
-x,y,z
x,-y,z
1/2+x,1/2+y,z
1/2-x,1/2-y,z
1/2-x,1/2+y,z
1/2+x,1/2-y,z
loop_
_atom_site_type_symbol
_atom_site_label
_atom_site_fract_x
_atom_site_fract_y
_atom_site_fract_z
Si Si1 0.176406 0.701251 0.620210
Si Si2 0.325334 0.387733 0.663688
Si Si3 0.109942 0.217246 0.172611
Si Si4 0.609686 0.500000 0.827136
Si Si5 0.104417 0.662116 0.328933
Si Si6 0.197474 0.890032 0.331288
Si Si7 0.394396 0.715930 0.852567
Si Si8 0.609929 0.500000 0.171706
O O1 0.224971 0.641327 0.661789
O O2 0.108664 0.689477 0.489626
O O3 0.140972 0.729179 0.765772
O O4 0.000000 0.774336 0.881447
O O5 0.343534 0.444579 0.754540
O O6 0.339945 0.397882 0.494184
O O7 0.383357 0.337779 0.743837
O O8 0.122914 0.283613 0.222428
O O9 0.158533 0.171070 0.274802
O O10 0.000000 0.205654 0.180388
O O11 0.146786 0.207207 0.010461
O O12 0.500000 0.500000 0.795552
O O13 0.619656 0.500000 0.999030
O O14 0.191090 0.617848 0.324467
O O15 0.000000 0.640274 0.302713
O O16 0.158253 0.942929 0.237577
O O17 0.250000 0.750000 0.566134
O O18 0.500000 0.500000 0.203715
#
# Coordination Sequence:
#
# PCOD9348254 Si02
#       8
#     8   8   8   4   8   8   8   4
#     4   9  18  32  51  77 107 141 178 217 264 316
#     4  10  21  34  51  76 104 136 177 215 259 311
#     4  10  20  32  51  81 116 148 179 217 266 320
#     4  11  23  39  57  79 106 136 170 211 259 319
#     4  10  20  35  55  80 108 142 182 224 267 314
#     4  11  22  37  56  80 108 143 182 223 267 316
#     4  10  19  31  49  78 111 143 176 214 263 318
#     4  11  25  41  58  81 108 140 177 215 266 323
#
# _framework density 17.950423000000001
#
# number of rings (size 3 to 8) (size 9 to 14) (size 15 to 20)
#    0.000    1.857    0.000    5.571    0.000   10.857 
#    0.000    0.357    0.000    0.000    0.000    6.500 
#    0.000    0.000    0.000    0.000    0.000    0.000 
#
# Total GULP energy -156060.527400 kJ/mol
# GULP energy per Si atom -5573.590264 kJ/mol
# Density = 1.790957 g / cm^3
# Si number density = 17.950423 Si / 1000 Ang^3
#
#
#
# Elastic Constant Matrix: (Units=GPa)
#
#
# Indices 1 2 3 4 5 6 
#
# 1 86.4601 40.1567 38.5974 0.0000 0.0000 0.0000
# 2 40.1567 85.7669 47.3412 0.0000 0.0000 0.0000
# 3 38.5974 47.3412 113.8777 0.0000 0.0000 0.0000
# 4 0.0000 0.0000 0.0000 34.3272 0.0000 0.0000
# 5 0.0000 0.0000 0.0000 0.0000 23.2697 0.0000
# 6 0.0000 0.0000 0.0000 0.0000 0.0000 12.7699
#
#
#
# Elastic Compliance Matrix: (Units=1/GPa)
#
#
# Indices 1 2 3 4 5 6 
#
# 1 0.015484 -0.005649 -0.002900 0.000000 0.000000 0.000000
# 2 -0.005649 0.017193 -0.005233 0.000000 0.000000 0.000000
# 3 -0.002900 -0.005233 0.011939 0.000000 0.000000 0.000000
# 4 0.000000 0.000000 0.000000 0.029131 0.000000 0.000000
# 5 0.000000 0.000000 0.000000 0.000000 0.042974 0.000000
# 6 0.000000 0.000000 0.000000 0.000000 0.000000 0.078309
#
#
# Mechanical properties :
#
#
# Convention : Reuss Voigt Hill
#
# Bulk Modulus (GPa) = 58.63948 59.81062 59.22505
# Shear Modulus (GPa) = 21.90302 24.74068 23.32185
#
# Velocity S-wave (km/s) = 3.49692 3.71654 3.60840
# Velocity P-wave (km/s) = 7.00307 7.19786 7.10113
#
# Compressibility (1/GPa) = 0.01705336
#
# Stress axis : x y z
#
# Youngs Moduli (GPa) = 64.58130 58.16368 83.75581
#
# Poissons Ratio (x) = 0.32859 0.24287
# Poissons Ratio (y) = 0.36484 0.43826
# Poissons Ratio (z) = 0.18727 0.30435
#
# Static dielectric constant tensor:
#      x y z
#    x 1.681310 0.000000 0.000000 
#    y 0.000000 1.594810 0.000000 
#    z 0.000000 0.000000 1.661930 
# 
# From -- ./inp_files/7678.got.cif
#   From: 2010.05.17/outbox.cif.g08.bks.cpg/sg35_4_cif.got.tgz:7678.got - 2010.06.03 17:29:28.
