data_PCOD9348791
_publ_section_title
;
Structure prediction by ZEFSAII (Michael W. Deem and Ramdas Pophale) SiO2 
 PCOD9348791
Probable space group: C M M 2
;
_chemical_formula_sum "Si O2"
_cell_formula_units_Z 56
_cell_length_a 9.251110
_cell_length_b 18.656896
_cell_length_c 18.846118
_cell_angle_alpha 90.000000
_cell_angle_beta 90.000000
_cell_angle_gamma 90.000000
_cell_volume 3252.783375
_symmetry_space_group_name_H-M "C M M 2"
_symmetry_group_IT_number 35
_symmetry_cell_setting 'orthorhombic'
loop_
_space_group_symop_operation_xyz
x,y,z
-x,-y,z
-x,y,z
x,-y,z
1/2+x,1/2+y,z
1/2-x,1/2-y,z
1/2-x,1/2+y,z
1/2+x,1/2-y,z
loop_
_atom_site_type_symbol
_atom_site_label
_atom_site_fract_x
_atom_site_fract_y
_atom_site_fract_z
Si Si1 0.826735 0.827372 0.025460
Si Si2 0.333954 0.587387 0.290554
Si Si3 0.168773 0.587327 0.430802
Si Si4 0.169921 0.413155 0.587921
Si Si5 0.673190 0.415938 0.728740
Si Si6 0.827058 0.826072 0.865259
Si Si7 0.168767 0.586418 0.147677
O O1 0.750000 0.750000 0.031537
O O2 0.757966 0.878624 0.084017
O O3 0.000000 0.820847 0.034498
O O4 0.798164 0.854254 0.944884
O O5 0.500000 0.610422 0.283399
O O6 0.333324 0.500000 0.291838
O O7 0.263657 0.611887 0.364552
O O8 0.239114 0.608701 0.222709
O O9 0.173316 0.500000 0.430983
O O10 0.217952 0.611206 0.509373
O O11 0.000000 0.606629 0.421487
O O12 0.184153 0.500000 0.587648
O O13 0.255124 0.386853 0.656681
O O14 0.000000 0.397082 0.594778
O O15 0.500000 0.410368 0.722301
O O16 0.709621 0.500000 0.735184
O O17 0.719118 0.376034 0.800314
O O18 0.750000 0.750000 0.858806
O O19 0.000000 0.816435 0.860373
O O20 0.177429 0.500000 0.143438
O O21 0.000000 0.606689 0.144421
#
# Coordination Sequence:
#
# PCOD9348791 Si02
#       7
#     8   8   8   8   8   8   8
#     4  10  20  35  54  73  95 124 160 200 241 288
#     4   9  16  25  39  62  91 122 157 194 232 276
#     4   8  13  22  36  55  84 121 155 187 227 274
#     4   8  14  24  38  59  88 121 155 189 227 272
#     4   9  17  29  45  67  95 123 152 189 233 277
#     4   9  19  34  51  70  92 121 155 192 233 278
#     4  10  20  33  49  71 100 130 160 197 241 286
#
# _framework density 17.216024000000001
#
# number of rings (size 3 to 8) (size 9 to 14) (size 15 to 20)
#    0.000    3.000    0.000    2.143    0.000    4.857 
#    0.000    4.286    0.000    1.714    0.000    1.000 
#    0.000    4.571    0.000    0.000    0.000    0.000 
#
# Total GULP energy -155945.459868 kJ/mol
# GULP energy per Si atom -5569.480710 kJ/mol
# Density = 1.717684 g / cm^3
# Si number density = 17.216024 Si / 1000 Ang^3
#
#
#
# Elastic Constant Matrix: (Units=GPa)
#
#
# Indices 1 2 3 4 5 6 
#
# 1 81.5687 22.6442 85.3372 0.0000 0.0000 0.0000
# 2 22.6442 12.1214 41.7694 0.0000 0.0000 0.0000
# 3 85.3372 41.7694 196.0025 0.0000 0.0000 0.0000
# 4 0.0000 0.0000 0.0000 -11.7563 0.0000 0.0000
# 5 0.0000 0.0000 0.0000 0.0000 35.2526 0.0000
# 6 0.0000 0.0000 0.0000 0.0000 0.0000 16.9061
#
#
#
# Elastic Compliance Matrix: (Units=1/GPa)
#
#
# Indices 1 2 3 4 5 6 
#
# 1 0.026150 -0.036205 -0.003670 0.000000 0.000000 0.000000
# 2 -0.036205 0.360678 -0.061100 0.000000 0.000000 0.000000
# 3 -0.003670 -0.061100 0.019720 0.000000 0.000000 0.000000
# 4 0.000000 0.000000 0.000000 -0.085061 0.000000 0.000000
# 5 0.000000 0.000000 0.000000 0.000000 0.028367 0.000000
# 6 0.000000 0.000000 0.000000 0.000000 0.000000 0.059150
#
#
# Mechanical properties :
#
#
# Convention : Reuss Voigt Hill
#
# Bulk Modulus (GPa) = 4.88760 65.46602 35.17681
# Shear Modulus (GPa) = 7.36211 17.40994 12.38602
#
# Velocity S-wave (km/s) = 2.07017 3.18349 2.68516
# Velocity P-wave (km/s) = 2.92562 7.18481 5.48547
#
# Compressibility (1/GPa) = 0.20459959
#
# Stress axis : x y z
#
# Youngs Moduli (GPa) = 38.24124 2.77255 50.70881
#
# Poissons Ratio (x) = 0.10038 0.18609
# Poissons Ratio (y) = 1.38453 3.09828
# Poissons Ratio (z) = 0.14034 0.16940
#
# Static dielectric constant tensor:
#      x y z
#    x 1.574590 0.000000 0.000000 
#    y 0.000000 1.564280 0.000000 
#    z 0.000000 0.000000 1.600960 
# 
# From -- ./inp_files/18185.got.cif
#   From: 2010.05.17/outbox.cif.g08.bks.cpg/sg35_10_cif.got.tgz:18185.got - 2010.06.03 17:29:28.
