data_PCOD9348245
_publ_section_title
;
Structure prediction by ZEFSAII (Michael W. Deem and Ramdas Pophale) SiO2 
 PCOD9348245
Probable space group: C M M 2
;
_chemical_formula_sum "Si O2"
_cell_formula_units_Z 56
_cell_length_a 8.819126
_cell_length_b 15.331175
_cell_length_c 19.432862
_cell_angle_alpha 90.000000
_cell_angle_beta 90.000000
_cell_angle_gamma 90.000000
_cell_volume 2627.469934
_symmetry_space_group_name_H-M "C M M 2"
_symmetry_group_IT_number 35
_symmetry_cell_setting 'orthorhombic'
loop_
_space_group_symop_operation_xyz
x,y,z
-x,-y,z
-x,y,z
x,-y,z
1/2+x,1/2+y,z
1/2-x,1/2-y,z
1/2-x,1/2+y,z
1/2+x,1/2-y,z
loop_
_atom_site_type_symbol
_atom_site_label
_atom_site_fract_x
_atom_site_fract_y
_atom_site_fract_z
Si Si1 0.168249 0.603420 0.798770
Si Si2 0.683271 0.848178 0.224050
Si Si3 0.182527 0.348710 0.521244
Si Si4 0.320265 0.346661 0.659198
Si Si5 0.331305 0.396845 0.934050
Si Si6 0.816881 0.651920 0.372083
Si Si7 0.818132 0.347058 0.075260
O O1 0.152039 0.500000 0.809196
O O2 0.270682 0.613889 0.731653
O O3 0.241480 0.640103 0.868535
O O4 0.000000 0.640830 0.786321
O O5 0.500000 0.843172 0.223809
O O6 0.750000 0.750000 0.224236
O O7 0.728088 0.888388 0.298088
O O8 0.725806 0.887798 0.149798
O O9 0.250000 0.250000 0.519154
O O10 0.250122 0.389797 0.590471
O O11 0.223978 0.388106 0.446376
O O12 0.000000 0.345429 0.527147
O O13 0.500000 0.343867 0.652571
O O14 0.250000 0.250000 0.661107
O O15 0.500000 0.358167 0.939014
O O16 0.346397 0.500000 0.921366
O O17 0.246695 0.388213 0.006289
O O18 0.750000 0.750000 0.371766
O O19 0.000000 0.657351 0.372368
O O20 0.750000 0.250000 0.076119
O O21 0.000000 0.345322 0.071330
#
# Coordination Sequence:
#
# PCOD9348245 Si02
#       7
#     8   8   8   8   8   8   8
#     4  10  21  38  58  77  97 122 156 197 241 291
#     4   8  14  24  38  60  90 123 157 194 235 278
#     4   9  15  24  39  61  91 125 160 197 238 282
#     4  11  21  33  50  73 103 133 163 199 240 285
#     4  10  21  37  55  74  97 125 159 198 240 288
#     4   8  13  21  35  56  85 121 157 193 233 277
#     4  10  19  31  49  73 102 132 163 200 242 287
#
# _framework density 21.313278
#
# number of rings (size 3 to 8) (size 9 to 14) (size 15 to 20)
#    0.000    2.571    0.000    3.857    0.000    3.429 
#    0.000    2.857    0.000    0.000    0.000    1.000 
#    0.000    3.429    0.000    0.000    0.000    0.000 
#
# Total GULP energy -155988.914166 kJ/mol
# GULP energy per Si atom -5571.032649 kJ/mol
# Density = 2.126477 g / cm^3
# Si number density = 21.313278 Si / 1000 Ang^3
#
#
#
# Elastic Constant Matrix: (Units=GPa)
#
#
# Indices 1 2 3 4 5 6 
#
# 1 106.6591 4.4825 73.1867 0.0000 0.0000 0.0000
# 2 4.4825 26.5438 9.8980 0.0000 0.0000 0.0000
# 3 73.1867 9.8980 240.7149 0.0000 0.0000 0.0000
# 4 0.0000 0.0000 0.0000 47.0808 0.0000 0.0000
# 5 0.0000 0.0000 0.0000 0.0000 -43.1701 0.0000
# 6 0.0000 0.0000 0.0000 0.0000 0.0000 9.4472
#
#
#
# Elastic Compliance Matrix: (Units=1/GPa)
#
#
# Indices 1 2 3 4 5 6 
#
# 1 0.011859 -0.000668 -0.003578 0.000000 0.000000 0.000000
# 2 -0.000668 0.038298 -0.001372 0.000000 0.000000 0.000000
# 3 -0.003578 -0.001372 0.005299 0.000000 0.000000 0.000000
# 4 0.000000 0.000000 0.000000 0.021240 0.000000 0.000000
# 5 0.000000 0.000000 0.000000 0.000000 -0.023164 0.000000
# 6 0.000000 0.000000 0.000000 0.000000 0.000000 0.105851
#
#
# Mechanical properties :
#
#
# Convention : Reuss Voigt Hill
#
# Bulk Modulus (GPa) = 22.61457 61.00578 41.81018
# Shear Modulus (GPa) = 26.97480 21.76165 24.36822
#
# Velocity S-wave (km/s) = 3.56143 3.19883 3.38499
# Velocity P-wave (km/s) = 5.24837 6.50607 5.91076
#
# Compressibility (1/GPa) = 0.04421928
#
# Stress axis : x y z
#
# Youngs Moduli (GPa) = 84.32449 26.11113 188.73016
#
# Poissons Ratio (x) = 0.01745 0.67530
# Poissons Ratio (y) = 0.05636 0.25885
# Poissons Ratio (z) = 0.30172 0.03581
#
# Static dielectric constant tensor:
#      x y z
#    x 1.755880 0.000000 0.000000 
#    y 0.000000 1.769390 0.000000 
#    z 0.000000 0.000000 1.861930 
# 
# From -- ./inp_files/18196.got.cif
#   From: 2010.05.17/outbox.cif.g08.bks.cpg/sg35_10_cif.got.tgz:18196.got - 2010.06.03 17:29:28.
