data_PCOD9348130
_publ_section_title
;
Structure prediction by ZEFSAII (Michael W. Deem and Ramdas Pophale) SiO2 
 PCOD9348130
Probable space group: C M M 2
;
_chemical_formula_sum "Si O2"
_cell_formula_units_Z 64
_cell_length_a 15.121882
_cell_length_b 21.935296
_cell_length_c 8.753047
_cell_angle_alpha 90.000000
_cell_angle_beta 90.000000
_cell_angle_gamma 90.000000
_cell_volume 2903.411579
_symmetry_space_group_name_H-M "C M M 2"
_symmetry_group_IT_number 35
_symmetry_cell_setting 'orthorhombic'
loop_
_space_group_symop_operation_xyz
x,y,z
-x,-y,z
-x,y,z
x,-y,z
1/2+x,1/2+y,z
1/2-x,1/2-y,z
1/2-x,1/2+y,z
1/2+x,1/2-y,z
loop_
_atom_site_type_symbol
_atom_site_label
_atom_site_fract_x
_atom_site_fract_y
_atom_site_fract_z
Si Si1 0.735407 0.569915 0.441010
Si Si2 0.895715 0.723751 0.077665
Si Si3 0.094514 0.094441 0.677148
Si Si4 0.100801 0.426465 0.639797
Si Si5 0.803910 0.383158 0.945684
Si Si6 0.897888 0.161339 0.265783
Si Si7 0.825827 0.210478 0.775854
Si Si8 0.131138 0.064524 0.020941
O O1 0.740781 0.500000 0.377179
O O2 0.676699 0.565404 0.593722
O O3 0.830848 0.591352 0.504681
O O4 0.676795 0.621189 0.353272
O O5 0.852520 0.657087 0.073162
O O6 0.873773 0.750884 0.908034
O O7 0.000000 0.718659 0.092183
O O8 0.866645 0.772014 0.207420
O O9 0.109502 0.167953 0.679488
O O10 0.097119 0.070838 0.849307
O O11 0.000000 0.078886 0.607259
O O12 0.102028 0.500000 0.641410
O O13 0.134223 0.404978 0.807174
O O14 0.000000 0.405501 0.614754
O O15 0.733514 0.337885 0.867361
O O16 0.738155 0.432391 0.016280
O O17 0.000000 0.165103 0.327319
O O18 0.904460 0.121539 0.112195
O O19 0.750000 0.250000 0.691232
O O20 0.103172 0.000000 0.088257
#
# Coordination Sequence:
#
# PCOD9348130 Si02
#       8
#     8   8   8   8   8   8   8   8
#     4  11  23  39  58  89 129 172 213 258 319 385
#     4  10  19  34  57  87 120 159 210 258 309 372
#     4  11  20  33  56  87 126 166 210 262 317 379
#     4  10  20  37  63  95 129 167 217 273 328 385
#     4  10  18  33  59  89 121 155 205 261 321 373
#     4  11  23  38  57  88 128 171 213 254 309 383
#     4   9  17  30  53  81 116 148 196 251 312 368
#     4  11  21  34  56  87 127 165 209 258 314 385
#
# _framework density 22.043032
#
# number of rings (size 3 to 8) (size 9 to 14) (size 15 to 20)
#    0.000    1.625    5.000    2.625    0.000    3.000 
#    0.000    0.000    2.750    1.500    0.000    1.750 
#    0.000    0.000    0.000    0.000    0.000    0.000 
#
# Total GULP energy -178372.130357 kJ/mol
# GULP energy per Si atom -5574.129074 kJ/mol
# Density = 2.199286 g / cm^3
# Si number density = 22.043032 Si / 1000 Ang^3
#
#
#
# Elastic Constant Matrix: (Units=GPa)
#
#
# Indices 1 2 3 4 5 6 
#
# 1 158.6912 36.8766 28.1582 0.0000 0.0000 0.0000
# 2 36.8766 84.9094 8.6813 0.0000 0.0000 0.0000
# 3 28.1582 8.6813 55.3954 0.0000 0.0000 0.0000
# 4 0.0000 0.0000 0.0000 24.7318 0.0000 0.0000
# 5 0.0000 0.0000 0.0000 0.0000 26.4507 0.0000
# 6 0.0000 0.0000 0.0000 0.0000 0.0000 -11.7686
#
#
#
# Elastic Compliance Matrix: (Units=1/GPa)
#
#
# Indices 1 2 3 4 5 6 
#
# 1 0.007589 -0.002949 -0.003396 0.000000 0.000000 0.000000
# 2 -0.002949 0.013115 -0.000556 0.000000 0.000000 0.000000
# 3 -0.003396 -0.000556 0.019865 0.000000 0.000000 0.000000
# 4 0.000000 0.000000 0.000000 0.040434 0.000000 0.000000
# 5 0.000000 0.000000 0.000000 0.000000 0.037806 0.000000
# 6 0.000000 0.000000 0.000000 0.000000 0.000000 -0.084972
#
#
# Mechanical properties :
#
#
# Convention : Reuss Voigt Hill
#
# Bulk Modulus (GPa) = 37.35837 49.60313 43.48075
# Shear Modulus (GPa) = 88.39843 22.90142 55.64992
#
# Velocity S-wave (km/s) = 6.33954 3.22676 5.02999
# Velocity P-wave (km/s) = 8.40066 6.03609 7.31455
#
# Compressibility (1/GPa) = 0.02676776
#
# Stress axis : x y z
#
# Youngs Moduli (GPa) = 131.76382 76.24938 50.33910
#
# Poissons Ratio (x) = 0.22485 0.17093
# Poissons Ratio (y) = 0.38856 0.02800
# Poissons Ratio (z) = 0.44742 0.04242
#
# Static dielectric constant tensor:
#      x y z
#    x 1.852510 0.000000 0.000000 
#    y 0.000000 1.889790 0.000000 
#    z 0.000000 0.000000 1.875670 
# 
# From -- ./inp_files/7826.got.cif
#   From: 2010.05.17/outbox.cif.g08.bks.cpg/sg35_4_cif.got.tgz:7826.got - 2010.06.03 17:29:28.
