data_PCOD9348513
_publ_section_title
;
Structure prediction by ZEFSAII (Michael W. Deem and Ramdas Pophale) SiO2 
 PCOD9348513
Probable space group: C M M 2
;
_chemical_formula_sum "Si O2"
_cell_formula_units_Z 48
_cell_length_a 18.531325
_cell_length_b 14.153033
_cell_length_c 9.783478
_cell_angle_alpha 90.000000
_cell_angle_beta 90.000000
_cell_angle_gamma 90.000000
_cell_volume 2565.956353
_symmetry_space_group_name_H-M "C M M 2"
_symmetry_group_IT_number 35
_symmetry_cell_setting 'orthorhombic'
loop_
_space_group_symop_operation_xyz
x,y,z
-x,-y,z
-x,y,z
x,-y,z
1/2+x,1/2+y,z
1/2-x,1/2-y,z
1/2-x,1/2+y,z
1/2+x,1/2-y,z
loop_
_atom_site_type_symbol
_atom_site_label
_atom_site_fract_x
_atom_site_fract_y
_atom_site_fract_z
Si Si1 0.581301 0.886986 0.407140
Si Si2 0.834954 0.109260 0.774855
Si Si3 0.282935 0.391333 0.089312
Si Si4 0.919839 0.286541 0.835758
Si Si5 0.867864 0.712251 0.140097
Si Si6 0.310324 0.886612 0.644670
O O1 0.500000 0.872134 0.462792
O O2 0.590231 0.829952 0.267508
O O3 0.645099 0.857341 0.510494
O O4 0.588695 0.000000 0.382491
O O5 0.900640 0.181769 0.781242
O O6 0.772750 0.141781 0.669116
O O7 0.854309 0.000000 0.749748
O O8 0.799073 0.114346 0.926490
O O9 0.290245 0.500000 0.131796
O O10 0.203299 0.352144 0.117470
O O11 0.338355 0.318808 0.159696
O O12 0.858422 0.351467 0.770668
O O13 0.000000 0.315971 0.796718
O O14 0.911650 0.288242 0.999012
O O15 0.309164 0.000000 0.645877
#
# Coordination Sequence:
#
# PCOD9348513 Si02
#       6
#     8   8   8   8   8   8
#     4  10  21  36  53  78 113 146 179 227 286 340
#     4   9  18  35  57  78 105 143 185 229 267 315
#     4   9  17  32  54  79 107 139 183 231 267 312
#     4  11  21  33  54  84 113 142 179 225 279 335
#     4  10  19  33  54  79 109 145 180 223 277 333
#     4  10  20  36  57  77 105 146 186 227 273 323
#
# _framework density 18.706474
#
# number of rings (size 3 to 8) (size 9 to 14) (size 15 to 20)
#    0.000    2.167    1.667    2.000    0.000    2.000 
#    6.000    0.000    0.000    1.500    0.000    0.000 
#    0.000    0.000    0.000    0.000    0.000    0.000 
#
# Total GULP energy -133878.791208 kJ/mol
# GULP energy per Si atom -5578.282967 kJ/mol
# Density = 1.866390 g / cm^3
# Si number density = 18.706474 Si / 1000 Ang^3
#
#
#
# Elastic Constant Matrix: (Units=GPa)
#
#
# Indices 1 2 3 4 5 6 
#
# 1 39.3163 -5.0482 15.1498 0.0000 0.0000 0.0000
# 2 -5.0482 46.2896 23.4381 0.0000 0.0000 0.0000
# 3 15.1498 23.4381 61.7469 0.0000 0.0000 0.0000
# 4 0.0000 0.0000 0.0000 20.5283 0.0000 0.0000
# 5 0.0000 0.0000 0.0000 0.0000 10.7387 0.0000
# 6 0.0000 0.0000 0.0000 0.0000 0.0000 17.8773
#
#
#
# Elastic Compliance Matrix: (Units=1/GPa)
#
#
# Indices 1 2 3 4 5 6 
#
# 1 0.030788 0.008891 -0.010929 0.000000 0.000000 0.000000
# 2 0.008891 0.029311 -0.013307 0.000000 0.000000 0.000000
# 3 -0.010929 -0.013307 0.023928 0.000000 0.000000 0.000000
# 4 0.000000 0.000000 0.000000 0.048713 0.000000 0.000000
# 5 0.000000 0.000000 0.000000 0.000000 0.093121 0.000000
# 6 0.000000 0.000000 0.000000 0.000000 0.000000 0.055937
#
#
# Mechanical properties :
#
#
# Convention : Reuss Voigt Hill
#
# Bulk Modulus (GPa) = 18.74895 23.82580 21.28738
# Shear Modulus (GPa) = 15.13931 17.41640 16.27786
#
# Velocity S-wave (km/s) = 2.84792 3.05460 2.95307
# Velocity P-wave (km/s) = 4.56713 5.02047 4.79915
#
# Compressibility (1/GPa) = 0.05333631
#
# Stress axis : x y z
#
# Youngs Moduli (GPa) = 32.48062 34.11716 41.79236
#
# Poissons Ratio (x) = -0.30334 0.45674
# Poissons Ratio (y) = -0.28879 0.55615
# Poissons Ratio (z) = 0.35497 0.45401
#
# Static dielectric constant tensor:
#      x y z
#    x 1.638980 0.000000 0.000000 
#    y 0.000000 1.652460 0.000000 
#    z 0.000000 0.000000 1.644260 
# 
# From -- ./inp_files/7298.got.cif
#   From: 2010.05.17/outbox.cif.g08.bks.cpg/sg35_4_cif.got.tgz:7298.got - 2010.06.03 17:29:28.
