data_PCOD9348481
_publ_section_title
;
Structure prediction by ZEFSAII (Michael W. Deem and Ramdas Pophale) SiO2 
 PCOD9348481
Probable space group: C M M 2
;
_chemical_formula_sum "Si O2"
_cell_formula_units_Z 56
_cell_length_a 19.490279
_cell_length_b 8.634452
_cell_length_c 18.442394
_cell_angle_alpha 90.000000
_cell_angle_beta 90.000000
_cell_angle_gamma 90.000000
_cell_volume 3103.631361
_symmetry_space_group_name_H-M "C M M 2"
_symmetry_group_IT_number 35
_symmetry_cell_setting 'orthorhombic'
loop_
_space_group_symop_operation_xyz
x,y,z
-x,-y,z
-x,y,z
x,-y,z
1/2+x,1/2+y,z
1/2-x,1/2-y,z
1/2-x,1/2+y,z
1/2+x,1/2-y,z
loop_
_atom_site_type_symbol
_atom_site_label
_atom_site_fract_x
_atom_site_fract_y
_atom_site_fract_z
Si Si1 0.079456 0.313117 0.798220
Si Si2 0.173167 0.813595 0.237877
Si Si3 0.078443 0.811499 0.370293
Si Si4 0.080077 0.187015 0.534710
Si Si5 0.580557 0.315324 0.956511
Si Si6 0.673221 0.815745 0.083984
Si Si7 0.673071 0.814359 0.663055
O O1 0.081786 0.500000 0.803668
O O2 0.098561 0.242044 0.875785
O O3 0.130215 0.263729 0.734215
O O4 0.000000 0.269704 0.782052
O O5 0.250000 0.750000 0.246021
O O6 0.127705 0.760565 0.305840
O O7 0.146857 0.752789 0.160390
O O8 0.174547 0.000000 0.236074
O O9 0.097856 0.764937 0.452138
O O10 0.000000 0.762579 0.357351
O O11 0.078871 0.000000 0.370107
O O12 0.130512 0.258615 0.593301
O O13 0.000000 0.229164 0.547903
O O14 0.084181 0.000000 0.538465
O O15 0.500000 0.278408 0.967426
O O16 0.589052 0.500000 0.960857
O O17 0.626064 0.235489 0.017558
O O18 0.750000 0.750000 0.073578
O O19 0.676781 0.000000 0.089303
O O20 0.750000 0.750000 0.663242
O O21 0.675713 0.000000 0.663167
#
# Coordination Sequence:
#
# PCOD9348481 Si02
#       7
#     8   8   8   8   8   8   8
#     4   9  19  37  58  78 104 140 179 220 268 318
#     4  10  19  33  53  76 105 140 178 219 265 318
#     4   8  16  32  54  79 105 136 175 218 264 314
#     4   9  18  35  58  81 107 141 180 220 266 321
#     4  10  21  37  58  84 111 140 177 218 262 316
#     4  11  22  37  56  78 108 144 182 222 267 318
#     4  11  23  37  54  79 111 144 180 222 267 315
#
# _framework density 18.043379999999999
#
# number of rings (size 3 to 8) (size 9 to 14) (size 15 to 20)
#    0.000    2.286    0.000    4.714    0.000    4.571 
#    0.000    7.143    0.000    3.000    0.000    0.000 
#    0.000    0.000    0.000    0.000    0.000    0.000 
#
# Total GULP energy -156293.799683 kJ/mol
# GULP energy per Si atom -5581.921417 kJ/mol
# Density = 1.800231 g / cm^3
# Si number density = 18.043380 Si / 1000 Ang^3
#
#
#
# Elastic Constant Matrix: (Units=GPa)
#
#
# Indices 1 2 3 4 5 6 
#
# 1 101.0868 42.3694 114.2908 0.0000 0.0000 0.0000
# 2 42.3694 54.5184 54.4758 0.0000 0.0000 0.0000
# 3 114.2908 54.4758 187.6507 0.0000 0.0000 0.0000
# 4 0.0000 0.0000 0.0000 29.4158 0.0000 0.0000
# 5 0.0000 0.0000 0.0000 0.0000 75.2177 0.0000
# 6 0.0000 0.0000 0.0000 0.0000 0.0000 18.9191
#
#
#
# Elastic Compliance Matrix: (Units=1/GPa)
#
#
# Indices 1 2 3 4 5 6 
#
# 1 0.034136 -0.008106 -0.018438 0.000000 0.000000 0.000000
# 2 -0.008106 0.027762 -0.003123 0.000000 0.000000 0.000000
# 3 -0.018438 -0.003123 0.017465 0.000000 0.000000 0.000000
# 4 0.000000 0.000000 0.000000 0.033995 0.000000 0.000000
# 5 0.000000 0.000000 0.000000 0.000000 0.013295 0.000000
# 6 0.000000 0.000000 0.000000 0.000000 0.000000 0.052857
#
#
# Mechanical properties :
#
#
# Convention : Reuss Voigt Hill
#
# Bulk Modulus (GPa) = 49.92216 85.05866 67.49041
# Shear Modulus (GPa) = 20.36496 33.51851 26.94173
#
# Velocity S-wave (km/s) = 3.36321 4.31474 3.86834
# Velocity P-wave (km/s) = 6.54289 8.48918 7.57877
#
# Compressibility (1/GPa) = 0.02003119
#
# Stress axis : x y z
#
# Youngs Moduli (GPa) = 29.29436 36.02052 57.25608
#
# Poissons Ratio (x) = 0.29197 1.05569
# Poissons Ratio (y) = 0.23745 0.17878
# Poissons Ratio (z) = 0.54013 0.11248
#
# Static dielectric constant tensor:
#      x y z
#    x 1.595710 0.000000 0.000000 
#    y 0.000000 1.610130 0.000000 
#    z 0.000000 0.000000 1.607040 
# 
# From -- ./inp_files/17405.got.cif
#   From: 2010.05.17/outbox.cif.g08.bks.cpg/sg35_9_cif.got.tgz:17405.got - 2010.06.03 17:29:28.
