data_PCOD9348402
_publ_section_title
;
Structure prediction by ZEFSAII (Michael W. Deem and Ramdas Pophale) SiO2 
 PCOD9348402
Probable space group: C M M 2
;
_chemical_formula_sum "Si O2"
_cell_formula_units_Z 48
_cell_length_a 8.698625
_cell_length_b 15.685517
_cell_length_c 17.753905
_cell_angle_alpha 90.000000
_cell_angle_beta 90.000000
_cell_angle_gamma 90.000000
_cell_volume 2422.385946
_symmetry_space_group_name_H-M "C M M 2"
_symmetry_group_IT_number 35
_symmetry_cell_setting 'orthorhombic'
loop_
_space_group_symop_operation_xyz
x,y,z
-x,-y,z
-x,y,z
x,-y,z
1/2+x,1/2+y,z
1/2-x,1/2-y,z
1/2-x,1/2+y,z
1/2+x,1/2-y,z
loop_
_atom_site_type_symbol
_atom_site_label
_atom_site_fract_x
_atom_site_fract_y
_atom_site_fract_z
Si Si1 0.685192 0.654080 0.048740
Si Si2 0.183040 0.500000 0.491012
Si Si3 0.813450 0.000000 0.323223
Si Si4 0.685842 0.654050 0.214906
Si Si5 0.318357 0.660509 0.579711
Si Si6 0.323776 0.900507 0.729809
Si Si7 0.314781 0.346390 0.885310
O O1 0.500000 0.656583 0.048231
O O2 0.750000 0.750000 0.047831
O O3 0.731267 0.620444 0.130971
O O4 0.729569 0.615631 0.967573
O O5 0.243069 0.500000 0.405783
O O6 0.245270 0.583010 0.533874
O O7 0.000000 0.500000 0.493294
O O8 0.767252 0.084801 0.276842
O O9 0.000000 0.000000 0.328159
O O10 0.500000 0.659723 0.216390
O O11 0.750000 0.750000 0.225433
O O12 0.500000 0.659313 0.571013
O O13 0.250000 0.750000 0.553339
O O14 0.273894 0.648117 0.667323
O O15 0.500000 0.869489 0.728458
O O16 0.255892 0.891523 0.813055
O O17 0.323178 0.000000 0.708886
O O18 0.500000 0.345661 0.879663
O O19 0.250000 0.250000 0.883396
#
# Coordination Sequence:
#
# PCOD9348402 Si02
#       7
#     8   4   4   8   8   8   8
#     4   8  15  29  50  78 109 150 196 247 298 349
#     4  12  26  46  68  95 130 161 200 253 306 367
#     4  10  22  40  62  89 122 159 198 243 304 371
#     4   9  18  35  59  86 118 157 201 248 302 360
#     4  12  25  44  71  98 126 162 205 250 306 369
#     4  11  23  39  58  82 120 162 204 253 306 359
#     4  10  19  32  52  80 114 153 203 252 301 356
#
# _framework density 19.815173999999999
#
# number of rings (size 3 to 8) (size 9 to 14) (size 15 to 20)
#    0.000    1.833    0.833    3.750    0.000    3.000 
#    1.500    1.667    0.000    0.000    0.000    0.000 
#    0.000    0.000    0.000    0.000    0.000    0.000 
#
# Total GULP energy -133983.217219 kJ/mol
# GULP energy per Si atom -5582.634051 kJ/mol
# Density = 1.977007 g / cm^3
# Si number density = 19.815174 Si / 1000 Ang^3
#
#
#
# Elastic Constant Matrix: (Units=GPa)
#
#
# Indices 1 2 3 4 5 6 
#
# 1 87.6008 38.2122 49.4455 0.0000 0.0000 0.0000
# 2 38.2122 108.3719 67.2296 0.0000 0.0000 0.0000
# 3 49.4455 67.2296 160.9302 0.0000 0.0000 0.0000
# 4 0.0000 0.0000 0.0000 39.4787 0.0000 0.0000
# 5 0.0000 0.0000 0.0000 0.0000 24.6507 0.0000
# 6 0.0000 0.0000 0.0000 0.0000 0.0000 24.0545
#
#
#
# Elastic Compliance Matrix: (Units=1/GPa)
#
#
# Indices 1 2 3 4 5 6 
#
# 1 0.014584 -0.003189 -0.003149 0.000000 0.000000 0.000000
# 2 -0.003189 0.013153 -0.004515 0.000000 0.000000 0.000000
# 3 -0.003149 -0.004515 0.009067 0.000000 0.000000 0.000000
# 4 0.000000 0.000000 0.000000 0.025330 0.000000 0.000000
# 5 0.000000 0.000000 0.000000 0.000000 0.040567 0.000000
# 6 0.000000 0.000000 0.000000 0.000000 0.000000 0.041572
#
#
# Mechanical properties :
#
#
# Convention : Reuss Voigt Hill
#
# Bulk Modulus (GPa) = 66.22962 74.07528 70.15245
# Shear Modulus (GPa) = 29.23793 31.10449 30.17121
#
# Velocity S-wave (km/s) = 3.84543 3.96628 3.90632
# Velocity P-wave (km/s) = 7.29470 7.64457 7.47169
#
# Compressibility (1/GPa) = 0.01509899
#
# Stress axis : x y z
#
# Youngs Moduli (GPa) = 68.56986 76.02974 110.28549
#
# Poissons Ratio (x) = 0.24246 0.34724
# Poissons Ratio (y) = 0.21867 0.49792
# Poissons Ratio (z) = 0.21590 0.34326
#
# Static dielectric constant tensor:
#      x y z
#    x 1.667870 0.000000 0.000000 
#    y 0.000000 1.685200 0.000000 
#    z 0.000000 0.000000 1.719730 
# 
# From -- ./inp_files/17862.got.cif
#   From: 2010.05.17/outbox.cif.g08.bks.cpg/sg35_9_cif.got.tgz:17862.got - 2010.06.03 17:29:28.
