data_PCOD9348853
_publ_section_title
;
Structure prediction by ZEFSAII (Michael W. Deem and Ramdas Pophale) SiO2 
 PCOD9348853
Probable space group: C M M 2
;
_chemical_formula_sum "Si O2"
_cell_formula_units_Z 48
_cell_length_a 8.872249
_cell_length_b 18.466372
_cell_length_c 16.257336
_cell_angle_alpha 90.000000
_cell_angle_beta 90.000000
_cell_angle_gamma 90.000000
_cell_volume 2663.573488
_symmetry_space_group_name_H-M "C M M 2"
_symmetry_group_IT_number 35
_symmetry_cell_setting 'orthorhombic'
loop_
_space_group_symop_operation_xyz
x,y,z
-x,-y,z
-x,y,z
x,-y,z
1/2+x,1/2+y,z
1/2-x,1/2-y,z
1/2-x,1/2+y,z
1/2+x,1/2-y,z
loop_
_atom_site_type_symbol
_atom_site_label
_atom_site_fract_x
_atom_site_fract_y
_atom_site_fract_z
Si Si1 0.820686 0.830036 0.576940
Si Si2 0.819019 0.584130 0.243585
Si Si3 0.824205 0.088239 0.895520
Si Si4 0.680901 0.414162 0.075614
Si Si5 0.318461 0.830117 0.407783
Si Si6 0.825228 0.412758 0.725945
O O1 0.750000 0.750000 0.587210
O O2 0.749175 0.860898 0.492604
O O3 0.774083 0.877258 0.655075
O O4 0.000000 0.824612 0.568803
O O5 0.772019 0.500000 0.250901
O O6 0.751163 0.615924 0.159251
O O7 0.776207 0.625486 0.326506
O O8 0.000000 0.586009 0.236914
O O9 0.729484 0.111025 0.816517
O O10 0.000000 0.108014 0.884780
O O11 0.819654 0.000000 0.898239
O O12 0.770935 0.114205 0.985704
O O13 0.500000 0.408399 0.078844
O O14 0.719214 0.500000 0.075970
O O15 0.500000 0.827116 0.413924
O O16 0.250000 0.750000 0.400047
O O17 0.811647 0.500000 0.722456
O O18 0.000000 0.393577 0.713402
#
# Coordination Sequence:
#
# PCOD9348853 Si02
#       6
#     8   8   8   8   8   8
#     4  11  22  37  56  75  98 130 168 207 250 302
#     4   9  18  31  48  72 100 128 159 199 246 291
#     4   8  14  26  44  68  99 132 164 199 242 291
#     4   8  14  25  43  68  98 130 162 198 240 286
#     4  10  20  35  53  72  96 128 165 202 244 295
#     4  10  20  33  51  77 106 134 166 206 250 294
#
# _framework density 18.020904000000002
#
# number of rings (size 3 to 8) (size 9 to 14) (size 15 to 20)
#    0.000    2.667    0.000    4.500    0.000    3.667 
#    0.000    5.000    0.000    1.000    0.000    2.333 
#    0.000    0.000    0.000    0.000    0.000    0.000 
#
# Total GULP energy -133756.247027 kJ/mol
# GULP energy per Si atom -5573.176959 kJ/mol
# Density = 1.797989 g / cm^3
# Si number density = 18.020904 Si / 1000 Ang^3
#
#
#
# Elastic Constant Matrix: (Units=GPa)
#
#
# Indices 1 2 3 4 5 6 
#
# 1 71.7137 15.9492 55.2871 0.0000 0.0000 0.0000
# 2 15.9492 12.4027 32.6624 0.0000 0.0000 0.0000
# 3 55.2871 32.6624 180.1468 0.0000 0.0000 0.0000
# 4 0.0000 0.0000 0.0000 -39.2838 0.0000 0.0000
# 5 0.0000 0.0000 0.0000 0.0000 38.1186 0.0000
# 6 0.0000 0.0000 0.0000 0.0000 0.0000 18.0209
#
#
#
# Elastic Compliance Matrix: (Units=1/GPa)
#
#
# Indices 1 2 3 4 5 6 
#
# 1 0.020272 -0.018534 -0.002861 0.000000 0.000000 0.000000
# 2 -0.018534 0.171249 -0.025361 0.000000 0.000000 0.000000
# 3 -0.002861 -0.025361 0.011027 0.000000 0.000000 0.000000
# 4 0.000000 0.000000 0.000000 -0.025456 0.000000 0.000000
# 5 0.000000 0.000000 0.000000 0.000000 0.026234 0.000000
# 6 0.000000 0.000000 0.000000 0.000000 0.000000 0.055491
#
#
# Mechanical properties :
#
#
# Convention : Reuss Voigt Hill
#
# Bulk Modulus (GPa) = 9.17125 52.45115 30.81120
# Shear Modulus (GPa) = 12.86419 14.06213 13.46316
#
# Velocity S-wave (km/s) = 2.67469 2.79646 2.73625
# Velocity P-wave (km/s) = 3.82608 6.29252 5.20743
#
# Compressibility (1/GPa) = 0.10903636
#
# Stress axis : x y z
#
# Youngs Moduli (GPa) = 49.32899 5.83944 90.68392
#
# Poissons Ratio (x) = 0.10823 0.25946
# Poissons Ratio (y) = 0.91426 2.29984
# Poissons Ratio (z) = 0.14114 0.14809
#
# Static dielectric constant tensor:
#      x y z
#    x 1.603360 0.000000 0.000000 
#    y 0.000000 1.608530 0.000000 
#    z 0.000000 0.000000 1.646580 
# 
# From -- ./inp_files/15375.got.cif
#   From: 2010.05.17/outbox.cif.g08.bks.cpg/sg35_8_cif.got.tgz:15375.got - 2010.06.03 17:29:28.
