data_PCOD9348509
_publ_section_title
;
Structure prediction by ZEFSAII (Michael W. Deem and Ramdas Pophale) SiO2 
 PCOD9348509
Probable space group: C M M 2
;
_chemical_formula_sum "Si O2"
_cell_formula_units_Z 48
_cell_length_a 8.276812
_cell_length_b 18.629886
_cell_length_c 16.261551
_cell_angle_alpha 90.000000
_cell_angle_beta 90.000000
_cell_angle_gamma 90.000000
_cell_volume 2507.467159
_symmetry_space_group_name_H-M "C M M 2"
_symmetry_group_IT_number 35
_symmetry_cell_setting 'orthorhombic'
loop_
_space_group_symop_operation_xyz
x,y,z
-x,-y,z
-x,y,z
x,-y,z
1/2+x,1/2+y,z
1/2-x,1/2-y,z
1/2-x,1/2+y,z
1/2+x,1/2-y,z
loop_
_atom_site_type_symbol
_atom_site_label
_atom_site_fract_x
_atom_site_fract_y
_atom_site_fract_z
Si Si1 0.805986 0.832756 0.500000
Si Si2 0.302285 0.582688 0.020168
Si Si3 0.804435 0.167333 0.858786
Si Si4 0.193033 0.418193 0.340851
Si Si5 0.694852 0.332818 0.679606
Si Si6 0.307040 0.331795 0.181465
O O1 0.750000 0.750000 0.491390
O O2 0.743202 0.879687 0.425057
O O3 0.750932 0.860962 0.590387
O O4 0.000000 0.833157 0.498198
O O5 0.500000 0.583296 0.020093
O O6 0.251309 0.500000 0.024525
O O7 0.247392 0.626990 0.099893
O O8 0.248390 0.620805 0.936051
O O9 0.750000 0.250000 0.867294
O O10 0.750656 0.138589 0.768690
O O11 0.000000 0.166837 0.859311
O O12 0.254931 0.500000 0.337680
O O13 0.253839 0.373218 0.263112
O O14 0.000000 0.419844 0.337269
O O15 0.500000 0.335828 0.679382
O O16 0.750000 0.250000 0.679929
O O17 0.500000 0.331983 0.178828
O O18 0.250000 0.250000 0.182590
#
# Coordination Sequence:
#
# PCOD9348509 Si02
#       6
#     8   8   8   8   8   8
#     4  10  19  33  54  79 107 138 176 218 259 306
#     4   9  18  32  51  76 105 137 171 208 253 304
#     4   9  16  29  50  75 103 134 171 212 252 297
#     4  11  24  40  56  76 104 137 172 212 261 313
#     4   8  15  27  46  74 103 133 169 210 254 296
#     4  11  22  37  58  81 105 134 172 215 258 307
#
# _framework density 19.142823
#
# number of rings (size 3 to 8) (size 9 to 14) (size 15 to 20)
#    0.000    2.333    0.000    3.000    0.000    2.667 
#    0.000    1.667    0.000    5.500    0.000    0.000 
#    0.000    0.000    0.000    0.000    0.000    0.000 
#
# Total GULP energy -133867.904293 kJ/mol
# GULP energy per Si atom -5577.829346 kJ/mol
# Density = 1.909925 g / cm^3
# Si number density = 19.142823 Si / 1000 Ang^3
#
#
#
# Elastic Constant Matrix: (Units=GPa)
#
#
# Indices 1 2 3 4 5 6 
#
# 1 23.6960 16.6804 24.8410 0.0000 0.0000 0.0000
# 2 16.6804 136.4963 114.8940 0.0000 0.0000 0.0000
# 3 24.8410 114.8940 245.2986 0.0000 0.0000 0.0000
# 4 0.0000 0.0000 0.0000 -10.6188 0.0000 0.0000
# 5 0.0000 0.0000 0.0000 0.0000 9.3425 0.0000
# 6 0.0000 0.0000 0.0000 0.0000 0.0000 11.1743
#
#
#
# Elastic Compliance Matrix: (Units=1/GPa)
#
#
# Indices 1 2 3 4 5 6 
#
# 1 0.047910 -0.002923 -0.003482 0.000000 0.000000 0.000000
# 2 -0.002923 0.012273 -0.005452 0.000000 0.000000 0.000000
# 3 -0.003482 -0.005452 0.006983 0.000000 0.000000 0.000000
# 4 0.000000 0.000000 0.000000 -0.094173 0.000000 0.000000
# 5 0.000000 0.000000 0.000000 0.000000 0.107038 0.000000
# 6 0.000000 0.000000 0.000000 0.000000 0.000000 0.089491
#
#
# Mechanical properties :
#
#
# Convention : Reuss Voigt Hill
#
# Bulk Modulus (GPa) = 23.01528 79.81353 51.41441
# Shear Modulus (GPa) = 24.07061 18.58463 21.32762
#
# Velocity S-wave (km/s) = 3.54986 3.11921 3.34148
# Velocity P-wave (km/s) = 5.37132 7.39979 6.46560
#
# Compressibility (1/GPa) = 0.04344939
#
# Stress axis : x y z
#
# Youngs Moduli (GPa) = 20.87248 81.47993 143.20197
#
# Poissons Ratio (x) = 0.23821 0.49869
# Poissons Ratio (y) = 0.06102 0.78079
# Poissons Ratio (z) = 0.07269 0.44426
#
# Static dielectric constant tensor:
#      x y z
#    x 1.653790 0.000000 0.000000 
#    y 0.000000 1.616680 0.000000 
#    z 0.000000 0.000000 1.700310 
# 
# From -- ./inp_files/15076.got.cif
#   From: 2010.05.17/outbox.cif.g08.bks.cpg/sg35_8_cif.got.tgz:15076.got - 2010.06.03 17:29:28.
