data_PCOD9348070
_publ_section_title
;
Structure prediction by ZEFSAII (Michael W. Deem and Ramdas Pophale) SiO2 
 PCOD9348070
Probable space group: C M M 2
;
_chemical_formula_sum "Si O2"
_cell_formula_units_Z 56
_cell_length_a 7.868477
_cell_length_b 22.710167
_cell_length_c 15.061134
_cell_angle_alpha 90.000000
_cell_angle_beta 90.000000
_cell_angle_gamma 90.000000
_cell_volume 2691.340706
_symmetry_space_group_name_H-M "C M M 2"
_symmetry_group_IT_number 35
_symmetry_cell_setting 'orthorhombic'
loop_
_space_group_symop_operation_xyz
x,y,z
-x,-y,z
-x,y,z
x,-y,z
1/2+x,1/2+y,z
1/2-x,1/2-y,z
1/2-x,1/2+y,z
1/2+x,1/2-y,z
loop_
_atom_site_type_symbol
_atom_site_label
_atom_site_fract_x
_atom_site_fract_y
_atom_site_fract_z
Si Si1 0.197620 0.109772 0.381290
Si Si2 0.298099 0.815879 0.226211
Si Si3 0.291973 0.067459 0.763662
Si Si4 0.207805 0.000000 0.264718
Si Si5 0.291414 0.872203 0.046753
Si Si6 0.299931 0.000000 0.058179
Si Si7 0.297720 0.934924 0.561059
Si Si8 0.795747 0.315833 0.869962
O O1 0.226055 0.166670 0.321551
O O2 0.268773 0.056560 0.320665
O O3 0.263443 0.109352 0.481186
O O4 0.000000 0.097854 0.389224
O O5 0.500000 0.822260 0.230719
O O6 0.250000 0.750000 0.202833
O O7 0.232652 0.856161 0.145485
O O8 0.500000 0.067122 0.767649
O O9 0.236615 0.076357 0.660914
O O10 0.235713 0.125524 0.817417
O O11 0.241233 0.000000 0.790179
O O12 0.277979 0.000000 0.164969
O O13 0.000000 0.000000 0.258261
O O14 0.500000 0.872531 0.048638
O O15 0.231880 0.938039 0.023496
O O16 0.238253 0.826300 0.971694
O O17 0.500000 0.000000 0.036722
O O18 0.500000 0.938501 0.569059
O O19 0.233185 0.000000 0.533132
O O20 0.750000 0.250000 0.838674
O O21 0.000000 0.318438 0.868304
#
# Coordination Sequence:
#
# PCOD9348070 Si02
#       8
#     8   8   8   4   8   4   8   8
#     4  11  21  34  52  78 109 142 177 217 264 319
#     4  11  22  37  53  74 104 144 187 227 269 316
#     4   8  16  32  56  84 109 137 180 232 279 322
#     4  10  20  32  48  75 108 138 170 211 264 311
#     4   9  19  32  53  81 108 139 178 221 266 317
#     4  10  18  32  52  79 108 138 180 223 266 315
#     4   9  17  31  53  80 107 137 175 221 273 324
#     4  10  20  36  57  82 110 143 181 223 272 328
#
# _framework density 20.807473000000002
#
# number of rings (size 3 to 8) (size 9 to 14) (size 15 to 20)
#    0.000    2.286    2.143    2.143    1.000    0.571 
#    0.000    2.857    0.000    3.000    0.000    0.000 
#    0.000    0.000    0.000    0.000    0.000    0.000 
#
# Total GULP energy -156138.036927 kJ/mol
# GULP energy per Si atom -5576.358462 kJ/mol
# Density = 2.076011 g / cm^3
# Si number density = 20.807473 Si / 1000 Ang^3
#
#
#
# Elastic Constant Matrix: (Units=GPa)
#
#
# Indices 1 2 3 4 5 6 
#
# 1 16.3579 -3.0195 1.9414 0.0000 0.0000 0.0000
# 2 -3.0195 124.8772 48.0089 0.0000 0.0000 0.0000
# 3 1.9414 48.0089 93.3152 0.0000 0.0000 0.0000
# 4 0.0000 0.0000 0.0000 26.5819 0.0000 0.0000
# 5 0.0000 0.0000 0.0000 0.0000 -3.1402 0.0000
# 6 0.0000 0.0000 0.0000 0.0000 0.0000 19.5488
#
#
#
# Elastic Compliance Matrix: (Units=1/GPa)
#
#
# Indices 1 2 3 4 5 6 
#
# 1 0.061895 0.002483 -0.002565 0.000000 0.000000 0.000000
# 2 0.002483 0.010082 -0.005239 0.000000 0.000000 0.000000
# 3 -0.002565 -0.005239 0.013465 0.000000 0.000000 0.000000
# 4 0.000000 0.000000 0.000000 0.037620 0.000000 0.000000
# 5 0.000000 0.000000 0.000000 0.000000 -0.318454 0.000000
# 6 0.000000 0.000000 0.000000 0.000000 0.000000 0.051154
#
#
# Mechanical properties :
#
#
# Convention : Reuss Voigt Hill
#
# Bulk Modulus (GPa) = 13.36896 36.49022 24.92959
# Shear Modulus (GPa) = -46.01386 21.10607 -12.45389
#
# Velocity S-wave (km/s) = -4.70767 3.18834 -2.44914
# Velocity P-wave (km/s) = 4.80733 5.57935 2.00234
#
# Compressibility (1/GPa) = 0.07480014
#
# Stress axis : x y z
#
# Youngs Moduli (GPa) = 16.15635 99.18791 74.26722
#
# Poissons Ratio (x) = -0.24626 0.19050
# Poissons Ratio (y) = -0.04011 0.38906
# Poissons Ratio (z) = 0.04144 0.51960
#
# Static dielectric constant tensor:
#      x y z
#    x 1.762540 0.000000 0.000000 
#    y 0.000000 1.748350 0.000000 
#    z 0.000000 0.000000 1.749520 
# 
# From -- ./inp_files/15665.got.cif
#   From: 2010.05.17/outbox.cif.g08.bks.cpg/sg35_8_cif.got.tgz:15665.got - 2010.06.03 17:29:28.
