data_PCOD9348650
_publ_section_title
;
Structure prediction by ZEFSAII (Michael W. Deem and Ramdas Pophale) SiO2 
 PCOD9348650
Probable space group: C M M 2
;
_chemical_formula_sum "Si O2"
_cell_formula_units_Z 48
_cell_length_a 7.453255
_cell_length_b 34.508233
_cell_length_c 8.248513
_cell_angle_alpha 90.000000
_cell_angle_beta 90.000000
_cell_angle_gamma 90.000000
_cell_volume 2121.506492
_symmetry_space_group_name_H-M "C M M 2"
_symmetry_group_IT_number 35
_symmetry_cell_setting 'orthorhombic'
loop_
_space_group_symop_operation_xyz
x,y,z
-x,-y,z
-x,y,z
x,-y,z
1/2+x,1/2+y,z
1/2-x,1/2-y,z
1/2-x,1/2+y,z
1/2+x,1/2-y,z
loop_
_atom_site_type_symbol
_atom_site_label
_atom_site_fract_x
_atom_site_fract_y
_atom_site_fract_z
Si Si1 0.283108 0.581001 0.175890
Si Si2 0.719800 0.659940 0.332042
Si Si3 0.214655 0.204522 0.011871
Si Si4 0.792483 0.500000 0.703058
Si Si5 0.794625 0.833920 0.685523
Si Si6 0.282107 0.500000 0.325555
Si Si7 0.207877 0.583332 0.802095
O O1 0.500000 0.580791 0.171198
O O2 0.228104 0.615612 0.294672
O O3 0.222804 0.538980 0.235629
O O4 0.220446 0.589477 0.994397
O O5 0.500000 0.660797 0.336911
O O6 0.784768 0.673506 0.508065
O O7 0.780346 0.685085 0.178239
O O8 0.250000 0.250000 0.011169
O O9 0.287142 0.185188 0.846587
O O10 0.000000 0.197600 0.012037
O O11 0.782595 0.500000 0.509626
O O12 0.714050 0.459227 0.764029
O O13 0.000000 0.500000 0.759289
O O14 0.795421 0.880190 0.714213
O O15 0.000000 0.819885 0.678712
O O16 0.500000 0.500000 0.328976
O O17 0.000000 0.583301 0.751138
#
# Coordination Sequence:
#
# PCOD9348650 Si02
#       7
#     8   8   8   4   8   4   8
#     4  10  19  35  56  82 113 145 189 240 285 334
#     4   9  18  35  59  84 111 147 188 227 281 343
#     4  10  21  38  59  85 116 149 185 229 287 348
#     4  10  23  38  50  74 118 158 189 235 291 343
#     4  10  20  38  63  85 113 152 189 238 291 332
#     4  10  21  34  56  86 110 144 199 249 281 333
#     4  11  22  36  55  81 114 154 197 235 282 344
#
# _framework density 22.625430000000001
#
# number of rings (size 3 to 8) (size 9 to 14) (size 15 to 20)
#    0.000    2.000    1.667    2.000    0.000    4.667 
#    0.000    1.667    0.000    0.000    0.000    0.000 
#    0.000    0.000    0.000    0.000    0.000    0.000 
#
# Total GULP energy -134143.829608 kJ/mol
# GULP energy per Si atom -5589.326234 kJ/mol
# Density = 2.257393 g / cm^3
# Si number density = 22.625430 Si / 1000 Ang^3
#
#
#
# Elastic Constant Matrix: (Units=GPa)
#
#
# Indices 1 2 3 4 5 6 
#
# 1 70.1053 -2.5018 0.2979 0.0000 0.0000 0.0000
# 2 -2.5018 129.0889 72.1359 0.0000 0.0000 0.0000
# 3 0.2979 72.1359 200.1765 0.0000 0.0000 0.0000
# 4 0.0000 0.0000 0.0000 8.9236 0.0000 0.0000
# 5 0.0000 0.0000 0.0000 0.0000 34.7670 0.0000
# 6 0.0000 0.0000 0.0000 0.0000 0.0000 7.3048
#
#
#
# Elastic Compliance Matrix: (Units=1/GPa)
#
#
# Indices 1 2 3 4 5 6 
#
# 1 0.014278 0.000361 -0.000151 0.000000 0.000000 0.000000
# 2 0.000361 0.009709 -0.003499 0.000000 0.000000 0.000000
# 3 -0.000151 -0.003499 0.006257 0.000000 0.000000 0.000000
# 4 0.000000 0.000000 0.000000 0.112063 0.000000 0.000000
# 5 0.000000 0.000000 0.000000 0.000000 0.028763 0.000000
# 6 0.000000 0.000000 0.000000 0.000000 0.000000 0.136896
#
#
# Mechanical properties :
#
#
# Convention : Reuss Voigt Hill
#
# Bulk Modulus (GPa) = 42.25679 59.91497 51.08588
# Shear Modulus (GPa) = 15.50710 32.16163 23.83437
#
# Velocity S-wave (km/s) = 2.62082 3.77434 3.24918
# Velocity P-wave (km/s) = 5.27973 6.74781 6.05840
#
# Compressibility (1/GPa) = 0.02366484
#
# Stress axis : x y z
#
# Youngs Moduli (GPa) = 70.03880 102.99676 159.82528
#
# Poissons Ratio (x) = -0.03722 0.02421
# Poissons Ratio (y) = -0.02531 0.55928
# Poissons Ratio (z) = 0.01061 0.36042
#
# Static dielectric constant tensor:
#      x y z
#    x 1.833240 0.000000 0.000000 
#    y 0.000000 1.803290 0.000000 
#    z 0.000000 0.000000 1.811280 
# 
# From -- ./inp_files/5406.got.cif
#   From: 2010.05.17/outbox.cif.g08.bks.cpg/sg35_3_cif.got.tgz:5406.got - 2010.06.03 17:29:28.
