data_PCOD9348728
_publ_section_title
;
Structure prediction by ZEFSAII (Michael W. Deem and Ramdas Pophale) SiO2 
 PCOD9348728
Probable space group: C M M 2
;
_chemical_formula_sum "Si O2"
_cell_formula_units_Z 28
_cell_length_a 5.636752
_cell_length_b 30.844620
_cell_length_c 7.150436
_cell_angle_alpha 90.000000
_cell_angle_beta 90.000000
_cell_angle_gamma 90.000000
_cell_volume 1243.199640
_symmetry_space_group_name_H-M "C M M 2"
_symmetry_group_IT_number 35
_symmetry_cell_setting 'orthorhombic'
loop_
_space_group_symop_operation_xyz
x,y,z
-x,-y,z
-x,y,z
x,-y,z
1/2+x,1/2+y,z
1/2-x,1/2-y,z
1/2-x,1/2+y,z
1/2+x,1/2-y,z
loop_
_atom_site_type_symbol
_atom_site_label
_atom_site_fract_x
_atom_site_fract_y
_atom_site_fract_z
Si Si1 0.500000 0.851566 0.741670
Si Si2 0.250072 0.448434 0.236611
Si Si3 0.000000 0.273954 0.465697
Si Si4 0.250227 0.936345 0.786760
Si Si5 0.500000 0.226211 0.019135
O O1 0.500000 0.820314 0.565428
O O2 0.281400 0.885101 0.752489
O O3 0.500000 0.819959 0.918586
O O4 0.500000 0.429260 0.302889
O O5 0.249971 0.500000 0.275330
O O6 0.000000 0.429270 0.303788
O O7 0.250248 0.444204 0.010344
O O8 0.250000 0.250000 0.516819
O O9 0.000000 0.278170 0.242371
O O10 0.500000 0.954691 0.714766
O O11 0.000000 0.952332 0.712905
O O12 0.750000 0.250000 0.968173
#
# Coordination Sequence:
#
# PCOD9348728 Si02
#       5
#     4   8   4   8   4
#     4  10  20  30  53  66  94 118 144 184 233 258
#     4   8  12  20  32  49  81 114 138 172 207 241
#     4  10  22  36  50  69  89 115 152 184 219 272
#     4   8  16  24  37  64  86 111 148 175 212 263
#     4  10  22  36  50  69  89 115 152 184 219 272
#
# _framework density 22.522528000000001
#
# number of rings (size 3 to 8) (size 9 to 14) (size 15 to 20)
#    0.857    2.286    0.000    0.857    4.000    0.000 
#    0.000    0.000    0.000    0.000    0.000    0.000 
#    0.000    4.571    0.000   14.286    0.000    0.000 
#
# Total GULP energy -77953.518425 kJ/mol
# GULP energy per Si atom -5568.108459 kJ/mol
# Density = 2.247127 g / cm^3
# Si number density = 22.522528 Si / 1000 Ang^3
#
#
#
# Elastic Constant Matrix: (Units=GPa)
#
#
# Indices 1 2 3 4 5 6 
#
# 1 287.0836 47.8102 12.9313 0.0000 0.0000 0.0000
# 2 47.8102 128.4025 15.1791 0.0000 0.0000 0.0000
# 3 12.9313 15.1791 87.5741 0.0000 0.0000 0.0000
# 4 0.0000 0.0000 0.0000 8.9336 0.0000 0.0000
# 5 0.0000 0.0000 0.0000 0.0000 -9.6752 0.0000
# 6 0.0000 0.0000 0.0000 0.0000 0.0000 -61.9728
#
#
#
# Elastic Compliance Matrix: (Units=1/GPa)
#
#
# Indices 1 2 3 4 5 6 
#
# 1 0.003722 -0.001349 -0.000316 0.000000 0.000000 0.000000
# 2 -0.001349 0.008440 -0.001264 0.000000 0.000000 0.000000
# 3 -0.000316 -0.001264 0.011685 0.000000 0.000000 0.000000
# 4 0.000000 0.000000 0.000000 0.111937 0.000000 0.000000
# 5 0.000000 0.000000 0.000000 0.000000 -0.103357 0.000000
# 6 0.000000 0.000000 0.000000 0.000000 0.000000 -0.016136
#
#
# Mechanical properties :
#
#
# Convention : Reuss Voigt Hill
#
# Bulk Modulus (GPa) = 55.58650 72.76682 64.17666
# Shear Modulus (GPa) = 177.66714 15.93311 96.80012
#
# Velocity S-wave (km/s) = 8.89131 2.66264 6.56297
# Velocity P-wave (km/s) = 11.40795 6.46773 9.27288
#
# Compressibility (1/GPa) = 0.01798998
#
# Stress axis : x y z
#
# Youngs Moduli (GPa) = 268.66390 118.48996 85.58296
#
# Poissons Ratio (x) = 0.15979 0.02703
# Poissons Ratio (y) = 0.36231 0.10815
# Poissons Ratio (z) = 0.08486 0.14973
#
# Static dielectric constant tensor:
#      x y z
#    x 1.945870 0.000000 0.000000 
#    y 0.000000 1.711990 0.000000 
#    z 0.000000 0.000000 1.815690 
# 
# From -- ./inp_files/4162.got.cif
#   From: 2010.05.17/outbox.cif.g08.bks.cpg/sg35_3_cif.got.tgz:4162.got - 2010.06.03 17:29:28.
