data_PCOD9348268
_publ_section_title
;
Structure prediction by ZEFSAII (Michael W. Deem and Ramdas Pophale) SiO2 
 PCOD9348268
Probable space group: C M M 2
;
_chemical_formula_sum "Si O2"
_cell_formula_units_Z 56
_cell_length_a 19.907994
_cell_length_b 14.910388
_cell_length_c 8.200020
_cell_angle_alpha 90.000000
_cell_angle_beta 90.000000
_cell_angle_gamma 90.000000
_cell_volume 2434.060438
_symmetry_space_group_name_H-M "C M M 2"
_symmetry_group_IT_number 35
_symmetry_cell_setting 'orthorhombic'
loop_
_space_group_symop_operation_xyz
x,y,z
-x,-y,z
-x,y,z
x,-y,z
1/2+x,1/2+y,z
1/2-x,1/2-y,z
1/2-x,1/2+y,z
1/2+x,1/2-y,z
loop_
_atom_site_type_symbol
_atom_site_label
_atom_site_fract_x
_atom_site_fract_y
_atom_site_fract_z
Si Si1 0.577988 0.390865 0.241840
Si Si2 0.572852 0.107923 0.046502
Si Si3 0.427148 0.892077 0.437179
Si Si4 0.145547 0.102752 0.917023
Si Si5 0.719702 0.150585 0.053018
Si Si6 0.354453 0.602752 0.566658
Si Si7 0.280298 0.150585 0.430661
O O1 0.500000 0.369860 0.241839
O O2 0.585921 0.500000 0.241840
O O3 0.612568 0.355494 0.405609
O O4 0.612568 0.355494 0.078072
O O5 0.500000 0.139054 0.981121
O O6 0.644053 0.145658 0.987452
O O7 0.575627 0.000000 0.025338
O O8 0.571807 0.125262 0.241840
O O9 0.500000 0.860946 0.502560
O O10 0.355947 0.854342 0.496228
O O11 0.424373 0.000000 0.458342
O O12 0.225086 0.099379 0.948048
O O13 0.131046 0.145401 0.741840
O O14 0.120512 0.000000 0.910664
O O15 0.750000 0.250000 0.054622
O O16 0.720021 0.117249 0.241840
O O17 0.379488 0.500000 0.573017
O O18 0.274914 0.599379 0.535632
O O19 0.250000 0.250000 0.429057
#
# Coordination Sequence:
#
# PCOD9348268 Si02
#       7
#     8   8   8   8   8   8   8
#     4   9  18  34  55  78 105 137 177 228 276 320
#     4   8  14  26  47  74 101 136 184 232 274 320
#     4   8  14  26  47  74 101 136 184 232 274 320
#     4  10  20  34  55  81 107 141 185 231 282 338
#     4  10  19  31  50  76 112 145 182 224 282 344
#     4  10  20  34  55  81 107 141 185 231 282 338
#     4  10  19  31  50  76 112 145 182 224 282 344
#
# _framework density 23.006824000000002
#
# number of rings (size 3 to 8) (size 9 to 14) (size 15 to 20)
#    0.000    2.714    1.429    1.714    0.000    2.286 
#    0.000    4.286    0.000    0.857    0.000    4.000 
#    0.000    0.000    0.000    0.000    0.000    0.000 
#
# Total GULP energy -156224.332985 kJ/mol
# GULP energy per Si atom -5579.440464 kJ/mol
# Density = 2.295446 g / cm^3
# Si number density = 23.006824 Si / 1000 Ang^3
#
#
#
# Elastic Constant Matrix: (Units=GPa)
#
#
# Indices 1 2 3 4 5 6 
#
# 1 195.9901 8.1100 74.5103 0.0000 0.0000 0.0000
# 2 8.1100 30.4454 13.1488 0.0000 0.0000 0.0000
# 3 74.5103 13.1488 142.0298 0.0000 0.0000 0.0000
# 4 0.0000 0.0000 0.0000 1.7172 0.0000 0.0000
# 5 0.0000 0.0000 0.0000 0.0000 -13.5096 0.0000
# 6 0.0000 0.0000 0.0000 0.0000 0.0000 9.7933
#
#
#
# Elastic Compliance Matrix: (Units=1/GPa)
#
#
# Indices 1 2 3 4 5 6 
#
# 1 0.006375 -0.000264 -0.003320 0.000000 0.000000 0.000000
# 2 -0.000264 0.034225 -0.003030 0.000000 0.000000 0.000000
# 3 -0.003320 -0.003030 0.009063 0.000000 0.000000 0.000000
# 4 0.000000 0.000000 0.000000 0.582338 0.000000 0.000000
# 5 0.000000 0.000000 0.000000 0.000000 -0.074022 0.000000
# 6 0.000000 0.000000 0.000000 0.000000 0.000000 0.102111
#
#
# Mechanical properties :
#
#
# Convention : Reuss Voigt Hill
#
# Bulk Modulus (GPa) = 27.44644 62.22260 44.83452
# Shear Modulus (GPa) = 7.29433 17.77994 12.53714
#
# Velocity S-wave (km/s) = 1.78252 2.78296 2.33691
# Velocity P-wave (km/s) = 4.02394 6.11805 5.17796
#
# Compressibility (1/GPa) = 0.03643459
#
# Stress axis : x y z
#
# Youngs Moduli (GPa) = 156.85102 29.21874 110.33809
#
# Poissons Ratio (x) = 0.00772 0.36634
# Poissons Ratio (y) = 0.04147 0.33430
# Poissons Ratio (z) = 0.52077 0.08853
#
# Static dielectric constant tensor:
#      x y z
#    x 1.864980 0.000000 0.000000 
#    y 0.000000 1.941170 0.000000 
#    z 0.000000 0.000000 1.909230 
# 
# From -- ./inp_files/8672.got.cif
#   From: 2010.05.17/outbox.cif.g08.bks.cpg/sg35_5_cif.got.tgz:8672.got - 2010.06.03 17:29:28.
