data_PCOD9348078
_publ_section_title
;
Structure prediction by ZEFSAII (Michael W. Deem and Ramdas Pophale) SiO2 
 PCOD9348078
Probable space group: C M M 2
;
_chemical_formula_sum "Si O2"
_cell_formula_units_Z 64
_cell_length_a 30.256180
_cell_length_b 8.169753
_cell_length_c 12.726687
_cell_angle_alpha 90.000000
_cell_angle_beta 90.000000
_cell_angle_gamma 90.000000
_cell_volume 3145.852710
_symmetry_space_group_name_H-M "C M M 2"
_symmetry_group_IT_number 35
_symmetry_cell_setting 'orthorhombic'
loop_
_space_group_symop_operation_xyz
x,y,z
-x,-y,z
-x,y,z
x,-y,z
1/2+x,1/2+y,z
1/2-x,1/2-y,z
1/2-x,1/2+y,z
1/2+x,1/2-y,z
loop_
_atom_site_type_symbol
_atom_site_label
_atom_site_fract_x
_atom_site_fract_y
_atom_site_fract_z
Si Si1 0.204148 0.807565 0.751340
Si Si2 0.047298 0.800584 0.399798
Si Si3 0.081490 0.811829 0.611379
Si Si4 0.389309 0.808236 0.830212
Si Si5 0.671684 0.811020 0.533935
Si Si6 0.797975 0.803951 0.306947
Si Si7 0.448956 0.197117 0.023033
Si Si8 0.889385 0.801920 0.218919
O O1 0.250000 0.750000 0.802877
O O2 0.159108 0.771347 0.815388
O O3 0.200258 0.714947 0.639250
O O4 0.205875 0.000000 0.730966
O O5 0.050707 0.744259 0.519641
O O6 0.086557 0.745051 0.325775
O O7 0.000000 0.755051 0.352988
O O8 0.049537 0.000000 0.404340
O O9 0.086025 0.716033 0.719135
O O10 0.129481 0.803078 0.555518
O O11 0.070339 0.000000 0.635487
O O12 0.381737 0.000000 0.848435
O O13 0.421034 0.742772 0.921935
O O14 0.694306 0.766658 0.424275
O O15 0.657375 0.000000 0.531014
O O16 0.750000 0.750000 0.268915
O O17 0.838377 0.751360 0.231426
O O18 0.799481 0.000000 0.315789
O O19 0.500000 0.257659 0.028730
O O20 0.418991 0.240234 0.123298
O O21 0.451524 0.000000 0.015269
O O22 0.890527 0.000000 0.215426
#
# Coordination Sequence:
#
# PCOD9348078 Si02
#       8
#     8   8   8   8   8   8   8   8
#     4  11  21  35  56  84 119 156 197 241 287 342
#     4   9  17  31  53  82 115 149 183 229 292 349
#     4  10  18  32  53  81 118 155 191 237 288 342
#     4  10  21  38  58  83 116 154 196 240 292 346
#     4  11  20  32  52  80 116 159 199 236 281 338
#     4  11  22  37  56  84 117 154 195 239 290 344
#     4  10  23  43  65  88 116 151 193 245 299 349
#     4  10  21  39  62  85 115 151 195 245 291 346
#
# _framework density 20.344245000000001
#
# number of rings (size 3 to 8) (size 9 to 14) (size 15 to 20)
#    0.000    1.750    1.250    5.625    0.000    3.250 
#    0.000    0.625    0.000    3.375    0.000    0.000 
#    0.000    0.000    0.000    0.000    0.000    0.000 
#
# Total GULP energy -178586.201475 kJ/mol
# GULP energy per Si atom -5580.818796 kJ/mol
# Density = 2.029794 g / cm^3
# Si number density = 20.344245 Si / 1000 Ang^3
#
#
#
# Elastic Constant Matrix: (Units=GPa)
#
#
# Indices 1 2 3 4 5 6 
#
# 1 159.5673 9.1228 72.7926 0.0000 0.0000 0.0000
# 2 9.1228 47.0322 5.7713 0.0000 0.0000 0.0000
# 3 72.7926 5.7713 102.1325 0.0000 0.0000 0.0000
# 4 0.0000 0.0000 0.0000 26.9480 0.0000 0.0000
# 5 0.0000 0.0000 0.0000 0.0000 19.4658 0.0000
# 6 0.0000 0.0000 0.0000 0.0000 0.0000 -33.3913
#
#
#
# Elastic Compliance Matrix: (Units=1/GPa)
#
#
# Indices 1 2 3 4 5 6 
#
# 1 0.009333 -0.001001 -0.006595 0.000000 0.000000 0.000000
# 2 -0.001001 0.021518 -0.000502 0.000000 0.000000 0.000000
# 3 -0.006595 -0.000502 0.014520 0.000000 0.000000 0.000000
# 4 0.000000 0.000000 0.000000 0.037109 0.000000 0.000000
# 5 0.000000 0.000000 0.000000 0.000000 0.051372 0.000000
# 6 0.000000 0.000000 0.000000 0.000000 0.000000 -0.029948
#
#
# Mechanical properties :
#
#
# Convention : Reuss Voigt Hill
#
# Bulk Modulus (GPa) = 34.27770 53.78950 44.03360
# Shear Modulus (GPa) = 38.51326 17.34085 27.92705
#
# Velocity S-wave (km/s) = 4.35567 2.92271 3.70905
# Velocity P-wave (km/s) = 6.49471 6.15522 6.32724
#
# Compressibility (1/GPa) = 0.02917348
#
# Stress axis : x y z
#
# Youngs Moduli (GPa) = 107.14876 46.47305 68.86974
#
# Poissons Ratio (x) = 0.04652 0.45421
# Poissons Ratio (y) = 0.10726 0.03461
# Poissons Ratio (z) = 0.70667 0.02335
#
# Static dielectric constant tensor:
#      x y z
#    x 1.778320 0.000000 0.000000 
#    y 0.000000 1.685530 0.000000 
#    z 0.000000 0.000000 1.716690 
# 
# From -- ./inp_files/14608.got.cif
#   From: 2010.05.17/outbox.cif.g08.bks.cpg/sg35_8_cif.got.tgz:14608.got - 2010.06.03 17:29:28.
