data_PCOD9348523
_publ_section_title
;
Structure prediction by ZEFSAII (Michael W. Deem and Ramdas Pophale) SiO2 
 PCOD9348523
Probable space group: C M M 2
;
_chemical_formula_sum "Si O2"
_cell_formula_units_Z 64
_cell_length_a 14.565221
_cell_length_b 19.405181
_cell_length_c 12.392838
_cell_angle_alpha 90.000000
_cell_angle_beta 90.000000
_cell_angle_gamma 90.000000
_cell_volume 3502.721025
_symmetry_space_group_name_H-M "C M M 2"
_symmetry_group_IT_number 35
_symmetry_cell_setting 'orthorhombic'
loop_
_space_group_symop_operation_xyz
x,y,z
-x,-y,z
-x,y,z
x,-y,z
1/2+x,1/2+y,z
1/2-x,1/2-y,z
1/2-x,1/2+y,z
1/2+x,1/2-y,z
loop_
_atom_site_type_symbol
_atom_site_label
_atom_site_fract_x
_atom_site_fract_y
_atom_site_fract_z
Si Si1 0.390942 0.580406 0.248960
Si Si2 0.389351 0.818190 0.296942
Si Si3 0.242415 0.166498 0.863018
Si Si4 0.893942 0.187885 0.674654
Si Si5 0.104669 0.353227 0.706656
Si Si6 0.889986 0.182101 0.431855
Si Si7 0.248688 0.667072 0.110859
Si Si8 0.611984 0.077766 0.484986
O O1 0.500000 0.587797 0.225872
O O2 0.366649 0.500000 0.240399
O O3 0.376098 0.611358 0.368250
O O4 0.331273 0.629069 0.172145
O O5 0.500000 0.816082 0.283858
O O6 0.360536 0.744929 0.352342
O O7 0.341518 0.841416 0.185922
O O8 0.361612 0.873887 0.386580
O O9 0.250000 0.250000 0.866597
O O10 0.161013 0.155806 0.775484
O O11 0.331286 0.134084 0.807547
O O12 0.241714 0.143301 0.986849
O O13 0.893898 0.270867 0.687836
O O14 0.853376 0.178149 0.553944
O O15 0.000000 0.164449 0.677386
O O16 0.139399 0.390013 0.598973
O O17 0.000000 0.374398 0.725682
O O18 0.000000 0.194198 0.445085
O O19 0.250000 0.750000 0.107417
O O20 0.500000 0.077840 0.485514
O O21 0.644237 0.000000 0.472518
#
# Coordination Sequence:
#
# PCOD9348523 Si02
#       8
#     8   8   8   8   8   8   8   8
#     4  10  22  40  60  83 114 151 190 236 289 344
#     4  10  19  33  54  82 114 144 180 229 283 340
#     4   9  20  33  47  76 108 138 185 232 273 320
#     4   9  16  30  53  79 106 137 174 227 282 326
#     4   9  16  30  49  72 107 143 176 219 271 326
#     4   9  16  31  56  83 108 138 181 228 285 343
#     4  11  22  36  55  81 111 148 195 239 279 329
#     4   9  17  30  50  77 109 142 176 216 268 335
#
# _framework density 18.271508999999998
#
# number of rings (size 3 to 8) (size 9 to 14) (size 15 to 20)
#    0.000    2.500    2.500    0.000    0.000    2.500 
#    2.250    3.125    0.000    0.750    0.000    5.250 
#    0.000    0.000    0.000    0.000    0.000    0.000 
#
# Total GULP energy -178221.026918 kJ/mol
# GULP energy per Si atom -5569.407091 kJ/mol
# Density = 1.822992 g / cm^3
# Si number density = 18.271509 Si / 1000 Ang^3
#
#
#
# Elastic Constant Matrix: (Units=GPa)
#
#
# Indices 1 2 3 4 5 6 
#
# 1 63.5945 31.3268 56.4224 0.0000 0.0000 0.0000
# 2 31.3268 67.6112 39.2955 0.0000 0.0000 0.0000
# 3 56.4224 39.2955 169.3259 0.0000 0.0000 0.0000
# 4 0.0000 0.0000 0.0000 -12.2543 0.0000 0.0000
# 5 0.0000 0.0000 0.0000 0.0000 29.6414 0.0000
# 6 0.0000 0.0000 0.0000 0.0000 0.0000 9.1950
#
#
#
# Elastic Compliance Matrix: (Units=1/GPa)
#
#
# Indices 1 2 3 4 5 6 
#
# 1 0.025569 -0.007970 -0.006670 0.000000 0.000000 0.000000
# 2 -0.007970 0.019581 -0.001888 0.000000 0.000000 0.000000
# 3 -0.006670 -0.001888 0.008567 0.000000 0.000000 0.000000
# 4 0.000000 0.000000 0.000000 -0.081604 0.000000 0.000000
# 5 0.000000 0.000000 0.000000 0.000000 0.033737 0.000000
# 6 0.000000 0.000000 0.000000 0.000000 0.000000 0.108755
#
#
# Mechanical properties :
#
#
# Convention : Reuss Voigt Hill
#
# Bulk Modulus (GPa) = 48.40598 61.62456 55.01527
# Shear Modulus (GPa) = 32.35243 16.88221 24.61732
#
# Velocity S-wave (km/s) = 4.21247 3.04297 3.67455
# Velocity P-wave (km/s) = 7.08590 6.79313 6.94106
#
# Compressibility (1/GPa) = 0.02065860
#
# Stress axis : x y z
#
# Youngs Moduli (GPa) = 39.11008 51.07040 116.73146
#
# Poissons Ratio (x) = 0.40704 0.77864
# Poissons Ratio (y) = 0.31172 0.22042
# Poissons Ratio (z) = 0.26088 0.09644
#
# Static dielectric constant tensor:
#      x y z
#    x 1.675660 0.000000 0.000000 
#    y 0.000000 1.620410 0.000000 
#    z 0.000000 0.000000 1.631900 
# 
# From -- ./inp_files/13165.got.cif
#   From: 2010.05.17/outbox.cif.g08.bks.cpg/sg35_7_cif.got.tgz:13165.got - 2010.06.03 17:29:28.
