data_PCOD9348788
_publ_section_title
;
Structure prediction by ZEFSAII (Michael W. Deem and Ramdas Pophale) SiO2 
 PCOD9348788
Probable space group: C M M 2
;
_chemical_formula_sum "Si O2"
_cell_formula_units_Z 40
_cell_length_a 18.531227
_cell_length_b 9.547132
_cell_length_c 13.359375
_cell_angle_alpha 90.000000
_cell_angle_beta 90.000000
_cell_angle_gamma 90.000000
_cell_volume 2363.541564
_symmetry_space_group_name_H-M "C M M 2"
_symmetry_group_IT_number 35
_symmetry_cell_setting 'orthorhombic'
loop_
_space_group_symop_operation_xyz
x,y,z
-x,-y,z
-x,y,z
x,-y,z
1/2+x,1/2+y,z
1/2-x,1/2-y,z
1/2-x,1/2+y,z
1/2+x,1/2-y,z
loop_
_atom_site_type_symbol
_atom_site_label
_atom_site_fract_x
_atom_site_fract_y
_atom_site_fract_z
Si Si1 0.085646 0.164760 0.755850
Si Si2 0.911965 0.339001 0.561537
Si Si3 0.324418 0.668206 0.956132
Si Si4 0.911986 0.161788 0.370190
Si Si5 0.082892 0.170382 0.148387
O O1 0.109807 0.257719 0.662016
O O2 0.128010 0.195953 0.857447
O O3 0.000000 0.187254 0.771855
O O4 0.095133 0.000000 0.731778
O O5 0.888707 0.500000 0.562157
O O6 0.887979 0.257762 0.461835
O O7 0.000000 0.337091 0.560366
O O8 0.313028 0.500000 0.961154
O O9 0.250000 0.750000 0.949926
O O10 0.367788 0.712165 0.055793
O O11 0.890650 0.212344 0.259129
O O12 0.000000 0.161534 0.369154
O O13 0.889712 0.000000 0.384644
O O14 0.000000 0.217257 0.134304
O O15 0.081134 0.000000 0.150078
#
# Coordination Sequence:
#
# PCOD9348788 Si02
#       5
#     8   8   8   8   8
#     4   9  17  30  49  70  91 120 159 195 224 264
#     4   9  16  25  40  66  98 124 146 182 233 279
#     4  10  20  33  49  69  94 123 154 191 234 277
#     4   8  13  23  42  67  92 117 148 187 227 268
#     4   8  14  27  49  73  93 118 156 195 225 261
#
# _framework density 16.923755
#
# number of rings (size 3 to 8) (size 9 to 14) (size 15 to 20)
#    0.000    3.200    0.000    2.400    0.000    5.600 
#    0.000    1.000    0.000    4.200    0.000    2.800 
#    0.000    0.000    0.000    0.000    0.000    0.000 
#
# Total GULP energy -111394.527717 kJ/mol
# GULP energy per Si atom -5569.726386 kJ/mol
# Density = 1.688524 g / cm^3
# Si number density = 16.923755 Si / 1000 Ang^3
#
#
#
# Elastic Constant Matrix: (Units=GPa)
#
#
# Indices 1 2 3 4 5 6 
#
# 1 41.8821 37.4006 60.0348 0.0000 0.0000 0.0000
# 2 37.4006 69.4583 94.1438 0.0000 0.0000 0.0000
# 3 60.0348 94.1438 200.6541 0.0000 0.0000 0.0000
# 4 0.0000 0.0000 0.0000 9.6654 0.0000 0.0000
# 5 0.0000 0.0000 0.0000 0.0000 -3.7845 0.0000
# 6 0.0000 0.0000 0.0000 0.0000 0.0000 18.6435
#
#
#
# Elastic Compliance Matrix: (Units=1/GPa)
#
#
# Indices 1 2 3 4 5 6 
#
# 1 0.048665 -0.017769 -0.006223 0.000000 0.000000 0.000000
# 2 -0.017769 0.046033 -0.016282 0.000000 0.000000 0.000000
# 3 -0.006223 -0.016282 0.014485 0.000000 0.000000 0.000000
# 4 0.000000 0.000000 0.000000 0.103461 0.000000 0.000000
# 5 0.000000 0.000000 0.000000 0.000000 -0.264239 0.000000
# 6 0.000000 0.000000 0.000000 0.000000 0.000000 0.053638
#
#
# Mechanical properties :
#
#
# Convention : Reuss Voigt Hill
#
# Bulk Modulus (GPa) = 34.92250 77.23922 56.08086
# Shear Modulus (GPa) = 54.26702 12.93259 33.59980
#
# Velocity S-wave (km/s) = 5.66879 2.76736 4.46058
# Velocity P-wave (km/s) = 7.97038 7.47995 7.72905
#
# Compressibility (1/GPa) = 0.02863484
#
# Stress axis : x y z
#
# Youngs Moduli (GPa) = 20.54865 21.72333 69.03773
#
# Poissons Ratio (x) = 0.38601 0.42964
# Poissons Ratio (y) = 0.36513 1.12405
# Poissons Ratio (z) = 0.12788 0.35369
#
# Static dielectric constant tensor:
#      x y z
#    x 1.542380 0.000000 0.000000 
#    y 0.000000 1.562160 0.000000 
#    z 0.000000 0.000000 1.579020 
# 
# From -- ./inp_files/11030.got.cif
#   From: 2010.05.17/outbox.cif.g08.bks.cpg/sg35_6_cif.got.tgz:11030.got - 2010.06.03 17:29:28.
