data_PCOD9348478
_publ_section_title
;
Structure prediction by ZEFSAII (Michael W. Deem and Ramdas Pophale) SiO2 
 PCOD9348478
Probable space group: C M M 2
;
_chemical_formula_sum "Si O2"
_cell_formula_units_Z 64
_cell_length_a 8.242151
_cell_length_b 33.622520
_cell_length_c 12.047764
_cell_angle_alpha 90.000000
_cell_angle_beta 90.000000
_cell_angle_gamma 90.000000
_cell_volume 3338.699092
_symmetry_space_group_name_H-M "C M M 2"
_symmetry_group_IT_number 35
_symmetry_cell_setting 'orthorhombic'
loop_
_space_group_symop_operation_xyz
x,y,z
-x,-y,z
-x,y,z
x,-y,z
1/2+x,1/2+y,z
1/2-x,1/2-y,z
1/2-x,1/2+y,z
1/2+x,1/2-y,z
loop_
_atom_site_type_symbol
_atom_site_label
_atom_site_fract_x
_atom_site_fract_y
_atom_site_fract_z
Si Si1 0.310664 0.454107 0.010640
Si Si2 0.308827 0.210651 0.490679
Si Si3 0.693037 0.098795 0.578249
Si Si4 0.304079 0.868761 0.355360
Si Si5 0.805776 0.204377 0.949207
Si Si6 0.689676 0.676288 0.705351
Si Si7 0.185802 0.453460 0.769236
Si Si8 0.306294 0.130204 0.104137
O O1 0.500000 0.454078 0.039980
O O2 0.248333 0.500000 0.033025
O O3 0.230791 0.414748 0.062711
O O4 0.288222 0.447010 0.879328
O O5 0.500000 0.210806 0.514603
O O6 0.250000 0.250000 0.431049
O O7 0.275079 0.173638 0.412010
O O8 0.211687 0.207503 0.605899
O O9 0.500000 0.092886 0.566206
O O10 0.759069 0.102215 0.453203
O O11 0.719822 0.138590 0.651281
O O12 0.758329 0.065222 0.658770
O O13 0.500000 0.874429 0.347813
O O14 0.241109 0.869159 0.230738
O O15 0.750000 0.250000 0.975416
O O16 0.748993 0.191933 0.824091
O O17 0.000000 0.205847 0.946867
O O18 0.757664 0.167629 0.030839
O O19 0.500000 0.666155 0.718049
O O20 0.173614 0.500000 0.752812
O O21 0.000000 0.438162 0.788318
O O22 0.500000 0.135164 0.105194
#
# Coordination Sequence:
#
# PCOD9348478 Si02
#       8
#     8   8   8   8   8   8   8   8
#     4  10  21  37  57  82 113 146 180 222 272 324
#     4  10  19  33  53  76 103 132 167 212 262 314
#     4   9  17  32  53  76 105 137 169 210 261 315
#     4   8  18  35  52  73 101 135 174 215 259 309
#     4  11  24  39  55  79 112 147 184 226 273 325
#     4  10  20  33  51  76 104 134 171 215 264 318
#     4   9  17  30  52  82 110 135 166 206 256 317
#     4  11  22  38  59  80 107 144 187 231 272 318
#
# _framework density 19.169142999999998
#
# number of rings (size 3 to 8) (size 9 to 14) (size 15 to 20)
#    0.000    2.250    0.000    3.750    0.000    6.750 
#    0.000    8.125    0.000    2.250    0.000    1.750 
#    0.000    0.000    0.000    0.000    0.000    0.000 
#
# Total GULP energy -178141.607692 kJ/mol
# GULP energy per Si atom -5566.925240 kJ/mol
# Density = 1.912551 g / cm^3
# Si number density = 19.169143 Si / 1000 Ang^3
#
#
#
# Elastic Constant Matrix: (Units=GPa)
#
#
# Indices 1 2 3 4 5 6 
#
# 1 15.9106 17.2019 15.6812 0.0000 0.0000 0.0000
# 2 17.2019 61.6691 76.3445 0.0000 0.0000 0.0000
# 3 15.6812 76.3445 137.1997 0.0000 0.0000 0.0000
# 4 0.0000 0.0000 0.0000 -8.1573 0.0000 0.0000
# 5 0.0000 0.0000 0.0000 0.0000 -7.4243 0.0000
# 6 0.0000 0.0000 0.0000 0.0000 0.0000 24.2830
#
#
#
# Elastic Compliance Matrix: (Units=1/GPa)
#
#
# Indices 1 2 3 4 5 6 
#
# 1 0.096395 -0.042583 0.012678 0.000000 0.000000 0.000000
# 2 -0.042583 0.070929 -0.034601 0.000000 0.000000 0.000000
# 3 0.012678 -0.034601 0.025093 0.000000 0.000000 0.000000
# 4 0.000000 0.000000 0.000000 -0.122590 0.000000 0.000000
# 5 0.000000 0.000000 0.000000 0.000000 -0.134693 0.000000
# 6 0.000000 0.000000 0.000000 0.000000 0.000000 0.041181
#
#
# Mechanical properties :
#
#
# Convention : Reuss Voigt Hill
#
# Bulk Modulus (GPa) = 15.77174 48.13718 31.95446
# Shear Modulus (GPa) = 39.53686 8.77706 24.15696
#
# Velocity S-wave (km/s) = 4.54643 2.14212 3.55378
# Velocity P-wave (km/s) = 5.98378 5.59326 5.79181
#
# Compressibility (1/GPa) = 0.06340455
#
# Stress axis : x y z
#
# Youngs Moduli (GPa) = 10.37394 14.09858 39.85100
#
# Poissons Ratio (x) = 0.60036 -0.50523
# Poissons Ratio (y) = 0.44176 1.37890
# Poissons Ratio (z) = -0.13152 0.48783
#
# Static dielectric constant tensor:
#      x y z
#    x 1.707540 0.000000 0.000000 
#    y 0.000000 1.751540 0.000000 
#    z 0.000000 0.000000 1.687330 
# 
# From -- ./inp_files/12006.got.cif
#   From: 2010.05.17/outbox.cif.g08.bks.cpg/sg35_7_cif.got.tgz:12006.got - 2010.06.03 17:29:28.
