data_PCOD9348598
_publ_section_title
;
Structure prediction by ZEFSAII (Michael W. Deem and Ramdas Pophale) SiO2 
 PCOD9348598
Probable space group: C M M 2
;
_chemical_formula_sum "Si O2"
_cell_formula_units_Z 48
_cell_length_a 18.259104
_cell_length_b 24.014842
_cell_length_c 5.161399
_cell_angle_alpha 90.000000
_cell_angle_beta 90.000000
_cell_angle_gamma 90.000000
_cell_volume 2263.219255
_symmetry_space_group_name_H-M "C M M 2"
_symmetry_group_IT_number 35
_symmetry_cell_setting 'orthorhombic'
loop_
_space_group_symop_operation_xyz
x,y,z
-x,-y,z
-x,y,z
x,-y,z
1/2+x,1/2+y,z
1/2-x,1/2-y,z
1/2-x,1/2+y,z
1/2+x,1/2-y,z
loop_
_atom_site_type_symbol
_atom_site_label
_atom_site_fract_x
_atom_site_fract_y
_atom_site_fract_z
Si Si1 0.275249 0.135771 0.599510
Si Si2 0.084457 0.707969 0.560995
Si Si3 0.083820 0.940993 0.849156
Si Si4 0.183871 0.218676 0.265711
Si Si5 0.732935 0.564173 0.102231
Si Si6 0.081339 0.823351 0.875105
O O1 0.356758 0.161214 0.637251
O O2 0.222698 0.188209 0.511476
O O3 0.263944 0.094356 0.356362
O O4 0.256233 0.100750 0.853329
O O5 0.122395 0.734301 0.308127
O O6 0.000000 0.690242 0.535315
O O7 0.085621 0.764490 0.731954
O O8 0.144646 0.940185 0.072856
O O9 0.089269 0.880565 0.710607
O O10 0.000000 0.942802 0.942895
O O11 0.096691 0.000000 0.703911
O O12 0.250000 0.250000 0.125078
O O13 0.143425 0.175189 0.089081
O O14 0.759537 0.500000 0.087449
O O15 0.000000 0.824958 0.994055
#
# Coordination Sequence:
#
# PCOD9348598 Si02
#       6
#     8   8   8   8   8   8
#     4  11  24  41  67  95 129 168 213 271 324 385
#     4  10  23  39  60  92 129 170 213 266 328 387
#     4   9  18  34  58  89 128 172 215 259 307 370
#     4  10  21  33  56  87 125 165 204 260 316 383
#     4  11  23  43  67  94 127 169 218 267 324 388
#     4  10  19  34  56  83 125 167 212 259 313 379
#
# _framework density 21.208729000000002
#
# number of rings (size 3 to 8) (size 9 to 14) (size 15 to 20)
#    0.000    1.833    1.667    2.000    4.667    0.667 
#    0.000    1.667    0.000    7.000    0.000    0.000 
#    0.000    0.000    0.000    0.000    0.000    0.000 
#
# Total GULP energy -133674.491601 kJ/mol
# GULP energy per Si atom -5569.770483 kJ/mol
# Density = 2.116046 g / cm^3
# Si number density = 21.208729 Si / 1000 Ang^3
#
#
#
# Elastic Constant Matrix: (Units=GPa)
#
#
# Indices 1 2 3 4 5 6 
#
# 1 162.5570 67.3490 41.2209 0.0000 0.0000 0.0000
# 2 67.3490 139.7499 36.3781 0.0000 0.0000 0.0000
# 3 41.2209 36.3781 69.5777 0.0000 0.0000 0.0000
# 4 0.0000 0.0000 0.0000 32.6102 0.0000 0.0000
# 5 0.0000 0.0000 0.0000 0.0000 12.8800 0.0000
# 6 0.0000 0.0000 0.0000 0.0000 0.0000 27.5180
#
#
#
# Elastic Compliance Matrix: (Units=1/GPa)
#
#
# Indices 1 2 3 4 5 6 
#
# 1 0.008281 -0.003141 -0.003264 0.000000 0.000000 0.000000
# 2 -0.003141 0.009474 -0.003093 0.000000 0.000000 0.000000
# 3 -0.003264 -0.003093 0.017923 0.000000 0.000000 0.000000
# 4 0.000000 0.000000 0.000000 0.030665 0.000000 0.000000
# 5 0.000000 0.000000 0.000000 0.000000 0.077640 0.000000
# 6 0.000000 0.000000 0.000000 0.000000 0.000000 0.036340
#
#
# Mechanical properties :
#
#
# Convention : Reuss Voigt Hill
#
# Bulk Modulus (GPa) = 59.94019 73.53117 66.73568
# Shear Modulus (GPa) = 24.40467 29.73073 27.06770
#
# Velocity S-wave (km/s) = 3.39586 3.74815 3.57634
# Velocity P-wave (km/s) = 6.61054 7.31279 6.97052
#
# Compressibility (1/GPa) = 0.01668330
#
# Stress axis : x y z
#
# Youngs Moduli (GPa) = 120.76358 105.54660 55.79470
#
# Poissons Ratio (x) = 0.33154 0.18209
# Poissons Ratio (y) = 0.37933 0.17256
# Poissons Ratio (z) = 0.39411 0.32642
#
# Static dielectric constant tensor:
#      x y z
#    x 1.796700 0.000000 0.000000 
#    y 0.000000 1.850320 0.000000 
#    z 0.000000 0.000000 1.825150 
# 
# From -- ./inp_files/2556.got.cif
#   From: 2010.05.17/outbox.cif.g08.bks.cpg/sg35_2_cif.got.tgz:2556.got - 2010.06.03 17:29:28.
