data_PCOD9348083
_publ_section_title
;
Structure prediction by ZEFSAII (Michael W. Deem and Ramdas Pophale) SiO2 
 PCOD9348083
Probable space group: C M M 2
;
_chemical_formula_sum "Si O2"
_cell_formula_units_Z 48
_cell_length_a 8.658953
_cell_length_b 18.135918
_cell_length_c 15.975550
_cell_angle_alpha 90.000000
_cell_angle_beta 90.000000
_cell_angle_gamma 90.000000
_cell_volume 2508.769405
_symmetry_space_group_name_H-M "C M M 2"
_symmetry_group_IT_number 35
_symmetry_cell_setting 'orthorhombic'
loop_
_space_group_symop_operation_xyz
x,y,z
-x,-y,z
-x,y,z
x,-y,z
1/2+x,1/2+y,z
1/2-x,1/2-y,z
1/2-x,1/2+y,z
1/2+x,1/2-y,z
loop_
_atom_site_type_symbol
_atom_site_label
_atom_site_fract_x
_atom_site_fract_y
_atom_site_fract_z
Si Si1 0.684696 0.832613 0.462030
Si Si2 0.315279 0.666272 0.962030
Si Si3 0.815593 0.333214 0.135820
Si Si4 0.684407 0.833214 0.788240
Si Si5 0.316435 0.587652 0.298187
Si Si6 0.183565 0.912348 0.625873
O O1 0.500000 0.831000 0.462030
O O2 0.750000 0.750000 0.462030
O O3 0.745581 0.874075 0.379752
O O4 0.745580 0.874074 0.544308
O O5 0.500000 0.667313 0.962030
O O6 0.250000 0.750000 0.962030
O O7 0.252181 0.634348 0.875014
O O8 0.252181 0.634348 0.049046
O O9 0.750000 0.250000 0.145240
O O10 0.761438 0.379562 0.215324
O O11 0.000000 0.329589 0.130419
O O12 0.500000 0.829589 0.793641
O O13 0.750000 0.750000 0.778820
O O14 0.738563 0.879562 0.708736
O O15 0.500000 0.602410 0.295327
O O16 0.293161 0.500000 0.302735
O O17 0.000000 0.897591 0.628732
O O18 0.206839 0.000000 0.621325
#
# Coordination Sequence:
#
# PCOD9348083 Si02
#       6
#     8   8   8   8   8   8
#     4  12  25  42  65  91 119 151 193 240 287 342
#     4  10  18  32  55  84 117 152 195 243 293 343
#     4  11  21  36  59  87 119 154 197 244 291 344
#     4  11  21  36  59  87 119 154 197 244 291 344
#     4  11  24  42  62  86 119 156 193 237 292 349
#     4  11  24  42  62  86 119 156 193 237 292 349
#
# _framework density 19.132887
#
# number of rings (size 3 to 8) (size 9 to 14) (size 15 to 20)
#    0.000    1.000    0.000   10.500    0.000    4.667 
#    0.000    0.833    0.000    5.000    0.000    0.000 
#    0.000    0.000    0.000    0.000    0.000    0.000 
#
# Total GULP energy -134250.080821 kJ/mol
# GULP energy per Si atom -5593.753368 kJ/mol
# Density = 1.908934 g / cm^3
# Si number density = 19.132887 Si / 1000 Ang^3
#
#
#
# Elastic Constant Matrix: (Units=GPa)
#
#
# Indices 1 2 3 4 5 6 
#
# 1 222.1151 79.1464 109.8647 0.0000 0.0000 0.0000
# 2 79.1464 66.0479 68.0186 0.0000 0.0000 0.0000
# 3 109.8647 68.0186 224.5778 0.0000 0.0000 0.0000
# 4 0.0000 0.0000 0.0000 557.0948 0.0000 0.0000
# 5 0.0000 0.0000 0.0000 0.0000 38.8057 0.0000
# 6 0.0000 0.0000 0.0000 0.0000 0.0000 27.7559
#
#
#
# Elastic Compliance Matrix: (Units=1/GPa)
#
#
# Indices 1 2 3 4 5 6 
#
# 1 0.008192 -0.008269 -0.001503 0.000000 0.000000 0.000000
# 2 -0.008269 0.030350 -0.005147 0.000000 0.000000 0.000000
# 3 -0.001503 -0.005147 0.006747 0.000000 0.000000 0.000000
# 4 0.000000 0.000000 0.000000 0.001795 0.000000 0.000000
# 5 0.000000 0.000000 0.000000 0.000000 0.025769 0.000000
# 6 0.000000 0.000000 0.000000 0.000000 0.000000 0.036028
#
#
# Mechanical properties :
#
#
# Convention : Reuss Voigt Hill
#
# Bulk Modulus (GPa) = 64.72096 114.08891 89.40493
# Shear Modulus (GPa) = 34.75369 141.77870 88.26620
#
# Velocity S-wave (km/s) = 4.26659 8.61760 6.79951
# Velocity P-wave (km/s) = 7.62707 12.60065 10.41510
#
# Compressibility (1/GPa) = 0.01545095
#
# Stress axis : x y z
#
# Youngs Moduli (GPa) = 122.06893 32.94943 148.21174
#
# Poissons Ratio (x) = 0.27245 0.22280
# Poissons Ratio (y) = 1.00934 0.76285
# Poissons Ratio (z) = 0.18350 0.16959
#
# Static dielectric constant tensor:
#      x y z
#    x 1.638350 0.000000 0.000000 
#    y 0.000000 1.638900 0.000000 
#    z 0.000000 0.000000 1.670270 
# 
# From -- ./inp_files/17818.got.cif
#   From: 2010.05.17/outbox.cif.g08.bks.cpg/sg35_9_cif.got.tgz:17818.got - 2010.06.03 17:29:28.
