data_PCOD9348237
_publ_section_title
;
Structure prediction by ZEFSAII (Michael W. Deem and Ramdas Pophale) SiO2 
 PCOD9348237
Probable space group: C M M 2
;
_chemical_formula_sum "Si O2"
_cell_formula_units_Z 40
_cell_length_a 19.506838
_cell_length_b 8.520998
_cell_length_c 13.557378
_cell_angle_alpha 90.000000
_cell_angle_beta 90.000000
_cell_angle_gamma 90.000000
_cell_volume 2253.476563
_symmetry_space_group_name_H-M "C M M 2"
_symmetry_group_IT_number 35
_symmetry_cell_setting 'orthorhombic'
loop_
_space_group_symop_operation_xyz
x,y,z
-x,-y,z
-x,y,z
x,-y,z
1/2+x,1/2+y,z
1/2-x,1/2-y,z
1/2-x,1/2+y,z
1/2+x,1/2-y,z
loop_
_atom_site_type_symbol
_atom_site_label
_atom_site_fract_x
_atom_site_fract_y
_atom_site_fract_z
Si Si1 0.172325 0.189687 0.693850
Si Si2 0.079233 0.189547 0.875183
Si Si3 0.328157 0.311960 0.477084
Si Si4 0.079248 0.689433 0.088402
Si Si5 0.827796 0.311995 0.270935
O O1 0.250000 0.250000 0.703275
O O2 0.125842 0.244464 0.784499
O O3 0.143943 0.234213 0.585017
O O4 0.174350 0.000000 0.695897
O O5 0.000000 0.239451 0.862312
O O6 0.080484 0.000000 0.876195
O O7 0.102945 0.249581 0.981870
O O8 0.327978 0.500000 0.470085
O O9 0.250000 0.250000 0.478504
O O10 0.358053 0.243822 0.376081
O O11 0.080208 0.500000 0.086643
O O12 0.126656 0.742080 0.178678
O O13 0.000000 0.739894 0.101896
O O14 0.825410 0.500000 0.271447
O O15 0.750000 0.250000 0.262051
#
# Coordination Sequence:
#
# PCOD9348237 Si02
#       5
#     8   8   8   8   8
#     4   9  18  31  48  71  96 122 153 190 230 271
#     4   9  18  33  51  69  92 123 156 190 230 275
#     4   9  16  28  46  68  95 124 153 186 227 274
#     4   9  19  35  51  67  91 124 158 191 230 274
#     4  10  19  31  49  71  95 122 153 192 232 272
#
# _framework density 17.750350000000001
#
# number of rings (size 3 to 8) (size 9 to 14) (size 15 to 20)
#    0.000    2.800    0.000    2.400    0.000    4.000 
#    0.000    5.000    0.000    1.200    0.000    0.000 
#    0.000    0.000    0.000    0.000    0.000    0.000 
#
# Total GULP energy -111419.710982 kJ/mol
# GULP energy per Si atom -5570.985549 kJ/mol
# Density = 1.770995 g / cm^3
# Si number density = 17.750350 Si / 1000 Ang^3
#
#
#
# Elastic Constant Matrix: (Units=GPa)
#
#
# Indices 1 2 3 4 5 6 
#
# 1 50.4041 13.1539 82.0293 0.0000 0.0000 0.0000
# 2 13.1539 21.3281 31.5814 0.0000 0.0000 0.0000
# 3 82.0293 31.5814 227.3735 0.0000 0.0000 0.0000
# 4 0.0000 0.0000 0.0000 28.8393 0.0000 0.0000
# 5 0.0000 0.0000 0.0000 0.0000 -7.8058 0.0000
# 6 0.0000 0.0000 0.0000 0.0000 0.0000 14.6492
#
#
#
# Elastic Compliance Matrix: (Units=1/GPa)
#
#
# Indices 1 2 3 4 5 6 
#
# 1 0.048479 -0.005037 -0.016790 0.000000 0.000000 0.000000
# 2 -0.005037 0.059550 -0.006454 0.000000 0.000000 0.000000
# 3 -0.016790 -0.006454 0.011352 0.000000 0.000000 0.000000
# 4 0.000000 0.000000 0.000000 0.034675 0.000000 0.000000
# 5 0.000000 0.000000 0.000000 0.000000 -0.128109 0.000000
# 6 0.000000 0.000000 0.000000 0.000000 0.000000 0.068263
#
#
# Mechanical properties :
#
#
# Convention : Reuss Voigt Hill
#
# Bulk Modulus (GPa) = 15.91903 61.40389 38.66146
# Shear Modulus (GPa) = 29.11875 18.62594 23.87234
#
# Velocity S-wave (km/s) = 4.05465 3.24285 3.67126
# Velocity P-wave (km/s) = 5.55950 6.97779 6.30863
#
# Compressibility (1/GPa) = 0.06281791
#
# Stress axis : x y z
#
# Youngs Moduli (GPa) = 20.62762 16.79265 88.09194
#
# Poissons Ratio (x) = 0.08459 1.47906
# Poissons Ratio (y) = 0.10391 0.56854
# Poissons Ratio (z) = 0.34634 0.10838
#
# Static dielectric constant tensor:
#      x y z
#    x 1.578670 0.000000 0.000000 
#    y 0.000000 1.607010 0.000000 
#    z 0.000000 0.000000 1.642070 
# 
# From -- ./inp_files/4847.got.cif
#   From: 2010.05.17/outbox.cif.g08.bks.cpg/sg35_3_cif.got.tgz:4847.got - 2010.06.03 17:29:28.
