data_PCOD9348828
_publ_section_title
;
Structure prediction by ZEFSAII (Michael W. Deem and Ramdas Pophale) SiO2 
 PCOD9348828
Probable space group: C M M 2
;
_chemical_formula_sum "Si O2"
_cell_formula_units_Z 48
_cell_length_a 8.319549
_cell_length_b 14.562696
_cell_length_c 17.145408
_cell_angle_alpha 90.000000
_cell_angle_beta 90.000000
_cell_angle_gamma 90.000000
_cell_volume 2077.252985
_symmetry_space_group_name_H-M "C M M 2"
_symmetry_group_IT_number 35
_symmetry_cell_setting 'orthorhombic'
loop_
_space_group_symop_operation_xyz
x,y,z
-x,-y,z
-x,y,z
x,-y,z
1/2+x,1/2+y,z
1/2-x,1/2-y,z
1/2-x,1/2+y,z
1/2+x,1/2-y,z
loop_
_atom_site_type_symbol
_atom_site_label
_atom_site_fract_x
_atom_site_fract_y
_atom_site_fract_z
Si Si1 0.675102 0.104086 0.683980
Si Si2 0.688225 0.647396 0.842207
Si Si3 0.820403 0.609506 0.010583
Si Si4 0.823106 0.612254 0.337434
Si Si5 0.500000 0.612031 0.425576
Si Si6 0.182787 0.887902 0.175240
Si Si7 0.500000 0.612707 0.607307
O O1 0.500000 0.147254 0.670307
O O2 0.709058 0.097149 0.776333
O O3 0.835406 0.146508 0.647120
O O4 0.666716 0.000000 0.652545
O O5 0.500000 0.635298 0.825896
O O6 0.750000 0.750000 0.832555
O O7 0.722068 0.623620 0.931781
O O8 0.833973 0.500000 0.019804
O O9 0.000000 0.648561 0.000399
O O10 0.741219 0.643186 0.090423
O O11 0.823028 0.500000 0.340543
O O12 0.665377 0.642987 0.384525
O O13 0.795208 0.638755 0.247149
O O14 0.000000 0.642533 0.364747
O O15 0.500000 0.500000 0.419647
O O16 0.500000 0.635431 0.516370
O O17 0.000000 0.858590 0.189933
O O18 0.181866 0.000000 0.174513
O O19 0.500000 0.500000 0.615746
#
# Coordination Sequence:
#
# PCOD9348828 Si02
#       7
#     8   8   8   8   4   8   4
#     4  10  20  36  57  79 105 139 179 218 261 319
#     4  12  24  38  55  76 104 138 174 222 268 317
#     4  10  20  33  50  75 105 139 180 219 259 310
#     4   9  15  23  37  59  92 134 171 205 251 302
#     4   9  16  26  40  63  97 131 167 209 254 309
#     4   9  15  25  41  63  94 134 176 214 250 296
#     4   9  18  32  50  73 101 137 174 213 262 313
#
# _framework density 23.107438999999999
#
# number of rings (size 3 to 8) (size 9 to 14) (size 15 to 20)
#    0.000    2.167    1.667    3.000    0.000    5.667 
#    0.000    3.333    0.000    0.000    0.000    0.000 
#    0.000    1.333    1.333    0.000    0.000    0.000 
#
# Total GULP energy -134100.669648 kJ/mol
# GULP energy per Si atom -5587.527902 kJ/mol
# Density = 2.305485 g / cm^3
# Si number density = 23.107439 Si / 1000 Ang^3
#
#
#
# Elastic Constant Matrix: (Units=GPa)
#
#
# Indices 1 2 3 4 5 6 
#
# 1 230.2275 13.0334 81.1035 0.0000 0.0000 0.0000
# 2 13.0334 51.9483 -1.2253 0.0000 0.0000 0.0000
# 3 81.1035 -1.2253 125.5700 0.0000 0.0000 0.0000
# 4 0.0000 0.0000 0.0000 -48.9820 0.0000 0.0000
# 5 0.0000 0.0000 0.0000 0.0000 -5.7844 0.0000
# 6 0.0000 0.0000 0.0000 0.0000 0.0000 15.4160
#
#
#
# Elastic Compliance Matrix: (Units=1/GPa)
#
#
# Indices 1 2 3 4 5 6 
#
# 1 0.005742 -0.001528 -0.003723 0.000000 0.000000 0.000000
# 2 -0.001528 0.019661 0.001179 0.000000 0.000000 0.000000
# 3 -0.003723 0.001179 0.010380 0.000000 0.000000 0.000000
# 4 0.000000 0.000000 0.000000 -0.020416 0.000000 0.000000
# 5 0.000000 0.000000 0.000000 0.000000 -0.172879 0.000000
# 6 0.000000 0.000000 0.000000 0.000000 0.000000 0.064868
#
#
# Mechanical properties :
#
#
# Convention : Reuss Voigt Hill
#
# Bulk Modulus (GPa) = 36.18283 65.95210 51.06747
# Shear Modulus (GPa) = -66.41358 13.11887 -26.64735
#
# Velocity S-wave (km/s) = -5.36690 2.38530 -3.39955
# Velocity P-wave (km/s) = 4.76574 6.01579 2.59590
#
# Compressibility (1/GPa) = 0.02763742
#
# Stress axis : x y z
#
# Youngs Moduli (GPa) = 174.16413 50.86171 96.33853
#
# Poissons Ratio (x) = 0.07774 0.35871
# Poissons Ratio (y) = 0.26619 -0.11358
# Poissons Ratio (z) = 0.64848 -0.05997
#
# Static dielectric constant tensor:
#      x y z
#    x 1.851480 0.000000 0.000000 
#    y 0.000000 1.895960 0.000000 
#    z 0.000000 0.000000 1.833460 
# 
# From -- ./inp_files/15176.got.cif
#   From: 2010.05.17/outbox.cif.g08.bks.cpg/sg35_8_cif.got.tgz:15176.got - 2010.06.03 17:29:28.
