data_PCOD9348462
_publ_section_title
;
Structure prediction by ZEFSAII (Michael W. Deem and Ramdas Pophale) SiO2 
 PCOD9348462
Probable space group: C M M 2
;
_chemical_formula_sum "Si O2"
_cell_formula_units_Z 64
_cell_length_a 9.031035
_cell_length_b 29.061769
_cell_length_c 15.852912
_cell_angle_alpha 90.000000
_cell_angle_beta 90.000000
_cell_angle_gamma 90.000000
_cell_volume 4160.721247
_symmetry_space_group_name_H-M "C M M 2"
_symmetry_group_IT_number 35
_symmetry_cell_setting 'orthorhombic'
loop_
_space_group_symop_operation_xyz
x,y,z
-x,-y,z
-x,y,z
x,-y,z
1/2+x,1/2+y,z
1/2-x,1/2-y,z
1/2-x,1/2+y,z
1/2+x,1/2-y,z
loop_
_atom_site_type_symbol
_atom_site_label
_atom_site_fract_x
_atom_site_fract_y
_atom_site_fract_z
Si Si1 0.321500 0.445459 0.937500
Si Si2 0.823595 0.445959 0.576037
Si Si3 0.329666 0.444196 0.748035
Si Si4 0.823189 0.201985 0.348826
Si Si5 0.823243 0.391194 0.090639
Si Si6 0.177361 0.798774 0.149080
Si Si7 0.678235 0.604623 0.419294
Si Si8 0.824650 0.945159 0.243718
O O1 0.500000 0.440554 0.945967
O O2 0.289079 0.500000 0.947127
O O3 0.280958 0.430467 0.842087
O O4 0.238398 0.416720 0.008106
O O5 0.781355 0.500000 0.566002
O O6 0.766648 0.430276 0.667945
O O7 0.751783 0.417065 0.501141
O O8 0.000000 0.443001 0.572451
O O9 0.500000 0.429666 0.735523
O O10 0.329188 0.500000 0.750101
O O11 0.750000 0.250000 0.374238
O O12 0.791885 0.194053 0.249312
O O13 0.774972 0.157058 0.400227
O O14 0.000000 0.206060 0.356633
O O15 0.750257 0.341011 0.100214
O O16 0.768467 0.420538 0.171337
O O17 0.000000 0.388120 0.089420
O O18 0.250000 0.750000 0.125890
O O19 0.000000 0.797884 0.138082
O O20 0.500000 0.603747 0.428772
O O21 0.713324 0.574941 0.335597
O O22 0.000000 0.935253 0.228952
O O23 0.804646 0.000000 0.241788
#
# Coordination Sequence:
#
# PCOD9348462 Si02
#       8
#     8   8   8   8   8   8   8   8
#     4   9  18  33  52  72  96 129 168 207 245 287
#     4  10  20  31  45  70 102 131 159 198 246 289
#     4   8  15  30  51  71  91 122 164 204 242 287
#     4   9  18  32  51  71  92 119 157 202 247 287
#     4  12  23  32  46  71 101 133 165 199 244 294
#     4  10  19  35  54  72  95 123 162 207 250 292
#     4  10  19  33  50  69  92 127 168 201 237 287
#     4  10  20  34  49  64  91 133 173 206 240 280
#
# _framework density 15.381948
#
# number of rings (size 3 to 8) (size 9 to 14) (size 15 to 20)
#    0.000    2.250    1.250    3.375    0.000    5.250 
#    0.000    1.250    0.000    0.000    0.000    0.875 
#    0.000    4.000    0.000    0.000    0.000    0.000 
#
# Total GULP energy -178508.279063 kJ/mol
# GULP energy per Si atom -5578.383721 kJ/mol
# Density = 1.534694 g / cm^3
# Si number density = 15.381948 Si / 1000 Ang^3
#
#
#
# Elastic Constant Matrix: (Units=GPa)
#
#
# Indices 1 2 3 4 5 6 
#
# 1 59.6742 56.9243 63.2661 0.0000 0.0000 0.0000
# 2 56.9243 104.3561 71.2140 0.0000 0.0000 0.0000
# 3 63.2661 71.2140 129.1195 0.0000 0.0000 0.0000
# 4 0.0000 0.0000 0.0000 5.2055 0.0000 0.0000
# 5 0.0000 0.0000 0.0000 0.0000 8.9953 0.0000
# 6 0.0000 0.0000 0.0000 0.0000 0.0000 25.0960
#
#
#
# Elastic Compliance Matrix: (Units=1/GPa)
#
#
# Indices 1 2 3 4 5 6 
#
# 1 0.047132 -0.015955 -0.014294 0.000000 0.000000 0.000000
# 2 -0.015955 0.020767 -0.003636 0.000000 0.000000 0.000000
# 3 -0.014294 -0.003636 0.016754 0.000000 0.000000 0.000000
# 4 0.000000 0.000000 0.000000 0.192105 0.000000 0.000000
# 5 0.000000 0.000000 0.000000 0.000000 0.111169 0.000000
# 6 0.000000 0.000000 0.000000 0.000000 0.000000 0.039847
#
#
# Mechanical properties :
#
#
# Convention : Reuss Voigt Hill
#
# Bulk Modulus (GPa) = 59.23243 75.10651 67.16947
# Shear Modulus (GPa) = 9.97660 14.64238 12.30949
#
# Velocity S-wave (km/s) = 2.54951 3.08867 2.83195
# Velocity P-wave (km/s) = 6.87445 7.85198 7.37941
#
# Compressibility (1/GPa) = 0.01688264
#
# Stress axis : x y z
#
# Youngs Moduli (GPa) = 21.21698 48.15287 59.68760
#
# Poissons Ratio (x) = 0.76830 0.85317
# Poissons Ratio (y) = 0.33852 0.21703
# Poissons Ratio (z) = 0.30327 0.17509
#
# Static dielectric constant tensor:
#      x y z
#    x 1.510080 0.000000 0.000000 
#    y 0.000000 1.499560 0.000000 
#    z 0.000000 0.000000 1.499360 
# 
# From -- ./inp_files/16183.got.cif
#   From: 2010.05.17/outbox.cif.g08.bks.cpg/sg35_9_cif.got.tgz:16183.got - 2010.06.03 17:29:28.
