data_PCOD9348410
_publ_section_title
;
Structure prediction by ZEFSAII (Michael W. Deem and Ramdas Pophale) SiO2 
 PCOD9348410
Probable space group: C M M 2
;
_chemical_formula_sum "Si O2"
_cell_formula_units_Z 44
_cell_length_a 13.191274
_cell_length_b 13.628925
_cell_length_c 14.105990
_cell_angle_alpha 90.000000
_cell_angle_beta 90.000000
_cell_angle_gamma 90.000000
_cell_volume 2536.015564
_symmetry_space_group_name_H-M "C M M 2"
_symmetry_group_IT_number 35
_symmetry_cell_setting 'orthorhombic'
loop_
_space_group_symop_operation_xyz
x,y,z
-x,-y,z
-x,y,z
x,-y,z
1/2+x,1/2+y,z
1/2-x,1/2-y,z
1/2-x,1/2+y,z
1/2+x,1/2-y,z
loop_
_atom_site_type_symbol
_atom_site_label
_atom_site_fract_x
_atom_site_fract_y
_atom_site_fract_z
Si Si1 0.877273 0.887864 0.348060
Si Si2 0.879199 0.882315 0.560831
Si Si3 0.311437 0.887739 0.058051
Si Si4 0.250000 0.250000 0.702665
Si Si5 0.616485 0.693780 0.147576
Si Si6 0.120329 0.615091 0.841888
O O1 0.845378 0.856212 0.453164
O O2 0.851462 0.824518 0.256384
O O3 0.000000 0.890459 0.352445
O O4 0.842573 0.000000 0.331690
O O5 0.816848 0.821120 0.636698
O O6 0.000000 0.863275 0.569809
O O7 0.865296 0.000000 0.571329
O O8 0.371136 0.806947 0.118687
O O9 0.193887 0.866289 0.081702
O O10 0.337259 0.000000 0.080753
O O11 0.336471 0.870639 0.947911
O O12 0.177831 0.315591 0.768929
O O13 0.500000 0.662592 0.136531
O O14 0.134870 0.500000 0.817576
O O15 0.000000 0.634711 0.843116
#
# Coordination Sequence:
#
# PCOD9348410 Si02
#       6
#     8   8   8   4   8   8
#     4   8  15  30  51  74 104 139 166 195 247 306
#     4   9  19  35  53  76 106 135 164 203 253 304
#     4  10  21  35  51  73 102 135 170 208 253 302
#     4  12  20  32  58  84  96 122 174 224 250 284
#     4  10  19  32  53  78 102 132 172 210 243 290
#     4  10  22  39  54  71 102 139 168 202 258 316
#
# _framework density 17.350052000000002
#
# number of rings (size 3 to 8) (size 9 to 14) (size 15 to 20)
#    0.000    2.364    0.000    4.364    0.000    3.636 
#    0.000    0.909    0.000    3.273    0.000    5.091 
#    0.000    0.000    0.000    0.000    0.000    0.000 
#
# Total GULP energy -122691.272483 kJ/mol
# GULP energy per Si atom -5576.876022 kJ/mol
# Density = 1.731056 g / cm^3
# Si number density = 17.350052 Si / 1000 Ang^3
#
#
#
# Elastic Constant Matrix: (Units=GPa)
#
#
# Indices 1 2 3 4 5 6 
#
# 1 95.1860 38.0573 71.8854 0.0000 0.0000 0.0000
# 2 38.0573 92.3536 94.7933 0.0000 0.0000 0.0000
# 3 71.8854 94.7933 156.8161 0.0000 0.0000 0.0000
# 4 0.0000 0.0000 0.0000 5.7913 0.0000 0.0000
# 5 0.0000 0.0000 0.0000 0.0000 24.9741 0.0000
# 6 0.0000 0.0000 0.0000 0.0000 0.0000 22.6337
#
#
#
# Elastic Compliance Matrix: (Units=1/GPa)
#
#
# Indices 1 2 3 4 5 6 
#
# 1 0.016286 0.002507 -0.008981 0.000000 0.000000 0.000000
# 2 0.002507 0.028915 -0.018628 0.000000 0.000000 0.000000
# 3 -0.008981 -0.018628 0.021754 0.000000 0.000000 0.000000
# 4 0.000000 0.000000 0.000000 0.172672 0.000000 0.000000
# 5 0.000000 0.000000 0.000000 0.000000 0.040041 0.000000
# 6 0.000000 0.000000 0.000000 0.000000 0.000000 0.044182
#
#
# Mechanical properties :
#
#
# Convention : Reuss Voigt Hill
#
# Bulk Modulus (GPa) = 59.69677 83.75864 71.72771
# Shear Modulus (GPa) = 13.17044 19.98780 16.57912
#
# Velocity S-wave (km/s) = 2.75817 3.39784 3.09458
# Velocity P-wave (km/s) = 6.68022 7.98588 7.36205
#
# Compressibility (1/GPa) = 0.01675132
#
# Stress axis : x y z
#
# Youngs Moduli (GPa) = 61.40245 34.58424 45.96771
#
# Poissons Ratio (x) = -0.08672 0.41285
# Poissons Ratio (y) = -0.15396 0.85629
# Poissons Ratio (z) = 0.55147 0.64424
#
# Static dielectric constant tensor:
#      x y z
#    x 1.597640 0.000000 0.000000 
#    y 0.000000 1.588870 0.000000 
#    z 0.000000 0.000000 1.581180 
# 
# From -- ./inp_files/12823.got.cif
#   From: 2010.05.17/outbox.cif.g08.bks.cpg/sg35_7_cif.got.tgz:12823.got - 2010.06.03 17:29:28.
