data_PCOD9348636
_publ_section_title
;
Structure prediction by ZEFSAII (Michael W. Deem and Ramdas Pophale) SiO2 
 PCOD9348636
Probable space group: C M M 2
;
_chemical_formula_sum "Si O2"
_cell_formula_units_Z 48
_cell_length_a 27.201348
_cell_length_b 14.031755
_cell_length_c 5.741862
_cell_angle_alpha 90.000000
_cell_angle_beta 90.000000
_cell_angle_gamma 90.000000
_cell_volume 2191.569109
_symmetry_space_group_name_H-M "C M M 2"
_symmetry_group_IT_number 35
_symmetry_cell_setting 'orthorhombic'
loop_
_space_group_symop_operation_xyz
x,y,z
-x,-y,z
-x,y,z
x,-y,z
1/2+x,1/2+y,z
1/2-x,1/2-y,z
1/2-x,1/2+y,z
1/2+x,1/2-y,z
loop_
_atom_site_type_symbol
_atom_site_label
_atom_site_fract_x
_atom_site_fract_y
_atom_site_fract_z
Si Si1 0.443768 0.895089 0.486440
Si Si2 0.637885 0.604642 0.492093
Si Si3 0.785793 0.342308 0.993424
Si Si4 0.749092 0.864817 0.482562
Si Si5 0.386343 0.778040 0.820310
Si Si6 0.055224 0.199041 0.199484
O O1 0.500000 0.895577 0.576255
O O2 0.405290 0.870587 0.686705
O O3 0.440575 0.802805 0.322224
O O4 0.434960 0.000000 0.381654
O O5 0.625288 0.500000 0.591055
O O6 0.695351 0.602230 0.432816
O O7 0.634983 0.695677 0.657998
O O8 0.598079 0.630259 0.293384
O O9 0.750000 0.250000 0.000749
O O10 0.771769 0.390651 0.741931
O O11 0.842005 0.307591 0.985518
O O12 0.779352 0.391611 0.245156
O O13 0.750000 0.750000 0.491781
O O14 0.432715 0.726169 0.936335
O O15 0.000000 0.162697 0.235748
#
# Coordination Sequence:
#
# PCOD9348636 Si02
#       6
#     8   8   8   8   8   8
#     4   9  20  39  63  93 127 162 206 264 334 409
#     4  11  24  41  63  90 128 177 227 274 330 398
#     4  10  19  34  65  87 124 164 210 263 328 385
#     4  10  19  38  62  91 118 169 211 272 327 390
#     4  11  21  38  65  94 127 171 215 271 335 398
#     4  10  22  40  64  92 126 169 219 275 336 401
#
# _framework density 21.902117000000001
#
# number of rings (size 3 to 8) (size 9 to 14) (size 15 to 20)
#    0.000    1.833    3.333    2.500    2.333    2.333 
#    0.000    3.333    0.000    0.000    0.000    0.000 
#    0.000    0.000    0.000    0.000    0.000    0.000 
#
# Total GULP energy -133707.511793 kJ/mol
# GULP energy per Si atom -5571.146325 kJ/mol
# Density = 2.185227 g / cm^3
# Si number density = 21.902117 Si / 1000 Ang^3
#
#
#
# Elastic Constant Matrix: (Units=GPa)
#
#
# Indices 1 2 3 4 5 6 
#
# 1 69.9395 16.3983 6.7280 0.0000 0.0000 0.0000
# 2 16.3983 98.0247 -2.5183 0.0000 0.0000 0.0000
# 3 6.7280 -2.5183 92.1273 0.0000 0.0000 0.0000
# 4 0.0000 0.0000 0.0000 -7.8275 0.0000 0.0000
# 5 0.0000 0.0000 0.0000 0.0000 34.0582 0.0000
# 6 0.0000 0.0000 0.0000 0.0000 0.0000 10.8224
#
#
#
# Elastic Compliance Matrix: (Units=1/GPa)
#
#
# Indices 1 2 3 4 5 6 
#
# 1 0.015006 -0.002540 -0.001165 0.000000 0.000000 0.000000
# 2 -0.002540 0.010639 0.000476 0.000000 0.000000 0.000000
# 3 -0.001165 0.000476 0.010953 0.000000 0.000000 0.000000
# 4 0.000000 0.000000 0.000000 -0.127755 0.000000 0.000000
# 5 0.000000 0.000000 0.000000 0.000000 0.029361 0.000000
# 6 0.000000 0.000000 0.000000 0.000000 0.000000 0.092401
#
#
# Mechanical properties :
#
#
# Convention : Reuss Voigt Hill
#
# Bulk Modulus (GPa) = 33.17988 33.47860 33.32924
# Shear Modulus (GPa) = 106.13646 23.37620 64.75633
#
# Velocity S-wave (km/s) = 6.96883 3.27051 5.44338
# Velocity P-wave (km/s) = 8.94063 5.43878 7.39984
#
# Compressibility (1/GPa) = 0.03013875
#
# Stress axis : x y z
#
# Youngs Moduli (GPa) = 66.64109 93.99652 91.30202
#
# Poissons Ratio (x) = 0.23877 0.10639
# Poissons Ratio (y) = 0.16928 -0.04349
# Poissons Ratio (z) = 0.07766 -0.04477
#
# Static dielectric constant tensor:
#      x y z
#    x 1.793680 0.000000 0.000000 
#    y 0.000000 1.784070 0.000000 
#    z 0.000000 0.000000 1.891550 
# 
# From -- ./inp_files/1913.got.cif
#   From: 2010.05.17/outbox.cif.g08.bks.cpg/sg35_1_cif.got.tgz:1913.got - 2010.06.03 17:29:28.
