data_PCOD9348967
_publ_section_title
;
Structure prediction by ZEFSAII (Michael W. Deem and Ramdas Pophale) SiO2 
 PCOD9348967
Probable space group: C M M 2
;
_chemical_formula_sum "Si O2"
_cell_formula_units_Z 56
_cell_length_a 9.041951
_cell_length_b 18.323712
_cell_length_c 18.677136
_cell_angle_alpha 90.000000
_cell_angle_beta 90.000000
_cell_angle_gamma 90.000000
_cell_volume 3094.467227
_symmetry_space_group_name_H-M "C M M 2"
_symmetry_group_IT_number 35
_symmetry_cell_setting 'orthorhombic'
loop_
_space_group_symop_operation_xyz
x,y,z
-x,-y,z
-x,y,z
x,-y,z
1/2+x,1/2+y,z
1/2-x,1/2-y,z
1/2-x,1/2+y,z
1/2+x,1/2-y,z
loop_
_atom_site_type_symbol
_atom_site_label
_atom_site_fract_x
_atom_site_fract_y
_atom_site_fract_z
Si Si1 0.170628 0.411007 0.150720
Si Si2 0.677977 0.670459 0.574455
Si Si3 0.822920 0.085957 0.003576
Si Si4 0.826220 0.587813 0.443103
Si Si5 0.330066 0.411079 0.295797
Si Si6 0.178885 0.829263 0.859340
Si Si7 0.320192 0.583402 0.717586
O O1 0.175319 0.500000 0.151047
O O2 0.257971 0.386355 0.221275
O O3 0.000000 0.388956 0.154407
O O4 0.244233 0.388217 0.076062
O O5 0.500000 0.675515 0.572423
O O6 0.750000 0.750000 0.574917
O O7 0.736671 0.626368 0.506059
O O8 0.722575 0.627706 0.646808
O O9 0.779845 0.130344 0.933042
O O10 0.000000 0.091743 0.012922
O O11 0.789143 0.000000 0.992932
O O12 0.809582 0.500000 0.449139
O O13 0.762721 0.610265 0.365647
O O14 0.000000 0.605022 0.448147
O O15 0.500000 0.387591 0.301803
O O16 0.329255 0.500000 0.294331
O O17 0.250000 0.750000 0.856061
O O18 0.225728 0.876265 0.790265
O O19 0.000000 0.823726 0.857856
O O20 0.500000 0.581465 0.718346
O O21 0.267669 0.500000 0.715092
#
# Coordination Sequence:
#
# PCOD9348967 Si02
#       7
#     8   8   8   8   8   8   8
#     4   9  16  26  43  70 103 135 168 212 265 312
#     4  11  22  36  55  78 107 142 179 218 263 317
#     4   9  17  30  49  72  98 132 175 217 256 304
#     4  10  20  34  53  78 108 140 177 222 269 316
#     4   9  16  27  46  73 104 137 174 215 260 312
#     4  10  20  34  53  76 104 137 172 212 258 309
#     4   9  18  34  57  82 105 133 173 218 261 308
#
# _framework density 18.096813999999998
#
# number of rings (size 3 to 8) (size 9 to 14) (size 15 to 20)
#    0.000    2.429    0.000    3.000    0.000    7.143 
#    0.000    0.714    0.000    3.857    0.000    4.000 
#    0.000    0.000    0.000    0.000    0.000    0.000 
#
# Total GULP energy -156246.882076 kJ/mol
# GULP energy per Si atom -5580.245788 kJ/mol
# Density = 1.805562 g / cm^3
# Si number density = 18.096814 Si / 1000 Ang^3
#
#
#
# Elastic Constant Matrix: (Units=GPa)
#
#
# Indices 1 2 3 4 5 6 
#
# 1 73.8738 40.8842 69.3586 0.0000 0.0000 0.0000
# 2 40.8842 65.7641 64.9813 0.0000 0.0000 0.0000
# 3 69.3586 64.9813 192.7405 0.0000 0.0000 0.0000
# 4 0.0000 0.0000 0.0000 -8.6909 0.0000 0.0000
# 5 0.0000 0.0000 0.0000 0.0000 8.9357 0.0000
# 6 0.0000 0.0000 0.0000 0.0000 0.0000 22.9305
#
#
#
# Elastic Compliance Matrix: (Units=1/GPa)
#
#
# Indices 1 2 3 4 5 6 
#
# 1 0.023849 -0.009517 -0.005374 0.000000 0.000000 0.000000
# 2 -0.009517 0.026599 -0.005543 0.000000 0.000000 0.000000
# 3 -0.005374 -0.005543 0.008991 0.000000 0.000000 0.000000
# 4 0.000000 0.000000 0.000000 -0.115063 0.000000 0.000000
# 5 0.000000 0.000000 0.000000 0.000000 0.111911 0.000000
# 6 0.000000 0.000000 0.000000 0.000000 0.000000 0.043610
#
#
# Mechanical properties :
#
#
# Convention : Reuss Voigt Hill
#
# Bulk Modulus (GPa) = 53.84425 75.86962 64.85694
# Shear Modulus (GPa) = 34.02431 15.11201 24.56816
#
# Velocity S-wave (km/s) = 4.34075 2.89288 3.68855
# Velocity P-wave (km/s) = 7.41221 7.29203 7.35236
#
# Compressibility (1/GPa) = 0.01857208
#
# Stress axis : x y z
#
# Youngs Moduli (GPa) = 41.93134 37.59487 111.22368
#
# Poissons Ratio (x) = 0.35777 0.59767
# Poissons Ratio (y) = 0.39904 0.61654
# Poissons Ratio (z) = 0.22532 0.20840
#
# Static dielectric constant tensor:
#      x y z
#    x 1.607080 0.000000 0.000000 
#    y 0.000000 1.599260 0.000000 
#    z 0.000000 0.000000 1.601720 
# 
# From -- ./inp_files/15622.got.cif
#   From: 2010.05.17/outbox.cif.g08.bks.cpg/sg35_8_cif.got.tgz:15622.got - 2010.06.03 17:29:28.
