data_PCOD9348552
_publ_section_title
;
Structure prediction by ZEFSAII (Michael W. Deem and Ramdas Pophale) SiO2 
 PCOD9348552
Probable space group: C M M 2
;
_chemical_formula_sum "Si O2"
_cell_formula_units_Z 64
_cell_length_a 15.787031
_cell_length_b 18.546627
_cell_length_c 11.920124
_cell_angle_alpha 90.000000
_cell_angle_beta 90.000000
_cell_angle_gamma 90.000000
_cell_volume 3490.166717
_symmetry_space_group_name_H-M "C M M 2"
_symmetry_group_IT_number 35
_symmetry_cell_setting 'orthorhombic'
loop_
_space_group_symop_operation_xyz
x,y,z
-x,-y,z
-x,y,z
x,-y,z
1/2+x,1/2+y,z
1/2-x,1/2-y,z
1/2-x,1/2+y,z
1/2+x,1/2-y,z
loop_
_atom_site_type_symbol
_atom_site_label
_atom_site_fract_x
_atom_site_fract_y
_atom_site_fract_z
Si Si1 0.097894 0.810074 0.677340
Si Si2 0.817451 0.579702 0.908133
Si Si3 0.901520 0.192451 0.135690
Si Si4 0.257196 0.417491 0.658375
Si Si5 0.902968 0.342809 0.267397
Si Si6 0.168453 0.299739 0.504182
Si Si7 0.743731 0.582038 0.151231
Si Si8 0.398654 0.234570 0.903966
O O1 0.150756 0.881455 0.653372
O O2 0.110144 0.753422 0.577004
O O3 0.133541 0.771023 0.789565
O O4 0.000000 0.826356 0.694386
O O5 0.860255 0.500000 0.913477
O O6 0.771416 0.583255 0.788251
O O7 0.873424 0.651354 0.914598
O O8 0.757100 0.582638 0.016553
O O9 0.899806 0.263586 0.211853
O O10 0.834995 0.133730 0.178284
O O11 0.000000 0.167482 0.129685
O O12 0.872427 0.220071 0.012781
O O13 0.254575 0.500000 0.619116
O O14 0.199283 0.364495 0.584428
O O15 0.877313 0.331866 0.396338
O O16 0.831092 0.389940 0.206297
O O17 0.000000 0.369679 0.254893
O O18 0.250000 0.250000 0.472359
O O19 0.727812 0.500000 0.186652
O O20 0.500000 0.237228 0.900842
#
# Coordination Sequence:
#
# PCOD9348552 Si02
#       8
#     8   8   8   8   8   8   8   8
#     4  10  20  34  56  84 112 144 184 231 277 325
#     4  10  20  34  54  83 119 152 182 223 277 336
#     4  10  21  37  59  87 115 147 190 237 280 330
#     4  10  21  36  55  82 113 148 187 223 275 339
#     4  11  23  39  60  85 112 146 190 240 286 336
#     4  10  20  36  59  82 108 145 187 235 281 332
#     4  11  23  37  58  85 116 155 189 226 283 341
#     4  10  19  33  56  85 114 149 190 228 273 331
#
# _framework density 18.337233000000001
#
# number of rings (size 3 to 8) (size 9 to 14) (size 15 to 20)
#    0.000    1.750    2.500    2.250    0.000    2.500 
#    0.000    1.250    0.000    5.625    0.000    3.500 
#    0.000    0.000    0.000    0.000    0.000    0.000 
#
# Total GULP energy -178560.606812 kJ/mol
# GULP energy per Si atom -5580.018963 kJ/mol
# Density = 1.829550 g / cm^3
# Si number density = 18.337233 Si / 1000 Ang^3
#
#
#
# Elastic Constant Matrix: (Units=GPa)
#
#
# Indices 1 2 3 4 5 6 
#
# 1 73.6391 42.4006 18.5779 0.0000 0.0000 0.0000
# 2 42.4006 100.4885 4.0808 0.0000 0.0000 0.0000
# 3 18.5779 4.0808 68.1185 0.0000 0.0000 0.0000
# 4 0.0000 0.0000 0.0000 -7.0895 0.0000 0.0000
# 5 0.0000 0.0000 0.0000 0.0000 19.6056 0.0000
# 6 0.0000 0.0000 0.0000 0.0000 0.0000 12.5300
#
#
#
# Elastic Compliance Matrix: (Units=1/GPa)
#
#
# Indices 1 2 3 4 5 6 
#
# 1 0.019392 -0.007987 -0.004810 0.000000 0.000000 0.000000
# 2 -0.007987 0.013265 0.001384 0.000000 0.000000 0.000000
# 3 -0.004810 0.001384 0.015909 0.000000 0.000000 0.000000
# 4 0.000000 0.000000 0.000000 -0.141053 0.000000 0.000000
# 5 0.000000 0.000000 0.000000 0.000000 0.051006 0.000000
# 6 0.000000 0.000000 0.000000 0.000000 0.000000 0.079809
#
#
# Mechanical properties :
#
#
# Convention : Reuss Voigt Hill
#
# Bulk Modulus (GPa) = 38.85119 41.37386 40.11252
# Shear Modulus (GPa) = 71.69890 16.82165 44.26028
#
# Velocity S-wave (km/s) = 6.25980 3.03206 4.91826
# Velocity P-wave (km/s) = 8.57204 5.90505 7.36035
#
# Compressibility (1/GPa) = 0.02573924
#
# Stress axis : x y z
#
# Youngs Moduli (GPa) = 51.56717 75.38455 62.85624
#
# Poissons Ratio (x) = 0.60210 0.30236
# Poissons Ratio (y) = 0.41187 -0.08697
# Poissons Ratio (z) = 0.24805 -0.10430
#
# Static dielectric constant tensor:
#      x y z
#    x 1.633160 0.000000 0.000000 
#    y 0.000000 1.608740 0.000000 
#    z 0.000000 0.000000 1.651940 
# 
# From -- ./inp_files/13168.got.cif
#   From: 2010.05.17/outbox.cif.g08.bks.cpg/sg35_7_cif.got.tgz:13168.got - 2010.06.03 17:29:28.
