data_PCOD9348877
_publ_section_title
;
Structure prediction by ZEFSAII (Michael W. Deem and Ramdas Pophale) SiO2 
 PCOD9348877
Probable space group: C M M 2
;
_chemical_formula_sum "Si O2"
_cell_formula_units_Z 64
_cell_length_a 9.061274
_cell_length_b 19.121002
_cell_length_c 21.136442
_cell_angle_alpha 90.000000
_cell_angle_beta 90.000000
_cell_angle_gamma 90.000000
_cell_volume 3662.113432
_symmetry_space_group_name_H-M "C M M 2"
_symmetry_group_IT_number 35
_symmetry_cell_setting 'orthorhombic'
loop_
_space_group_symop_operation_xyz
x,y,z
-x,-y,z
-x,y,z
x,-y,z
1/2+x,1/2+y,z
1/2-x,1/2-y,z
1/2-x,1/2+y,z
1/2+x,1/2-y,z
loop_
_atom_site_type_symbol
_atom_site_label
_atom_site_fract_x
_atom_site_fract_y
_atom_site_fract_z
Si Si1 0.178019 0.326312 0.828400
Si Si2 0.326494 0.083835 0.566737
Si Si3 0.175737 0.174549 0.460259
Si Si4 0.679343 0.080105 0.708940
Si Si5 0.327217 0.916097 0.208810
Si Si6 0.822077 0.082813 0.938338
Si Si7 0.669546 0.584932 0.080974
Si Si8 0.176042 0.825646 0.315776
O O1 0.250000 0.250000 0.829548
O O2 0.222668 0.367571 0.764373
O O3 0.237737 0.371704 0.886975
O O4 0.000000 0.321613 0.830458
O O5 0.500000 0.102155 0.561113
O O6 0.237160 0.122057 0.512391
O O7 0.274979 0.101773 0.638118
O O8 0.314942 0.000000 0.561245
O O9 0.250000 0.250000 0.469610
O O10 0.210227 0.151759 0.388065
O O11 0.000000 0.181206 0.465594
O O12 0.500000 0.078194 0.707781
O O13 0.728600 0.000000 0.721154
O O14 0.500000 0.900551 0.214795
O O15 0.268241 0.892890 0.139935
O O16 0.238591 0.878574 0.264249
O O17 0.307469 0.000000 0.212833
O O18 0.000000 0.090314 0.932063
O O19 0.788641 0.000000 0.930869
O O20 0.782817 0.105163 0.010217
O O21 0.500000 0.607316 0.090910
O O22 0.669182 0.500000 0.080225
O O23 0.250000 0.750000 0.306426
O O24 0.000000 0.819483 0.309884
#
# Coordination Sequence:
#
# PCOD9348877 Si02
#       8
#     8   8   8   8   8   8   8   8
#     4  11  22  35  52  75 106 140 174 215 259 304
#     4   9  18  34  56  80 107 137 168 208 258 308
#     4  10  21  36  54  76 103 136 175 216 257 306
#     4   8  16  33  55  77 101 133 173 212 254 307
#     4  10  20  33  52  80 110 137 170 213 255 301
#     4   9  18  34  56  80 105 134 170 212 258 309
#     4   8  15  30  52  76 103 135 169 208 256 307
#     4  10  21  37  55  74 101 138 176 215 259 308
#
# _framework density 17.476247000000001
#
# number of rings (size 3 to 8) (size 9 to 14) (size 15 to 20)
#    0.000    2.625    0.000    3.375    0.000    4.750 
#    0.000    6.875    0.000    4.500    0.000    0.000 
#    0.000    0.000    0.000    0.000    0.000    0.000 
#
# Total GULP energy -178463.025998 kJ/mol
# GULP energy per Si atom -5576.969562 kJ/mol
# Density = 1.743647 g / cm^3
# Si number density = 17.476247 Si / 1000 Ang^3
#
#
#
# Elastic Constant Matrix: (Units=GPa)
#
#
# Indices 1 2 3 4 5 6 
#
# 1 67.9257 46.3257 76.2949 0.0000 0.0000 0.0000
# 2 46.3257 59.9369 74.3928 0.0000 0.0000 0.0000
# 3 76.2949 74.3928 164.9793 0.0000 0.0000 0.0000
# 4 0.0000 0.0000 0.0000 -44.7808 0.0000 0.0000
# 5 0.0000 0.0000 0.0000 0.0000 29.6230 0.0000
# 6 0.0000 0.0000 0.0000 0.0000 0.0000 24.7300
#
#
#
# Elastic Compliance Matrix: (Units=1/GPa)
#
#
# Indices 1 2 3 4 5 6 
#
# 1 0.036688 -0.016574 -0.009493 0.000000 0.000000 0.000000
# 2 -0.016574 0.045378 -0.012797 0.000000 0.000000 0.000000
# 3 -0.009493 -0.012797 0.016222 0.000000 0.000000 0.000000
# 4 0.000000 0.000000 0.000000 -0.022331 0.000000 0.000000
# 5 0.000000 0.000000 0.000000 0.000000 0.033758 0.000000
# 6 0.000000 0.000000 0.000000 0.000000 0.000000 0.040437
#
#
# Mechanical properties :
#
#
# Convention : Reuss Voigt Hill
#
# Bulk Modulus (GPa) = 48.63876 76.31874 62.47875
# Shear Modulus (GPa) = 21.30074 8.30301 14.80188
#
# Velocity S-wave (km/s) = 3.49498 2.18205 2.91343
# Velocity P-wave (km/s) = 6.64667 7.07907 6.86628
#
# Compressibility (1/GPa) = 0.02055974
#
# Stress axis : x y z
#
# Youngs Moduli (GPa) = 27.25681 22.03688 61.64492
#
# Poissons Ratio (x) = 0.36524 0.58518
# Poissons Ratio (y) = 0.45176 0.78889
# Poissons Ratio (z) = 0.25874 0.28201
#
# Static dielectric constant tensor:
#      x y z
#    x 1.582700 0.000000 0.000000 
#    y 0.000000 1.568210 0.000000 
#    z 0.000000 0.000000 1.597140 
# 
# From -- ./inp_files/18306.got.cif
#   From: 2010.05.17/outbox.cif.g08.bks.cpg/sg35_10_cif.got.tgz:18306.got - 2010.06.03 17:29:28.
