data_PCOD9348480
_publ_section_title
;
Structure prediction by ZEFSAII (Michael W. Deem and Ramdas Pophale) SiO2 
 PCOD9348480
Probable space group: C M M 2
;
_chemical_formula_sum "Si O2"
_cell_formula_units_Z 64
_cell_length_a 8.599319
_cell_length_b 20.617437
_cell_length_c 20.551578
_cell_angle_alpha 90.000000
_cell_angle_beta 90.000000
_cell_angle_gamma 90.000000
_cell_volume 3643.710882
_symmetry_space_group_name_H-M "C M M 2"
_symmetry_group_IT_number 35
_symmetry_cell_setting 'orthorhombic'
loop_
_space_group_symop_operation_xyz
x,y,z
-x,-y,z
-x,y,z
x,-y,z
1/2+x,1/2+y,z
1/2-x,1/2-y,z
1/2-x,1/2+y,z
1/2+x,1/2-y,z
loop_
_atom_site_type_symbol
_atom_site_label
_atom_site_fract_x
_atom_site_fract_y
_atom_site_fract_z
Si Si1 0.187298 0.178653 0.031160
Si Si2 0.687806 0.074629 0.642169
Si Si3 0.186132 0.075208 0.785770
Si Si4 0.685341 0.821289 0.887271
Si Si5 0.687635 0.574748 0.285657
Si Si6 0.312262 0.178964 0.535566
Si Si7 0.686085 0.821075 0.386345
Si Si8 0.810617 0.073843 0.137140
O O1 0.250000 0.250000 0.048113
O O2 0.240163 0.125692 0.083812
O O3 0.000000 0.180221 0.029755
O O4 0.247965 0.163194 0.958891
O O5 0.500000 0.078237 0.647588
O O6 0.759917 0.090086 0.712303
O O7 0.738962 0.124356 0.586438
O O8 0.728201 0.000000 0.626007
O O9 0.261626 0.124810 0.836091
O O10 0.000000 0.079903 0.790044
O O11 0.230730 0.000000 0.799017
O O12 0.500000 0.817861 0.890626
O O13 0.750000 0.750000 0.869268
O O14 0.500000 0.577934 0.287756
O O15 0.732466 0.500000 0.299299
O O16 0.755155 0.624660 0.337091
O O17 0.736350 0.589772 0.211215
O O18 0.500000 0.180646 0.536414
O O19 0.250000 0.250000 0.553369
O O20 0.263326 0.165268 0.461026
O O21 0.500000 0.819104 0.385167
O O22 0.750000 0.750000 0.368754
O O23 0.000000 0.073797 0.136657
O O24 0.761111 0.000000 0.122473
#
# Coordination Sequence:
#
# PCOD9348480 Si02
#       8
#     8   8   8   8   8   8   8   8
#     4  10  19  33  53  76 103 134 169 210 256 305
#     4   9  18  34  54  75 101 134 171 210 254 303
#     4  10  21  37  56  79 107 138 173 212 254 303
#     4  11  22  37  56  78 106 138 174 214 257 305
#     4   9  18  34  54  76 104 137 173 213 258 308
#     4   9  19  34  52  74 101 134 169 210 257 306
#     4  10  20  34  52  75 104 137 175 216 259 307
#     4   8  16  32  53  75 100 133 171 209 252 304
#
# _framework density 17.564511
#
# number of rings (size 3 to 8) (size 9 to 14) (size 15 to 20)
#    0.000    2.500    0.000    3.750    0.000    4.000 
#    0.000    6.250    0.000    4.125    0.000    0.000 
#    0.000    0.000    0.000    0.000    0.000    0.000 
#
# Total GULP energy -178533.121961 kJ/mol
# GULP energy per Si atom -5579.160061 kJ/mol
# Density = 1.752453 g / cm^3
# Si number density = 17.564511 Si / 1000 Ang^3
#
#
#
# Elastic Constant Matrix: (Units=GPa)
#
#
# Indices 1 2 3 4 5 6 
#
# 1 46.9861 44.5667 41.6291 0.0000 0.0000 0.0000
# 2 44.5667 153.4857 135.7913 0.0000 0.0000 0.0000
# 3 41.6291 135.7913 140.1276 0.0000 0.0000 0.0000
# 4 0.0000 0.0000 0.0000 44.5759 0.0000 0.0000
# 5 0.0000 0.0000 0.0000 0.0000 24.9229 0.0000
# 6 0.0000 0.0000 0.0000 0.0000 0.0000 28.7407
#
#
#
# Elastic Compliance Matrix: (Units=1/GPa)
#
#
# Indices 1 2 3 4 5 6 
#
# 1 0.029583 -0.005709 -0.003256 0.000000 0.000000 0.000000
# 2 -0.005709 0.046771 -0.043628 0.000000 0.000000 0.000000
# 3 -0.003256 -0.043628 0.050381 0.000000 0.000000 0.000000
# 4 0.000000 0.000000 0.000000 0.022434 0.000000 0.000000
# 5 0.000000 0.000000 0.000000 0.000000 0.040124 0.000000
# 6 0.000000 0.000000 0.000000 0.000000 0.000000 0.034794
#
#
# Mechanical properties :
#
#
# Convention : Reuss Voigt Hill
#
# Bulk Modulus (GPa) = 46.40465 87.17483 66.78974
# Shear Modulus (GPa) = 14.86079 27.55540 21.20810
#
# Velocity S-wave (km/s) = 2.91188 3.96512 3.47859
# Velocity P-wave (km/s) = 6.14673 8.40844 7.36492
#
# Compressibility (1/GPa) = 0.02154956
#
# Stress axis : x y z
#
# Youngs Moduli (GPa) = 33.80337 21.38063 19.84859
#
# Poissons Ratio (x) = 0.12207 0.06463
# Poissons Ratio (y) = 0.19299 0.86595
# Poissons Ratio (z) = 0.11006 0.93279
#
# Static dielectric constant tensor:
#      x y z
#    x 1.596770 0.000000 0.000000 
#    y 0.000000 1.577610 0.000000 
#    z 0.000000 0.000000 1.580650 
# 
# From -- ./inp_files/18373.got.cif
#   From: 2010.05.17/outbox.cif.g08.bks.cpg/sg35_10_cif.got.tgz:18373.got - 2010.06.03 17:29:28.
