data_PCOD9348363
_publ_section_title
;
Structure prediction by ZEFSAII (Michael W. Deem and Ramdas Pophale) SiO2 
 PCOD9348363
Probable space group: C M M 2
;
_chemical_formula_sum "Si O2"
_cell_formula_units_Z 64
_cell_length_a 8.578934
_cell_length_b 19.261335
_cell_length_c 21.495010
_cell_angle_alpha 90.000000
_cell_angle_beta 90.000000
_cell_angle_gamma 90.000000
_cell_volume 3551.872461
_symmetry_space_group_name_H-M "C M M 2"
_symmetry_group_IT_number 35
_symmetry_cell_setting 'orthorhombic'
loop_
_space_group_symop_operation_xyz
x,y,z
-x,-y,z
-x,y,z
x,-y,z
1/2+x,1/2+y,z
1/2-x,1/2-y,z
1/2-x,1/2+y,z
1/2+x,1/2-y,z
loop_
_atom_site_type_symbol
_atom_site_label
_atom_site_fract_x
_atom_site_fract_y
_atom_site_fract_z
Si Si1 0.312242 0.671388 0.511350
Si Si2 0.187493 0.828771 0.647349
Si Si3 0.813806 0.081513 0.894521
Si Si4 0.190328 0.920204 0.257984
Si Si5 0.311200 0.671249 0.375133
Si Si6 0.187239 0.827923 0.140642
Si Si7 0.686510 0.919086 0.760524
Si Si8 0.685377 0.172440 0.006574
O O1 0.500000 0.672252 0.511462
O O2 0.250000 0.750000 0.511327
O O3 0.264384 0.642245 0.578751
O O4 0.263656 0.643050 0.443738
O O5 0.250000 0.750000 0.652122
O O6 0.252266 0.874278 0.703323
O O7 0.000000 0.827341 0.650258
O O8 0.755058 0.104974 0.826690
O O9 0.738647 0.124252 0.950233
O O10 0.000000 0.088123 0.897370
O O11 0.772699 0.000000 0.900404
O O12 0.241374 0.877610 0.318905
O O13 0.237455 0.878727 0.196062
O O14 0.000000 0.920803 0.258633
O O15 0.242386 0.000000 0.258233
O O16 0.500000 0.674163 0.373573
O O17 0.250000 0.750000 0.367967
O O18 0.250000 0.750000 0.151480
O O19 0.000000 0.825209 0.139267
O O20 0.247496 0.851436 0.073176
O O21 0.500000 0.915262 0.763315
O O22 0.732222 0.000000 0.752435
O O23 0.500000 0.175200 0.010447
O O24 0.750000 0.250000 0.996375
#
# Coordination Sequence:
#
# PCOD9348363 Si02
#       8
#     8   8   8   8   8   8   8   8
#     4   8  15  27  45  71  99 128 164 207 253 301
#     4  10  19  32  51  76 105 135 172 216 262 309
#     4  10  21  38  59  81 106 137 172 210 254 305
#     4   9  18  31  48  72 101 132 167 208 252 299
#     4   9  16  29  50  73  97 128 167 208 252 301
#     4  10  19  33  53  75 100 132 170 209 252 302
#     4  10  21  37  55  76 104 138 175 213 255 305
#     4  11  22  37  57  81 109 137 170 212 257 304
#
# _framework density 18.018666
#
# number of rings (size 3 to 8) (size 9 to 14) (size 15 to 20)
#    0.000    2.375    0.000    3.750    0.000    3.000 
#    0.000    5.000    0.000    5.250    0.000    0.000 
#    0.000    0.000    0.000    0.000    0.000    0.000 
#
# Total GULP energy -178457.090570 kJ/mol
# GULP energy per Si atom -5576.784080 kJ/mol
# Density = 1.797765 g / cm^3
# Si number density = 18.018666 Si / 1000 Ang^3
#
#
#
# Elastic Constant Matrix: (Units=GPa)
#
#
# Indices 1 2 3 4 5 6 
#
# 1 44.4220 25.1479 47.4303 0.0000 0.0000 0.0000
# 2 25.1479 72.7019 96.0301 0.0000 0.0000 0.0000
# 3 47.4303 96.0301 218.9339 0.0000 0.0000 0.0000
# 4 0.0000 0.0000 0.0000 -1.1203 0.0000 0.0000
# 5 0.0000 0.0000 0.0000 0.0000 20.9711 0.0000
# 6 0.0000 0.0000 0.0000 0.0000 0.0000 21.1898
#
#
#
# Elastic Compliance Matrix: (Units=1/GPa)
#
#
# Indices 1 2 3 4 5 6 
#
# 1 0.029824 -0.004236 -0.004603 0.000000 0.000000 0.000000
# 2 -0.004236 0.033302 -0.013689 0.000000 0.000000 0.000000
# 3 -0.004603 -0.013689 0.011569 0.000000 0.000000 0.000000
# 4 0.000000 0.000000 0.000000 -0.892648 0.000000 0.000000
# 5 0.000000 0.000000 0.000000 0.000000 0.047685 0.000000
# 6 0.000000 0.000000 0.000000 0.000000 0.000000 0.047192
#
#
# Mechanical properties :
#
#
# Convention : Reuss Voigt Hill
#
# Bulk Modulus (GPa) = 33.74013 74.80827 54.27420
# Shear Modulus (GPa) = -7.48348 19.37144 5.94398
#
# Velocity S-wave (km/s) = -2.04015 3.28239 1.81823
# Velocity P-wave (km/s) = 3.63540 7.48149 5.88170
#
# Compressibility (1/GPa) = 0.02963830
#
# Stress axis : x y z
#
# Youngs Moduli (GPa) = 33.52963 30.02801 86.43520
#
# Poissons Ratio (x) = 0.12721 0.39787
# Poissons Ratio (y) = 0.14204 1.18325
# Poissons Ratio (z) = 0.15434 0.41107
#
# Static dielectric constant tensor:
#      x y z
#    x 1.613870 0.000000 0.000000 
#    y 0.000000 1.581970 0.000000 
#    z 0.000000 0.000000 1.638070 
# 
# From -- ./inp_files/18324.got.cif
#   From: 2010.05.17/outbox.cif.g08.bks.cpg/sg35_10_cif.got.tgz:18324.got - 2010.06.03 17:29:28.
