data_PCOD9348426
_publ_section_title
;
Structure prediction by ZEFSAII (Michael W. Deem and Ramdas Pophale) SiO2 
 PCOD9348426
Probable space group: C M M 2
;
_chemical_formula_sum "Si O2"
_cell_formula_units_Z 40
_cell_length_a 16.090407
_cell_length_b 8.343864
_cell_length_c 14.998380
_cell_angle_alpha 90.000000
_cell_angle_beta 90.000000
_cell_angle_gamma 90.000000
_cell_volume 2013.625021
_symmetry_space_group_name_H-M "C M M 2"
_symmetry_group_IT_number 35
_symmetry_cell_setting 'orthorhombic'
loop_
_space_group_symop_operation_xyz
x,y,z
-x,-y,z
-x,y,z
x,-y,z
1/2+x,1/2+y,z
1/2-x,1/2-y,z
1/2-x,1/2+y,z
1/2+x,1/2-y,z
loop_
_atom_site_type_symbol
_atom_site_label
_atom_site_fract_x
_atom_site_fract_y
_atom_site_fract_z
Si Si1 0.661993 0.193422 0.945730
Si Si2 0.154314 0.190156 0.376950
Si Si3 0.594207 0.194402 0.762174
Si Si4 0.500000 0.807908 0.260193
Si Si5 0.500000 0.195890 0.055040
Si Si6 0.844545 0.307319 0.571252
O O1 0.750000 0.250000 0.982038
O O2 0.651052 0.251693 0.843349
O O3 0.660693 0.000000 0.944396
O O4 0.583041 0.247422 0.003294
O O5 0.250000 0.250000 0.363167
O O6 0.125662 0.242513 0.476308
O O7 0.084312 0.251689 0.309109
O O8 0.157516 0.000000 0.373120
O O9 0.500000 0.232997 0.786866
O O10 0.612369 0.250540 0.662100
O O11 0.601115 0.000000 0.759170
O O12 0.500000 0.752546 0.157546
O O13 0.500000 0.000000 0.261362
O O14 0.500000 0.000000 0.053608
O O15 0.848943 0.500000 0.567776
O O16 0.750000 0.250000 0.578751
#
# Coordination Sequence:
#
# PCOD9348426 Si02
#       6
#     8   8   8   4   4   8
#     4  10  19  36  60  85 115 151 191 233 281 339
#     4  11  23  41  62  88 120 157 198 245 297 352
#     4   9  17  30  52  81 113 153 196 231 272 336
#     4  11  23  41  64  89 116 152 197 247 304 359
#     4   9  20  39  62  85 112 148 191 235 286 353
#     4  10  19  32  53  81 114 153 195 237 282 338
#
# _framework density 19.864671000000001
#
# number of rings (size 3 to 8) (size 9 to 14) (size 15 to 20)
#    0.000    2.000    1.000    4.500    1.400    0.800 
#    0.000    5.500    0.000    2.400    0.000    0.000 
#    0.000    0.000    0.000    0.000    0.000    0.000 
#
# Total GULP energy -111615.350272 kJ/mol
# GULP energy per Si atom -5580.767514 kJ/mol
# Density = 1.981946 g / cm^3
# Si number density = 19.864671 Si / 1000 Ang^3
#
#
#
# Elastic Constant Matrix: (Units=GPa)
#
#
# Indices 1 2 3 4 5 6 
#
# 1 137.2459 20.0825 92.3726 0.0000 0.0000 0.0000
# 2 20.0825 57.6884 30.4173 0.0000 0.0000 0.0000
# 3 92.3726 30.4173 157.0692 0.0000 0.0000 0.0000
# 4 0.0000 0.0000 0.0000 0.4260 0.0000 0.0000
# 5 0.0000 0.0000 0.0000 0.0000 14.1130 0.0000
# 6 0.0000 0.0000 0.0000 0.0000 0.0000 30.5289
#
#
#
# Elastic Compliance Matrix: (Units=1/GPa)
#
#
# Indices 1 2 3 4 5 6 
#
# 1 0.012073 -0.000511 -0.007001 0.000000 0.000000 0.000000
# 2 -0.000511 0.019327 -0.003442 0.000000 0.000000 0.000000
# 3 -0.007001 -0.003442 0.011151 0.000000 0.000000 0.000000
# 4 0.000000 0.000000 0.000000 2.347150 0.000000 0.000000
# 5 0.000000 0.000000 0.000000 0.000000 0.070857 0.000000
# 6 0.000000 0.000000 0.000000 0.000000 0.000000 0.032756
#
#
# Mechanical properties :
#
#
# Convention : Reuss Voigt Hill
#
# Bulk Modulus (GPa) = 48.44535 70.86091 59.65313
# Shear Modulus (GPa) = 1.98247 22.95568 12.46907
#
# Velocity S-wave (km/s) = 1.00008 3.40310 2.50811
# Velocity P-wave (km/s) = 5.07683 7.15477 6.20342
#
# Compressibility (1/GPa) = 0.02064182
#
# Stress axis : x y z
#
# Youngs Moduli (GPa) = 82.82860 51.73985 89.68117
#
# Poissons Ratio (x) = 0.02646 0.62787
# Poissons Ratio (y) = 0.04236 0.30869
# Poissons Ratio (z) = 0.57990 0.17810
#
# Static dielectric constant tensor:
#      x y z
#    x 1.699720 0.000000 0.000000 
#    y 0.000000 1.690410 0.000000 
#    z 0.000000 0.000000 1.720740 
# 
# From -- ./inp_files/14813.got.cif
#   From: 2010.05.17/outbox.cif.g08.bks.cpg/sg35_8_cif.got.tgz:14813.got - 2010.06.03 17:29:28.
