data_PCOD9348134
_publ_section_title
;
Structure prediction by ZEFSAII (Michael W. Deem and Ramdas Pophale) SiO2 
 PCOD9348134
Probable space group: C M M 2
;
_chemical_formula_sum "Si O2"
_cell_formula_units_Z 56
_cell_length_a 24.141560
_cell_length_b 8.252794
_cell_length_c 16.140880
_cell_angle_alpha 90.000000
_cell_angle_beta 90.000000
_cell_angle_gamma 90.000000
_cell_volume 3215.833416
_symmetry_space_group_name_H-M "C M M 2"
_symmetry_group_IT_number 35
_symmetry_cell_setting 'orthorhombic'
loop_
_space_group_symop_operation_xyz
x,y,z
-x,-y,z
-x,y,z
x,-y,z
1/2+x,1/2+y,z
1/2-x,1/2-y,z
1/2-x,1/2+y,z
1/2+x,1/2-y,z
loop_
_atom_site_type_symbol
_atom_site_label
_atom_site_fract_x
_atom_site_fract_y
_atom_site_fract_z
Si Si1 0.313049 0.194129 0.671140
Si Si2 0.686278 0.193601 0.355578
Si Si3 0.313976 0.196327 0.993195
Si Si4 0.500000 0.696342 0.578387
Si Si5 0.813840 0.304627 0.174436
Si Si6 0.381132 0.197918 0.833058
Si Si7 0.882128 0.192957 0.512962
Si Si8 0.500000 0.803840 0.770045
O O1 0.250000 0.250000 0.672424
O O2 0.344490 0.248655 0.754238
O O3 0.344093 0.259822 0.590693
O O4 0.315073 0.000000 0.668385
O O5 0.750000 0.250000 0.368390
O O6 0.665467 0.252119 0.264561
O O7 0.646548 0.245950 0.429499
O O8 0.687983 0.000000 0.353966
O O9 0.250000 0.250000 0.982472
O O10 0.335197 0.250510 0.084391
O O11 0.313916 0.000000 0.992300
O O12 0.352301 0.253369 0.917784
O O13 0.500000 0.500000 0.577562
O O14 0.444057 0.754255 0.533204
O O15 0.500000 0.749164 0.674382
O O16 0.816978 0.500000 0.174364
O O17 0.750000 0.250000 0.174026
O O18 0.443992 0.250535 0.815813
O O19 0.381240 0.000000 0.834683
O O20 0.884812 0.000000 0.507818
O O21 0.500000 0.000000 0.769323
#
# Coordination Sequence:
#
# PCOD9348134 Si02
#       8
#     8   8   8   4   8   8   8   4
#     4  11  21  33  48  71 100 131 160 196 241 291
#     4  10  19  32  50  75 102 131 163 200 245 293
#     4   9  16  29  47  72 101 129 159 195 238 287
#     4  10  22  38  54  71  92 122 166 211 250 285
#     4   8  15  27  46  69  98 129 159 194 235 284
#     4   9  18  30  49  72  96 126 163 201 238 282
#     4  11  22  36  52  71  95 126 162 204 247 293
#     4  10  18  34  54  71  92 126 170 207 240 285
#
# _framework density 17.413837000000001
#
# number of rings (size 3 to 8) (size 9 to 14) (size 15 to 20)
#    0.000    2.286    1.429    2.143    0.000    1.143 
#    0.000    1.429    0.000    0.857    0.000    3.000 
#    0.000    0.000    0.000    0.000    0.000    0.000 
#
# Total GULP energy -156088.315537 kJ/mol
# GULP energy per Si atom -5574.582698 kJ/mol
# Density = 1.737420 g / cm^3
# Si number density = 17.413837 Si / 1000 Ang^3
#
#
#
# Elastic Constant Matrix: (Units=GPa)
#
#
# Indices 1 2 3 4 5 6 
#
# 1 139.7686 12.0695 98.7860 0.0000 0.0000 0.0000
# 2 12.0695 15.9033 17.3673 0.0000 0.0000 0.0000
# 3 98.7860 17.3673 211.0248 0.0000 0.0000 0.0000
# 4 0.0000 0.0000 0.0000 -9.7915 0.0000 0.0000
# 5 0.0000 0.0000 0.0000 0.0000 2.5145 0.0000
# 6 0.0000 0.0000 0.0000 0.0000 0.0000 -1.1586
#
#
#
# Elastic Compliance Matrix: (Units=1/GPa)
#
#
# Indices 1 2 3 4 5 6 
#
# 1 0.010816 -0.002944 -0.004821 0.000000 0.000000 0.000000
# 2 -0.002944 0.069891 -0.004374 0.000000 0.000000 0.000000
# 3 -0.004821 -0.004374 0.007356 0.000000 0.000000 0.000000
# 4 0.000000 0.000000 0.000000 -0.102129 0.000000 0.000000
# 5 0.000000 0.000000 0.000000 0.000000 0.397698 0.000000
# 6 0.000000 0.000000 0.000000 0.000000 0.000000 -0.863144
#
#
# Mechanical properties :
#
#
# Convention : Reuss Voigt Hill
#
# Bulk Modulus (GPa) = 15.67768 69.23804 42.45786
# Shear Modulus (GPa) = -11.52146 14.21114 1.34484
#
# Velocity S-wave (km/s) = -2.57500 2.85982 0.87975
# Velocity P-wave (km/s) = 0.42627 7.12400 5.04644
#
# Compressibility (1/GPa) = 0.06378494
#
# Stress axis : x y z
#
# Youngs Moduli (GPa) = 92.45211 14.30804 135.95000
#
# Poissons Ratio (x) = 0.04212 0.65543
# Poissons Ratio (y) = 0.27218 0.59463
# Poissons Ratio (z) = 0.44573 0.06258
#
# Static dielectric constant tensor:
#      x y z
#    x 1.566790 0.000000 0.000000 
#    y 0.000000 1.600990 0.000000 
#    z 0.000000 0.000000 1.622930 
# 
# From -- ./inp_files/17468.got.cif
#   From: 2010.05.17/outbox.cif.g08.bks.cpg/sg35_9_cif.got.tgz:17468.got - 2010.06.03 17:29:28.
