data_PCOD9348649
_publ_section_title
;
Structure prediction by ZEFSAII (Michael W. Deem and Ramdas Pophale) SiO2 
 PCOD9348649
Probable space group: C M M 2
;
_chemical_formula_sum "Si O2"
_cell_formula_units_Z 58
_cell_length_a 29.550865
_cell_length_b 8.829155
_cell_length_c 12.769098
_cell_angle_alpha 90.000000
_cell_angle_beta 90.000000
_cell_angle_gamma 90.000000
_cell_volume 3331.574729
_symmetry_space_group_name_H-M "C M M 2"
_symmetry_group_IT_number 35
_symmetry_cell_setting 'orthorhombic'
loop_
_space_group_symop_operation_xyz
x,y,z
-x,-y,z
-x,y,z
x,-y,z
1/2+x,1/2+y,z
1/2-x,1/2-y,z
1/2-x,1/2+y,z
1/2+x,1/2-y,z
loop_
_atom_site_type_symbol
_atom_site_label
_atom_site_fract_x
_atom_site_fract_y
_atom_site_fract_z
Si Si1 0.910627 0.167194 0.291870
Si Si2 0.894546 0.182169 0.692709
Si Si3 0.386913 0.818660 0.082467
Si Si4 0.702228 0.181692 0.719650
Si Si5 0.796331 0.318962 0.966425
Si Si6 0.552632 0.317351 0.905100
Si Si7 0.553086 0.818502 0.497751
Si Si8 0.000000 0.000000 0.238174
O O1 0.886830 0.259718 0.200694
O O2 0.918830 0.254782 0.399541
O O3 0.889676 0.000000 0.311305
O O4 0.960178 0.128482 0.246008
O O5 0.844352 0.249441 0.676176
O O6 0.916281 0.226601 0.805448
O O7 0.927262 0.244707 0.602687
O O8 0.892767 0.000000 0.689283
O O9 0.389472 0.000000 0.080408
O O10 0.340718 0.766980 0.026473
O O11 0.427153 0.752862 0.010729
O O12 0.750000 0.250000 0.680175
O O13 0.700035 0.220497 0.843686
O O14 0.702535 0.000000 0.707973
O O15 0.793968 0.500000 0.972981
O O16 0.750000 0.250000 0.008192
O O17 0.500000 0.274755 0.888723
O O18 0.554177 0.500000 0.914418
O O19 0.500000 0.776839 0.485140
O O20 0.556272 0.000000 0.502966
#
# Coordination Sequence:
#
# PCOD9348649 Si02
#       8
#     8   8   8   8   8   8   8   2
#     4  10  20  37  56  78 106 143 186 230 268 320
#     4  11  22  36  56  81 111 148 187 228 279 332
#     4  11  22  35  53  81 113 143 179 227 278 328
#     4  10  19  35  56  81 112 144 185 231 277 331
#     4   9  19  34  54  78 109 142 180 225 272 324
#     4  10  22  36  50  73 109 150 186 219 264 325
#     4  11  22  37  58  82 110 145 188 235 280 328
#     4   8  20  36  58  76 106 144 190 236 264 314
#
# _framework density 17.409185000000001
#
# number of rings (size 3 to 8) (size 9 to 14) (size 15 to 20)
#    0.414    1.379    2.069    2.483    0.966    3.862 
#    0.000    0.000    0.000    0.828    0.000    3.862 
#    0.000    0.000    0.000    0.000    0.000    0.000 
#
# Total GULP energy -161460.945922 kJ/mol
# GULP energy per Si atom -5567.618825 kJ/mol
# Density = 1.736956 g / cm^3
# Si number density = 17.409185 Si / 1000 Ang^3
#
#
#
# Elastic Constant Matrix: (Units=GPa)
#
#
# Indices 1 2 3 4 5 6 
#
# 1 73.7697 21.3950 16.4771 0.0000 0.0000 0.0000
# 2 21.3950 41.3382 28.2300 0.0000 0.0000 0.0000
# 3 16.4771 28.2300 83.2987 0.0000 0.0000 0.0000
# 4 0.0000 0.0000 0.0000 26.8060 0.0000 0.0000
# 5 0.0000 0.0000 0.0000 0.0000 10.7486 0.0000
# 6 0.0000 0.0000 0.0000 0.0000 0.0000 28.3646
#
#
#
# Elastic Compliance Matrix: (Units=1/GPa)
#
#
# Indices 1 2 3 4 5 6 
#
# 1 0.015964 -0.007944 -0.000465 0.000000 0.000000 0.000000
# 2 -0.007944 0.035429 -0.010435 0.000000 0.000000 0.000000
# 3 -0.000465 -0.010435 0.015634 0.000000 0.000000 0.000000
# 4 0.000000 0.000000 0.000000 0.037305 0.000000 0.000000
# 5 0.000000 0.000000 0.000000 0.000000 0.093036 0.000000
# 6 0.000000 0.000000 0.000000 0.000000 0.000000 0.035255
#
#
# Mechanical properties :
#
#
# Convention : Reuss Voigt Hill
#
# Bulk Modulus (GPa) = 34.08806 36.73454 35.41130
# Shear Modulus (GPa) = 17.85136 22.00413 19.92775
#
# Velocity S-wave (km/s) = 3.20566 3.55905 3.38697
# Velocity P-wave (km/s) = 5.77275 6.16730 5.97328
#
# Compressibility (1/GPa) = 0.02933579
#
# Stress axis : x y z
#
# Youngs Moduli (GPa) = 62.64205 28.22573 63.96480
#
# Poissons Ratio (x) = 0.22423 0.02977
# Poissons Ratio (y) = 0.49765 0.66749
# Poissons Ratio (z) = 0.02915 0.29455
#
# Static dielectric constant tensor:
#      x y z
#    x 1.596620 0.000000 0.000000 
#    y 0.000000 1.592310 0.000000 
#    z 0.000000 0.000000 1.580710 
# 
# From -- ./inp_files/14345.got.cif
#   From: 2010.05.17/outbox.cif.g08.bks.cpg/sg35_8_cif.got.tgz:14345.got - 2010.06.03 17:29:28.
