data_PCOD9348256
_publ_section_title
;
Structure prediction by ZEFSAII (Michael W. Deem and Ramdas Pophale) SiO2 
 PCOD9348256
Probable space group: C M M 2
;
_chemical_formula_sum "Si O2"
_cell_formula_units_Z 56
_cell_length_a 9.102028
_cell_length_b 18.685708
_cell_length_c 18.981225
_cell_angle_alpha 90.000000
_cell_angle_beta 90.000000
_cell_angle_gamma 90.000000
_cell_volume 3228.285700
_symmetry_space_group_name_H-M "C M M 2"
_symmetry_group_IT_number 35
_symmetry_cell_setting 'orthorhombic'
loop_
_space_group_symop_operation_xyz
x,y,z
-x,-y,z
-x,y,z
x,-y,z
1/2+x,1/2+y,z
1/2-x,1/2-y,z
1/2-x,1/2+y,z
1/2+x,1/2-y,z
loop_
_atom_site_type_symbol
_atom_site_label
_atom_site_fract_x
_atom_site_fract_y
_atom_site_fract_z
Si Si1 0.323985 0.671287 0.822630
Si Si2 0.324360 0.083252 0.543753
Si Si3 0.669449 0.587227 0.401051
Si Si4 0.670676 0.912881 0.259932
Si Si5 0.823004 0.671668 0.683638
Si Si6 0.324915 0.327845 0.979243
Si Si7 0.675838 0.085199 0.103332
O O1 0.500000 0.676727 0.812218
O O2 0.250000 0.750000 0.825778
O O3 0.246862 0.637382 0.754408
O O4 0.297201 0.640329 0.900668
O O5 0.500000 0.085728 0.534531
O O6 0.250725 0.110831 0.472074
O O7 0.287673 0.127130 0.613673
O O8 0.281971 0.000000 0.553257
O O9 0.500000 0.607272 0.403939
O O10 0.679143 0.500000 0.400364
O O11 0.740931 0.612308 0.327957
O O12 0.500000 0.893123 0.267614
O O13 0.722499 0.890422 0.182079
O O14 0.676017 0.000000 0.259377
O O15 0.750000 0.750000 0.676590
O O16 0.000000 0.677201 0.690772
O O17 0.500000 0.319929 0.986471
O O18 0.250000 0.250000 0.982562
O O19 0.259217 0.375270 0.041240
O O20 0.500000 0.097053 0.097981
O O21 0.700309 0.000000 0.098530
#
# Coordination Sequence:
#
# PCOD9348256 Si02
#       7
#     8   8   8   8   8   8   8
#     4   9  17  30  48  69  92 120 156 195 232 274
#     4   9  18  32  48  67  93 124 156 189 228 275
#     4   9  16  25  41  67  94 120 153 192 231 270
#     4   8  14  26  44  65  91 124 158 190 227 274
#     4  10  19  31  50  72  93 120 154 192 232 276
#     4  10  20  33  51  73  97 127 162 200 241 286
#     4   9  18  32  50  73 100 129 161 198 241 287
#
# _framework density 17.346668000000001
#
# number of rings (size 3 to 8) (size 9 to 14) (size 15 to 20)
#    0.000    2.857    0.000    3.429    0.000    5.429 
#    0.000    2.143    0.000    3.429    0.000    4.000 
#    0.000    0.000    0.000    0.000    0.000    0.000 
#
# Total GULP energy -155939.610872 kJ/mol
# GULP energy per Si atom -5569.271817 kJ/mol
# Density = 1.730719 g / cm^3
# Si number density = 17.346668 Si / 1000 Ang^3
#
#
#
# Elastic Constant Matrix: (Units=GPa)
#
#
# Indices 1 2 3 4 5 6 
#
# 1 71.8575 26.8646 91.0888 0.0000 0.0000 0.0000
# 2 26.8646 20.3653 48.1896 0.0000 0.0000 0.0000
# 3 91.0888 48.1896 223.6713 0.0000 0.0000 0.0000
# 4 0.0000 0.0000 0.0000 43.7177 0.0000 0.0000
# 5 0.0000 0.0000 0.0000 0.0000 35.4579 0.0000
# 6 0.0000 0.0000 0.0000 0.0000 0.0000 18.1183
#
#
#
# Elastic Compliance Matrix: (Units=1/GPa)
#
#
# Indices 1 2 3 4 5 6 
#
# 1 0.033885 -0.024573 -0.008505 0.000000 0.000000 0.000000
# 2 -0.024573 0.117991 -0.015414 0.000000 0.000000 0.000000
# 3 -0.008505 -0.015414 0.011255 0.000000 0.000000 0.000000
# 4 0.000000 0.000000 0.000000 0.022874 0.000000 0.000000
# 5 0.000000 0.000000 0.000000 0.000000 0.028202 0.000000
# 6 0.000000 0.000000 0.000000 0.000000 0.000000 0.055193
#
#
# Mechanical properties :
#
#
# Convention : Reuss Voigt Hill
#
# Bulk Modulus (GPa) = 15.11783 72.02002 43.56892
# Shear Modulus (GPa) = 12.87223 29.44221 21.15722
#
# Velocity S-wave (km/s) = 2.72703 4.12428 3.49617
# Velocity P-wave (km/s) = 4.31852 8.01797 6.43962
#
# Compressibility (1/GPa) = 0.06614704
#
# Stress axis : x y z
#
# Youngs Moduli (GPa) = 29.51191 8.47522 88.84701
#
# Poissons Ratio (x) = 0.20826 0.75565
# Poissons Ratio (y) = 0.72520 1.36945
# Poissons Ratio (z) = 0.25100 0.13063
#
# Static dielectric constant tensor:
#      x y z
#    x 1.578490 0.000000 0.000000 
#    y 0.000000 1.575550 0.000000 
#    z 0.000000 0.000000 1.622930 
# 
# From -- ./inp_files/18259.got.cif
#   From: 2010.05.17/outbox.cif.g08.bks.cpg/sg35_10_cif.got.tgz:18259.got - 2010.06.03 17:29:28.
