data_PCOD9348923
_publ_section_title
;
Structure prediction by ZEFSAII (Michael W. Deem and Ramdas Pophale) SiO2 
 PCOD9348923
Probable space group: C M M 2
;
_chemical_formula_sum "Si O2"
_cell_formula_units_Z 64
_cell_length_a 8.629792
_cell_length_b 20.412615
_cell_length_c 20.746433
_cell_angle_alpha 90.000000
_cell_angle_beta 90.000000
_cell_angle_gamma 90.000000
_cell_volume 3654.621548
_symmetry_space_group_name_H-M "C M M 2"
_symmetry_group_IT_number 35
_symmetry_cell_setting 'orthorhombic'
loop_
_space_group_symop_operation_xyz
x,y,z
-x,-y,z
-x,y,z
x,-y,z
1/2+x,1/2+y,z
1/2-x,1/2-y,z
1/2-x,1/2+y,z
1/2+x,1/2-y,z
loop_
_atom_site_type_symbol
_atom_site_label
_atom_site_fract_x
_atom_site_fract_y
_atom_site_fract_z
Si Si1 0.814282 0.322109 0.631740
Si Si2 0.312913 0.178124 0.779636
Si Si3 0.685460 0.575658 0.529326
Si Si4 0.313071 0.575382 0.027360
Si Si5 0.313470 0.677625 0.136955
Si Si6 0.686472 0.177676 0.278500
Si Si7 0.813097 0.424548 0.388470
Si Si8 0.312825 0.075285 0.887012
O O1 0.750000 0.250000 0.615757
O O2 0.766381 0.336859 0.705798
O O3 0.752683 0.375914 0.582523
O O4 0.000000 0.320441 0.629251
O O5 0.500000 0.180046 0.781070
O O6 0.250000 0.250000 0.795978
O O7 0.260011 0.124072 0.830881
O O8 0.500000 0.578455 0.530610
O O9 0.733879 0.500000 0.541010
O O10 0.743921 0.593554 0.457840
O O11 0.500000 0.576439 0.024592
O O12 0.264620 0.500000 0.040077
O O13 0.264381 0.624917 0.083465
O O14 0.248565 0.594529 0.957406
O O15 0.500000 0.679997 0.139243
O O16 0.250000 0.750000 0.121348
O O17 0.250442 0.660248 0.207809
O O18 0.500000 0.180137 0.275756
O O19 0.750000 0.250000 0.294261
O O20 0.734264 0.125021 0.332200
O O21 0.768047 0.500000 0.374415
O O22 0.000000 0.422441 0.393120
O O23 0.500000 0.076458 0.888434
O O24 0.264105 0.000000 0.874957
#
# Coordination Sequence:
#
# PCOD9348923 Si02
#       8
#     8   8   8   8   8   8   8   8
#     4  10  20  35  55  77 104 138 173 213 259 307
#     4   9  19  34  52  75 102 132 167 207 251 300
#     4  10  21  36  54  78 107 137 172 214 256 303
#     4   9  19  35  52  72  99 131 167 205 247 295
#     4  10  20  34  52  73 100 132 165 204 247 295
#     4  10  20  34  53  76 102 131 165 206 249 297
#     4   9  19  36  55  75 101 134 171 209 251 300
#     4   9  18  33  52  74 100 130 166 207 248 293
#
# _framework density 17.512072
#
# number of rings (size 3 to 8) (size 9 to 14) (size 15 to 20)
#    0.000    2.500    0.000    2.250    0.000    5.750 
#    0.000    5.000    0.000    1.500    0.000    0.000 
#    0.000    0.000    0.000    0.000    0.000    0.000 
#
# Total GULP energy -178533.816329 kJ/mol
# GULP energy per Si atom -5579.181760 kJ/mol
# Density = 1.747221 g / cm^3
# Si number density = 17.512072 Si / 1000 Ang^3
#
#
#
# Elastic Constant Matrix: (Units=GPa)
#
#
# Indices 1 2 3 4 5 6 
#
# 1 27.5199 34.5521 38.4655 0.0000 0.0000 0.0000
# 2 34.5521 128.9098 135.3647 0.0000 0.0000 0.0000
# 3 38.4655 135.3647 166.0031 0.0000 0.0000 0.0000
# 4 0.0000 0.0000 0.0000 45.1270 0.0000 0.0000
# 5 0.0000 0.0000 0.0000 0.0000 26.9389 0.0000
# 6 0.0000 0.0000 0.0000 0.0000 0.0000 26.1650
#
#
#
# Elastic Compliance Matrix: (Units=1/GPa)
#
#
# Indices 1 2 3 4 5 6 
#
# 1 0.055374 -0.009521 -0.005067 0.000000 0.000000 0.000000
# 2 -0.009521 0.055608 -0.043138 0.000000 0.000000 0.000000
# 3 -0.005067 -0.043138 0.042374 0.000000 0.000000 0.000000
# 4 0.000000 0.000000 0.000000 0.022160 0.000000 0.000000
# 5 0.000000 0.000000 0.000000 0.000000 0.037121 0.000000
# 6 0.000000 0.000000 0.000000 0.000000 0.000000 0.038219
#
#
# Mechanical properties :
#
#
# Convention : Reuss Voigt Hill
#
# Bulk Modulus (GPa) = 26.38305 82.13304 54.25804
# Shear Modulus (GPa) = 13.19459 27.24954 20.22207
#
# Velocity S-wave (km/s) = 2.74789 3.94895 3.40185
# Velocity P-wave (km/s) = 5.01660 8.23377 6.81767
#
# Compressibility (1/GPa) = 0.03790312
#
# Stress axis : x y z
#
# Youngs Moduli (GPa) = 18.05899 17.98316 23.59915
#
# Poissons Ratio (x) = 0.17123 0.11958
# Poissons Ratio (y) = 0.17195 1.01802
# Poissons Ratio (z) = 0.09150 0.77576
#
# Static dielectric constant tensor:
#      x y z
#    x 1.595550 0.000000 0.000000 
#    y 0.000000 1.581930 0.000000 
#    z 0.000000 0.000000 1.572550 
# 
# From -- ./inp_files/18383.got.cif
#   From: 2010.05.17/outbox.cif.g08.bks.cpg/sg35_10_cif.got.tgz:18383.got - 2010.06.03 17:29:28.
