data_PCOD9348429
_publ_section_title
;
Structure prediction by ZEFSAII (Michael W. Deem and Ramdas Pophale) SiO2 
 PCOD9348429
Probable space group: C M M 2
;
_chemical_formula_sum "Si O2"
_cell_formula_units_Z 48
_cell_length_a 15.600042
_cell_length_b 8.915317
_cell_length_c 17.543058
_cell_angle_alpha 90.000000
_cell_angle_beta 90.000000
_cell_angle_gamma 90.000000
_cell_volume 2439.876571
_symmetry_space_group_name_H-M "C M M 2"
_symmetry_group_IT_number 35
_symmetry_cell_setting 'orthorhombic'
loop_
_space_group_symop_operation_xyz
x,y,z
-x,-y,z
-x,y,z
x,-y,z
1/2+x,1/2+y,z
1/2-x,1/2-y,z
1/2-x,1/2+y,z
1/2+x,1/2-y,z
loop_
_atom_site_type_symbol
_atom_site_label
_atom_site_fract_x
_atom_site_fract_y
_atom_site_fract_z
Si Si1 0.604501 0.673480 0.669260
Si Si2 0.000000 0.182144 0.078839
Si Si3 0.000000 0.181041 0.256180
Si Si4 0.103501 0.821983 0.498656
Si Si5 0.339303 0.678939 0.978589
Si Si6 0.339594 0.821318 0.344382
Si Si7 0.896002 0.672545 0.824013
O O1 0.500000 0.676388 0.668551
O O2 0.629555 0.500000 0.680310
O O3 0.630871 0.721881 0.584354
O O4 0.632716 0.771054 0.740911
O O5 0.000000 0.223691 0.167156
O O6 0.083744 0.232567 0.032886
O O7 0.000000 0.000000 0.076354
O O8 0.083021 0.248309 0.297314
O O9 0.000000 0.000000 0.263352
O O10 0.145445 0.726118 0.432301
O O11 0.000000 0.805667 0.493411
O O12 0.121722 0.000000 0.488238
O O13 0.334663 0.500000 0.982025
O O14 0.250000 0.750000 0.002658
O O15 0.359769 0.728759 0.892379
O O16 0.250000 0.750000 0.318910
O O17 0.339226 0.000000 0.336822
O O18 0.871500 0.500000 0.835822
O O19 0.000000 0.682747 0.826249
#
# Coordination Sequence:
#
# PCOD9348429 Si02
#       7
#     8   4   4   8   8   8   8
#     4   8  15  28  50  81 115 158 206 250 301 356
#     4   9  22  43  69  94 121 158 195 239 304 369
#     4  11  23  45  71  96 127 158 197 251 308 373
#     4   9  17  33  58  86 120 162 205 253 307 361
#     4  11  22  40  63  91 123 159 201 246 299 361
#     4  12  25  41  63  94 127 166 209 252 306 366
#     4  10  19  32  53  84 120 160 205 252 301 352
#
# _framework density 19.673127000000001
#
# number of rings (size 3 to 8) (size 9 to 14) (size 15 to 20)
#    0.000    2.000    1.667    3.750    0.000    2.000 
#    0.000    7.500    0.000    4.000    0.000    0.000 
#    0.000    0.000    0.000    0.000    0.000    0.000 
#
# Total GULP energy -134110.811427 kJ/mol
# GULP energy per Si atom -5587.950476 kJ/mol
# Density = 1.962835 g / cm^3
# Si number density = 19.673127 Si / 1000 Ang^3
#
#
#
# Elastic Constant Matrix: (Units=GPa)
#
#
# Indices 1 2 3 4 5 6 
#
# 1 117.7927 58.8395 67.9784 0.0000 0.0000 0.0000
# 2 58.8395 99.9538 56.3815 0.0000 0.0000 0.0000
# 3 67.9784 56.3815 135.8604 0.0000 0.0000 0.0000
# 4 0.0000 0.0000 0.0000 12.2872 0.0000 0.0000
# 5 0.0000 0.0000 0.0000 0.0000 -11.2518 0.0000
# 6 0.0000 0.0000 0.0000 0.0000 0.0000 27.0804
#
#
#
# Elastic Compliance Matrix: (Units=1/GPa)
#
#
# Indices 1 2 3 4 5 6 
#
# 1 0.013981 -0.005594 -0.004674 0.000000 0.000000 0.000000
# 2 -0.005594 0.015300 -0.003551 0.000000 0.000000 0.000000
# 3 -0.004674 -0.003551 0.011173 0.000000 0.000000 0.000000
# 4 0.000000 0.000000 0.000000 0.081386 0.000000 0.000000
# 5 0.000000 0.000000 0.000000 0.000000 -0.088875 0.000000
# 6 0.000000 0.000000 0.000000 0.000000 0.000000 0.036927
#
#
# Mechanical properties :
#
#
# Convention : Reuss Voigt Hill
#
# Bulk Modulus (GPa) = 78.02100 80.00063 79.01081
# Shear Modulus (GPa) = 49.11498 16.98365 33.04931
#
# Velocity S-wave (km/s) = 5.00197 2.94137 4.10313
# Velocity P-wave (km/s) = 8.55011 7.23110 7.91812
#
# Compressibility (1/GPa) = 0.01281706
#
# Stress axis : x y z
#
# Youngs Moduli (GPa) = 71.52527 65.35817 89.50311
#
# Poissons Ratio (x) = 0.36559 0.41835
# Poissons Ratio (y) = 0.40008 0.31781
# Poissons Ratio (z) = 0.33432 0.23207
#
# Static dielectric constant tensor:
#      x y z
#    x 1.711650 0.000000 0.000000 
#    y 0.000000 1.654310 0.000000 
#    z 0.000000 0.000000 1.673700 
# 
# From -- ./inp_files/18777.got.cif
#   From: 2010.05.17/outbox.cif.g08.bks.cpg/sg35_10_cif.got.tgz:18777.got - 2010.06.03 17:29:28.
