data_PCOD9348620
_publ_section_title
;
Structure prediction by ZEFSAII (Michael W. Deem and Ramdas Pophale) SiO2 
 PCOD9348620
Probable space group: C M M 2
;
_chemical_formula_sum "Si O2"
_cell_formula_units_Z 36
_cell_length_a 9.219149
_cell_length_b 15.267353
_cell_length_c 12.937833
_cell_angle_alpha 90.000000
_cell_angle_beta 90.000000
_cell_angle_gamma 90.000000
_cell_volume 1821.025898
_symmetry_space_group_name_H-M "C M M 2"
_symmetry_group_IT_number 35
_symmetry_cell_setting 'orthorhombic'
loop_
_space_group_symop_operation_xyz
x,y,z
-x,-y,z
-x,y,z
x,-y,z
1/2+x,1/2+y,z
1/2-x,1/2-y,z
1/2-x,1/2+y,z
1/2+x,1/2-y,z
loop_
_atom_site_type_symbol
_atom_site_label
_atom_site_fract_x
_atom_site_fract_y
_atom_site_fract_z
Si Si1 0.659363 0.326683 0.823100
Si Si2 0.326341 0.000000 0.778893
Si Si3 0.825404 0.000000 0.558215
Si Si4 0.673900 0.602097 0.169873
Si Si5 0.672550 0.341978 0.404819
Si Si6 0.250000 0.750000 0.025401
O O1 0.500000 0.343246 0.778458
O O2 0.750000 0.250000 0.766059
O O3 0.755721 0.413285 0.827955
O O4 0.642571 0.288812 0.938938
O O5 0.500000 0.000000 0.785765
O O6 0.267772 0.000000 0.661676
O O7 0.790933 0.914668 0.489889
O O8 0.000000 0.000000 0.578838
O O9 0.500000 0.620275 0.153947
O O10 0.697839 0.500000 0.146024
O O11 0.704970 0.620772 0.290253
O O12 0.769883 0.667763 0.101188
O O13 0.500000 0.328678 0.408936
O O14 0.750000 0.250000 0.420648
#
# Coordination Sequence:
#
# PCOD9348620 Si02
#       6
#     8   4   4   8   8   4
#     4  10  23  42  64  92 128 165 212 264 317 378
#     4  12  26  44  69  94 124 161 212 273 332 386
#     4  10  22  42  65  88 122 167 212 255 312 382
#     4  10  19  34  58  89 125 168 212 251 302 371
#     4  10  20  37  61  90 125 164 207 254 305 368
#     4  10  22  34  64  92 128 162 214 254 318 362
#
# _framework density 19.769075999999998
#
# number of rings (size 3 to 8) (size 9 to 14) (size 15 to 20)
#    0.667    1.111    2.222    2.333    1.556    1.778 
#    0.000    2.222    0.000    2.667    0.000    0.000 
#    0.000    0.000    0.000    0.000    0.000    0.000 
#
# Total GULP energy -100256.653754 kJ/mol
# GULP energy per Si atom -5569.814097 kJ/mol
# Density = 1.972408 g / cm^3
# Si number density = 19.769076 Si / 1000 Ang^3
#
#
#
# Elastic Constant Matrix: (Units=GPa)
#
#
# Indices 1 2 3 4 5 6 
#
# 1 99.3080 65.5949 32.3110 0.0000 0.0000 0.0000
# 2 65.5949 175.6179 36.4840 0.0000 0.0000 0.0000
# 3 32.3110 36.4840 71.0724 0.0000 0.0000 0.0000
# 4 0.0000 0.0000 0.0000 104.9309 0.0000 0.0000
# 5 0.0000 0.0000 0.0000 0.0000 18.4212 0.0000
# 6 0.0000 0.0000 0.0000 0.0000 0.0000 179.7937
#
#
#
# Elastic Compliance Matrix: (Units=1/GPa)
#
#
# Indices 1 2 3 4 5 6 
#
# 1 0.014428 -0.004507 -0.004246 0.000000 0.000000 0.000000
# 2 -0.004507 0.007782 -0.001946 0.000000 0.000000 0.000000
# 3 -0.004246 -0.001946 0.016999 0.000000 0.000000 0.000000
# 4 0.000000 0.000000 0.000000 0.009530 0.000000 0.000000
# 5 0.000000 0.000000 0.000000 0.000000 0.054285 0.000000
# 6 0.000000 0.000000 0.000000 0.000000 0.000000 0.005562
#
#
# Mechanical properties :
#
#
# Convention : Reuss Voigt Hill
#
# Bulk Modulus (GPa) = 56.14127 68.30868 62.22498
# Shear Modulus (GPa) = 36.78624 74.73637 55.76131
#
# Velocity S-wave (km/s) = 4.31838 6.15522 5.31672
# Velocity P-wave (km/s) = 7.30237 9.22735 8.32072
#
# Compressibility (1/GPa) = 0.01781221
#
# Stress axis : x y z
#
# Youngs Moduli (GPa) = 69.30961 128.50521 58.82649
#
# Poissons Ratio (x) = 0.57917 0.24976
# Poissons Ratio (y) = 0.31238 0.11446
# Poissons Ratio (z) = 0.29427 0.25003
#
# Static dielectric constant tensor:
#      x y z
#    x 1.699700 0.000000 0.000000 
#    y 0.000000 1.690410 0.000000 
#    z 0.000000 0.000000 1.718320 
# 
# From -- ./inp_files/14667.got.cif
#   From: 2010.05.17/outbox.cif.g08.bks.cpg/sg35_8_cif.got.tgz:14667.got - 2010.06.03 17:29:28.
