data_PCOD9348355
_publ_section_title
;
Structure prediction by ZEFSAII (Michael W. Deem and Ramdas Pophale) SiO2 
 PCOD9348355
Probable space group: C M M 2
;
_chemical_formula_sum "Si O2"
_cell_formula_units_Z 40
_cell_length_a 8.230142
_cell_length_b 27.191107
_cell_length_c 9.816475
_cell_angle_alpha 90.000000
_cell_angle_beta 90.000000
_cell_angle_gamma 90.000000
_cell_volume 2196.796269
_symmetry_space_group_name_H-M "C M M 2"
_symmetry_group_IT_number 35
_symmetry_cell_setting 'orthorhombic'
loop_
_space_group_symop_operation_xyz
x,y,z
-x,-y,z
-x,y,z
x,-y,z
1/2+x,1/2+y,z
1/2-x,1/2-y,z
1/2-x,1/2+y,z
1/2+x,1/2-y,z
loop_
_atom_site_type_symbol
_atom_site_label
_atom_site_fract_x
_atom_site_fract_y
_atom_site_fract_z
Si Si1 0.805411 0.106556 0.088680
Si Si2 0.696472 0.196012 0.589658
Si Si3 0.194179 0.696101 0.902820
Si Si4 0.808504 0.000000 0.073222
Si Si5 0.802668 0.500000 0.384457
Si Si6 0.195490 0.607530 0.401410
O O1 0.742104 0.053614 0.031524
O O2 0.745510 0.112809 0.243849
O O3 0.000000 0.103806 0.093036
O O4 0.754607 0.152127 0.996756
O O5 0.500000 0.194940 0.590117
O O6 0.750000 0.250000 0.541670
O O7 0.752524 0.190160 0.746313
O O8 0.757525 0.151826 0.494778
O O9 0.250000 0.750000 0.950770
O O10 0.000000 0.695324 0.901905
O O11 0.780458 0.000000 0.236274
O O12 0.000000 0.000000 0.041307
O O13 0.757026 0.447639 0.449472
O O14 0.000000 0.500000 0.366513
O O15 0.000000 0.609463 0.406022
#
# Coordination Sequence:
#
# PCOD9348355 Si02
#       6
#     8   8   8   4   4   8
#     4  10  19  32  51  75 100 129 163 201 241 285
#     4   9  19  34  51  70  95 126 160 196 239 288
#     4  10  20  35  52  71  96 129 165 202 244 291
#     4   8  16  30  47  68  98 130 160 194 237 284
#     4   8  14  26  47  70  94 124 156 192 239 284
#     4   9  17  31  50  73  98 125 159 200 240 284
#
# _framework density 18.208335000000002
#
# number of rings (size 3 to 8) (size 9 to 14) (size 15 to 20)
#    0.000    2.800    0.000    1.200    0.000    3.200 
#    0.000    3.000    0.000    2.400    0.000    4.200 
#    0.000    0.000    0.000    0.000    0.000    0.000 
#
# Total GULP energy -111393.041259 kJ/mol
# GULP energy per Si atom -5569.652063 kJ/mol
# Density = 1.816689 g / cm^3
# Si number density = 18.208335 Si / 1000 Ang^3
#
#
#
# Elastic Constant Matrix: (Units=GPa)
#
#
# Indices 1 2 3 4 5 6 
#
# 1 7.8399 14.2452 4.9578 0.0000 0.0000 0.0000
# 2 14.2452 230.6076 88.0270 0.0000 0.0000 0.0000
# 3 4.9578 88.0270 53.8076 0.0000 0.0000 0.0000
# 4 0.0000 0.0000 0.0000 -40.9357 0.0000 0.0000
# 5 0.0000 0.0000 0.0000 0.0000 12.1075 0.0000
# 6 0.0000 0.0000 0.0000 0.0000 0.0000 22.2359
#
#
#
# Elastic Compliance Matrix: (Units=1/GPa)
#
#
# Indices 1 2 3 4 5 6 
#
# 1 0.143914 -0.010195 0.003418 0.000000 0.000000 0.000000
# 2 -0.010195 0.012270 -0.019133 0.000000 0.000000 0.000000
# 3 0.003418 -0.019133 0.049571 0.000000 0.000000 0.000000
# 4 0.000000 0.000000 0.000000 -0.024429 0.000000 0.000000
# 5 0.000000 0.000000 0.000000 0.000000 0.082594 0.000000
# 6 0.000000 0.000000 0.000000 0.000000 0.000000 0.044972
#
#
# Mechanical properties :
#
#
# Convention : Reuss Voigt Hill
#
# Bulk Modulus (GPa) = 6.49624 56.30168 31.39896
# Shear Modulus (GPa) = 12.13520 11.01655 11.57587
#
# Velocity S-wave (km/s) = 2.58440 2.46240 2.52414
# Velocity P-wave (km/s) = 3.53284 6.25080 5.07708
#
# Compressibility (1/GPa) = 0.15393523
#
# Stress axis : x y z
#
# Youngs Moduli (GPa) = 6.94857 81.50194 20.17302
#
# Poissons Ratio (x) = 0.83088 -0.06895
# Poissons Ratio (y) = 0.07084 0.38598
# Poissons Ratio (z) = -0.02375 1.55940
#
# Static dielectric constant tensor:
#      x y z
#    x 1.639040 0.000000 0.000000 
#    y 0.000000 1.688890 0.000000 
#    z 0.000000 0.000000 1.596290 
# 
# From -- ./inp_files/4993.got.cif
#   From: 2010.05.17/outbox.cif.g08.bks.cpg/sg35_3_cif.got.tgz:4993.got - 2010.06.03 17:29:28.
