data_PCOD9348722
_publ_section_title
;
Structure prediction by ZEFSAII (Michael W. Deem and Ramdas Pophale) SiO2 
 PCOD9348722
Probable space group: C M M 2
;
_chemical_formula_sum "Si O2"
_cell_formula_units_Z 56
_cell_length_a 20.001489
_cell_length_b 14.292761
_cell_length_c 9.551768
_cell_angle_alpha 90.000000
_cell_angle_beta 90.000000
_cell_angle_gamma 90.000000
_cell_volume 2730.626023
_symmetry_space_group_name_H-M "C M M 2"
_symmetry_group_IT_number 35
_symmetry_cell_setting 'orthorhombic'
loop_
_space_group_symop_operation_xyz
x,y,z
-x,-y,z
-x,y,z
x,-y,z
1/2+x,1/2+y,z
1/2-x,1/2-y,z
1/2-x,1/2+y,z
1/2+x,1/2-y,z
loop_
_atom_site_type_symbol
_atom_site_label
_atom_site_fract_x
_atom_site_fract_y
_atom_site_fract_z
Si Si1 0.872976 0.728130 0.597060
Si Si2 0.828091 0.755228 0.291799
Si Si3 0.923039 0.111661 0.115554
Si Si4 0.864580 0.388386 0.079742
Si Si5 0.500000 0.110984 0.603612
Si Si6 0.500000 0.112604 0.935729
Si Si7 0.877955 0.891726 0.797606
Si Si8 0.782609 0.609800 0.810703
O O1 0.837787 0.763848 0.457121
O O2 0.933034 0.660204 0.551519
O O3 0.901103 0.815336 0.686006
O O4 0.822109 0.671050 0.697225
O O5 0.750000 0.750000 0.259025
O O6 0.869361 0.834614 0.210025
O O7 0.856028 0.658942 0.228212
O O8 0.000000 0.139237 0.145123
O O9 0.917277 0.000000 0.138326
O O10 0.906561 0.127543 0.951773
O O11 0.865480 0.500000 0.092252
O O12 0.933164 0.353620 0.009484
O O13 0.807533 0.363474 0.966179
O O14 0.500000 0.129513 0.771224
O O15 0.500000 0.000000 0.579954
O O16 0.500000 0.000000 0.950280
O O17 0.797042 0.882618 0.801082
O O18 0.893970 0.000000 0.762082
O O19 0.801134 0.500000 0.790480
#
# Coordination Sequence:
#
# PCOD9348722 Si02
#       8
#     8   8   8   8   4   4   8   8
#     4  12  25  40  64  94 133 175 213 264 324 391
#     4  12  27  42  63  95 134 175 217 265 327 396
#     4  10  24  46  71  95 128 172 224 279 329 387
#     4  10  21  37  62  93 127 168 211 261 318 378
#     4  11  24  43  66  98 129 167 211 260 326 390
#     4   9  18  37  63  94 123 157 206 256 309 372
#     4  10  22  40  66  96 123 162 221 276 322 376
#     4  10  19  37  64  93 128 169 216 269 321 377
#
# _framework density 20.508116999999999
#
# number of rings (size 3 to 8) (size 9 to 14) (size 15 to 20)
#    0.000    1.429    1.429    3.429    3.000    3.429 
#    0.000    0.714    0.000    0.000    0.000    0.000 
#    0.000    0.000    0.000    0.000    0.000    0.000 
#
# Total GULP energy -156575.701367 kJ/mol
# GULP energy per Si atom -5591.989335 kJ/mol
# Density = 2.046144 g / cm^3
# Si number density = 20.508117 Si / 1000 Ang^3
#
#
#
# Elastic Constant Matrix: (Units=GPa)
#
#
# Indices 1 2 3 4 5 6 
#
# 1 88.9882 40.1051 17.3102 0.0000 0.0000 0.0000
# 2 40.1051 103.5463 43.9935 0.0000 0.0000 0.0000
# 3 17.3102 43.9935 86.5154 0.0000 0.0000 0.0000
# 4 0.0000 0.0000 0.0000 7.0222 0.0000 0.0000
# 5 0.0000 0.0000 0.0000 0.0000 37.0947 0.0000
# 6 0.0000 0.0000 0.0000 0.0000 0.0000 30.2257
#
#
#
# Elastic Compliance Matrix: (Units=1/GPa)
#
#
# Indices 1 2 3 4 5 6 
#
# 1 0.013614 -0.005250 -0.000054 0.000000 0.000000 0.000000
# 2 -0.005250 0.014343 -0.006243 0.000000 0.000000 0.000000
# 3 -0.000054 -0.006243 0.014744 0.000000 0.000000 0.000000
# 4 0.000000 0.000000 0.000000 0.142405 0.000000 0.000000
# 5 0.000000 0.000000 0.000000 0.000000 0.026958 0.000000
# 6 0.000000 0.000000 0.000000 0.000000 0.000000 0.033084
#
#
# Mechanical properties :
#
#
# Convention : Reuss Voigt Hill
#
# Bulk Modulus (GPa) = 51.00294 53.54085 52.27190
# Shear Modulus (GPa) = 18.19637 26.71127 22.45382
#
# Velocity S-wave (km/s) = 2.98195 3.61289 3.31248
# Velocity P-wave (km/s) = 6.06462 6.60059 6.33828
#
# Compressibility (1/GPa) = 0.01960671
#
# Stress axis : x y z
#
# Youngs Moduli (GPa) = 73.45383 69.71834 67.82294
#
# Poissons Ratio (x) = 0.36601 0.00369
# Poissons Ratio (y) = 0.38562 0.42344
# Poissons Ratio (z) = 0.00399 0.43527
#
# Static dielectric constant tensor:
#      x y z
#    x 1.693200 0.000000 0.000000 
#    y 0.000000 1.746720 0.000000 
#    z 0.000000 0.000000 1.673100 
# 
# From -- ./inp_files/7692.got.cif
#   From: 2010.05.17/outbox.cif.g08.bks.cpg/sg35_4_cif.got.tgz:7692.got - 2010.06.03 17:29:28.
