data_PCOD9348630
_publ_section_title
;
Structure prediction by ZEFSAII (Michael W. Deem and Ramdas Pophale) SiO2 
 PCOD9348630
Probable space group: C M M 2
;
_chemical_formula_sum "Si O2"
_cell_formula_units_Z 64
_cell_length_a 15.239691
_cell_length_b 23.112051
_cell_length_c 9.012794
_cell_angle_alpha 90.000000
_cell_angle_beta 90.000000
_cell_angle_gamma 90.000000
_cell_volume 3174.490950
_symmetry_space_group_name_H-M "C M M 2"
_symmetry_group_IT_number 35
_symmetry_cell_setting 'orthorhombic'
loop_
_space_group_symop_operation_xyz
x,y,z
-x,-y,z
-x,y,z
x,-y,z
1/2+x,1/2+y,z
1/2-x,1/2-y,z
1/2-x,1/2+y,z
1/2+x,1/2-y,z
loop_
_atom_site_type_symbol
_atom_site_label
_atom_site_fract_x
_atom_site_fract_y
_atom_site_fract_z
Si Si1 0.722243 0.875431 0.865800
Si Si2 0.399946 0.775584 0.735360
Si Si3 0.102921 0.614515 0.347690
Si Si4 0.098021 0.866033 0.359671
Si Si5 0.401599 0.641103 0.717524
Si Si6 0.396519 0.064098 0.653595
Si Si7 0.353614 0.239501 0.388686
Si Si8 0.755664 0.932887 0.173467
O O1 0.673642 0.815159 0.815855
O O2 0.814407 0.885842 0.783600
O O3 0.653977 0.921818 0.802108
O O4 0.743195 0.889674 0.034832
O O5 0.500000 0.796843 0.764708
O O6 0.396246 0.707684 0.774417
O O7 0.387454 0.771011 0.556802
O O8 0.128201 0.606957 0.520951
O O9 0.123161 0.680673 0.304122
O O10 0.163186 0.571403 0.257692
O O11 0.000000 0.602650 0.334326
O O12 0.106554 0.864134 0.539041
O O13 0.107471 0.797994 0.320196
O O14 0.170541 0.905194 0.280977
O O15 0.000000 0.886158 0.322445
O O16 0.500000 0.619664 0.756259
O O17 0.500000 0.068352 0.677505
O O18 0.376061 0.000000 0.600100
O O19 0.250000 0.250000 0.397416
O O20 0.775050 0.000000 0.135113
#
# Coordination Sequence:
#
# PCOD9348630 Si02
#       8
#     8   8   8   8   8   8   8   8
#     4  12  22  38  62  86 127 174 212 260 313 383
#     4  10  19  34  60  97 130 157 199 254 319 386
#     4  11  22  40  64  92 127 164 211 271 324 376
#     4  10  21  42  70  97 126 162 212 276 334 386
#     4   9  20  39  66  96 123 155 203 269 334 388
#     4  10  21  37  61  91 120 160 215 268 316 370
#     4  11  18  35  68 101 130 160 197 263 329 388
#     4  12  28  45  60  87 130 180 225 261 314 388
#
# _framework density 20.160712
#
# number of rings (size 3 to 8) (size 9 to 14) (size 15 to 20)
#    0.000    1.375    2.500    5.625    0.000    2.500 
#    4.500    0.625    0.000    2.625    0.000    0.000 
#    0.000    0.000    0.000    0.000    0.000    0.000 
#
# Total GULP energy -178497.224218 kJ/mol
# GULP energy per Si atom -5578.038257 kJ/mol
# Density = 2.011483 g / cm^3
# Si number density = 20.160712 Si / 1000 Ang^3
#
#
#
# Elastic Constant Matrix: (Units=GPa)
#
#
# Indices 1 2 3 4 5 6 
#
# 1 100.0069 7.4134 40.0350 0.0000 0.0000 0.0000
# 2 7.4134 57.2932 9.0287 0.0000 0.0000 0.0000
# 3 40.0350 9.0287 46.8784 0.0000 0.0000 0.0000
# 4 0.0000 0.0000 0.0000 19.0073 0.0000 0.0000
# 5 0.0000 0.0000 0.0000 0.0000 -10.2814 0.0000
# 6 0.0000 0.0000 0.0000 0.0000 0.0000 21.0534
#
#
#
# Elastic Compliance Matrix: (Units=1/GPa)
#
#
# Indices 1 2 3 4 5 6 
#
# 1 0.015194 0.000081 -0.012992 0.000000 0.000000 0.000000
# 2 0.000081 0.018001 -0.003536 0.000000 0.000000 0.000000
# 3 -0.012992 -0.003536 0.033108 0.000000 0.000000 0.000000
# 4 0.000000 0.000000 0.000000 0.052611 0.000000 0.000000
# 5 0.000000 0.000000 0.000000 0.000000 -0.097263 0.000000
# 6 0.000000 0.000000 0.000000 0.000000 0.000000 0.047498
#
#
# Mechanical properties :
#
#
# Convention : Reuss Voigt Hill
#
# Bulk Modulus (GPa) = 29.93167 35.23699 32.58433
# Shear Modulus (GPa) = 44.17730 15.80261 29.98996
#
# Velocity S-wave (km/s) = 4.68616 2.80274 3.86105
# Velocity P-wave (km/s) = 6.64522 5.29054 6.00619
#
# Compressibility (1/GPa) = 0.03340943
#
# Stress axis : x y z
#
# Youngs Moduli (GPa) = 65.81463 55.55298 30.20407
#
# Poissons Ratio (x) = -0.00452 0.39240
# Poissons Ratio (y) = -0.00535 0.10681
# Poissons Ratio (z) = 0.85505 0.19646
#
# Static dielectric constant tensor:
#      x y z
#    x 1.719910 0.000000 0.000000 
#    y 0.000000 1.760100 0.000000 
#    z 0.000000 0.000000 1.718910 
# 
# From -- ./inp_files/7840.got.cif
#   From: 2010.05.17/outbox.cif.g08.bks.cpg/sg35_4_cif.got.tgz:7840.got - 2010.06.03 17:29:28.
