data_PCOD9348667
_publ_section_title
;
Structure prediction by ZEFSAII (Michael W. Deem and Ramdas Pophale) SiO2 
 PCOD9348667
Probable space group: C M M 2
;
_chemical_formula_sum "Si O2"
_cell_formula_units_Z 64
_cell_length_a 8.531853
_cell_length_b 30.221836
_cell_length_c 12.653188
_cell_angle_alpha 90.000000
_cell_angle_beta 90.000000
_cell_angle_gamma 90.000000
_cell_volume 3262.602536
_symmetry_space_group_name_H-M "C M M 2"
_symmetry_group_IT_number 35
_symmetry_cell_setting 'orthorhombic'
loop_
_space_group_symop_operation_xyz
x,y,z
-x,-y,z
-x,y,z
x,-y,z
1/2+x,1/2+y,z
1/2-x,1/2-y,z
1/2-x,1/2+y,z
1/2+x,1/2-y,z
loop_
_atom_site_type_symbol
_atom_site_label
_atom_site_fract_x
_atom_site_fract_y
_atom_site_fract_z
Si Si1 0.316553 0.568392 0.227140
Si Si2 0.815154 0.661276 0.282512
Si Si3 0.312587 0.950867 0.994591
Si Si4 0.311026 0.047980 0.456949
Si Si5 0.686265 0.294220 0.093394
Si Si6 0.189589 0.645120 0.519493
Si Si7 0.186786 0.138917 0.910174
Si Si8 0.687894 0.800103 0.722262
O O1 0.500000 0.558017 0.227058
O O2 0.287230 0.620668 0.239410
O O3 0.237973 0.549923 0.333742
O O4 0.243650 0.553757 0.116192
O O5 0.775047 0.700629 0.204204
O O6 0.776092 0.666780 0.405534
O O7 0.000000 0.649916 0.275826
O O8 0.500000 0.947456 0.993612
O O9 0.244315 0.911111 0.924965
O O10 0.266822 0.000000 0.957222
O O11 0.500000 0.049026 0.461297
O O12 0.254773 0.093715 0.511637
O O13 0.258415 0.000000 0.500021
O O14 0.500000 0.292037 0.107746
O O15 0.750000 0.250000 0.039134
O O16 0.724616 0.335569 0.019055
O O17 0.246551 0.675142 0.615608
O O18 0.000000 0.643004 0.528904
O O19 0.262397 0.167732 0.817543
O O20 0.000000 0.139426 0.896870
O O21 0.500000 0.797569 0.718953
O O22 0.750000 0.750000 0.732160
#
# Coordination Sequence:
#
# PCOD9348667 Si02
#       8
#     8   8   8   8   8   8   8   8
#     4  11  20  31  50  81 121 162 200 241 289 345
#     4  10  19  35  58  83 118 158 197 243 295 351
#     4  11  23  38  59  87 119 159 203 243 291 351
#     4   9  17  32  55  82 114 155 201 243 291 353
#     4  11  23  37  56  85 118 154 193 238 297 362
#     4   8  18  36  58  86 116 150 193 248 301 348
#     4  11  24  42  63  88 120 153 196 249 302 355
#     4  11  23  42  66  89 116 151 201 254 304 360
#
# _framework density 19.616240999999999
#
# number of rings (size 3 to 8) (size 9 to 14) (size 15 to 20)
#    0.000    1.750    1.250    4.500    0.000    5.750 
#    0.000    8.125    0.000    2.250    0.000    0.000 
#    0.000    0.000    0.000    0.000    0.000    0.000 
#
# Total GULP energy -178604.858286 kJ/mol
# GULP energy per Si atom -5581.401821 kJ/mol
# Density = 1.957159 g / cm^3
# Si number density = 19.616241 Si / 1000 Ang^3
#
#
#
# Elastic Constant Matrix: (Units=GPa)
#
#
# Indices 1 2 3 4 5 6 
#
# 1 32.8317 32.6568 29.3183 0.0000 0.0000 0.0000
# 2 32.6568 151.8678 64.0338 0.0000 0.0000 0.0000
# 3 29.3183 64.0338 103.0697 0.0000 0.0000 0.0000
# 4 0.0000 0.0000 0.0000 11.8333 0.0000 0.0000
# 5 0.0000 0.0000 0.0000 0.0000 10.1528 0.0000
# 6 0.0000 0.0000 0.0000 0.0000 0.0000 25.6025
#
#
#
# Elastic Compliance Matrix: (Units=1/GPa)
#
#
# Indices 1 2 3 4 5 6 
#
# 1 0.044187 -0.005693 -0.009032 0.000000 0.000000 0.000000
# 2 -0.005693 0.009655 -0.004379 0.000000 0.000000 0.000000
# 3 -0.009032 -0.004379 0.014992 0.000000 0.000000 0.000000
# 4 0.000000 0.000000 0.000000 0.084507 0.000000 0.000000
# 5 0.000000 0.000000 0.000000 0.000000 0.098495 0.000000
# 6 0.000000 0.000000 0.000000 0.000000 0.000000 0.039059
#
#
# Mechanical properties :
#
#
# Convention : Reuss Voigt Hill
#
# Bulk Modulus (GPa) = 32.65273 59.97636 46.31454
# Shear Modulus (GPa) = 14.73570 20.30173 17.51871
#
# Velocity S-wave (km/s) = 2.74377 3.22055 2.99167
# Velocity P-wave (km/s) = 5.16910 6.66862 5.96616
#
# Compressibility (1/GPa) = 0.03062531
#
# Stress axis : x y z
#
# Youngs Moduli (GPa) = 22.63119 103.56944 66.70299
#
# Poissons Ratio (x) = 0.58967 0.60245
# Poissons Ratio (y) = 0.12885 0.29209
# Poissons Ratio (z) = 0.20440 0.45353
#
# Static dielectric constant tensor:
#      x y z
#    x 1.673570 0.000000 0.000000 
#    y 0.000000 1.778950 0.000000 
#    z 0.000000 0.000000 1.678190 
# 
# From -- ./inp_files/11927.got.cif
#   From: 2010.05.17/outbox.cif.g08.bks.cpg/sg35_6_cif.got.tgz:11927.got - 2010.06.03 17:29:28.
