data_PCOD9348391
_publ_section_title
;
Structure prediction by ZEFSAII (Michael W. Deem and Ramdas Pophale) SiO2 
 PCOD9348391
Probable space group: C M M 2
;
_chemical_formula_sum "Si O2"
_cell_formula_units_Z 48
_cell_length_a 8.081926
_cell_length_b 15.907963
_cell_length_c 18.320160
_cell_angle_alpha 90.000000
_cell_angle_beta 90.000000
_cell_angle_gamma 90.000000
_cell_volume 2355.367640
_symmetry_space_group_name_H-M "C M M 2"
_symmetry_group_IT_number 35
_symmetry_cell_setting 'orthorhombic'
loop_
_space_group_symop_operation_xyz
x,y,z
-x,-y,z
-x,y,z
x,-y,z
1/2+x,1/2+y,z
1/2-x,1/2-y,z
1/2-x,1/2+y,z
1/2+x,1/2-y,z
loop_
_atom_site_type_symbol
_atom_site_label
_atom_site_fract_x
_atom_site_fract_y
_atom_site_fract_z
Si Si1 0.196324 0.652144 0.314670
Si Si2 0.812380 0.900953 0.628616
Si Si3 0.296517 0.000000 0.213451
Si Si4 0.697104 0.000000 0.046477
Si Si5 0.197996 0.153484 0.473019
Si Si6 0.302211 0.347597 0.944337
Si Si7 0.699806 0.346753 0.784197
O O1 0.250000 0.750000 0.305713
O O2 0.258778 0.584539 0.255695
O O3 0.241304 0.618611 0.395727
O O4 0.000000 0.653957 0.309669
O O5 0.733973 0.877006 0.551133
O O6 0.733726 0.879226 0.706613
O O7 0.000000 0.862970 0.628792
O O8 0.828182 0.000000 0.627480
O O9 0.500000 0.000000 0.214473
O O10 0.240662 0.000000 0.129702
O O11 0.749368 0.084372 0.003815
O O12 0.500000 0.000000 0.049345
O O13 0.250000 0.250000 0.469440
O O14 0.000000 0.142679 0.473983
O O15 0.500000 0.346657 0.941782
O O16 0.250000 0.250000 0.956672
O O17 0.242008 0.378141 0.863607
O O18 0.500000 0.359051 0.782580
O O19 0.750000 0.250000 0.785544
#
# Coordination Sequence:
#
# PCOD9348391 Si02
#       7
#     8   8   4   4   8   8   8
#     4  10  20  38  60  83 111 146 185 227 278 335
#     4   9  18  30  47  74 106 142 182 224 268 315
#     4   9  22  41  61  84 113 148 182 225 287 343
#     4  11  23  41  63  88 119 152 188 239 295 351
#     4  10  19  32  52  77 105 141 182 225 270 321
#     4  10  21  38  61  90 119 155 197 239 289 347
#     4   9  18  33  55  76 104 144 185 227 272 323
#
# _framework density 20.378985
#
# number of rings (size 3 to 8) (size 9 to 14) (size 15 to 20)
#    0.000    2.333    0.000    3.250    2.333    1.333 
#    0.000    7.083    0.000    2.000    0.000    0.000 
#    0.000    0.000    0.000    0.000    0.000    0.000 
#
# Total GULP energy -133697.591759 kJ/mol
# GULP energy per Si atom -5570.732990 kJ/mol
# Density = 2.033260 g / cm^3
# Si number density = 20.378985 Si / 1000 Ang^3
#
#
#
# Elastic Constant Matrix: (Units=GPa)
#
#
# Indices 1 2 3 4 5 6 
#
# 1 30.0948 9.8861 18.9351 0.0000 0.0000 0.0000
# 2 9.8861 87.0356 98.1313 0.0000 0.0000 0.0000
# 3 18.9351 98.1313 241.8318 0.0000 0.0000 0.0000
# 4 0.0000 0.0000 0.0000 44.3784 0.0000 0.0000
# 5 0.0000 0.0000 0.0000 0.0000 20.0811 0.0000
# 6 0.0000 0.0000 0.0000 0.0000 0.0000 21.3574
#
#
#
# Elastic Compliance Matrix: (Units=1/GPa)
#
#
# Indices 1 2 3 4 5 6 
#
# 1 0.035076 -0.001636 -0.002082 0.000000 0.000000 0.000000
# 2 -0.001636 0.021256 -0.008497 0.000000 0.000000 0.000000
# 3 -0.002082 -0.008497 0.007746 0.000000 0.000000 0.000000
# 4 0.000000 0.000000 0.000000 0.022533 0.000000 0.000000
# 5 0.000000 0.000000 0.000000 0.000000 0.049798 0.000000
# 6 0.000000 0.000000 0.000000 0.000000 0.000000 0.046822
#
#
# Mechanical properties :
#
#
# Convention : Reuss Voigt Hill
#
# Bulk Modulus (GPa) = 25.22301 68.09635 46.65968
# Shear Modulus (GPa) = 22.63683 32.63068 27.63376
#
# Velocity S-wave (km/s) = 3.33647 4.00583 3.68638
# Velocity P-wave (km/s) = 5.21982 7.40831 6.40819
#
# Compressibility (1/GPa) = 0.03964633
#
# Stress axis : x y z
#
# Youngs Moduli (GPa) = 28.50949 47.04601 129.09644
#
# Poissons Ratio (x) = 0.07698 0.26883
# Poissons Ratio (y) = 0.04665 1.09695
# Poissons Ratio (z) = 0.05937 0.39976
#
# Static dielectric constant tensor:
#      x y z
#    x 1.757220 0.000000 0.000000 
#    y 0.000000 1.703760 0.000000 
#    z 0.000000 0.000000 1.812250 
# 
# From -- ./inp_files/17935.got.cif
#   From: 2010.05.17/outbox.cif.g08.bks.cpg/sg35_9_cif.got.tgz:17935.got - 2010.06.03 17:29:28.
