data_PCOD9348266
_publ_section_title
;
Structure prediction by ZEFSAII (Michael W. Deem and Ramdas Pophale) SiO2 
 PCOD9348266
Probable space group: C M M 2
;
_chemical_formula_sum "Si O2"
_cell_formula_units_Z 56
_cell_length_a 14.894821
_cell_length_b 16.656902
_cell_length_c 13.200657
_cell_angle_alpha 90.000000
_cell_angle_beta 90.000000
_cell_angle_gamma 90.000000
_cell_volume 3275.103776
_symmetry_space_group_name_H-M "C M M 2"
_symmetry_group_IT_number 35
_symmetry_cell_setting 'orthorhombic'
loop_
_space_group_symop_operation_xyz
x,y,z
-x,-y,z
-x,y,z
x,-y,z
1/2+x,1/2+y,z
1/2-x,1/2-y,z
1/2-x,1/2+y,z
1/2+x,1/2-y,z
loop_
_atom_site_type_symbol
_atom_site_label
_atom_site_fract_x
_atom_site_fract_y
_atom_site_fract_z
Si Si1 0.721422 0.158491 0.989740
Si Si2 0.787490 0.401930 0.598067
Si Si3 0.901947 0.904348 0.914982
Si Si4 0.394128 0.903512 0.173787
Si Si5 0.103143 0.597746 0.404371
Si Si6 0.895032 0.402715 0.800952
Si Si7 0.399710 0.401949 0.681895
O O1 0.750000 0.250000 0.982847
O O2 0.816572 0.113704 0.982458
O O3 0.659782 0.133115 0.894688
O O4 0.667072 0.138247 0.090799
O O5 0.786946 0.500000 0.596152
O O6 0.831748 0.374278 0.493475
O O7 0.848009 0.379512 0.695139
O O8 0.685403 0.374850 0.617112
O O9 0.886439 0.876120 0.799010
O O10 0.000000 0.873333 0.948873
O O11 0.908162 0.000000 0.908217
O O12 0.500000 0.887225 0.156385
O O13 0.372740 0.879169 0.289533
O O14 0.382708 0.000000 0.165191
O O15 0.103676 0.500000 0.405450
O O16 0.000000 0.621905 0.424606
O O17 0.889907 0.500000 0.808752
O O18 0.000000 0.380270 0.802866
O O19 0.500000 0.377054 0.649732
O O20 0.398807 0.500000 0.681234
#
# Coordination Sequence:
#
# PCOD9348266 Si02
#       7
#     8   8   8   8   8   8   8
#     4  12  23  32  46  69 101 130 167 201 247 291
#     4   9  14  23  44  74 104 126 153 198 248 296
#     4   9  17  31  49  66  88 124 167 202 233 278
#     4   9  18  34  55  75  97 127 164 207 253 301
#     4   8  14  25  44  73 101 122 150 194 250 302
#     4  10  19  31  50  76 104 131 158 197 250 303
#     4   8  13  22  39  64  93 125 160 192 225 274
#
# _framework density 17.098693999999998
#
# number of rings (size 3 to 8) (size 9 to 14) (size 15 to 20)
#    0.000    2.714    1.429    3.857    0.000    4.000 
#    0.000    0.000    0.000    1.714    0.000    4.000 
#    0.000    0.000    0.000    0.000    0.000    0.000 
#
# Total GULP energy -156015.431428 kJ/mol
# GULP energy per Si atom -5571.979694 kJ/mol
# Density = 1.705978 g / cm^3
# Si number density = 17.098694 Si / 1000 Ang^3
#
#
#
# Elastic Constant Matrix: (Units=GPa)
#
#
# Indices 1 2 3 4 5 6 
#
# 1 150.8229 22.3955 90.6040 0.0000 0.0000 0.0000
# 2 22.3955 11.0249 16.9826 0.0000 0.0000 0.0000
# 3 90.6040 16.9826 118.5907 0.0000 0.0000 0.0000
# 4 0.0000 0.0000 0.0000 -4.4175 0.0000 0.0000
# 5 0.0000 0.0000 0.0000 0.0000 40.4726 0.0000
# 6 0.0000 0.0000 0.0000 0.0000 0.0000 0.8430
#
#
#
# Elastic Compliance Matrix: (Units=1/GPa)
#
#
# Indices 1 2 3 4 5 6 
#
# 1 0.014031 -0.015382 -0.008517 0.000000 0.000000 0.000000
# 2 -0.015382 0.133238 -0.007328 0.000000 0.000000 0.000000
# 3 -0.008517 -0.007328 0.015989 0.000000 0.000000 0.000000
# 4 0.000000 0.000000 0.000000 -0.226375 0.000000 0.000000
# 5 0.000000 0.000000 0.000000 0.000000 0.024708 0.000000
# 6 0.000000 0.000000 0.000000 0.000000 0.000000 1.186202
#
#
# Mechanical properties :
#
#
# Convention : Reuss Voigt Hill
#
# Bulk Modulus (GPa) = 9.92031 60.04472 34.98252
# Shear Modulus (GPa) = 4.01979 17.41006 10.71493
#
# Velocity S-wave (km/s) = 1.53494 3.19440 2.50602
# Velocity P-wave (km/s) = 2.99262 6.98559 5.37374
#
# Compressibility (1/GPa) = 0.10080327
#
# Stress axis : x y z
#
# Youngs Moduli (GPa) = 71.27275 7.50538 62.54462
#
# Poissons Ratio (x) = 0.11545 0.53267
# Poissons Ratio (y) = 1.09632 0.45833
# Poissons Ratio (z) = 0.60701 0.05500
#
# Static dielectric constant tensor:
#      x y z
#    x 1.495370 0.000000 0.000000 
#    y 0.000000 1.550960 0.000000 
#    z 0.000000 0.000000 1.564340 
# 
# From -- ./inp_files/13012.got.cif
#   From: 2010.05.17/outbox.cif.g08.bks.cpg/sg35_7_cif.got.tgz:13012.got - 2010.06.03 17:29:28.
