data_PCOD9348897
_publ_section_title
;
Structure prediction by ZEFSAII (Michael W. Deem and Ramdas Pophale) SiO2 
 PCOD9348897
Probable space group: C M M 2
;
_chemical_formula_sum "Si O2"
_cell_formula_units_Z 56
_cell_length_a 16.316107
_cell_length_b 14.392520
_cell_length_c 10.110248
_cell_angle_alpha 90.000000
_cell_angle_beta 90.000000
_cell_angle_gamma 90.000000
_cell_volume 2374.188490
_symmetry_space_group_name_H-M "C M M 2"
_symmetry_group_IT_number 35
_symmetry_cell_setting 'orthorhombic'
loop_
_space_group_symop_operation_xyz
x,y,z
-x,-y,z
-x,y,z
x,-y,z
1/2+x,1/2+y,z
1/2-x,1/2-y,z
1/2-x,1/2+y,z
1/2+x,1/2-y,z
loop_
_atom_site_type_symbol
_atom_site_label
_atom_site_fract_x
_atom_site_fract_y
_atom_site_fract_z
Si Si1 0.911807 0.357902 0.355290
Si Si2 0.912632 0.386551 0.779294
Si Si3 0.677007 0.386664 0.011423
Si Si4 0.271003 0.612014 0.723182
Si Si5 0.639496 0.891426 0.061716
Si Si6 0.735680 0.356376 0.431590
Si Si7 0.909940 0.147927 0.267121
O O1 0.903211 0.383553 0.201236
O O2 0.828984 0.393962 0.424545
O O3 0.913743 0.246005 0.344322
O O4 0.000000 0.390156 0.407528
O O5 0.913105 0.500000 0.768970
O O6 0.823990 0.354923 0.727597
O O7 0.000000 0.353466 0.722917
O O8 0.908400 0.357486 0.933657
O O9 0.667313 0.500000 0.019254
O O10 0.767086 0.357086 0.063863
O O11 0.611815 0.342461 0.111638
O O12 0.680413 0.360046 0.855920
O O13 0.269469 0.500000 0.727591
O O14 0.300666 0.640074 0.578755
O O15 0.650116 0.000000 0.033130
O O16 0.750000 0.250000 0.390742
O O17 0.669701 0.399172 0.332184
O O18 0.000000 0.105368 0.279974
#
# Coordination Sequence:
#
# PCOD9348897 Si02
#       7
#     8   8   8   8   8   8   8
#     4  10  20  33  53  81 113 146 182 221 266 323
#     4   8  14  26  45  71 106 141 169 203 252 310
#     4   9  18  35  57  82 107 136 179 234 285 327
#     4   9  19  35  54  77 108 144 182 226 276 330
#     4   9  16  28  49  78 111 142 172 213 265 319
#     4  10  21  38  53  77 111 151 181 223 275 325
#     4  10  21  38  59  79 105 143 188 234 281 330
#
# _framework density 23.587007
#
# number of rings (size 3 to 8) (size 9 to 14) (size 15 to 20)
#    0.000    2.714    1.429    2.143    0.000    2.857 
#    5.143    0.714    0.000    0.857    0.000    0.000 
#    0.000    0.000    0.000    0.000    0.000    0.000 
#
# Total GULP energy -156145.944441 kJ/mol
# GULP energy per Si atom -5576.640873 kJ/mol
# Density = 2.353332 g / cm^3
# Si number density = 23.587007 Si / 1000 Ang^3
#
#
#
# Elastic Constant Matrix: (Units=GPa)
#
#
# Indices 1 2 3 4 5 6 
#
# 1 137.8270 10.8579 51.4836 0.0000 0.0000 0.0000
# 2 10.8579 70.8806 -8.4925 0.0000 0.0000 0.0000
# 3 51.4836 -8.4925 131.6109 0.0000 0.0000 0.0000
# 4 0.0000 0.0000 0.0000 21.0602 0.0000 0.0000
# 5 0.0000 0.0000 0.0000 0.0000 -13.8765 0.0000
# 6 0.0000 0.0000 0.0000 0.0000 0.0000 -4.1713
#
#
#
# Elastic Compliance Matrix: (Units=1/GPa)
#
#
# Indices 1 2 3 4 5 6 
#
# 1 0.008709 -0.001756 -0.003520 0.000000 0.000000 0.000000
# 2 -0.001756 0.014572 0.001627 0.000000 0.000000 0.000000
# 3 -0.003520 0.001627 0.009080 0.000000 0.000000 0.000000
# 4 0.000000 0.000000 0.000000 0.047483 0.000000 0.000000
# 5 0.000000 0.000000 0.000000 0.000000 -0.072064 0.000000
# 6 0.000000 0.000000 0.000000 0.000000 0.000000 -0.239736
#
#
# Mechanical properties :
#
#
# Convention : Reuss Voigt Hill
#
# Bulk Modulus (GPa) = 39.89840 49.77962 44.83901
# Shear Modulus (GPa) = -23.11557 19.70046 -1.70756
#
# Velocity S-wave (km/s) = -3.13391 2.89316 -0.85177
# Velocity P-wave (km/s) = 1.96391 5.68428 4.25252
#
# Compressibility (1/GPa) = 0.02506366
#
# Stress axis : x y z
#
# Youngs Moduli (GPa) = 114.82878 68.62412 110.13126
#
# Poissons Ratio (x) = 0.12049 0.38765
# Poissons Ratio (y) = 0.20161 -0.17920
# Poissons Ratio (z) = 0.40419 -0.11166
#
# Static dielectric constant tensor:
#      x y z
#    x 1.954710 0.000000 0.000000 
#    y 0.000000 1.936480 0.000000 
#    z 0.000000 0.000000 1.862530 
# 
# From -- ./inp_files/7611.got.cif
#   From: 2010.05.17/outbox.cif.g08.bks.cpg/sg35_4_cif.got.tgz:7611.got - 2010.06.03 17:29:28.
