data_PCOD9348607
_publ_section_title
;
Structure prediction by ZEFSAII (Michael W. Deem and Ramdas Pophale) SiO2 
 PCOD9348607
Probable space group: C M M 2
;
_chemical_formula_sum "Si O2"
_cell_formula_units_Z 56
_cell_length_a 22.402477
_cell_length_b 8.593085
_cell_length_c 14.753015
_cell_angle_alpha 90.000000
_cell_angle_beta 90.000000
_cell_angle_gamma 90.000000
_cell_volume 2840.049646
_symmetry_space_group_name_H-M "C M M 2"
_symmetry_group_IT_number 35
_symmetry_cell_setting 'orthorhombic'
loop_
_space_group_symop_operation_xyz
x,y,z
-x,-y,z
-x,y,z
x,-y,z
1/2+x,1/2+y,z
1/2-x,1/2-y,z
1/2-x,1/2+y,z
1/2+x,1/2-y,z
loop_
_atom_site_type_symbol
_atom_site_label
_atom_site_fract_x
_atom_site_fract_y
_atom_site_fract_z
Si Si1 0.500000 0.688810 0.174250
Si Si2 0.125546 0.684829 0.401916
Si Si3 0.115676 0.812847 0.058742
Si Si4 0.431451 0.184217 0.879799
Si Si5 0.567618 0.313290 0.679438
Si Si6 0.185866 0.186539 0.571833
Si Si7 0.000000 0.813078 0.384580
Si Si8 0.314429 0.313817 0.229095
O O1 0.500000 0.500000 0.177890
O O2 0.442115 0.735998 0.117651
O O3 0.500000 0.739330 0.278733
O O4 0.127016 0.500000 0.406620
O O5 0.173960 0.757212 0.469521
O O6 0.060388 0.749231 0.427821
O O7 0.139629 0.742430 0.300651
O O8 0.169725 0.771851 0.125528
O O9 0.113795 0.000000 0.048136
O O10 0.111421 0.737641 0.960490
O O11 0.500000 0.218808 0.908956
O O12 0.422758 0.270441 0.784727
O O13 0.426433 0.000000 0.865005
O O14 0.500000 0.255854 0.654828
O O15 0.566093 0.500000 0.668867
O O16 0.626402 0.257342 0.625666
O O17 0.250000 0.250000 0.604062
O O18 0.187543 0.000000 0.575362
O O19 0.000000 0.000000 0.388826
O O20 0.317652 0.500000 0.236999
O O21 0.250000 0.250000 0.253082
#
# Coordination Sequence:
#
# PCOD9348607 Si02
#       8
#     4   8   8   8   8   8   4   8
#     4   9  16  31  55  82 109 146 189 233 282 336
#     4  12  25  40  60  90 124 159 200 248 304 362
#     4  10  19  34  57  82 112 153 196 236 286 349
#     4  10  20  33  54  88 123 152 184 237 302 355
#     4   9  20  40  65  91 117 154 201 247 302 369
#     4  11  24  43  67  92 120 159 205 254 309 370
#     4  11  21  39  61  88 123 160 203 247 302 360
#     4  11  23  40  59  81 113 159 207 254 301 352
#
# _framework density 19.717963999999998
#
# number of rings (size 3 to 8) (size 9 to 14) (size 15 to 20)
#    0.000    1.571    2.143    3.214    1.000    2.857 
#    0.000    0.714    0.000    0.000    0.000    0.000 
#    0.000    0.000    0.000    0.000    0.000    0.000 
#
# Total GULP energy -156365.834323 kJ/mol
# GULP energy per Si atom -5584.494083 kJ/mol
# Density = 1.967309 g / cm^3
# Si number density = 19.717964 Si / 1000 Ang^3
#
#
#
# Elastic Constant Matrix: (Units=GPa)
#
#
# Indices 1 2 3 4 5 6 
#
# 1 122.0147 29.1968 37.1741 0.0000 0.0000 0.0000
# 2 29.1968 43.3989 10.4140 0.0000 0.0000 0.0000
# 3 37.1741 10.4140 69.7881 0.0000 0.0000 0.0000
# 4 0.0000 0.0000 0.0000 15.0002 0.0000 0.0000
# 5 0.0000 0.0000 0.0000 0.0000 28.0320 0.0000
# 6 0.0000 0.0000 0.0000 0.0000 0.0000 26.1396
#
#
#
# Elastic Compliance Matrix: (Units=1/GPa)
#
#
# Indices 1 2 3 4 5 6 
#
# 1 0.011255 -0.006361 -0.005046 0.000000 0.000000 0.000000
# 2 -0.006361 0.027493 -0.000714 0.000000 0.000000 0.000000
# 3 -0.005046 -0.000714 0.017124 0.000000 0.000000 0.000000
# 4 0.000000 0.000000 0.000000 0.066666 0.000000 0.000000
# 5 0.000000 0.000000 0.000000 0.000000 0.035674 0.000000
# 6 0.000000 0.000000 0.000000 0.000000 0.000000 0.038256
#
#
# Mechanical properties :
#
#
# Convention : Reuss Voigt Hill
#
# Bulk Modulus (GPa) = 31.61672 43.19686 37.40679
# Shear Modulus (GPa) = 21.62133 24.39548 23.00840
#
# Velocity S-wave (km/s) = 3.31498 3.52123 3.41966
# Velocity P-wave (km/s) = 5.54269 6.20379 5.88253
#
# Compressibility (1/GPa) = 0.03162884
#
# Stress axis : x y z
#
# Youngs Moduli (GPa) = 88.84712 36.37297 58.39899
#
# Poissons Ratio (x) = 0.23138 0.29469
# Poissons Ratio (y) = 0.56517 0.04171
# Poissons Ratio (z) = 0.44833 0.02598
#
# Static dielectric constant tensor:
#      x y z
#    x 1.719820 0.000000 0.000000 
#    y 0.000000 1.661560 0.000000 
#    z 0.000000 0.000000 1.680480 
# 
# From -- ./inp_files/15733.got.cif
#   From: 2010.05.17/outbox.cif.g08.bks.cpg/sg35_8_cif.got.tgz:15733.got - 2010.06.03 17:29:28.
