data_PCOD9348089
_publ_section_title
;
Structure prediction by ZEFSAII (Michael W. Deem and Ramdas Pophale) SiO2 
 PCOD9348089
Probable space group: C M M 2
;
_chemical_formula_sum "Si O2"
_cell_formula_units_Z 44
_cell_length_a 16.157118
_cell_length_b 14.366507
_cell_length_c 8.986699
_cell_angle_alpha 90.000000
_cell_angle_beta 90.000000
_cell_angle_gamma 90.000000
_cell_volume 2086.004694
_symmetry_space_group_name_H-M "C M M 2"
_symmetry_group_IT_number 35
_symmetry_cell_setting 'orthorhombic'
loop_
_space_group_symop_operation_xyz
x,y,z
-x,-y,z
-x,y,z
x,-y,z
1/2+x,1/2+y,z
1/2-x,1/2-y,z
1/2-x,1/2+y,z
1/2+x,1/2-y,z
loop_
_atom_site_type_symbol
_atom_site_label
_atom_site_fract_x
_atom_site_fract_y
_atom_site_fract_z
Si Si1 0.327444 0.806089 0.725110
Si Si2 0.601384 0.000000 0.395843
Si Si3 0.274132 0.000000 0.673265
Si Si4 0.405826 0.668067 0.940677
Si Si5 0.909799 0.000000 0.705949
Si Si6 0.898769 0.104727 0.266230
Si Si7 0.096746 0.295575 0.409689
O O1 0.250000 0.750000 0.660594
O O2 0.294563 0.907614 0.763020
O O3 0.357619 0.753290 0.870146
O O4 0.391216 0.806188 0.587885
O O5 0.660382 0.000000 0.539931
O O6 0.621672 0.104718 0.334692
O O7 0.500000 0.000000 0.421218
O O8 0.178245 0.000000 0.624751
O O9 0.500000 0.698619 0.968108
O O10 0.408092 0.589227 0.813466
O O11 0.375452 0.625371 0.094828
O O12 0.000000 0.000000 0.625630
O O13 0.868058 0.195271 0.358004
O O14 0.000000 0.102067 0.274303
O O15 0.870668 0.000000 0.305947
O O16 0.000000 0.288066 0.377841
#
# Coordination Sequence:
#
# PCOD9348089 Si02
#       7
#     8   4   4   8   4   8   8
#     4  11  21  35  55  81 113 150 190 236 294 337
#     4   8  16  32  57  82 113 160 198 237 293 345
#     4  10  20  36  55  82 119 155 191 243 289 351
#     4  10  19  34  57  84 113 149 193 235 288 355
#     4  10  18  32  56  84 112 151 191 232 292 356
#     4   9  17  33  55  82 116 151 187 239 298 351
#     4   9  18  34  55  80 110 147 194 238 286 349
#
# _framework density 21.092953000000001
#
# number of rings (size 3 to 8) (size 9 to 14) (size 15 to 20)
#    0.000    2.364    2.727    0.545    0.000    0.727 
#    3.273    1.818    0.000    2.182    0.000    0.000 
#    0.000    0.000    0.000    0.182    0.000    0.182 
#
# Total GULP energy -122478.103266 kJ/mol
# GULP energy per Si atom -5567.186512 kJ/mol
# Density = 2.104494 g / cm^3
# Si number density = 21.092953 Si / 1000 Ang^3
#
#
#
# Elastic Constant Matrix: (Units=GPa)
#
#
# Indices 1 2 3 4 5 6 
#
# 1 43.1844 35.4504 13.9928 0.0000 0.0000 0.0000
# 2 35.4504 222.5051 44.5216 0.0000 0.0000 0.0000
# 3 13.9928 44.5216 60.0763 0.0000 0.0000 0.0000
# 4 0.0000 0.0000 0.0000 10.7264 0.0000 0.0000
# 5 0.0000 0.0000 0.0000 0.0000 7.9438 0.0000
# 6 0.0000 0.0000 0.0000 0.0000 0.0000 29.3023
#
#
#
# Elastic Compliance Matrix: (Units=1/GPa)
#
#
# Indices 1 2 3 4 5 6 
#
# 1 0.027318 -0.003615 -0.003684 0.000000 0.000000 0.000000
# 2 -0.003615 0.005755 -0.003423 0.000000 0.000000 0.000000
# 3 -0.003684 -0.003423 0.020040 0.000000 0.000000 0.000000
# 4 0.000000 0.000000 0.000000 0.093228 0.000000 0.000000
# 5 0.000000 0.000000 0.000000 0.000000 0.125884 0.000000
# 6 0.000000 0.000000 0.000000 0.000000 0.000000 0.034127
#
#
# Mechanical properties :
#
#
# Convention : Reuss Voigt Hill
#
# Bulk Modulus (GPa) = 31.57609 57.07727 44.32668
# Shear Modulus (GPa) = 14.77749 25.04791 19.91270
#
# Velocity S-wave (km/s) = 2.64974 3.44975 3.07587
# Velocity P-wave (km/s) = 4.93598 6.55640 5.80303
#
# Compressibility (1/GPa) = 0.03166954
#
# Stress axis : x y z
#
# Youngs Moduli (GPa) = 36.60598 173.75547 49.89965
#
# Poissons Ratio (x) = 0.62819 0.18381
# Poissons Ratio (y) = 0.13234 0.17081
# Poissons Ratio (z) = 0.13484 0.59477
#
# Static dielectric constant tensor:
#      x y z
#    x 1.769150 0.000000 0.000000 
#    y 0.000000 1.840810 0.000000 
#    z 0.000000 0.000000 1.760880 
# 
# From -- ./inp_files/7264.got.cif
#   From: 2010.05.17/outbox.cif.g08.bks.cpg/sg35_4_cif.got.tgz:7264.got - 2010.06.03 17:29:28.
