data_PCOD9348354
_publ_section_title
;
Structure prediction by ZEFSAII (Michael W. Deem and Ramdas Pophale) SiO2 
 PCOD9348354
Probable space group: C M M 2
;
_chemical_formula_sum "Si O2"
_cell_formula_units_Z 64
_cell_length_a 7.882353
_cell_length_b 19.431168
_cell_length_c 21.680008
_cell_angle_alpha 90.000000
_cell_angle_beta 90.000000
_cell_angle_gamma 90.000000
_cell_volume 3320.582120
_symmetry_space_group_name_H-M "C M M 2"
_symmetry_group_IT_number 35
_symmetry_cell_setting 'orthorhombic'
loop_
_space_group_symop_operation_xyz
x,y,z
-x,-y,z
-x,y,z
x,-y,z
1/2+x,1/2+y,z
1/2-x,1/2-y,z
1/2-x,1/2+y,z
1/2+x,1/2-y,z
loop_
_atom_site_type_symbol
_atom_site_label
_atom_site_fract_x
_atom_site_fract_y
_atom_site_fract_z
Si Si1 0.295778 0.669223 0.511350
Si Si2 0.202146 0.830185 0.645152
Si Si3 0.796854 0.078211 0.895634
Si Si4 0.208040 0.920524 0.260478
Si Si5 0.295161 0.669461 0.376549
Si Si6 0.204456 0.829353 0.145793
Si Si7 0.701162 0.922036 0.761084
Si Si8 0.795309 0.170914 0.007325
O O1 0.500000 0.661683 0.511072
O O2 0.250000 0.750000 0.511682
O O3 0.232115 0.643597 0.578017
O O4 0.233650 0.644592 0.444329
O O5 0.250000 0.750000 0.652461
O O6 0.257813 0.875099 0.702885
O O7 0.000000 0.833216 0.642630
O O8 0.762592 0.106093 0.827081
O O9 0.730014 0.123354 0.952126
O O10 0.000000 0.074915 0.902388
O O11 0.729770 0.000000 0.897718
O O12 0.264942 0.877608 0.320365
O O13 0.264913 0.880445 0.199032
O O14 0.000000 0.919995 0.260536
O O15 0.261012 0.000000 0.261735
O O16 0.500000 0.666070 0.377071
O O17 0.250000 0.750000 0.368186
O O18 0.250000 0.750000 0.159292
O O19 0.000000 0.833478 0.144835
O O20 0.266374 0.846357 0.076555
O O21 0.500000 0.926751 0.765297
O O22 0.771469 0.000000 0.753665
O O23 0.750000 0.250000 0.995524
O O24 0.000000 0.165413 0.008438
#
# Coordination Sequence:
#
# PCOD9348354 Si02
#       8
#     8   8   8   8   8   8   8   8
#     4   8  15  27  44  68  94 120 153 192 233 277
#     4  10  19  32  51  74  99 126 159 200 244 288
#     4   9  18  33  51  69  91 122 159 196 234 279
#     4   9  17  28  44  68  96 124 155 193 233 271
#     4   9  16  28  47  69  92 121 157 193 231 276
#     4   9  17  30  48  69  93 122 156 191 229 275
#     4  10  21  36  52  71  97 129 163 198 238 286
#     4   9  18  31  48  71  96 121 151 191 235 277
#
# _framework density 19.273727999999998
#
# number of rings (size 3 to 8) (size 9 to 14) (size 15 to 20)
#    0.000    2.875    0.000    1.125    0.000    2.750 
#    0.000    4.375    0.000    3.750    0.000    3.500 
#    0.000    0.000    0.000    0.000    0.000    0.000 
#
# Total GULP energy -178318.902830 kJ/mol
# GULP energy per Si atom -5572.465713 kJ/mol
# Density = 1.922986 g / cm^3
# Si number density = 19.273728 Si / 1000 Ang^3
#
#
#
# Elastic Constant Matrix: (Units=GPa)
#
#
# Indices 1 2 3 4 5 6 
#
# 1 21.6950 2.6290 9.6919 0.0000 0.0000 0.0000
# 2 2.6290 87.7107 113.4238 0.0000 0.0000 0.0000
# 3 9.6919 113.4238 230.9066 0.0000 0.0000 0.0000
# 4 0.0000 0.0000 0.0000 -20.0042 0.0000 0.0000
# 5 0.0000 0.0000 0.0000 0.0000 15.4521 0.0000
# 6 0.0000 0.0000 0.0000 0.0000 0.0000 18.3784
#
#
#
# Elastic Compliance Matrix: (Units=1/GPa)
#
#
# Indices 1 2 3 4 5 6 
#
# 1 0.047290 0.003151 -0.003533 0.000000 0.000000 0.000000
# 2 0.003151 0.031464 -0.015588 0.000000 0.000000 0.000000
# 3 -0.003533 -0.015588 0.012136 0.000000 0.000000 0.000000
# 4 0.000000 0.000000 0.000000 -0.049989 0.000000 0.000000
# 5 0.000000 0.000000 0.000000 0.000000 0.064716 0.000000
# 6 0.000000 0.000000 0.000000 0.000000 0.000000 0.054412
#
#
# Mechanical properties :
#
#
# Convention : Reuss Voigt Hill
#
# Bulk Modulus (GPa) = 16.96332 65.75573 41.35952
# Shear Modulus (GPa) = 23.62754 17.06978 20.34866
#
# Velocity S-wave (km/s) = 3.50507 2.97922 3.25279
# Velocity P-wave (km/s) = 5.02007 6.78418 5.96767
#
# Compressibility (1/GPa) = 0.05895072
#
# Stress axis : x y z
#
# Youngs Moduli (GPa) = 21.14620 31.78219 82.40003
#
# Poissons Ratio (x) = -0.10014 0.29109
# Poissons Ratio (y) = -0.06663 1.28443
# Poissons Ratio (z) = 0.07470 0.49541
#
# Static dielectric constant tensor:
#      x y z
#    x 1.688440 0.000000 0.000000 
#    y 0.000000 1.632300 0.000000 
#    z 0.000000 0.000000 1.718120 
# 
# From -- ./inp_files/18325.got.cif
#   From: 2010.05.17/outbox.cif.g08.bks.cpg/sg35_10_cif.got.tgz:18325.got - 2010.06.03 17:29:28.
