data_PCOD9348340
_publ_section_title
;
Structure prediction by ZEFSAII (Michael W. Deem and Ramdas Pophale) SiO2 
 PCOD9348340
Probable space group: C M M 2
;
_chemical_formula_sum "Si O2"
_cell_formula_units_Z 64
_cell_length_a 8.955428
_cell_length_b 29.186435
_cell_length_c 15.949751
_cell_angle_alpha 90.000000
_cell_angle_beta 90.000000
_cell_angle_gamma 90.000000
_cell_volume 4168.898342
_symmetry_space_group_name_H-M "C M M 2"
_symmetry_group_IT_number 35
_symmetry_cell_setting 'orthorhombic'
loop_
_space_group_symop_operation_xyz
x,y,z
-x,-y,z
-x,y,z
x,-y,z
1/2+x,1/2+y,z
1/2-x,1/2-y,z
1/2-x,1/2+y,z
1/2+x,1/2-y,z
loop_
_atom_site_type_symbol
_atom_site_label
_atom_site_fract_x
_atom_site_fract_y
_atom_site_fract_z
Si Si1 0.679014 0.445898 0.285420
Si Si2 0.671925 0.444421 0.786013
Si Si3 0.679405 0.297595 0.187489
Si Si4 0.319323 0.553575 0.599645
Si Si5 0.821992 0.395165 0.443761
Si Si6 0.820973 0.702543 0.371681
Si Si7 0.321949 0.053425 0.958702
Si Si8 0.820953 0.105243 0.113660
O O1 0.500000 0.439661 0.295325
O O2 0.709785 0.500000 0.283335
O O3 0.759866 0.422240 0.363151
O O4 0.722907 0.422515 0.197670
O O5 0.500000 0.429651 0.796493
O O6 0.671590 0.500000 0.783467
O O7 0.726431 0.430807 0.693365
O O8 0.765424 0.431009 0.867200
O O9 0.500000 0.293639 0.194980
O O10 0.750000 0.250000 0.156578
O O11 0.748779 0.305580 0.279905
O O12 0.714214 0.341548 0.130710
O O13 0.500000 0.555125 0.597052
O O14 0.276566 0.500000 0.587817
O O15 0.251749 0.584024 0.526515
O O16 0.788506 0.341544 0.428450
O O17 0.000000 0.400546 0.447840
O O18 0.750000 0.750000 0.403166
O O19 0.000000 0.707178 0.362815
O O20 0.500000 0.054828 0.961230
O O21 0.274592 0.000000 0.970054
O O22 0.254812 0.083696 0.032706
O O23 0.000000 0.100926 0.105146
#
# Coordination Sequence:
#
# PCOD9348340 Si02
#       8
#     8   8   8   8   8   8   8   8
#     4  10  20  33  47  63  90 130 169 197 223 267
#     4   8  15  30  50  69  91 122 160 199 235 275
#     4  10  19  32  51  71  91 119 156 199 244 283
#     4   9  18  32  50  71  95 127 165 198 229 274
#     4  11  22  32  45  69  98 126 156 195 242 284
#     4  10  20  33  49  68  91 121 157 198 242 284
#     4  10  20  31  46  71 100 128 158 196 241 282
#     4  10  20  33  49  68  92 127 165 196 231 279
#
# _framework density 15.351777
#
# number of rings (size 3 to 8) (size 9 to 14) (size 15 to 20)
#    0.000    2.250    1.250    3.750    0.000    6.750 
#    0.000    1.250    0.000    0.000    0.000    0.875 
#    0.000    6.000    0.000    0.000    0.000    0.000 
#
# Total GULP energy -178474.699485 kJ/mol
# GULP energy per Si atom -5577.334359 kJ/mol
# Density = 1.531684 g / cm^3
# Si number density = 15.351777 Si / 1000 Ang^3
#
#
#
# Elastic Constant Matrix: (Units=GPa)
#
#
# Indices 1 2 3 4 5 6 
#
# 1 46.6020 51.5618 51.9590 0.0000 0.0000 0.0000
# 2 51.5618 109.4688 77.9011 0.0000 0.0000 0.0000
# 3 51.9590 77.9011 143.4327 0.0000 0.0000 0.0000
# 4 0.0000 0.0000 0.0000 6.4061 0.0000 0.0000
# 5 0.0000 0.0000 0.0000 0.0000 11.1459 0.0000
# 6 0.0000 0.0000 0.0000 0.0000 0.0000 23.9041
#
#
#
# Elastic Compliance Matrix: (Units=1/GPa)
#
#
# Indices 1 2 3 4 5 6 
#
# 1 0.050847 -0.017672 -0.008821 0.000000 0.000000 0.000000
# 2 -0.017672 0.021032 -0.005021 0.000000 0.000000 0.000000
# 3 -0.008821 -0.005021 0.012895 0.000000 0.000000 0.000000
# 4 0.000000 0.000000 0.000000 0.156100 0.000000 0.000000
# 5 0.000000 0.000000 0.000000 0.000000 0.089719 0.000000
# 6 0.000000 0.000000 0.000000 0.000000 0.000000 0.041834
#
#
# Mechanical properties :
#
#
# Convention : Reuss Voigt Hill
#
# Bulk Modulus (GPa) = 45.98958 73.59415 59.79186
# Shear Modulus (GPa) = 11.29423 16.16334 13.72879
#
# Velocity S-wave (km/s) = 2.71531 3.24831 2.99370
# Velocity P-wave (km/s) = 6.31291 7.88107 7.14017
#
# Compressibility (1/GPa) = 0.02174406
#
# Stress axis : x y z
#
# Youngs Moduli (GPa) = 19.66696 47.54621 77.55240
#
# Poissons Ratio (x) = 0.84025 0.68411
# Poissons Ratio (y) = 0.34756 0.38940
# Poissons Ratio (z) = 0.17349 0.23874
#
# Static dielectric constant tensor:
#      x y z
#    x 1.513080 0.000000 0.000000 
#    y 0.000000 1.507590 0.000000 
#    z 0.000000 0.000000 1.492760 
# 
# From -- ./inp_files/16194.got.cif
#   From: 2010.05.17/outbox.cif.g08.bks.cpg/sg35_9_cif.got.tgz:16194.got - 2010.06.03 17:29:28.
