data_PCOD9348019
_publ_section_title
;
Structure prediction by ZEFSAII (Michael W. Deem and Ramdas Pophale) SiO2 
 PCOD9348019
Probable space group: P N N 2
;
_chemical_formula_sum "Si O2"
_cell_formula_units_Z 16
_cell_length_a 5.123857
_cell_length_b 8.114896
_cell_length_c 16.806761
_cell_angle_alpha 90.000000
_cell_angle_beta 90.000000
_cell_angle_gamma 90.000000
_cell_volume 698.817840
_symmetry_space_group_name_H-M "P N N 2"
_symmetry_group_IT_number 34
_symmetry_cell_setting 'orthorhombic'
loop_
_space_group_symop_operation_xyz
x,y,z
-x,-y,z
1/2-x,1/2+y,1/2+z
1/2+x,1/2-y,1/2+z
loop_
_atom_site_type_symbol
_atom_site_label
_atom_site_fract_x
_atom_site_fract_y
_atom_site_fract_z
Si Si1 0.500000 0.000000 0.407691
Si Si2 0.527222 0.816248 0.135468
Si Si3 0.000000 0.000000 0.520659
Si Si4 0.655876 0.333153 0.793642
Si Si5 0.725984 0.896823 0.747154
O O1 0.585335 0.850964 0.348194
O O2 0.746642 0.008521 0.465324
O O3 0.526500 0.664947 0.074265
O O4 0.753518 0.825033 0.202055
O O5 0.295890 0.759877 0.193963
O O6 0.500000 0.000000 0.101107
O O7 0.500000 0.500000 0.807212
O O8 0.464129 0.181496 0.814675
O O9 0.500000 0.000000 0.701790
O O10 0.000000 0.000000 0.759874
#
# Coordination Sequence:
#
# PCOD9348019 Si02
#       5
#     2   4   2   4   4
#     4  12  28  52  76 110 172 220 248 332 436 476
#     4  12  25  46  84 118 151 208 279 325 386 487
#     4  12  30  48  78 116 170 208 258 340 422 470
#     4  12  23  47  82 115 146 218 274 322 393 496
#     4  12  24  40  72 120 154 189 267 343 383 448
#
# _framework density 22.895807999999999
#
# number of rings (size 3 to 8) (size 9 to 14) (size 15 to 20)
#    0.000    0.000    8.750    0.000    5.250    0.000 
#    0.000    1.250   16.500    0.000    0.000    0.000 
#    0.000    0.000    0.000    0.000    0.000    0.000 
#
# Total GULP energy -89069.877164 kJ/mol
# GULP energy per Si atom -5566.867323 kJ/mol
# Density = 2.284370 g / cm^3
# Si number density = 22.895808 Si / 1000 Ang^3
#
#
#
# Elastic Constant Matrix: (Units=GPa)
#
#
# Indices 1 2 3 4 5 6 
#
# 1 211.4963 63.5200 62.6706 0.0000 0.0000 0.0000
# 2 63.5200 200.6910 62.9204 0.0000 0.0000 0.0000
# 3 62.6706 62.9204 120.5597 0.0000 0.0000 0.0000
# 4 0.0000 0.0000 0.0000 14.8954 0.0000 0.0000
# 5 0.0000 0.0000 0.0000 0.0000 27.2949 0.0000
# 6 0.0000 0.0000 0.0000 0.0000 0.0000 43.0850
#
#
#
# Elastic Compliance Matrix: (Units=1/GPa)
#
#
# Indices 1 2 3 4 5 6 
#
# 1 0.005772 -0.001059 -0.002447 0.000000 0.000000 0.000000
# 2 -0.001059 0.006152 -0.002660 0.000000 0.000000 0.000000
# 3 -0.002447 -0.002660 0.010955 0.000000 0.000000 0.000000
# 4 0.000000 0.000000 0.000000 0.067135 0.000000 0.000000
# 5 0.000000 0.000000 0.000000 0.000000 0.036637 0.000000
# 6 0.000000 0.000000 0.000000 0.000000 0.000000 0.023210
#
#
# Mechanical properties :
#
#
# Convention : Reuss Voigt Hill
#
# Bulk Modulus (GPa) = 94.83035 101.21878 98.02456
# Shear Modulus (GPa) = 30.17336 39.96413 35.06875
#
# Velocity S-wave (km/s) = 3.63417 4.18242 3.91790
# Velocity P-wave (km/s) = 7.68880 8.22362 7.96071
#
# Compressibility (1/GPa) = 0.01054515
#
# Stress axis : x y z
#
# Youngs Moduli (GPa) = 173.26218 162.54641 91.28158
#
# Poissons Ratio (x) = 0.17221 0.22339
# Poissons Ratio (y) = 0.18357 0.24281
# Poissons Ratio (z) = 0.42403 0.43238
#
# Static dielectric constant tensor:
#      x y z
#    x 1.962610 0.000000 0.000000 
#    y 0.000000 2.051060 0.000000 
#    z 0.000000 0.000000 1.917130 
# 
# From -- ./inp_files/7077.got.cif
#   From: 2010.05.17/outbox.cif.g08.bks.cpg/sg34_4_cif.got.tgz:7077.got - 2010.06.03 17:23:11.
