data_PCOD9348033
_publ_section_title
;
Structure prediction by ZEFSAII (Michael W. Deem and Ramdas Pophale) SiO2 
 PCOD9348033
Probable space group: P N N 2
;
_chemical_formula_sum "Si O2"
_cell_formula_units_Z 18
_cell_length_a 8.548861
_cell_length_b 7.804895
_cell_length_c 11.207623
_cell_angle_alpha 90.000000
_cell_angle_beta 90.000000
_cell_angle_gamma 90.000000
_cell_volume 747.805809
_symmetry_space_group_name_H-M "P N N 2"
_symmetry_group_IT_number 34
_symmetry_cell_setting 'orthorhombic'
loop_
_space_group_symop_operation_xyz
x,y,z
-x,-y,z
1/2-x,1/2+y,1/2+z
1/2+x,1/2-y,1/2+z
loop_
_atom_site_type_symbol
_atom_site_label
_atom_site_fract_x
_atom_site_fract_y
_atom_site_fract_z
Si Si1 0.524820 0.688761 0.812700
Si Si2 0.500000 0.500000 0.227413
Si Si3 0.986151 0.311407 0.074105
Si Si4 0.658727 0.761360 0.052292
Si Si5 0.754008 0.086902 0.919364
O O1 0.500000 0.500000 0.760836
O O2 0.587243 0.806372 0.706032
O O3 0.371402 0.781321 0.865442
O O4 0.635924 0.664752 0.926349
O O5 0.540296 0.666398 0.143882
O O6 0.648801 0.489247 0.316123
O O7 0.000000 0.500000 0.022250
O O8 0.164713 0.258793 0.096399
O O9 0.885701 0.190170 0.991268
O O10 0.662596 0.958541 0.008112
#
# Coordination Sequence:
#
# PCOD9348033 Si02
#       5
#     4   2   4   4   4
#     4  12  26  47  76 110 151 203 258 318 391 460
#     4  12  26  48  80 114 162 194 266 326 382 466
#     4  12  26  46  73 112 153 200 257 319 386 462
#     4  12  25  48  73 113 152 205 254 320 387 459
#     4  12  26  50  79 110 154 203 257 322 389 461
#
# _framework density 24.070418
#
# number of rings (size 3 to 8) (size 9 to 14) (size 15 to 20)
#    0.000    0.000    5.556    4.667    0.000    0.000 
#    0.000    2.222    0.000    0.000    0.000    0.000 
#    0.000    0.000    0.000    0.000    0.000    0.000 
#
# Total GULP energy -100595.489162 kJ/mol
# GULP energy per Si atom -5588.638287 kJ/mol
# Density = 2.401563 g / cm^3
# Si number density = 24.070418 Si / 1000 Ang^3
#
#
#
# Elastic Constant Matrix: (Units=GPa)
#
#
# Indices 1 2 3 4 5 6 
#
# 1 107.1739 79.5766 67.7088 0.0000 0.0000 0.0000
# 2 79.5766 156.2621 43.8819 0.0000 0.0000 0.0000
# 3 67.7088 43.8819 137.2411 0.0000 0.0000 0.0000
# 4 0.0000 0.0000 0.0000 32.7872 0.0000 0.0000
# 5 0.0000 0.0000 0.0000 0.0000 23.9312 0.0000
# 6 0.0000 0.0000 0.0000 0.0000 0.0000 45.7182
#
#
#
# Elastic Compliance Matrix: (Units=1/GPa)
#
#
# Indices 1 2 3 4 5 6 
#
# 1 0.019929 -0.008117 -0.007237 0.000000 0.000000 0.000000
# 2 -0.008117 0.010337 0.000699 0.000000 0.000000 0.000000
# 3 -0.007237 0.000699 0.010633 0.000000 0.000000 0.000000
# 4 0.000000 0.000000 0.000000 0.030500 0.000000 0.000000
# 5 0.000000 0.000000 0.000000 0.000000 0.041786 0.000000
# 6 0.000000 0.000000 0.000000 0.000000 0.000000 0.021873
#
#
# Mechanical properties :
#
#
# Convention : Reuss Voigt Hill
#
# Bulk Modulus (GPa) = 86.27771 87.00130 86.63950
# Shear Modulus (GPa) = 29.72107 34.45463 32.08785
#
# Velocity S-wave (km/s) = 3.51772 3.78750 3.65510
# Velocity P-wave (km/s) = 7.24022 7.43975 7.34066
#
# Compressibility (1/GPa) = 0.01159048
#
# Stress axis : x y z
#
# Youngs Moduli (GPa) = 50.17701 96.74402 94.04457
#
# Poissons Ratio (x) = 0.78525 0.68060
# Poissons Ratio (y) = 0.40727 -0.06578
# Poissons Ratio (z) = 0.36313 -0.06766
#
# Static dielectric constant tensor:
#      x y z
#    x 1.904410 0.000000 0.000000 
#    y 0.000000 1.956170 0.000000 
#    z 0.000000 0.000000 1.901090 
# 
# From -- ./inp_files/4735.got.cif
#   From: 2010.05.17/outbox.cif.g08.bks.cpg/sg34_3_cif.got.tgz:4735.got - 2010.06.03 17:23:11.
