data_PCOD9348376
_publ_section_title
;
Structure prediction by ZEFSAII (Michael W. Deem and Ramdas Pophale) SiO2 
 PCOD9348376
Probable space group: C M M 2
;
_chemical_formula_sum "Si O2"
_cell_formula_units_Z 40
_cell_length_a 8.380006
_cell_length_b 19.535586
_cell_length_c 13.615363
_cell_angle_alpha 90.000000
_cell_angle_beta 90.000000
_cell_angle_gamma 90.000000
_cell_volume 2228.948310
_symmetry_space_group_name_H-M "C M M 2"
_symmetry_group_IT_number 35
_symmetry_cell_setting 'orthorhombic'
loop_
_space_group_symop_operation_xyz
x,y,z
-x,-y,z
-x,y,z
x,-y,z
1/2+x,1/2+y,z
1/2-x,1/2-y,z
1/2-x,1/2+y,z
1/2+x,1/2-y,z
loop_
_atom_site_type_symbol
_atom_site_label
_atom_site_fract_x
_atom_site_fract_y
_atom_site_fract_z
Si Si1 0.309291 0.921284 0.534200
Si Si2 0.692699 0.578885 0.320686
Si Si3 0.808566 0.171676 0.711577
Si Si4 0.806662 0.828313 0.140350
Si Si5 0.692430 0.671490 0.926035
O O1 0.500000 0.921611 0.532420
O O2 0.248402 0.897008 0.427808
O O3 0.252221 0.874254 0.622846
O O4 0.252442 0.000000 0.546938
O O5 0.500000 0.579177 0.319654
O O6 0.746074 0.500000 0.308692
O O7 0.749657 0.625873 0.231133
O O8 0.750000 0.250000 0.701947
O O9 0.754840 0.144089 0.819557
O O10 0.000000 0.172217 0.709916
O O11 0.750000 0.750000 0.149866
O O12 0.000000 0.828150 0.141677
O O13 0.755268 0.856215 0.032499
O O14 0.500000 0.669805 0.925831
O O15 0.750000 0.750000 0.926378
#
# Coordination Sequence:
#
# PCOD9348376 Si02
#       5
#     8   8   8   8   8
#     4  10  21  36  52  70  96 130 166 205 248 292
#     4   9  18  33  51  69  93 127 163 198 239 288
#     4  10  19  32  52  76 101 129 163 202 242 288
#     4   9  17  30  49  73  98 124 156 194 236 282
#     4   8  15  28  46  70  98 126 155 189 234 284
#
# _framework density 17.945682000000001
#
# number of rings (size 3 to 8) (size 9 to 14) (size 15 to 20)
#    0.000    2.800    0.000    1.200    0.000    3.600 
#    0.000    3.000    0.000    3.600    0.000    2.800 
#    0.000    0.000    0.000    0.000    0.000    0.000 
#
# Total GULP energy -111387.861815 kJ/mol
# GULP energy per Si atom -5569.393091 kJ/mol
# Density = 1.790484 g / cm^3
# Si number density = 17.945682 Si / 1000 Ang^3
#
#
#
# Elastic Constant Matrix: (Units=GPa)
#
#
# Indices 1 2 3 4 5 6 
#
# 1 14.1187 9.9554 25.0043 0.0000 0.0000 0.0000
# 2 9.9554 51.8621 85.3203 0.0000 0.0000 0.0000
# 3 25.0043 85.3203 238.6719 0.0000 0.0000 0.0000
# 4 0.0000 0.0000 0.0000 -34.3154 0.0000 0.0000
# 5 0.0000 0.0000 0.0000 0.0000 15.8649 0.0000
# 6 0.0000 0.0000 0.0000 0.0000 0.0000 20.2848
#
#
#
# Elastic Compliance Matrix: (Units=1/GPa)
#
#
# Indices 1 2 3 4 5 6 
#
# 1 0.087331 -0.004157 -0.007663 0.000000 0.000000 0.000000
# 2 -0.004157 0.047010 -0.016370 0.000000 0.000000 0.000000
# 3 -0.007663 -0.016370 0.010845 0.000000 0.000000 0.000000
# 4 0.000000 0.000000 0.000000 -0.029141 0.000000 0.000000
# 5 0.000000 0.000000 0.000000 0.000000 0.063032 0.000000
# 6 0.000000 0.000000 0.000000 0.000000 0.000000 0.049298
#
#
# Mechanical properties :
#
#
# Convention : Reuss Voigt Hill
#
# Bulk Modulus (GPa) = 11.26050 60.57921 35.91985
# Shear Modulus (GPa) = 15.90550 12.65837 14.28193
#
# Velocity S-wave (km/s) = 2.98033 2.65876 2.82413
# Velocity P-wave (km/s) = 4.25812 6.57690 5.54018
#
# Compressibility (1/GPa) = 0.08880603
#
# Stress axis : x y z
#
# Youngs Moduli (GPa) = 11.45068 21.27188 92.21244
#
# Poissons Ratio (x) = 0.08843 0.70663
# Poissons Ratio (y) = 0.04760 1.50949
# Poissons Ratio (z) = 0.08775 0.34822
#
# Static dielectric constant tensor:
#      x y z
#    x 1.612390 0.000000 0.000000 
#    y 0.000000 1.578520 0.000000 
#    z 0.000000 0.000000 1.656590 
# 
# From -- ./inp_files/11008.got.cif
#   From: 2010.05.17/outbox.cif.g08.bks.cpg/sg35_6_cif.got.tgz:11008.got - 2010.06.03 17:29:28.
