data_PCOD9348158
_publ_section_title
;
Structure prediction by ZEFSAII (Michael W. Deem and Ramdas Pophale) SiO2 
 PCOD9348158
Probable space group: C M M 2
;
_chemical_formula_sum "Si O2"
_cell_formula_units_Z 56
_cell_length_a 7.618082
_cell_length_b 23.968345
_cell_length_c 16.280001
_cell_angle_alpha 90.000000
_cell_angle_beta 90.000000
_cell_angle_gamma 90.000000
_cell_volume 2972.611253
_symmetry_space_group_name_H-M "C M M 2"
_symmetry_group_IT_number 35
_symmetry_cell_setting 'orthorhombic'
loop_
_space_group_symop_operation_xyz
x,y,z
-x,-y,z
-x,y,z
x,-y,z
1/2+x,1/2+y,z
1/2-x,1/2-y,z
1/2-x,1/2+y,z
1/2+x,1/2-y,z
loop_
_atom_site_type_symbol
_atom_site_label
_atom_site_fract_x
_atom_site_fract_y
_atom_site_fract_z
Si Si1 0.789663 0.815946 0.217070
Si Si2 0.284293 0.380556 0.557438
Si Si3 0.792556 0.500000 0.813257
Si Si4 0.708352 0.500000 0.619316
Si Si5 0.290826 0.379127 0.877366
Si Si6 0.710396 0.685128 0.717892
Si Si7 0.288705 0.315947 0.396478
Si Si8 0.788429 0.815973 0.037720
O O1 0.750000 0.750000 0.216972
O O2 0.722720 0.835076 0.306285
O O3 0.722500 0.835159 0.127924
O O4 0.000000 0.824090 0.217272
O O5 0.500000 0.380774 0.556283
O O6 0.224121 0.443124 0.578458
O O7 0.226373 0.342141 0.633491
O O8 0.224962 0.353257 0.472122
O O9 0.730338 0.500000 0.718198
O O10 0.735358 0.555696 0.860551
O O11 0.000000 0.500000 0.809320
O O12 0.500000 0.500000 0.605344
O O13 0.500000 0.369373 0.879235
O O14 0.219182 0.346522 0.797924
O O15 0.221345 0.352842 0.961937
O O16 0.500000 0.677877 0.717888
O O17 0.750000 0.750000 0.721847
O O18 0.500000 0.320341 0.395049
O O19 0.250000 0.250000 0.408298
O O20 0.750000 0.750000 0.025822
O O21 0.000000 0.820583 0.040115
#
# Coordination Sequence:
#
# PCOD9348158 Si02
#       8
#     8   8   4   4   8   8   8   8
#     4   8  14  25  42  66  97 126 154 189 227 274
#     4   9  17  29  48  68  88 122 162 194 229 278
#     4  12  24  36  52  73  92 116 160 209 244 271
#     4  10  18  36  56  65  86 124 166 199 234 287
#     4  10  20  35  52  67  92 130 162 189 232 288
#     4  10  19  30  45  67  93 122 153 187 231 280
#     4   9  16  27  44  69  98 125 154 190 233 278
#     4   9  17  29  48  73  99 129 160 192 235 282
#
# _framework density 18.838656
#
# number of rings (size 3 to 8) (size 9 to 14) (size 15 to 20)
#    0.000    2.571    1.429    1.500    0.000    1.143 
#    0.000    0.714    0.000    0.857    0.000    5.000 
#    0.000    1.143    0.000    0.000    0.000    0.000 
#
# Total GULP energy -156087.273478 kJ/mol
# GULP energy per Si atom -5574.545481 kJ/mol
# Density = 1.879578 g / cm^3
# Si number density = 18.838656 Si / 1000 Ang^3
#
#
#
# Elastic Constant Matrix: (Units=GPa)
#
#
# Indices 1 2 3 4 5 6 
#
# 1 37.1836 -7.6036 7.7340 0.0000 0.0000 0.0000
# 2 -7.6036 112.2828 115.0530 0.0000 0.0000 0.0000
# 3 7.7340 115.0530 229.3889 0.0000 0.0000 0.0000
# 4 0.0000 0.0000 0.0000 6.2021 0.0000 0.0000
# 5 0.0000 0.0000 0.0000 0.0000 -4.4566 0.0000
# 6 0.0000 0.0000 0.0000 0.0000 0.0000 17.3674
#
#
#
# Elastic Compliance Matrix: (Units=1/GPa)
#
#
# Indices 1 2 3 4 5 6 
#
# 1 0.028980 0.006097 -0.004035 0.000000 0.000000 0.000000
# 2 0.006097 0.019606 -0.010039 0.000000 0.000000 0.000000
# 3 -0.004035 -0.010039 0.009531 0.000000 0.000000 0.000000
# 4 0.000000 0.000000 0.000000 0.161236 0.000000 0.000000
# 5 0.000000 0.000000 0.000000 0.000000 -0.224388 0.000000
# 6 0.000000 0.000000 0.000000 0.000000 0.000000 0.057579
#
#
# Mechanical properties :
#
#
# Convention : Reuss Voigt Hill
#
# Bulk Modulus (GPa) = 23.71807 67.69135 45.70471
# Shear Modulus (GPa) = 60.56791 21.40070 40.98430
#
# Velocity S-wave (km/s) = 5.67632 3.37411 4.66933
# Velocity P-wave (km/s) = 7.45509 7.15470 7.30644
#
# Compressibility (1/GPa) = 0.04216194
#
# Stress axis : x y z
#
# Youngs Moduli (GPa) = 34.50695 51.00543 104.92408
#
# Poissons Ratio (x) = -0.31099 0.42339
# Poissons Ratio (y) = -0.21040 1.05334
# Poissons Ratio (z) = 0.13924 0.51205
#
# Static dielectric constant tensor:
#      x y z
#    x 1.688550 0.000000 0.000000 
#    y 0.000000 1.627760 0.000000 
#    z 0.000000 0.000000 1.713550 
# 
# From -- ./inp_files/15667.got.cif
#   From: 2010.05.17/outbox.cif.g08.bks.cpg/sg35_8_cif.got.tgz:15667.got - 2010.06.03 17:29:28.
