data_PCOD9348566
_publ_section_title
;
Structure prediction by ZEFSAII (Michael W. Deem and Ramdas Pophale) SiO2 
 PCOD9348566
Probable space group: C M M 2
;
_chemical_formula_sum "Si O2"
_cell_formula_units_Z 64
_cell_length_a 24.121297
_cell_length_b 14.587452
_cell_length_c 9.349157
_cell_angle_alpha 90.000000
_cell_angle_beta 90.000000
_cell_angle_gamma 90.000000
_cell_volume 3289.671626
_symmetry_space_group_name_H-M "C M M 2"
_symmetry_group_IT_number 35
_symmetry_cell_setting 'orthorhombic'
loop_
_space_group_symop_operation_xyz
x,y,z
-x,-y,z
-x,y,z
x,-y,z
1/2+x,1/2+y,z
1/2-x,1/2-y,z
1/2-x,1/2+y,z
1/2+x,1/2-y,z
loop_
_atom_site_type_symbol
_atom_site_label
_atom_site_fract_x
_atom_site_fract_y
_atom_site_fract_z
Si Si1 0.933600 0.207609 0.113810
Si Si2 0.849315 0.894555 0.908899
Si Si3 0.122373 0.602768 0.162875
Si Si4 0.642398 0.102043 0.502270
Si Si5 0.639215 0.705891 0.616124
Si Si6 0.750054 0.140412 0.121598
Si Si7 0.433967 0.604077 0.404303
Si Si8 0.227452 0.100698 0.447262
O O1 0.912491 0.312203 0.103491
O O2 0.918619 0.169218 0.271703
O O3 0.000000 0.201308 0.095203
O O4 0.899304 0.144310 0.005458
O O5 0.845836 0.828247 0.772775
O O6 0.859214 0.000000 0.866747
O O7 0.792513 0.890596 0.000040
O O8 0.101647 0.500000 0.130608
O O9 0.124275 0.612671 0.336322
O O10 0.186188 0.609560 0.109700
O O11 0.624148 0.187836 0.596922
O O12 0.709236 0.104822 0.497994
O O13 0.625208 0.000000 0.550190
O O14 0.590747 0.644274 0.549016
O O15 0.691025 0.680414 0.514188
O O16 0.750000 0.250000 0.123581
O O17 0.771621 0.107644 0.276120
O O18 0.500000 0.603264 0.412157
O O19 0.415101 0.500000 0.376596
O O20 0.205722 0.000000 0.490737
#
# Coordination Sequence:
#
# PCOD9348566 Si02
#       8
#     8   8   8   8   8   8   8   8
#     4  11  23  42  64  89 120 160 208 261 308 358
#     4  12  26  40  57  89 130 169 204 247 305 372
#     4  10  19  38  66  96 122 156 203 255 308 358
#     4   9  19  36  60  89 121 154 195 246 297 352
#     4  12  22  38  59  87 124 162 201 243 296 366
#     4  11  20  37  62  88 125 165 202 251 304 363
#     4  10  21  38  62  89 115 149 199 254 305 357
#     4  10  19  33  57  88 118 156 200 247 297 354
#
# _framework density 19.454830000000001
#
# number of rings (size 3 to 8) (size 9 to 14) (size 15 to 20)
#    0.000    1.375    2.500    6.000    0.000    2.500 
#    0.000    0.625    0.000    0.375    0.000    0.000 
#    0.000    0.000    0.000    0.000    0.000    0.000 
#
# Total GULP energy -178773.317601 kJ/mol
# GULP energy per Si atom -5586.666175 kJ/mol
# Density = 1.941055 g / cm^3
# Si number density = 19.454830 Si / 1000 Ang^3
#
#
#
# Elastic Constant Matrix: (Units=GPa)
#
#
# Indices 1 2 3 4 5 6 
#
# 1 49.3515 14.6757 23.4426 0.0000 0.0000 0.0000
# 2 14.6757 157.3463 20.4437 0.0000 0.0000 0.0000
# 3 23.4426 20.4437 67.6316 0.0000 0.0000 0.0000
# 4 0.0000 0.0000 0.0000 24.9186 0.0000 0.0000
# 5 0.0000 0.0000 0.0000 0.0000 -1.8422 0.0000
# 6 0.0000 0.0000 0.0000 0.0000 0.0000 13.3790
#
#
#
# Elastic Compliance Matrix: (Units=1/GPa)
#
#
# Indices 1 2 3 4 5 6 
#
# 1 0.024483 -0.001229 -0.008115 0.000000 0.000000 0.000000
# 2 -0.001229 0.006677 -0.001592 0.000000 0.000000 0.000000
# 3 -0.008115 -0.001592 0.018080 0.000000 0.000000 0.000000
# 4 0.000000 0.000000 0.000000 0.040131 0.000000 0.000000
# 5 0.000000 0.000000 0.000000 0.000000 -0.542827 0.000000
# 6 0.000000 0.000000 0.000000 0.000000 0.000000 0.074744
#
#
# Mechanical properties :
#
#
# Convention : Reuss Voigt Hill
#
# Bulk Modulus (GPa) = 36.53965 43.49482 40.01723
# Shear Modulus (GPa) = -14.37948 21.67556 3.64804
#
# Velocity S-wave (km/s) = -2.72163 3.34151 1.37084
# Velocity P-wave (km/s) = 2.99102 6.10679 4.80828
#
# Compressibility (1/GPa) = 0.02736753
#
# Stress axis : x y z
#
# Youngs Moduli (GPa) = 40.84470 149.76939 55.30956
#
# Poissons Ratio (x) = 0.18409 0.44883
# Poissons Ratio (y) = 0.05021 0.08807
# Poissons Ratio (z) = 0.33145 0.23847
#
# Static dielectric constant tensor:
#      x y z
#    x 1.673390 0.000000 0.000000 
#    y 0.000000 1.708810 0.000000 
#    z 0.000000 0.000000 1.662800 
# 
# From -- ./inp_files/9899.got.cif
#   From: 2010.05.17/outbox.cif.g08.bks.cpg/sg35_5_cif.got.tgz:9899.got - 2010.06.03 17:29:28.
