data_PCOD9348005
_publ_section_title
;
Structure prediction by ZEFSAII (Michael W. Deem and Ramdas Pophale) SiO2 
 PCOD9348005
Probable space group: P N N 2
;
_chemical_formula_sum "Si O2"
_cell_formula_units_Z 28
_cell_length_a 9.143504
_cell_length_b 7.539327
_cell_length_c 16.347631
_cell_angle_alpha 90.000000
_cell_angle_beta 90.000000
_cell_angle_gamma 90.000000
_cell_volume 1126.938110
_symmetry_space_group_name_H-M "P N N 2"
_symmetry_group_IT_number 34
_symmetry_cell_setting 'orthorhombic'
loop_
_space_group_symop_operation_xyz
x,y,z
-x,-y,z
1/2-x,1/2+y,1/2+z
1/2+x,1/2-y,1/2+z
loop_
_atom_site_type_symbol
_atom_site_label
_atom_site_fract_x
_atom_site_fract_y
_atom_site_fract_z
Si Si1 0.977942 0.706512 0.000000
Si Si2 0.188637 0.840159 0.139909
Si Si3 0.964933 0.787704 0.440702
Si Si4 0.170556 0.689682 0.577695
Si Si5 0.556341 0.271379 0.764500
Si Si6 0.214918 0.975394 0.706087
Si Si7 0.820807 0.223998 0.860322
O O1 0.084942 0.809434 0.061563
O O2 0.000000 0.500000 0.016688
O O3 0.813491 0.757407 0.023693
O O4 0.028971 0.734419 0.905801
O O5 0.287146 0.010266 0.123669
O O6 0.071034 0.857300 0.212766
O O7 0.279058 0.667368 0.166963
O O8 0.040586 0.690777 0.514220
O O9 0.018599 0.725102 0.351093
O O10 0.795353 0.730414 0.435266
O O11 0.000000 0.000000 0.446316
O O12 0.136801 0.841332 0.644363
O O13 0.622207 0.110831 0.711762
O O14 0.715000 0.346558 0.800129
O O15 0.164996 0.944555 0.800027
#
# Coordination Sequence:
#
# PCOD9348005 Si02
#       7
#     4   4   4   4   4   4   4
#     4  12  21  39  68 106 140 183 238 307 360 422
#     4  12  22  39  66 106 131 182 250 302 337 435
#     4   9  21  40  67 104 144 183 232 297 364 432
#     4  12  24  38  73 106 137 178 245 302 362 417
#     4   8  20  38  68  93 133 191 241 282 348 429
#     4   9  21  41  68  93 135 190 241 289 354 432
#     4   8  22  39  70  96 139 194 240 281 368 426
#
# _framework density 24.846084999999999
#
# number of rings (size 3 to 8) (size 9 to 14) (size 15 to 20)
#    1.714    0.000    2.857    1.714    4.000    1.143 
#    2.571    0.000    3.143    1.714    0.000    0.000 
#    0.000    0.000    0.000    0.000    0.000    0.000 
#
# Total GULP energy -156051.967277 kJ/mol
# GULP energy per Si atom -5573.284546 kJ/mol
# Density = 2.478953 g / cm^3
# Si number density = 24.846085 Si / 1000 Ang^3
#
#
#
# Elastic Constant Matrix: (Units=GPa)
#
#
# Indices 1 2 3 4 5 6 
#
# 1 77.6805 33.3733 44.0120 0.0000 0.0000 0.0000
# 2 33.3733 141.6217 31.5757 0.0000 0.0000 0.0000
# 3 44.0120 31.5757 104.1832 0.0000 0.0000 0.0000
# 4 0.0000 0.0000 0.0000 2.0013 0.0000 0.0000
# 5 0.0000 0.0000 0.0000 0.0000 -8.6869 0.0000
# 6 0.0000 0.0000 0.0000 0.0000 0.0000 12.9302
#
#
#
# Elastic Compliance Matrix: (Units=1/GPa)
#
#
# Indices 1 2 3 4 5 6 
#
# 1 0.017842 -0.002707 -0.006717 0.000000 0.000000 0.000000
# 2 -0.002707 0.007983 -0.001276 0.000000 0.000000 0.000000
# 3 -0.006717 -0.001276 0.012823 0.000000 0.000000 0.000000
# 4 0.000000 0.000000 0.000000 0.499677 0.000000 0.000000
# 5 0.000000 0.000000 0.000000 0.000000 -0.115115 0.000000
# 6 0.000000 0.000000 0.000000 0.000000 0.000000 0.077339
#
#
# Mechanical properties :
#
#
# Convention : Reuss Voigt Hill
#
# Bulk Modulus (GPa) = 57.97646 60.15639 59.06642
# Shear Modulus (GPa) = 9.47512 15.55053 12.51283
#
# Velocity S-wave (km/s) = 1.95494 2.50446 2.24657
# Velocity P-wave (km/s) = 5.33673 5.71203 5.52756
#
# Compressibility (1/GPa) = 0.01724838
#
# Stress axis : x y z
#
# Youngs Moduli (GPa) = 56.04828 125.25900 77.98645
#
# Poissons Ratio (x) = 0.33906 0.52382
# Poissons Ratio (y) = 0.15172 0.09952
# Poissons Ratio (z) = 0.37647 0.15984
#
# Static dielectric constant tensor:
#      x y z
#    x 1.983570 0.000000 0.000000 
#    y 0.000000 2.136780 0.000000 
#    z 0.000000 0.000000 2.000390 
# 
# From -- ./inp_files/6610.got.cif
#   From: 2010.05.17/outbox.cif.g08.bks.cpg/sg34_4_cif.got.tgz:6610.got - 2010.06.03 17:23:11.
