data_PCOD9348057
_publ_section_title
;
Structure prediction by ZEFSAII (Michael W. Deem and Ramdas Pophale) SiO2 
 PCOD9348057
Probable space group: P N N 2
;
_chemical_formula_sum "Si O2"
_cell_formula_units_Z 24
_cell_length_a 9.000000
_cell_length_b 15.000000
_cell_length_c 9.000000
_cell_angle_alpha 90.000000
_cell_angle_beta 90.000000
_cell_angle_gamma 90.000000
_cell_volume 1215.000000
_symmetry_space_group_name_H-M "P N N 2"
_symmetry_group_IT_number 34
_symmetry_cell_setting 'orthorhombic'
loop_
_space_group_symop_operation_xyz
x,y,z
-x,-y,z
1/2-x,1/2+y,1/2+z
1/2+x,1/2-y,1/2+z
loop_
_atom_site_type_symbol
_atom_site_label
_atom_site_fract_x
_atom_site_fract_y
_atom_site_fract_z
Si Si1 0.879474 0.796369 0.704930
Si Si2 0.312826 0.342428 0.060467
Si Si3 0.127527 0.186396 0.056339
Si Si4 0.326459 0.363075 0.710604
Si Si5 0.673555 0.981107 0.055371
Si Si6 0.323469 0.510944 0.244473
O O1 0.784282 0.713332 0.650824
O O2 0.036147 0.803318 0.626254
O O3 0.795877 0.890180 0.684573
O O4 0.905986 0.797447 0.882591
O O5 0.178343 0.281450 0.115349
O O6 0.290861 0.440832 0.118698
O O7 0.330669 0.344328 0.884715
O O8 0.267400 0.119665 0.069593
O O9 0.986524 0.146391 0.137140
O O10 0.258982 0.458403 0.673629
O O11 0.500000 0.000000 0.068925
O O12 0.731322 0.008392 0.891912
O O13 0.500000 0.500000 0.281677
#
# Coordination Sequence:
#
# PCOD9348057 Si02
#       6
#     4   4   4   4   4   4
#     4   9  20  38  55  80 115 149 185 224 273 336
#     4  10  21  37  59  87 113 144 187 233 277 322
#     4  10  22  38  57  81 113 150 186 224 277 340
#     4  11  22  37  58  85 114 145 186 235 279 323
#     4  11  22  38  59  81 110 151 191 227 277 340
#     4   9  19  38  60  82 113 149 185 225 273 337
#
# _framework density 19.753086
#
# number of rings (size 3 to 8) (size 9 to 14) (size 15 to 20)
#    0.000    2.000    0.000    4.500    0.000   10.667 
#    0.000    4.167    0.000    0.000    0.000    0.000 
#    0.000    0.000    0.000    0.000    0.000    0.000 
#
# Total GULP energy -133860.269767 kJ/mol
# GULP energy per Si atom -5577.511240 kJ/mol
# Density = 1.970813 g / cm^3
# Si number density = 19.753086 Si / 1000 Ang^3
#
#
#
# Elastic Constant Matrix: (Units=GPa)
#
#
# Indices 1 2 3 4 5 6 
#
# 1 21.7513 2.9400 19.3149 0.0000 0.0000 0.0000
# 2 2.9400 14.2783 40.0918 0.0000 0.0000 0.0000
# 3 19.3149 40.0918 18.7670 0.0000 0.0000 0.0000
# 4 0.0000 0.0000 0.0000 16.8183 0.0000 0.0000
# 5 0.0000 0.0000 0.0000 0.0000 52.6888 0.0000
# 6 0.0000 0.0000 0.0000 0.0000 0.0000 -20.8136
#
#
#
# Elastic Compliance Matrix: (Units=1/GPa)
#
#
# Indices 1 2 3 4 5 6 
#
# 1 0.044544 -0.023918 0.005252 0.000000 0.000000 0.000000
# 2 -0.023918 -0.001169 0.027113 0.000000 0.000000 0.000000
# 3 0.005252 0.027113 -0.010041 0.000000 0.000000 0.000000
# 4 0.000000 0.000000 0.000000 0.059459 0.000000 0.000000
# 5 0.000000 0.000000 0.000000 0.000000 0.018979 0.000000
# 6 0.000000 0.000000 0.000000 0.000000 0.000000 -0.048045
#
#
# Mechanical properties :
#
#
# Convention : Reuss Voigt Hill
#
# Bulk Modulus (GPa) = 19.90957 19.94335 19.92646
# Shear Modulus (GPa) = 78.64592 9.23536 43.94064
#
# Velocity S-wave (km/s) = 6.31672 2.16461 4.72157
# Velocity P-wave (km/s) = 7.95628 4.04545 6.31142
#
# Compressibility (1/GPa) = 0.05022711
#
# Stress axis : x y z
#
# Youngs Moduli (GPa) = 22.44986 -855.69316 -99.59053
#
# Poissons Ratio (x) = -20.46650 0.52303
# Poissons Ratio (y) = 0.53696 2.70018
# Poissons Ratio (z) = -0.11790 23.20029
#
# Static dielectric constant tensor:
#      x y z
#    x 1.668330 0.000000 0.000000 
#    y 0.000000 1.778900 0.000000 
#    z 0.000000 0.000000 1.665810 
# 
# From -- ./inp_files/2600.got.cif
#   From: 2010.05.17/outbox.ucp.g08.bks.cvg/sg34_2_cif.got.tgz:2600.got - 2010.06.11 10:35:58.
