data_PCOD9348719
_publ_section_title
;
Structure prediction by ZEFSAII (Michael W. Deem and Ramdas Pophale) SiO2 
 PCOD9348719
Probable space group: C M M 2
;
_chemical_formula_sum "Si O2"
_cell_formula_units_Z 56
_cell_length_a 19.884782
_cell_length_b 14.739736
_cell_length_c 9.291857
_cell_angle_alpha 90.000000
_cell_angle_beta 90.000000
_cell_angle_gamma 90.000000
_cell_volume 2723.410181
_symmetry_space_group_name_H-M "C M M 2"
_symmetry_group_IT_number 35
_symmetry_cell_setting 'orthorhombic'
loop_
_space_group_symop_operation_xyz
x,y,z
-x,-y,z
-x,y,z
x,-y,z
1/2+x,1/2+y,z
1/2-x,1/2-y,z
1/2-x,1/2+y,z
1/2+x,1/2-y,z
loop_
_atom_site_type_symbol
_atom_site_label
_atom_site_fract_x
_atom_site_fract_y
_atom_site_fract_z
Si Si1 0.873295 0.724467 0.610620
Si Si2 0.827764 0.755959 0.300394
Si Si3 0.921969 0.107431 0.128353
Si Si4 0.869722 0.396769 0.100727
Si Si5 0.500000 0.108036 0.598956
Si Si6 0.500000 0.109237 0.940286
Si Si7 0.878304 0.898187 0.797169
Si Si8 0.772620 0.650098 0.849263
O O1 0.834346 0.760824 0.471648
O O2 0.932987 0.660544 0.553521
O O3 0.898704 0.813036 0.698282
O O4 0.824657 0.667398 0.717900
O O5 0.750000 0.750000 0.259676
O O6 0.869632 0.835132 0.222396
O O7 0.857003 0.662713 0.238820
O O8 0.000000 0.133614 0.153751
O O9 0.915358 0.000000 0.159944
O O10 0.904453 0.118234 0.959260
O O11 0.882838 0.500000 0.141275
O O12 0.933408 0.355869 0.015967
O O13 0.809988 0.394519 0.983478
O O14 0.500000 0.123254 0.771557
O O15 0.500000 0.000000 0.569140
O O16 0.500000 0.000000 0.956619
O O17 0.796580 0.896409 0.802057
O O18 0.900204 0.000000 0.752560
O O19 0.750000 0.750000 0.897855
#
# Coordination Sequence:
#
# PCOD9348719 Si02
#       8
#     8   8   8   8   4   4   8   8
#     4  11  25  41  64  94 132 173 215 265 325 388
#     4  12  26  43  64  94 134 175 215 266 328 391
#     4  10  24  45  70  98 130 172 222 274 329 390
#     4  11  22  37  61  92 126 167 213 261 318 379
#     4  11  24  43  66  96 127 167 215 264 324 388
#     4   9  20  37  61  94 121 155 208 260 309 368
#     4  10  21  39  66  96 125 163 218 273 322 379
#     4  10  19  37  61  91 126 168 216 266 319 374
#
# _framework density 20.562455
#
# number of rings (size 3 to 8) (size 9 to 14) (size 15 to 20)
#    0.000    1.429    1.429    4.714    3.000    3.429 
#    0.000    2.143    0.000    0.000    0.000    0.000 
#    0.000    0.000    0.000    0.000    0.000    0.000 
#
# Total GULP energy -156433.033938 kJ/mol
# GULP energy per Si atom -5586.894069 kJ/mol
# Density = 2.051565 g / cm^3
# Si number density = 20.562455 Si / 1000 Ang^3
#
#
#
# Elastic Constant Matrix: (Units=GPa)
#
#
# Indices 1 2 3 4 5 6 
#
# 1 105.7598 33.2837 13.9190 0.0000 0.0000 0.0000
# 2 33.2837 103.6390 26.3983 0.0000 0.0000 0.0000
# 3 13.9190 26.3983 75.1551 0.0000 0.0000 0.0000
# 4 0.0000 0.0000 0.0000 2.0437 0.0000 0.0000
# 5 0.0000 0.0000 0.0000 0.0000 25.7476 0.0000
# 6 0.0000 0.0000 0.0000 0.0000 0.0000 24.2996
#
#
#
# Elastic Compliance Matrix: (Units=1/GPa)
#
#
# Indices 1 2 3 4 5 6 
#
# 1 0.010567 -0.003179 -0.000840 0.000000 0.000000 0.000000
# 2 -0.003179 0.011554 -0.003469 0.000000 0.000000 0.000000
# 3 -0.000840 -0.003469 0.014680 0.000000 0.000000 0.000000
# 4 0.000000 0.000000 0.000000 0.489320 0.000000 0.000000
# 5 0.000000 0.000000 0.000000 0.000000 0.038839 0.000000
# 6 0.000000 0.000000 0.000000 0.000000 0.000000 0.041153
#
#
# Mechanical properties :
#
#
# Convention : Reuss Voigt Hill
#
# Bulk Modulus (GPa) = 45.82485 47.97291 46.89888
# Shear Modulus (GPa) = 7.95717 24.48170 16.21943
#
# Velocity S-wave (km/s) = 1.96930 3.45425 2.81159
# Velocity P-wave (km/s) = 5.24452 6.26819 5.77906
#
# Compressibility (1/GPa) = 0.02182222
#
# Stress axis : x y z
#
# Youngs Moduli (GPa) = 94.63808 86.55260 68.11968
#
# Poissons Ratio (x) = 0.27519 0.05723
# Poissons Ratio (y) = 0.30090 0.23633
# Poissons Ratio (z) = 0.07951 0.30029
#
# Static dielectric constant tensor:
#      x y z
#    x 1.737930 0.000000 0.000000 
#    y 0.000000 1.740920 0.000000 
#    z 0.000000 0.000000 1.687650 
# 
# From -- ./inp_files/9321.got.cif
#   From: 2010.05.17/outbox.cif.g08.bks.cpg/sg35_5_cif.got.tgz:9321.got - 2010.06.03 17:29:28.
