data_PCOD9348713
_publ_section_title
;
Structure prediction by ZEFSAII (Michael W. Deem and Ramdas Pophale) SiO2 
 PCOD9348713
Probable space group: C M M 2
;
_chemical_formula_sum "Si O2"
_cell_formula_units_Z 40
_cell_length_a 16.145131
_cell_length_b 7.476652
_cell_length_c 15.841541
_cell_angle_alpha 90.000000
_cell_angle_beta 90.000000
_cell_angle_gamma 90.000000
_cell_volume 1912.256588
_symmetry_space_group_name_H-M "C M M 2"
_symmetry_group_IT_number 35
_symmetry_cell_setting 'orthorhombic'
loop_
_space_group_symop_operation_xyz
x,y,z
-x,-y,z
-x,y,z
x,-y,z
1/2+x,1/2+y,z
1/2-x,1/2-y,z
1/2-x,1/2+y,z
1/2+x,1/2-y,z
loop_
_atom_site_type_symbol
_atom_site_label
_atom_site_fract_x
_atom_site_fract_y
_atom_site_fract_z
Si Si1 0.650907 0.714058 0.666970
Si Si2 0.101996 0.500000 0.174040
Si Si3 0.599118 0.297548 0.303175
Si Si4 0.651833 0.712420 0.850642
Si Si5 0.097286 0.500000 0.983594
Si Si6 0.848061 0.786096 0.485370
O O1 0.640052 0.500000 0.667121
O O2 0.750000 0.750000 0.666645
O O3 0.618516 0.774553 0.758325
O O4 0.619302 0.782317 0.576236
O O5 0.129142 0.671675 0.228184
O O6 0.000000 0.500000 0.173891
O O7 0.133242 0.500000 0.078121
O O8 0.500000 0.307652 0.296191
O O9 0.632820 0.500000 0.297749
O O10 0.617496 0.220661 0.396360
O O11 0.637381 0.500000 0.860010
O O12 0.750000 0.750000 0.847790
O O13 0.619501 0.827589 0.927948
O O14 0.000000 0.500000 0.994795
O O15 0.750000 0.750000 0.484412
O O16 0.862740 0.000000 0.485509
#
# Coordination Sequence:
#
# PCOD9348713 Si02
#       6
#     8   4   8   8   4   8
#     4   8  15  27  47  78 105 140 180 214 257 326
#     4   9  20  38  57  75 101 140 183 224 276 337
#     4   9  18  34  55  75  99 138 182 216 259 325
#     4  10  19  36  62  85 114 152 194 232 281 343
#     4  11  24  40  59  87 116 144 191 252 297 337
#     4   9  17  29  48  76 109 137 171 216 265 311
#
# _framework density 20.917695999999999
#
# number of rings (size 3 to 8) (size 9 to 14) (size 15 to 20)
#    0.000    2.800    1.000    0.000    2.800    1.200 
#    0.000    4.000    0.000    4.800    0.000    0.000 
#    0.000    0.000    0.000    0.000    0.000    0.000 
#
# Total GULP energy -111452.199637 kJ/mol
# GULP energy per Si atom -5572.609982 kJ/mol
# Density = 2.087009 g / cm^3
# Si number density = 20.917696 Si / 1000 Ang^3
#
#
#
# Elastic Constant Matrix: (Units=GPa)
#
#
# Indices 1 2 3 4 5 6 
#
# 1 4.7751 1.6992 14.4540 0.0000 0.0000 0.0000
# 2 1.6992 109.7114 86.4692 0.0000 0.0000 0.0000
# 3 14.4540 86.4692 259.1895 0.0000 0.0000 0.0000
# 4 0.0000 0.0000 0.0000 28.4993 0.0000 0.0000
# 5 0.0000 0.0000 0.0000 0.0000 34.0474 0.0000
# 6 0.0000 0.0000 0.0000 0.0000 0.0000 1.5307
#
#
#
# Elastic Compliance Matrix: (Units=1/GPa)
#
#
# Indices 1 2 3 4 5 6 
#
# 1 0.259847 0.010035 -0.017838 0.000000 0.000000 0.000000
# 2 0.010035 0.012754 -0.004814 0.000000 0.000000 0.000000
# 3 -0.017838 -0.004814 0.006459 0.000000 0.000000 0.000000
# 4 0.000000 0.000000 0.000000 0.035089 0.000000 0.000000
# 5 0.000000 0.000000 0.000000 0.000000 0.029371 0.000000
# 6 0.000000 0.000000 0.000000 0.000000 0.000000 0.653290
#
#
# Mechanical properties :
#
#
# Convention : Reuss Voigt Hill
#
# Bulk Modulus (GPa) = 3.93974 64.32450 34.13212
# Shear Modulus (GPa) = 4.51813 30.88573 17.70193
#
# Velocity S-wave (km/s) = 1.47127 3.84674 2.91222
# Velocity P-wave (km/s) = 2.18489 7.10970 5.25935
#
# Compressibility (1/GPa) = 0.25382417
#
# Stress axis : x y z
#
# Youngs Moduli (GPa) = 3.84842 78.40704 154.81943
#
# Poissons Ratio (x) = -0.78680 2.76173
# Poissons Ratio (y) = -0.03862 0.74538
# Poissons Ratio (z) = 0.06865 0.37749
#
# Static dielectric constant tensor:
#      x y z
#    x 1.733300 0.000000 0.000000 
#    y 0.000000 1.772110 0.000000 
#    z 0.000000 0.000000 1.799290 
# 
# From -- ./inp_files/11224.got.cif
#   From: 2010.05.17/outbox.cif.g08.bks.cpg/sg35_6_cif.got.tgz:11224.got - 2010.06.03 17:29:28.
