data_PCOD9348060
_publ_section_title
;
Structure prediction by ZEFSAII (Michael W. Deem and Ramdas Pophale) SiO2 
 PCOD9348060
Probable space group: C M M 2
;
_chemical_formula_sum "Si O2"
_cell_formula_units_Z 58
_cell_length_a 17.985502
_cell_length_b 15.275184
_cell_length_c 11.889023
_cell_angle_alpha 90.000000
_cell_angle_beta 90.000000
_cell_angle_gamma 90.000000
_cell_volume 3266.293312
_symmetry_space_group_name_H-M "C M M 2"
_symmetry_group_IT_number 35
_symmetry_cell_setting 'orthorhombic'
loop_
_space_group_symop_operation_xyz
x,y,z
-x,-y,z
-x,y,z
x,-y,z
1/2+x,1/2+y,z
1/2-x,1/2-y,z
1/2-x,1/2+y,z
1/2+x,1/2-y,z
loop_
_atom_site_type_symbol
_atom_site_label
_atom_site_fract_x
_atom_site_fract_y
_atom_site_fract_z
Si Si1 0.500000 0.500000 0.515010
Si Si2 0.212615 0.398146 0.875681
Si Si3 0.740941 0.897697 0.620666
Si Si4 0.621804 0.345007 0.474791
Si Si5 0.867595 0.898285 0.984971
Si Si6 0.086670 0.894531 0.238047
Si Si7 0.581302 0.822870 0.597239
Si Si8 0.917370 0.267378 0.854521
O O1 0.565510 0.422842 0.510356
O O2 0.187807 0.500000 0.867175
O O3 0.245969 0.373436 0.752842
O O4 0.279533 0.392974 0.963332
O O5 0.145907 0.332305 0.900032
O O6 0.801331 0.850056 0.544060
O O7 0.655156 0.880826 0.588451
O O8 0.757620 0.000000 0.611592
O O9 0.632148 0.354937 0.341055
O O10 0.586117 0.252444 0.504994
O O11 0.904574 0.830242 0.899606
O O12 0.890227 0.000000 0.965982
O O13 0.887890 0.873516 0.112295
O O14 0.000000 0.870273 0.252634
O O15 0.090158 0.000000 0.249365
O O16 0.500000 0.867098 0.593337
O O17 0.586291 0.775491 0.719461
O O18 0.000000 0.296042 0.888733
#
# Coordination Sequence:
#
# PCOD9348060 Si02
#       8
#     2   8   8   8   8   8   8   8
#     4  12  20  32  56  76 106 140 160 212 260 310
#     4   9  19  36  55  75 100 136 173 211 255 296
#     4  10  20  34  56  77 103 138 175 212 254 307
#     4  12  19  35  53  80 105 135 170 211 262 304
#     4  10  20  33  52  76 103 136 166 204 257 312
#     4  10  18  32  51  73 103 136 170 207 247 301
#     4  10  21  35  52  76 108 138 172 215 254 302
#     4  10  20  35  52  76 105 135 170 211 253 300
#
# _framework density 17.757131999999999
#
# number of rings (size 3 to 8) (size 9 to 14) (size 15 to 20)
#    0.000    1.793    2.759    2.069    0.000    3.586 
#    1.241    5.517    0.000    0.000    0.000    0.000 
#    0.000    6.621    0.000    0.000    0.000    0.000 
#
# Total GULP energy -161495.788163 kJ/mol
# GULP energy per Si atom -5568.820281 kJ/mol
# Density = 1.771672 g / cm^3
# Si number density = 17.757132 Si / 1000 Ang^3
#
#
#
# Elastic Constant Matrix: (Units=GPa)
#
#
# Indices 1 2 3 4 5 6 
#
# 1 99.8589 12.0940 34.7519 0.0000 0.0000 0.0000
# 2 12.0940 26.6385 13.9083 0.0000 0.0000 0.0000
# 3 34.7519 13.9083 45.6530 0.0000 0.0000 0.0000
# 4 0.0000 0.0000 0.0000 19.6255 0.0000 0.0000
# 5 0.0000 0.0000 0.0000 0.0000 9.0127 0.0000
# 6 0.0000 0.0000 0.0000 0.0000 0.0000 27.0817
#
#
#
# Elastic Compliance Matrix: (Units=1/GPa)
#
#
# Indices 1 2 3 4 5 6 
#
# 1 0.013642 -0.000918 -0.010105 0.000000 0.000000 0.000000
# 2 -0.000918 0.044702 -0.012920 0.000000 0.000000 0.000000
# 3 -0.010105 -0.012920 0.033533 0.000000 0.000000 0.000000
# 4 0.000000 0.000000 0.000000 0.050954 0.000000 0.000000
# 5 0.000000 0.000000 0.000000 0.000000 0.110954 0.000000
# 6 0.000000 0.000000 0.000000 0.000000 0.000000 0.036925
#
#
# Mechanical properties :
#
#
# Convention : Reuss Voigt Hill
#
# Bulk Modulus (GPa) = 22.73180 32.62877 27.68028
# Shear Modulus (GPa) = 14.15392 18.57039 16.36215
#
# Velocity S-wave (km/s) = 2.82633 3.23739 3.03882
# Velocity P-wave (km/s) = 4.84563 5.69115 5.28532
#
# Compressibility (1/GPa) = 0.04399124
#
# Stress axis : x y z
#
# Youngs Moduli (GPa) = 73.30375 22.37037 29.82177
#
# Poissons Ratio (x) = 0.02053 0.30135
# Poissons Ratio (y) = 0.06726 0.38530
# Poissons Ratio (z) = 0.74073 0.28903
#
# Static dielectric constant tensor:
#      x y z
#    x 1.625950 0.000000 0.000000 
#    y 0.000000 1.606120 0.000000 
#    z 0.000000 0.000000 1.613090 
# 
# From -- ./inp_files/13116.got.cif
#   From: 2010.05.17/outbox.cif.g08.bks.cpg/sg35_7_cif.got.tgz:13116.got - 2010.06.03 17:29:28.
