data_PCOD9348247
_publ_section_title
;
Structure prediction by ZEFSAII (Michael W. Deem and Ramdas Pophale) SiO2 
 PCOD9348247
Probable space group: C M M 2
;
_chemical_formula_sum "Si O2"
_cell_formula_units_Z 64
_cell_length_a 18.830795
_cell_length_b 7.704988
_cell_length_c 21.966514
_cell_angle_alpha 90.000000
_cell_angle_beta 90.000000
_cell_angle_gamma 90.000000
_cell_volume 3187.144570
_symmetry_space_group_name_H-M "C M M 2"
_symmetry_group_IT_number 35
_symmetry_cell_setting 'orthorhombic'
loop_
_space_group_symop_operation_xyz
x,y,z
-x,-y,z
-x,y,z
x,-y,z
1/2+x,1/2+y,z
1/2-x,1/2-y,z
1/2-x,1/2+y,z
1/2+x,1/2-y,z
loop_
_atom_site_type_symbol
_atom_site_label
_atom_site_fract_x
_atom_site_fract_y
_atom_site_fract_z
Si Si1 0.333472 0.206894 0.176520
Si Si2 0.167159 0.209117 0.940085
Si Si3 0.418868 0.791160 0.688480
Si Si4 0.334245 0.791156 0.439856
Si Si5 0.834147 0.291147 0.309044
Si Si6 0.833324 0.709138 0.572044
Si Si7 0.919851 0.206626 0.056460
Si Si8 0.418563 0.708337 0.823146
O O1 0.250000 0.250000 0.168805
O O2 0.358993 0.274406 0.242990
O O3 0.120906 0.231999 0.119703
O O4 0.338738 0.000000 0.178187
O O5 0.250000 0.250000 0.942290
O O6 0.129525 0.273780 0.878408
O O7 0.161283 0.000000 0.939911
O O8 0.125967 0.275797 0.999788
O O9 0.500000 0.726384 0.685744
O O10 0.374376 0.724510 0.631192
O O11 0.390485 0.748706 0.755648
O O12 0.420774 0.000000 0.684200
O O13 0.250000 0.750000 0.439942
O O14 0.362730 0.726058 0.374433
O O15 0.360460 0.726973 0.505724
O O16 0.342222 0.000000 0.439562
O O17 0.842536 0.500000 0.309195
O O18 0.750000 0.250000 0.309287
O O19 0.840244 0.500000 0.571310
O O20 0.750000 0.750000 0.576893
O O21 0.000000 0.277337 0.057988
O O22 0.925251 0.000000 0.047203
O O23 0.500000 0.774241 0.827551
O O24 0.421850 0.500000 0.828157
#
# Coordination Sequence:
#
# PCOD9348247 Si02
#       8
#     8   8   8   8   8   8   8   8
#     4  10  19  31  49  74 102 129 160 201 245 288
#     4  10  21  36  54  76 100 124 153 192 235 279
#     4   9  18  32  48  67  93 124 156 190 229 274
#     4   8  13  23  39  60  87 118 152 189 230 275
#     4   8  14  24  40  63  91 121 153 191 233 277
#     4   9  17  28  44  66  92 121 154 194 235 275
#     4  10  21  37  55  73  96 129 165 199 238 285
#     4   9  18  34  54  72  91 120 157 192 227 272
#
# _framework density 20.080670000000001
#
# number of rings (size 3 to 8) (size 9 to 14) (size 15 to 20)
#    0.000    2.875    0.000    1.125    0.000    5.250 
#    0.000    2.500    0.000    3.000    0.000    3.500 
#    0.000    2.000    0.000    0.000    0.000    0.000 
#
# Total GULP energy -178291.948263 kJ/mol
# GULP energy per Si atom -5571.623383 kJ/mol
# Density = 2.003497 g / cm^3
# Si number density = 20.080670 Si / 1000 Ang^3
#
#
#
# Elastic Constant Matrix: (Units=GPa)
#
#
# Indices 1 2 3 4 5 6 
#
# 1 78.9519 1.7656 97.7899 0.0000 0.0000 0.0000
# 2 1.7656 35.4763 6.3783 0.0000 0.0000 0.0000
# 3 97.7899 6.3783 265.0112 0.0000 0.0000 0.0000
# 4 0.0000 0.0000 0.0000 44.1336 0.0000 0.0000
# 5 0.0000 0.0000 0.0000 0.0000 -23.8775 0.0000
# 6 0.0000 0.0000 0.0000 0.0000 0.0000 15.4344
#
#
#
# Elastic Compliance Matrix: (Units=1/GPa)
#
#
# Indices 1 2 3 4 5 6 
#
# 1 0.023333 0.000388 -0.008619 0.000000 0.000000 0.000000
# 2 0.000388 0.028317 -0.000825 0.000000 0.000000 0.000000
# 3 -0.008619 -0.000825 0.006974 0.000000 0.000000 0.000000
# 4 0.000000 0.000000 0.000000 0.022658 0.000000 0.000000
# 5 0.000000 0.000000 0.000000 0.000000 -0.041881 0.000000
# 6 0.000000 0.000000 0.000000 0.000000 0.000000 0.064791
#
#
# Mechanical properties :
#
#
# Convention : Reuss Voigt Hill
#
# Bulk Modulus (GPa) = 24.68387 65.70077 45.19232
# Shear Modulus (GPa) = 36.81663 25.37180 31.09421
#
# Velocity S-wave (km/s) = 4.28651 3.55842 3.93932
# Velocity P-wave (km/s) = 6.06778 7.04788 6.57611
#
# Compressibility (1/GPa) = 0.04051228
#
# Stress axis : x y z
#
# Youngs Moduli (GPa) = 42.85732 35.31469 143.39271
#
# Poissons Ratio (x) = -0.01372 1.23596
# Poissons Ratio (y) = -0.01665 0.11828
# Poissons Ratio (z) = 0.36940 0.02913
#
# Static dielectric constant tensor:
#      x y z
#    x 1.666970 0.000000 0.000000 
#    y 0.000000 1.739680 0.000000 
#    z 0.000000 0.000000 1.772270 
# 
# From -- ./inp_files/18897.got.cif
#   From: 2010.05.17/outbox.cif.g08.bks.cpg/sg35_10_cif.got.tgz:18897.got - 2010.06.03 17:29:28.
