data_PCOD9348250
_publ_section_title
;
Structure prediction by ZEFSAII (Michael W. Deem and Ramdas Pophale) SiO2 
 PCOD9348250
Probable space group: C M M 2
;
_chemical_formula_sum "Si O2"
_cell_formula_units_Z 64
_cell_length_a 7.735686
_cell_length_b 30.687695
_cell_length_c 12.823821
_cell_angle_alpha 90.000000
_cell_angle_beta 90.000000
_cell_angle_gamma 90.000000
_cell_volume 3044.251645
_symmetry_space_group_name_H-M "C M M 2"
_symmetry_group_IT_number 35
_symmetry_cell_setting 'orthorhombic'
loop_
_space_group_symop_operation_xyz
x,y,z
-x,-y,z
-x,y,z
x,-y,z
1/2+x,1/2+y,z
1/2-x,1/2-y,z
1/2-x,1/2+y,z
1/2+x,1/2-y,z
loop_
_atom_site_type_symbol
_atom_site_label
_atom_site_fract_x
_atom_site_fract_y
_atom_site_fract_z
Si Si1 0.700985 0.798161 0.880280
Si Si2 0.205538 0.797239 0.348233
Si Si3 0.206598 0.606505 0.412302
Si Si4 0.787856 0.389137 0.805730
Si Si5 0.289905 0.089995 0.182594
Si Si6 0.711931 0.050973 0.610938
Si Si7 0.199728 0.814215 0.118110
Si Si8 0.789627 0.546372 0.982188
O O1 0.500000 0.801947 0.862765
O O2 0.750000 0.750000 0.845580
O O3 0.778185 0.839709 0.819244
O O4 0.727642 0.801669 0.005597
O O5 0.250000 0.750000 0.394739
O O6 0.261022 0.841228 0.408214
O O7 0.278642 0.797968 0.228655
O O8 0.000000 0.800507 0.339459
O O9 0.271091 0.588239 0.301193
O O10 0.270845 0.577715 0.508506
O O11 0.000000 0.601632 0.413506
O O12 0.734155 0.419140 0.708885
O O13 0.733294 0.414354 0.910043
O O14 0.000000 0.388564 0.802399
O O15 0.500000 0.092986 0.183968
O O16 0.219224 0.134190 0.132205
O O17 0.240452 0.052646 0.102215
O O18 0.500000 0.050063 0.611251
O O19 0.766174 0.000000 0.614436
O O20 0.000000 0.800720 0.115130
O O21 0.730727 0.500000 0.940341
O O22 0.000000 0.546724 0.979000
#
# Coordination Sequence:
#
# PCOD9348250 Si02
#       8
#     8   8   8   8   8   8   8   8
#     4  11  21  33  50  74 104 138 176 214 260 311
#     4  10  20  33  51  76 106 141 179 214 255 310
#     4   9  18  31  50  76 108 139 170 215 264 307
#     4   9  17  30  48  72 104 137 170 214 261 308
#     4   9  16  28  45  71 107 142 170 206 255 307
#     4   9  17  31  53  80 106 134 174 222 267 308
#     4  10  19  31  49  74 104 141 177 212 253 304
#     4   9  15  24  43  72 101 131 167 207 255 308
#
# _framework density 21.023228
#
# number of rings (size 3 to 8) (size 9 to 14) (size 15 to 20)
#    0.000    2.500    1.250    1.875    0.000    4.500 
#    0.000    3.125    0.000    3.750    0.000    3.500 
#    0.000    0.000    0.000    0.000    0.000    0.000 
#
# Total GULP energy -178355.760454 kJ/mol
# GULP energy per Si atom -5573.617514 kJ/mol
# Density = 2.097538 g / cm^3
# Si number density = 21.023228 Si / 1000 Ang^3
#
#
#
# Elastic Constant Matrix: (Units=GPa)
#
#
# Indices 1 2 3 4 5 6 
#
# 1 28.9983 4.6283 6.2424 0.0000 0.0000 0.0000
# 2 4.6283 189.7749 92.8050 0.0000 0.0000 0.0000
# 3 6.2424 92.8050 121.9900 0.0000 0.0000 0.0000
# 4 0.0000 0.0000 0.0000 9.8901 0.0000 0.0000
# 5 0.0000 0.0000 0.0000 0.0000 4.3085 0.0000
# 6 0.0000 0.0000 0.0000 0.0000 0.0000 15.0855
#
#
#
# Elastic Compliance Matrix: (Units=1/GPa)
#
#
# Indices 1 2 3 4 5 6 
#
# 1 0.034869 0.000035 -0.001811 0.000000 0.000000 0.000000
# 2 0.000035 0.008391 -0.006386 0.000000 0.000000 0.000000
# 3 -0.001811 -0.006386 0.013148 0.000000 0.000000 0.000000
# 4 0.000000 0.000000 0.000000 0.101111 0.000000 0.000000
# 5 0.000000 0.000000 0.000000 0.000000 0.232102 0.000000
# 6 0.000000 0.000000 0.000000 0.000000 0.000000 0.066289
#
#
# Mechanical properties :
#
#
# Convention : Reuss Voigt Hill
#
# Bulk Modulus (GPa) = 24.94668 60.90163 42.92416
# Shear Modulus (GPa) = 10.29666 21.66264 15.97965
#
# Velocity S-wave (km/s) = 2.21549 3.21349 2.75997
# Velocity P-wave (km/s) = 4.29378 6.54219 5.53339
#
# Compressibility (1/GPa) = 0.04008549
#
# Stress axis : x y z
#
# Youngs Moduli (GPa) = 28.67870 119.17211 76.05775
#
# Poissons Ratio (x) = -0.00421 0.13775
# Poissons Ratio (y) = -0.00101 0.48567
# Poissons Ratio (z) = 0.05194 0.76097
#
# Static dielectric constant tensor:
#      x y z
#    x 1.794110 0.000000 0.000000 
#    y 0.000000 1.826500 0.000000 
#    z 0.000000 0.000000 1.761550 
# 
# From -- ./inp_files/16248.got.cif
#   From: 2010.05.17/outbox.cif.g08.bks.cpg/sg35_9_cif.got.tgz:16248.got - 2010.06.03 17:29:28.
