data_PCOD9348068
_publ_section_title
;
Structure prediction by ZEFSAII (Michael W. Deem and Ramdas Pophale) SiO2 
 PCOD9348068
Probable space group: C M M 2
;
_chemical_formula_sum "Si O2"
_cell_formula_units_Z 64
_cell_length_a 8.046299
_cell_length_b 30.505503
_cell_length_c 12.757496
_cell_angle_alpha 90.000000
_cell_angle_beta 90.000000
_cell_angle_gamma 90.000000
_cell_volume 3131.409019
_symmetry_space_group_name_H-M "C M M 2"
_symmetry_group_IT_number 35
_symmetry_cell_setting 'orthorhombic'
loop_
_space_group_symop_operation_xyz
x,y,z
-x,-y,z
-x,y,z
x,-y,z
1/2+x,1/2+y,z
1/2-x,1/2-y,z
1/2-x,1/2+y,z
1/2+x,1/2-y,z
loop_
_atom_site_type_symbol
_atom_site_label
_atom_site_fract_x
_atom_site_fract_y
_atom_site_fract_z
Si Si1 0.298805 0.889057 0.416450
Si Si2 0.297425 0.393538 0.809238
Si Si3 0.694507 0.407580 0.043399
Si Si4 0.200077 0.949512 0.611214
Si Si5 0.191288 0.685372 0.098312
Si Si6 0.799614 0.297443 0.332720
Si Si7 0.800242 0.452736 0.235727
Si Si8 0.694160 0.702479 0.864827
O O1 0.500000 0.889159 0.418224
O O2 0.241520 0.917850 0.514219
O O3 0.242838 0.838756 0.402272
O O4 0.242318 0.914586 0.312244
O O5 0.500000 0.392096 0.801658
O O6 0.237519 0.423924 0.714874
O O7 0.235403 0.342794 0.815277
O O8 0.257293 0.413742 0.922936
O O9 0.500000 0.395007 0.044620
O O10 0.797213 0.367144 0.090868
O O11 0.725230 0.447218 0.121043
O O12 0.000000 0.952177 0.618503
O O13 0.261530 0.000000 0.601215
O O14 0.262337 0.698701 0.211563
O O15 0.000000 0.699884 0.093278
O O16 0.275219 0.700675 0.990528
O O17 0.750000 0.250000 0.374243
O O18 0.000000 0.300188 0.326638
O O19 0.756560 0.500000 0.281804
O O20 0.000000 0.450284 0.227626
O O21 0.500000 0.700244 0.847250
O O22 0.750000 0.750000 0.825548
#
# Coordination Sequence:
#
# PCOD9348068 Si02
#       8
#     8   8   8   8   8   8   8   8
#     4  10  21  40  59  79 111 148 185 229 283 339
#     4   8  18  36  55  78 111 146 180 226 284 337
#     4  10  19  32  53  81 114 149 184 228 275 330
#     4  10  21  39  63  86 106 138 188 241 289 336
#     4  10  18  32  52  76 111 154 191 225 271 330
#     4  10  21  35  54  79 110 148 186 223 272 330
#     4  10  20  35  55  78 110 150 184 223 282 345
#     4  10  19  32  51  79 113 151 191 229 277 330
#
# _framework density 20.438084
#
# number of rings (size 3 to 8) (size 9 to 14) (size 15 to 20)
#    0.000    2.250    1.250    2.625    0.000    4.500 
#    0.000    5.625    0.000    3.000    0.000    0.000 
#    0.000    0.000    0.000    0.000    0.000    0.000 
#
# Total GULP energy -178462.858522 kJ/mol
# GULP energy per Si atom -5576.964329 kJ/mol
# Density = 2.039157 g / cm^3
# Si number density = 20.438084 Si / 1000 Ang^3
#
#
#
# Elastic Constant Matrix: (Units=GPa)
#
#
# Indices 1 2 3 4 5 6 
#
# 1 15.0608 13.0409 4.6280 0.0000 0.0000 0.0000
# 2 13.0409 176.1015 81.8909 0.0000 0.0000 0.0000
# 3 4.6280 81.8909 113.5415 0.0000 0.0000 0.0000
# 4 0.0000 0.0000 0.0000 14.1051 0.0000 0.0000
# 5 0.0000 0.0000 0.0000 0.0000 22.4284 0.0000
# 6 0.0000 0.0000 0.0000 0.0000 0.0000 30.9276
#
#
#
# Elastic Compliance Matrix: (Units=1/GPa)
#
#
# Indices 1 2 3 4 5 6 
#
# 1 0.071085 -0.005893 0.001353 0.000000 0.000000 0.000000
# 2 -0.005893 0.009033 -0.006275 0.000000 0.000000 0.000000
# 3 0.001353 -0.006275 0.013278 0.000000 0.000000 0.000000
# 4 0.000000 0.000000 0.000000 0.070896 0.000000 0.000000
# 5 0.000000 0.000000 0.000000 0.000000 0.044586 0.000000
# 6 0.000000 0.000000 0.000000 0.000000 0.000000 0.032334
#
#
# Mechanical properties :
#
#
# Convention : Reuss Voigt Hill
#
# Bulk Modulus (GPa) = 13.93429 55.98039 34.95734
# Shear Modulus (GPa) = 17.43602 27.16849 22.30225
#
# Velocity S-wave (km/s) = 2.92398 3.64992 3.30693
# Velocity P-wave (km/s) = 4.26991 6.72401 5.63225
#
# Compressibility (1/GPa) = 0.07176541
#
# Stress axis : x y z
#
# Youngs Moduli (GPa) = 14.06775 110.70791 75.31417
#
# Poissons Ratio (x) = 0.65242 -0.10190
# Poissons Ratio (y) = 0.08290 0.47257
# Poissons Ratio (z) = -0.01903 0.69465
#
# Static dielectric constant tensor:
#      x y z
#    x 1.741700 0.000000 0.000000 
#    y 0.000000 1.780080 0.000000 
#    z 0.000000 0.000000 1.713540 
# 
# From -- ./inp_files/11830.got.cif
#   From: 2010.05.17/outbox.cif.g08.bks.cpg/sg35_6_cif.got.tgz:11830.got - 2010.06.03 17:29:28.
