data_PCOD9348507
_publ_section_title
;
Structure prediction by ZEFSAII (Michael W. Deem and Ramdas Pophale) SiO2 
 PCOD9348507
Probable space group: C M M 2
;
_chemical_formula_sum "Si O2"
_cell_formula_units_Z 64
_cell_length_a 8.534480
_cell_length_b 18.932012
_cell_length_c 21.100174
_cell_angle_alpha 90.000000
_cell_angle_beta 90.000000
_cell_angle_gamma 90.000000
_cell_volume 3409.258035
_symmetry_space_group_name_H-M "C M M 2"
_symmetry_group_IT_number 35
_symmetry_cell_setting 'orthorhombic'
loop_
_space_group_symop_operation_xyz
x,y,z
-x,-y,z
-x,y,z
x,-y,z
1/2+x,1/2+y,z
1/2-x,1/2-y,z
1/2-x,1/2+y,z
1/2+x,1/2-y,z
loop_
_atom_site_type_symbol
_atom_site_label
_atom_site_fract_x
_atom_site_fract_y
_atom_site_fract_z
Si Si1 0.187963 0.170544 0.009950
Si Si2 0.191123 0.081003 0.887622
Si Si3 0.811761 0.670652 0.628391
Si Si4 0.312256 0.081911 0.127590
Si Si5 0.311761 0.329348 0.766032
Si Si6 0.187963 0.670544 0.384473
Si Si7 0.191123 0.418997 0.506801
Si Si8 0.187744 0.081911 0.266833
O O1 0.250000 0.250000 0.006696
O O2 0.245641 0.131598 0.073129
O O3 0.000000 0.171885 0.009820
O O4 0.241754 0.125761 0.948699
O O5 0.239328 0.119764 0.822947
O O6 0.000000 0.080354 0.887994
O O7 0.244240 0.000000 0.890757
O O8 0.750000 0.750000 0.617036
O O9 0.750000 0.647758 0.697212
O O10 0.760672 0.619764 0.571476
O O11 0.000000 0.672740 0.630128
O O12 0.500000 0.085405 0.127634
O O13 0.250000 0.101454 0.197212
O O14 0.265133 0.000000 0.115822
O O15 0.500000 0.327260 0.764295
O O16 0.250000 0.250000 0.777387
O O17 0.250000 0.750000 0.387727
O O18 0.241754 0.625761 0.445723
O O19 0.245641 0.631599 0.321294
O O20 0.000000 0.671885 0.384603
O O21 0.244241 0.500000 0.503666
O O22 0.000000 0.419646 0.506429
O O23 0.000000 0.085404 0.266790
O O24 0.234868 0.000000 0.278601
#
# Coordination Sequence:
#
# PCOD9348507 Si02
#       8
#     8   8   8   8   8   8   8   8
#     4  11  22  37  58  82 111 146 185 228 275 327
#     4   9  19  35  55  79 107 141 180 223 273 327
#     4  10  19  33  54  78 107 141 178 220 266 320
#     4  10  21  38  60  86 115 146 182 224 271 325
#     4  10  19  33  54  78 107 141 178 220 266 320
#     4  11  22  37  58  82 111 146 185 228 275 327
#     4   9  19  35  55  79 107 141 180 223 273 327
#     4  10  21  38  60  86 115 146 182 224 271 325
#
# _framework density 18.772411999999999
#
# number of rings (size 3 to 8) (size 9 to 14) (size 15 to 20)
#    0.000    2.000    0.000    4.500    0.000    3.500 
#    0.000    6.250    0.000    8.250    0.000    0.000 
#    0.000    0.000    0.000    0.000    0.000    0.000 
#
# Total GULP energy -178778.065244 kJ/mol
# GULP energy per Si atom -5586.814539 kJ/mol
# Density = 1.872969 g / cm^3
# Si number density = 18.772412 Si / 1000 Ang^3
#
#
#
# Elastic Constant Matrix: (Units=GPa)
#
#
# Indices 1 2 3 4 5 6 
#
# 1 48.7078 37.4002 42.4046 0.0000 0.0000 0.0000
# 2 37.4002 166.2723 148.0978 0.0000 0.0000 0.0000
# 3 42.4046 148.0978 204.7713 0.0000 0.0000 0.0000
# 4 0.0000 0.0000 0.0000 48.3840 0.0000 0.0000
# 5 0.0000 0.0000 0.0000 0.0000 10.2377 0.0000
# 6 0.0000 0.0000 0.0000 0.0000 0.0000 11.1793
#
#
#
# Elastic Compliance Matrix: (Units=1/GPa)
#
#
# Indices 1 2 3 4 5 6 
#
# 1 0.025536 -0.002906 -0.003187 0.000000 0.000000 0.000000
# 2 -0.002906 0.017233 -0.011862 0.000000 0.000000 0.000000
# 3 -0.003187 -0.011862 0.014122 0.000000 0.000000 0.000000
# 4 0.000000 0.000000 0.000000 0.020668 0.000000 0.000000
# 5 0.000000 0.000000 0.000000 0.000000 0.097678 0.000000
# 6 0.000000 0.000000 0.000000 0.000000 0.000000 0.089451
#
#
# Mechanical properties :
#
#
# Convention : Reuss Voigt Hill
#
# Bulk Modulus (GPa) = 47.65734 97.28406 72.47070
# Shear Modulus (GPa) = 16.25534 26.75012 21.50273
#
# Velocity S-wave (km/s) = 2.94584 3.77897 3.38811
# Velocity P-wave (km/s) = 6.08380 8.42474 7.34809
#
# Compressibility (1/GPa) = 0.02098313
#
# Stress axis : x y z
#
# Youngs Moduli (GPa) = 39.16064 58.02777 70.80975
#
# Poissons Ratio (x) = 0.16860 0.22565
# Poissons Ratio (y) = 0.11378 0.83994
# Poissons Ratio (z) = 0.12479 0.68832
#
# Static dielectric constant tensor:
#      x y z
#    x 1.636690 0.000000 0.000000 
#    y 0.000000 1.623510 0.000000 
#    z 0.000000 0.000000 1.626520 
# 
# From -- ./inp_files/18335.got.cif
#   From: 2010.05.17/outbox.cif.g08.bks.cpg/sg35_10_cif.got.tgz:18335.got - 2010.06.03 17:29:28.
