data_PCOD9348367
_publ_section_title
;
Structure prediction by ZEFSAII (Michael W. Deem and Ramdas Pophale) SiO2 
 PCOD9348367
Probable space group: C M M 2
;
_chemical_formula_sum "Si O2"
_cell_formula_units_Z 56
_cell_length_a 8.591211
_cell_length_b 23.986367
_cell_length_c 16.036175
_cell_angle_alpha 90.000000
_cell_angle_beta 90.000000
_cell_angle_gamma 90.000000
_cell_volume 3304.605693
_symmetry_space_group_name_H-M "C M M 2"
_symmetry_group_IT_number 35
_symmetry_cell_setting 'orthorhombic'
loop_
_space_group_symop_operation_xyz
x,y,z
-x,-y,z
-x,y,z
x,-y,z
1/2+x,1/2+y,z
1/2-x,1/2-y,z
1/2-x,1/2+y,z
1/2+x,1/2-y,z
loop_
_atom_site_type_symbol
_atom_site_label
_atom_site_fract_x
_atom_site_fract_y
_atom_site_fract_z
Si Si1 0.811477 0.000000 0.210250
Si Si2 0.812890 0.883801 0.957943
Si Si3 0.812544 0.812099 0.118689
Si Si4 0.311915 0.380861 0.281319
Si Si5 0.687510 0.813523 0.803954
Si Si6 0.186915 0.686606 0.437111
Si Si7 0.312764 0.812845 0.620393
Si Si8 0.185507 0.500000 0.020482
O O1 0.764903 0.055926 0.259359
O O2 0.747691 0.000000 0.115943
O O3 0.000000 0.000000 0.203159
O O4 0.752793 0.853134 0.875530
O O5 0.000000 0.886245 0.956564
O O6 0.763521 0.846818 0.037744
O O7 0.746739 0.945115 0.973714
O O8 0.750000 0.750000 0.115424
O O9 0.761756 0.843107 0.202794
O O10 0.000000 0.810793 0.119094
O O11 0.500000 0.379659 0.285552
O O12 0.246549 0.353770 0.364973
O O13 0.500000 0.811609 0.808787
O O14 0.750000 0.750000 0.813701
O O15 0.734520 0.835372 0.711218
O O16 0.250000 0.750000 0.426166
O O17 0.235780 0.664830 0.529592
O O18 0.000000 0.689510 0.434074
O O19 0.500000 0.812177 0.620356
O O20 0.250000 0.750000 0.620480
O O21 0.000000 0.500000 0.022282
#
# Coordination Sequence:
#
# PCOD9348367 Si02
#       8
#     4   8   8   8   8   8   8   4
#     4  10  20  40  60  73 100 139 180 219 264 314
#     4  11  22  38  56  75 104 143 179 219 263 312
#     4  10  21  34  50  72 103 137 168 204 257 311
#     4  10  20  35  54  75 100 137 176 217 263 310
#     4  10  19  33  53  81 111 141 178 219 266 322
#     4  10  19  32  51  78 109 141 175 215 262 315
#     4   8  16  30  49  73 106 141 173 212 261 313
#     4  12  24  38  58  81 102 133 180 227 266 312
#
# _framework density 16.946045999999999
#
# number of rings (size 3 to 8) (size 9 to 14) (size 15 to 20)
#    0.000    2.000    1.429    2.786    0.000    5.714 
#    0.000    0.000    0.000    0.857    0.000    5.000 
#    0.000    0.000    0.000    0.000    0.000    0.000 
#
# Total GULP energy -156167.683772 kJ/mol
# GULP energy per Si atom -5577.417278 kJ/mol
# Density = 1.690748 g / cm^3
# Si number density = 16.946046 Si / 1000 Ang^3
#
#
#
# Elastic Constant Matrix: (Units=GPa)
#
#
# Indices 1 2 3 4 5 6 
#
# 1 35.4457 34.5828 42.3053 0.0000 0.0000 0.0000
# 2 34.5828 138.3307 94.0820 0.0000 0.0000 0.0000
# 3 42.3053 94.0820 200.2012 0.0000 0.0000 0.0000
# 4 0.0000 0.0000 0.0000 -1.6140 0.0000 0.0000
# 5 0.0000 0.0000 0.0000 0.0000 18.4911 0.0000
# 6 0.0000 0.0000 0.0000 0.0000 0.0000 23.8262
#
#
#
# Elastic Compliance Matrix: (Units=1/GPa)
#
#
# Indices 1 2 3 4 5 6 
#
# 1 0.041306 -0.006452 -0.005696 0.000000 0.000000 0.000000
# 2 -0.006452 0.011633 -0.004103 0.000000 0.000000 0.000000
# 3 -0.005696 -0.004103 0.008127 0.000000 0.000000 0.000000
# 4 0.000000 0.000000 0.000000 -0.619574 0.000000 0.000000
# 5 0.000000 0.000000 0.000000 0.000000 0.054080 0.000000
# 6 0.000000 0.000000 0.000000 0.000000 0.000000 0.041971
#
#
# Mechanical properties :
#
#
# Convention : Reuss Voigt Hill
#
# Bulk Modulus (GPa) = 35.01147 79.54644 57.27896
# Shear Modulus (GPa) = -11.89250 21.67449 4.89099
#
# Velocity S-wave (km/s) = -2.65200 3.58023 1.70073
# Velocity P-wave (km/s) = 3.36570 8.00835 6.14254
#
# Compressibility (1/GPa) = 0.02856207
#
# Stress axis : x y z
#
# Youngs Moduli (GPa) = 24.20948 85.96343 123.04709
#
# Poissons Ratio (x) = 0.55466 0.70092
# Poissons Ratio (y) = 0.15621 0.50489
# Poissons Ratio (z) = 0.13791 0.35273
#
# Static dielectric constant tensor:
#      x y z
#    x 1.578950 0.000000 0.000000 
#    y 0.000000 1.536410 0.000000 
#    z 0.000000 0.000000 1.597670 
# 
# From -- ./inp_files/15716.got.cif
#   From: 2010.05.17/outbox.cif.g08.bks.cpg/sg35_8_cif.got.tgz:15716.got - 2010.06.03 17:29:28.
