data_PCOD9348700
_publ_section_title
;
Structure prediction by ZEFSAII (Michael W. Deem and Ramdas Pophale) SiO2 
 PCOD9348700
Probable space group: C M M 2
;
_chemical_formula_sum "Si O2"
_cell_formula_units_Z 54
_cell_length_a 14.464157
_cell_length_b 15.058277
_cell_length_c 10.777622
_cell_angle_alpha 90.000000
_cell_angle_beta 90.000000
_cell_angle_gamma 90.000000
_cell_volume 2347.423006
_symmetry_space_group_name_H-M "C M M 2"
_symmetry_group_IT_number 35
_symmetry_cell_setting 'orthorhombic'
loop_
_space_group_symop_operation_xyz
x,y,z
-x,-y,z
-x,y,z
x,-y,z
1/2+x,1/2+y,z
1/2-x,1/2-y,z
1/2-x,1/2+y,z
1/2+x,1/2-y,z
loop_
_atom_site_type_symbol
_atom_site_label
_atom_site_fract_x
_atom_site_fract_y
_atom_site_fract_z
Si Si1 0.640888 0.347167 0.049580
Si Si2 0.642129 0.600733 0.329245
Si Si3 0.500000 0.000000 0.924928
Si Si4 0.862596 0.638941 0.031010
Si Si5 0.635679 0.095862 0.308984
Si Si6 0.105838 0.900261 0.787037
Si Si7 0.098613 0.260821 0.504797
Si Si8 0.750000 0.250000 0.690759
O O1 0.612064 0.368819 0.190763
O O2 0.751090 0.366350 0.034617
O O3 0.619354 0.243756 0.024105
O O4 0.599481 0.400314 0.936024
O O5 0.612201 0.500000 0.350688
O O6 0.753405 0.602691 0.318596
O O7 0.615562 0.664677 0.442650
O O8 0.581747 0.921540 0.935363
O O9 0.892145 0.604266 0.166384
O O10 0.598352 0.175671 0.387232
O O11 0.607579 0.000000 0.357743
O O12 0.184423 0.824795 0.756004
O O13 0.000000 0.882779 0.742028
O O14 0.132794 0.000000 0.744114
O O15 0.176729 0.294112 0.597637
O O16 0.000000 0.264825 0.567705
#
# Coordination Sequence:
#
# PCOD9348700 Si02
#       8
#     8   8   2   8   8   8   8   4
#     4  10  21  42  68 100 145 192 229 295 367 438
#     4  10  20  37  65 101 143 185 228 280 355 441
#     4  12  24  32  56 108 144 210 244 276 344 444
#     4  10  21  34  58  95 152 193 226 279 344 427
#     4  10  19  36  58  91 137 185 226 269 340 419
#     4  11  27  51  81 108 136 188 251 307 372 435
#     4  12  25  40  68  99 136 182 230 290 364 430
#     4  12  26  52  72  98 136 186 244 318 358 422
#
# _framework density 23.003947
#
# number of rings (size 3 to 8) (size 9 to 14) (size 15 to 20)
#    0.000    1.333    3.704    1.778    4.148    2.370 
#    0.000    0.000    0.000    1.333    0.000    0.000 
#    0.000    0.000    0.000    0.000    0.000    0.000 
#
# Total GULP energy -150515.207535 kJ/mol
# GULP energy per Si atom -5574.637316 kJ/mol
# Density = 2.295159 g / cm^3
# Si number density = 23.003947 Si / 1000 Ang^3
#
#
#
# Elastic Constant Matrix: (Units=GPa)
#
#
# Indices 1 2 3 4 5 6 
#
# 1 147.3929 43.3936 15.3353 0.0000 0.0000 0.0000
# 2 43.3936 156.1271 14.9358 0.0000 0.0000 0.0000
# 3 15.3353 14.9358 44.7006 0.0000 0.0000 0.0000
# 4 0.0000 0.0000 0.0000 -174.4868 0.0000 0.0000
# 5 0.0000 0.0000 0.0000 0.0000 1098.2584 0.0000
# 6 0.0000 0.0000 0.0000 0.0000 0.0000 7.8141
#
#
#
# Elastic Compliance Matrix: (Units=1/GPa)
#
#
# Indices 1 2 3 4 5 6 
#
# 1 0.007551 -0.001912 -0.001952 0.000000 0.000000 0.000000
# 2 -0.001912 0.007101 -0.001717 0.000000 0.000000 0.000000
# 3 -0.001952 -0.001717 0.023614 0.000000 0.000000 0.000000
# 4 0.000000 0.000000 0.000000 -0.005731 0.000000 0.000000
# 5 0.000000 0.000000 0.000000 0.000000 0.000911 0.000000
# 6 0.000000 0.000000 0.000000 0.000000 0.000000 0.127974
#
#
# Mechanical properties :
#
#
# Convention : Reuss Voigt Hill
#
# Bulk Modulus (GPa) = 36.89321 55.06110 45.97716
# Shear Modulus (GPa) = 27.53094 204.62085 116.07590
#
# Velocity S-wave (km/s) = 3.46322 9.44158 7.11116
# Velocity P-wave (km/s) = 5.66255 11.95179 9.35173
#
# Compressibility (1/GPa) = 0.02710526
#
# Stress axis : x y z
#
# Youngs Moduli (GPa) = 132.44147 140.83229 42.34748
#
# Poissons Ratio (x) = 0.26925 0.08264
# Poissons Ratio (y) = 0.25321 0.07269
# Poissons Ratio (z) = 0.25846 0.24176
#
# Static dielectric constant tensor:
#      x y z
#    x 1.904750 0.000000 0.000000 
#    y 0.000000 1.903740 0.000000 
#    z 0.000000 0.000000 1.865470 
# 
# From -- ./inp_files/13036.got.cif
#   From: 2010.05.17/outbox.cif.g08.bks.cpg/sg35_7_cif.got.tgz:13036.got - 2010.06.03 17:29:28.
