data_PCOD9348872
_publ_section_title
;
Structure prediction by ZEFSAII (Michael W. Deem and Ramdas Pophale) SiO2 
 PCOD9348872
Probable space group: C M M 2
;
_chemical_formula_sum "Si O2"
_cell_formula_units_Z 64
_cell_length_a 8.785028
_cell_length_b 19.398280
_cell_length_c 21.212244
_cell_angle_alpha 90.000000
_cell_angle_beta 90.000000
_cell_angle_gamma 90.000000
_cell_volume 3614.872533
_symmetry_space_group_name_H-M "C M M 2"
_symmetry_group_IT_number 35
_symmetry_cell_setting 'orthorhombic'
loop_
_space_group_symop_operation_xyz
x,y,z
-x,-y,z
-x,y,z
x,-y,z
1/2+x,1/2+y,z
1/2-x,1/2-y,z
1/2-x,1/2+y,z
1/2+x,1/2-y,z
loop_
_atom_site_type_symbol
_atom_site_label
_atom_site_fract_x
_atom_site_fract_y
_atom_site_fract_z
Si Si1 0.317539 0.827352 0.603290
Si Si2 0.683297 0.919847 0.220293
Si Si3 0.817235 0.173609 0.111008
Si Si4 0.185293 0.920907 0.994793
Si Si5 0.818192 0.581192 0.366039
Si Si6 0.680743 0.326833 0.474829
Si Si7 0.317425 0.581071 0.852253
Si Si8 0.318283 0.826706 0.742459
O O1 0.500000 0.824951 0.596888
O O2 0.250000 0.750000 0.604861
O O3 0.246549 0.858565 0.540052
O O4 0.279201 0.856283 0.672595
O O5 0.500000 0.914603 0.214327
O O6 0.762504 0.869353 0.171508
O O7 0.721666 0.903763 0.293135
O O8 0.724591 0.000000 0.208127
O O9 0.750000 0.250000 0.111467
O O10 0.000000 0.177098 0.110487
O O11 0.765303 0.131240 0.048956
O O12 0.231995 0.901045 0.923778
O O13 0.000000 0.921736 0.994853
O O14 0.234135 0.000000 0.007279
O O15 0.788929 0.500000 0.376583
O O16 0.730617 0.627680 0.415684
O O17 0.000000 0.592205 0.373091
O O18 0.500000 0.321396 0.479508
O O19 0.750000 0.250000 0.468038
O O20 0.500000 0.589780 0.848980
O O21 0.284653 0.500000 0.843273
O O22 0.241683 0.626458 0.798671
O O23 0.500000 0.821293 0.745302
O O24 0.250000 0.750000 0.747606
#
# Coordination Sequence:
#
# PCOD9348872 Si02
#       8
#     8   8   8   8   8   8   8   8
#     4   9  17  31  50  72 100 135 173 213 258 307
#     4   9  19  37  59  80 103 134 172 212 256 309
#     4  11  22  35  53  78 109 140 171 213 259 303
#     4   8  16  33  55  76  99 133 175 213 255 309
#     4   9  19  37  58  78 104 137 170 209 259 310
#     4  11  21  33  53  79 106 136 173 216 257 304
#     4   9  18  34  55  77 104 137 171 211 259 309
#     4  10  20  33  52  77 104 135 173 216 259 307
#
# _framework density 17.704633999999999
#
# number of rings (size 3 to 8) (size 9 to 14) (size 15 to 20)
#    0.000    2.500    0.000    4.875    0.000    4.250 
#    0.000    4.375    0.000    2.250    0.000    0.000 
#    0.000    0.000    0.000    0.000    0.000    0.000 
#
# Total GULP energy -178469.073998 kJ/mol
# GULP energy per Si atom -5577.158562 kJ/mol
# Density = 1.766434 g / cm^3
# Si number density = 17.704634 Si / 1000 Ang^3
#
#
#
# Elastic Constant Matrix: (Units=GPa)
#
#
# Indices 1 2 3 4 5 6 
#
# 1 62.3493 49.0336 69.0984 0.0000 0.0000 0.0000
# 2 49.0336 83.3310 101.6970 0.0000 0.0000 0.0000
# 3 69.0984 101.6970 180.0890 0.0000 0.0000 0.0000
# 4 0.0000 0.0000 0.0000 34.0965 0.0000 0.0000
# 5 0.0000 0.0000 0.0000 0.0000 25.0373 0.0000
# 6 0.0000 0.0000 0.0000 0.0000 0.0000 18.1645
#
#
#
# Elastic Compliance Matrix: (Units=1/GPa)
#
#
# Indices 1 2 3 4 5 6 
#
# 1 0.031283 -0.012094 -0.005174 0.000000 0.000000 0.000000
# 2 -0.012094 0.043282 -0.019801 0.000000 0.000000 0.000000
# 3 -0.005174 -0.019801 0.018720 0.000000 0.000000 0.000000
# 4 0.000000 0.000000 0.000000 0.029329 0.000000 0.000000
# 5 0.000000 0.000000 0.000000 0.000000 0.039940 0.000000
# 6 0.000000 0.000000 0.000000 0.000000 0.000000 0.055053
#
#
# Mechanical properties :
#
#
# Convention : Reuss Voigt Hill
#
# Bulk Modulus (GPa) = 52.22578 85.04750 68.63664
# Shear Modulus (GPa) = 16.77139 22.52232 19.64686
#
# Velocity S-wave (km/s) = 3.08114 3.57054 3.33483
# Velocity P-wave (km/s) = 6.49772 8.07090 7.32666
#
# Compressibility (1/GPa) = 0.01914763
#
# Stress axis : x y z
#
# Youngs Moduli (GPa) = 31.96585 23.10433 53.41949
#
# Poissons Ratio (x) = 0.27942 0.27638
# Poissons Ratio (y) = 0.38659 1.05777
# Poissons Ratio (z) = 0.16538 0.45749
#
# Static dielectric constant tensor:
#      x y z
#    x 1.592220 0.000000 0.000000 
#    y 0.000000 1.577060 0.000000 
#    z 0.000000 0.000000 1.622250 
# 
# From -- ./inp_files/18394.got.cif
#   From: 2010.05.17/outbox.cif.g08.bks.cpg/sg35_10_cif.got.tgz:18394.got - 2010.06.03 17:29:28.
