data_PCOD9348995
_publ_section_title
;
Structure prediction by ZEFSAII (Michael W. Deem and Ramdas Pophale) SiO2 
 PCOD9348995
Probable space group: C M M 2
;
_chemical_formula_sum "Si O2"
_cell_formula_units_Z 64
_cell_length_a 9.173678
_cell_length_b 29.957293
_cell_length_c 12.570170
_cell_angle_alpha 90.000000
_cell_angle_beta 90.000000
_cell_angle_gamma 90.000000
_cell_volume 3454.516015
_symmetry_space_group_name_H-M "C M M 2"
_symmetry_group_IT_number 35
_symmetry_cell_setting 'orthorhombic'
loop_
_space_group_symop_operation_xyz
x,y,z
-x,-y,z
-x,y,z
x,-y,z
1/2+x,1/2+y,z
1/2-x,1/2-y,z
1/2-x,1/2+y,z
1/2+x,1/2-y,z
loop_
_atom_site_type_symbol
_atom_site_label
_atom_site_fract_x
_atom_site_fract_y
_atom_site_fract_z
Si Si1 0.175678 0.201423 0.585410
Si Si2 0.675327 0.950241 0.311175
Si Si3 0.832419 0.173245 0.029059
Si Si4 0.332158 0.208837 0.225790
Si Si5 0.177122 0.852848 0.797217
Si Si6 0.322344 0.451465 0.851636
Si Si7 0.171650 0.640145 0.411695
Si Si8 0.832333 0.930618 0.090678
O O1 0.250000 0.250000 0.578093
O O2 0.216269 0.176727 0.696115
O O3 0.234598 0.168585 0.493894
O O4 0.000000 0.205863 0.579574
O O5 0.500000 0.947005 0.303110
O O6 0.721910 0.910398 0.389613
O O7 0.740787 0.943319 0.193611
O O8 0.713916 0.000000 0.348387
O O9 0.736937 0.200457 0.111182
O O10 0.833090 0.122576 0.072890
O O11 0.000000 0.189205 0.028645
O O12 0.776388 0.169725 0.908374
O O13 0.500000 0.220312 0.216267
O O14 0.250000 0.250000 0.279695
O O15 0.318124 0.165325 0.298514
O O16 0.226187 0.904949 0.797353
O O17 0.000000 0.854359 0.801874
O O18 0.500000 0.450613 0.849931
O O19 0.275910 0.500000 0.808212
O O20 0.280597 0.449076 0.976575
O O21 0.000000 0.640598 0.443009
O O22 0.000000 0.944984 0.106612
#
# Coordination Sequence:
#
# PCOD9348995 Si02
#       8
#     8   8   8   8   8   8   8   8
#     4  11  23  40  62  83 104 136 183 235 283 330
#     4  10  20  34  53  78 111 149 183 218 266 321
#     4   9  17  32  53  78 112 148 177 215 267 322
#     4  11  22  35  53  78 108 141 178 222 271 331
#     4   8  17  33  52  78 110 141 177 222 270 320
#     4   8  13  24  46  77 112 147 179 212 258 315
#     4  10  22  40  58  79 109 143 183 227 272 325
#     4   9  16  27  48  78 111 146 184 222 257 305
#
# _framework density 18.526474
#
# number of rings (size 3 to 8) (size 9 to 14) (size 15 to 20)
#    0.000    2.500    1.250    3.000    0.000    3.750 
#    0.000    3.125    0.000    2.250    0.000    0.000 
#    0.000    0.000    0.000    0.000    0.000    0.000 
#
# Total GULP energy -178387.955943 kJ/mol
# GULP energy per Si atom -5574.623623 kJ/mol
# Density = 1.848431 g / cm^3
# Si number density = 18.526474 Si / 1000 Ang^3
#
#
#
# Elastic Constant Matrix: (Units=GPa)
#
#
# Indices 1 2 3 4 5 6 
#
# 1 46.6557 42.5253 37.4198 0.0000 0.0000 0.0000
# 2 42.5253 139.1535 56.9949 0.0000 0.0000 0.0000
# 3 37.4198 56.9949 85.4114 0.0000 0.0000 0.0000
# 4 0.0000 0.0000 0.0000 17.1369 0.0000 0.0000
# 5 0.0000 0.0000 0.0000 0.0000 11.1117 0.0000
# 6 0.0000 0.0000 0.0000 0.0000 0.0000 13.8784
#
#
#
# Elastic Compliance Matrix: (Units=1/GPa)
#
#
# Indices 1 2 3 4 5 6 
#
# 1 0.036746 -0.006379 -0.011842 0.000000 0.000000 0.000000
# 2 -0.006379 0.010997 -0.004543 0.000000 0.000000 0.000000
# 3 -0.011842 -0.004543 0.019928 0.000000 0.000000 0.000000
# 4 0.000000 0.000000 0.000000 0.058354 0.000000 0.000000
# 5 0.000000 0.000000 0.000000 0.000000 0.089995 0.000000
# 6 0.000000 0.000000 0.000000 0.000000 0.000000 0.072054
#
#
# Mechanical properties :
#
#
# Convention : Reuss Voigt Hill
#
# Bulk Modulus (GPa) = 45.16409 60.56674 52.86541
# Shear Modulus (GPa) = 14.66350 17.37745 16.02048
#
# Velocity S-wave (km/s) = 2.81639 3.06597 2.94383
# Velocity P-wave (km/s) = 5.91668 6.73027 6.33655
#
# Compressibility (1/GPa) = 0.02214148
#
# Stress axis : x y z
#
# Youngs Moduli (GPa) = 27.21396 90.93696 50.18116
#
# Poissons Ratio (x) = 0.58011 0.59424
# Poissons Ratio (y) = 0.17361 0.22798
# Poissons Ratio (z) = 0.32227 0.41314
#
# Static dielectric constant tensor:
#      x y z
#    x 1.624560 0.000000 0.000000 
#    y 0.000000 1.693610 0.000000 
#    z 0.000000 0.000000 1.625700 
# 
# From -- ./inp_files/11977.got.cif
#   From: 2010.05.17/outbox.cif.g08.bks.cpg/sg35_6_cif.got.tgz:11977.got - 2010.06.03 17:29:28.
