data_PCOD9348477
_publ_section_title
;
Structure prediction by ZEFSAII (Michael W. Deem and Ramdas Pophale) SiO2 
 PCOD9348477
Probable space group: C M M 2
;
_chemical_formula_sum "Si O2"
_cell_formula_units_Z 64
_cell_length_a 8.641703
_cell_length_b 33.553293
_cell_length_c 11.944286
_cell_angle_alpha 90.000000
_cell_angle_beta 90.000000
_cell_angle_gamma 90.000000
_cell_volume 3463.336416
_symmetry_space_group_name_H-M "C M M 2"
_symmetry_group_IT_number 35
_symmetry_cell_setting 'orthorhombic'
loop_
_space_group_symop_operation_xyz
x,y,z
-x,-y,z
-x,y,z
x,-y,z
1/2+x,1/2+y,z
1/2-x,1/2-y,z
1/2-x,1/2+y,z
1/2+x,1/2-y,z
loop_
_atom_site_type_symbol
_atom_site_label
_atom_site_fract_x
_atom_site_fract_y
_atom_site_fract_z
Si Si1 0.318725 0.453533 0.010640
Si Si2 0.320692 0.212500 0.493966
Si Si3 0.686074 0.104032 0.592499
Si Si4 0.318175 0.869485 0.361810
Si Si5 0.685961 0.205433 0.957608
Si Si6 0.682879 0.680702 0.716429
Si Si7 0.172852 0.453140 0.779815
Si Si8 0.312730 0.128381 0.108914
O O1 0.500000 0.452915 0.037196
O O2 0.263310 0.500000 0.031527
O O3 0.237403 0.415663 0.067947
O O4 0.290427 0.444935 0.879271
O O5 0.500000 0.217781 0.521811
O O6 0.250000 0.250000 0.431765
O O7 0.307539 0.174050 0.416642
O O8 0.226457 0.207108 0.608626
O O9 0.500000 0.111710 0.586698
O O10 0.745905 0.104295 0.465090
O O11 0.757147 0.137992 0.672112
O O12 0.714203 0.064180 0.660118
O O13 0.500000 0.880052 0.349118
O O14 0.253685 0.869020 0.237173
O O15 0.500000 0.207522 0.963036
O O16 0.750000 0.250000 0.986153
O O17 0.736565 0.194937 0.830314
O O18 0.736915 0.167334 0.035247
O O19 0.500000 0.680320 0.734349
O O20 0.162062 0.500000 0.771361
O O21 0.000000 0.437272 0.810638
O O22 0.500000 0.129854 0.107049
#
# Coordination Sequence:
#
# PCOD9348477 Si02
#       8
#     8   8   8   8   8   8   8   8
#     4  10  21  36  55  81 111 141 175 219 270 319
#     4  10  19  33  53  76 103 132 166 211 261 310
#     4   9  17  32  53  76 105 136 167 209 260 311
#     4   8  17  34  53  73  99 133 171 210 252 300
#     4  11  23  37  53  76 107 141 178 220 267 317
#     4  11  21  33  51  75 103 134 172 215 262 316
#     4   9  17  30  51  79 107 134 165 203 252 313
#     4  10  21  38  58  78 104 142 185 224 262 309
#
# _framework density 18.479291
#
# number of rings (size 3 to 8) (size 9 to 14) (size 15 to 20)
#    0.000    2.250    0.000    4.125    0.000    5.750 
#    0.000    3.750    0.000    2.250    0.000    1.750 
#    0.000    0.000    0.000    0.000    0.000    0.000 
#
# Total GULP energy -178156.734727 kJ/mol
# GULP energy per Si atom -5567.397960 kJ/mol
# Density = 1.843723 g / cm^3
# Si number density = 18.479291 Si / 1000 Ang^3
#
#
#
# Elastic Constant Matrix: (Units=GPa)
#
#
# Indices 1 2 3 4 5 6 
#
# 1 34.4178 24.2114 27.3322 0.0000 0.0000 0.0000
# 2 24.2114 62.1761 63.1866 0.0000 0.0000 0.0000
# 3 27.3322 63.1866 113.9656 0.0000 0.0000 0.0000
# 4 0.0000 0.0000 0.0000 -22.6767 0.0000 0.0000
# 5 0.0000 0.0000 0.0000 0.0000 -7.9692 0.0000
# 6 0.0000 0.0000 0.0000 0.0000 0.0000 26.9875
#
#
#
# Elastic Compliance Matrix: (Units=1/GPa)
#
#
# Indices 1 2 3 4 5 6 
#
# 1 0.040257 -0.013433 -0.002207 0.000000 0.000000 0.000000
# 2 -0.013433 0.041324 -0.019690 0.000000 0.000000 0.000000
# 3 -0.002207 -0.019690 0.020221 0.000000 0.000000 0.000000
# 4 0.000000 0.000000 0.000000 -0.044098 0.000000 0.000000
# 5 0.000000 0.000000 0.000000 0.000000 -0.125482 0.000000
# 6 0.000000 0.000000 0.000000 0.000000 0.000000 0.037054
#
#
# Mechanical properties :
#
#
# Convention : Reuss Voigt Hill
#
# Bulk Modulus (GPa) = 32.11138 48.89109 40.50123
# Shear Modulus (GPa) = 99.37166 5.65694 52.51430
#
# Velocity S-wave (km/s) = 7.34107 1.75154 5.33663
# Velocity P-wave (km/s) = 9.44827 5.53219 7.74193
#
# Compressibility (1/GPa) = 0.03114161
#
# Stress axis : x y z
#
# Youngs Moduli (GPa) = 24.84038 24.19893 49.45449
#
# Poissons Ratio (x) = 0.32507 0.10914
# Poissons Ratio (y) = 0.33369 0.97375
# Poissons Ratio (z) = 0.05482 0.47647
#
# Static dielectric constant tensor:
#      x y z
#    x 1.656200 0.000000 0.000000 
#    y 0.000000 1.811090 0.000000 
#    z 0.000000 0.000000 1.639320 
# 
# From -- ./inp_files/12005.got.cif
#   From: 2010.05.17/outbox.cif.g08.bks.cpg/sg35_7_cif.got.tgz:12005.got - 2010.06.03 17:29:28.
