data_PCOD9348351
_publ_section_title
;
Structure prediction by ZEFSAII (Michael W. Deem and Ramdas Pophale) SiO2 
 PCOD9348351
Probable space group: C M M 2
;
_chemical_formula_sum "Si O2"
_cell_formula_units_Z 48
_cell_length_a 27.201148
_cell_length_b 8.836698
_cell_length_c 11.809729
_cell_angle_alpha 90.000000
_cell_angle_beta 90.000000
_cell_angle_gamma 90.000000
_cell_volume 2838.684839
_symmetry_space_group_name_H-M "C M M 2"
_symmetry_group_IT_number 35
_symmetry_cell_setting 'orthorhombic'
loop_
_space_group_symop_operation_xyz
x,y,z
-x,-y,z
-x,y,z
x,-y,z
1/2+x,1/2+y,z
1/2-x,1/2-y,z
1/2-x,1/2+y,z
1/2+x,1/2-y,z
loop_
_atom_site_type_symbol
_atom_site_label
_atom_site_fract_x
_atom_site_fract_y
_atom_site_fract_z
Si Si1 0.695736 0.317474 0.642830
Si Si2 0.442441 0.834585 0.678265
Si Si3 0.378525 0.826284 0.462861
Si Si4 0.876799 0.174144 0.838527
Si Si5 0.444010 0.819267 0.024070
Si Si6 0.055933 0.181358 0.274450
O O1 0.695946 0.500000 0.639164
O O2 0.750000 0.250000 0.637830
O O3 0.663952 0.255196 0.536490
O O4 0.669698 0.271850 0.762778
O O5 0.500000 0.831577 0.685067
O O6 0.423750 0.829145 0.550989
O O7 0.419502 0.696761 0.745671
O O8 0.425289 0.000000 0.725590
O O9 0.400764 0.745951 0.353048
O O10 0.364075 0.000000 0.438609
O O11 0.869127 0.000000 0.869426
O O12 0.899800 0.262272 0.944473
O O13 0.500000 0.780975 0.981054
O O14 0.439443 0.745547 0.147643
O O15 0.442018 0.000000 0.033021
O O16 0.000000 0.223113 0.313661
O O17 0.058641 0.000000 0.273015
#
# Coordination Sequence:
#
# PCOD9348351 Si02
#       6
#     8   8   8   8   8   8
#     4  10  21  37  56  78 102 130 167 212 263 314
#     4   9  17  28  43  66  97 131 164 198 239 292
#     4  10  19  32  51  74 101 133 169 209 254 304
#     4  10  20  32  48  72 100 129 164 207 254 302
#     4  10  20  33  50  73 103 140 178 210 244 295
#     4  10  20  33  50  74 106 142 177 212 250 295
#
# _framework density 16.909237999999998
#
# number of rings (size 3 to 8) (size 9 to 14) (size 15 to 20)
#    0.000    2.167    0.000    3.500    0.000    7.667 
#    0.000    0.000    0.000    1.000    0.000    4.667 
#    0.000    0.000    0.000    0.000    0.000    0.000 
#
# Total GULP energy -133673.366386 kJ/mol
# GULP energy per Si atom -5569.723599 kJ/mol
# Density = 1.687075 g / cm^3
# Si number density = 16.909238 Si / 1000 Ang^3
#
#
#
# Elastic Constant Matrix: (Units=GPa)
#
#
# Indices 1 2 3 4 5 6 
#
# 1 93.6912 42.2107 63.5680 0.0000 0.0000 0.0000
# 2 42.2107 71.5163 41.6199 0.0000 0.0000 0.0000
# 3 63.5680 41.6199 82.0422 0.0000 0.0000 0.0000
# 4 0.0000 0.0000 0.0000 31.0853 0.0000 0.0000
# 5 0.0000 0.0000 0.0000 0.0000 18.9886 0.0000
# 6 0.0000 0.0000 0.0000 0.0000 0.0000 23.0181
#
#
#
# Elastic Compliance Matrix: (Units=1/GPa)
#
#
# Indices 1 2 3 4 5 6 
#
# 1 0.023547 -0.004654 -0.015884 0.000000 0.000000 0.000000
# 2 -0.004654 0.020760 -0.006925 0.000000 0.000000 0.000000
# 3 -0.015884 -0.006925 0.028009 0.000000 0.000000 0.000000
# 4 0.000000 0.000000 0.000000 0.032170 0.000000 0.000000
# 5 0.000000 0.000000 0.000000 0.000000 0.052663 0.000000
# 6 0.000000 0.000000 0.000000 0.000000 0.000000 0.043444
#
#
# Mechanical properties :
#
#
# Convention : Reuss Voigt Hill
#
# Bulk Modulus (GPa) = 57.50532 60.22744 58.86638
# Shear Modulus (GPa) = 19.13389 21.27514 20.20452
#
# Velocity S-wave (km/s) = 3.36752 3.55095 3.46045
# Velocity P-wave (km/s) = 7.01444 7.24622 7.13127
#
# Compressibility (1/GPa) = 0.01738969
#
# Stress axis : x y z
#
# Youngs Moduli (GPa) = 42.46810 48.16891 35.70276
#
# Poissons Ratio (x) = 0.22420 0.56709
# Poissons Ratio (y) = 0.19766 0.24725
# Poissons Ratio (z) = 0.67455 0.33359
#
# Static dielectric constant tensor:
#      x y z
#    x 1.565450 0.000000 0.000000 
#    y 0.000000 1.635680 0.000000 
#    z 0.000000 0.000000 1.582070 
# 
# From -- ./inp_files/11400.got.cif
#   From: 2010.05.17/outbox.cif.g08.bks.cpg/sg35_6_cif.got.tgz:11400.got - 2010.06.03 17:29:28.
