data_PCOD9348867
_publ_section_title
;
Structure prediction by ZEFSAII (Michael W. Deem and Ramdas Pophale) SiO2 
 PCOD9348867
Probable space group: C M M 2
;
_chemical_formula_sum "Si O2"
_cell_formula_units_Z 56
_cell_length_a 8.940556
_cell_length_b 15.811238
_cell_length_c 19.385421
_cell_angle_alpha 90.000000
_cell_angle_beta 90.000000
_cell_angle_gamma 90.000000
_cell_volume 2740.347514
_symmetry_space_group_name_H-M "C M M 2"
_symmetry_group_IT_number 35
_symmetry_cell_setting 'orthorhombic'
loop_
_space_group_symop_operation_xyz
x,y,z
-x,-y,z
-x,y,z
x,-y,z
1/2+x,1/2+y,z
1/2-x,1/2-y,z
1/2-x,1/2+y,z
1/2+x,1/2-y,z
loop_
_atom_site_type_symbol
_atom_site_label
_atom_site_fract_x
_atom_site_fract_y
_atom_site_fract_z
Si Si1 0.820485 0.399609 0.359360
Si Si2 0.169039 0.100834 0.647705
Si Si3 0.830008 0.601070 0.209029
Si Si4 0.820148 0.655111 0.935385
Si Si5 0.822185 0.342448 0.785164
Si Si6 0.320247 0.399483 0.498581
Si Si7 0.677474 0.656989 0.071881
O O1 0.781392 0.500000 0.358926
O O2 0.776217 0.365464 0.283721
O O3 0.748920 0.362486 0.428696
O O4 0.000000 0.393461 0.363322
O O5 0.263928 0.115607 0.715712
O O6 0.228748 0.134207 0.573884
O O7 0.000000 0.134279 0.658434
O O8 0.157507 0.000000 0.638953
O O9 0.841358 0.500000 0.216598
O O10 0.725298 0.617673 0.144370
O O11 0.000000 0.632983 0.195473
O O12 0.750000 0.750000 0.932781
O O13 0.785071 0.616674 0.859946
O O14 0.000000 0.659997 0.942939
O O15 0.749261 0.614380 0.003673
O O16 0.750000 0.250000 0.785332
O O17 0.000000 0.335686 0.782774
O O18 0.500000 0.392684 0.496401
O O19 0.282231 0.500000 0.497949
O O20 0.500000 0.660915 0.064351
O O21 0.750000 0.750000 0.074208
#
# Coordination Sequence:
#
# PCOD9348867 Si02
#       7
#     8   8   8   8   8   8   8
#     4   8  14  25  43  67  93 123 158 194 233 278
#     4   9  18  32  49  71 101 133 162 197 242 286
#     4   9  18  33  51  72 101 132 160 196 243 288
#     4   9  17  31  50  71  94 122 159 200 240 283
#     4  10  20  33  52  75  97 125 161 200 241 287
#     4   8  14  25  42  65  93 125 159 194 233 277
#     4  11  21  33  52  75  98 126 162 200 239 286
#
# _framework density 20.435365000000001
#
# number of rings (size 3 to 8) (size 9 to 14) (size 15 to 20)
#    0.000    2.857    0.000    4.714    0.000    3.429 
#    0.000    3.571    0.000    1.714    0.000    6.000 
#    0.000    0.000    0.000    0.000    0.000    0.000 
#
# Total GULP energy -155944.428444 kJ/mol
# GULP energy per Si atom -5569.443873 kJ/mol
# Density = 2.038885 g / cm^3
# Si number density = 20.435365 Si / 1000 Ang^3
#
#
#
# Elastic Constant Matrix: (Units=GPa)
#
#
# Indices 1 2 3 4 5 6 
#
# 1 75.7076 1.9825 79.1084 0.0000 0.0000 0.0000
# 2 1.9825 12.3219 16.0427 0.0000 0.0000 0.0000
# 3 79.1084 16.0427 243.7721 0.0000 0.0000 0.0000
# 4 0.0000 0.0000 0.0000 -2.3677 0.0000 0.0000
# 5 0.0000 0.0000 0.0000 0.0000 23.1187 0.0000
# 6 0.0000 0.0000 0.0000 0.0000 0.0000 13.9032
#
#
#
# Elastic Compliance Matrix: (Units=1/GPa)
#
#
# Indices 1 2 3 4 5 6 
#
# 1 0.020361 0.005826 -0.006991 0.000000 0.000000 0.000000
# 2 0.005826 0.090429 -0.007842 0.000000 0.000000 0.000000
# 3 -0.006991 -0.007842 0.006887 0.000000 0.000000 0.000000
# 4 0.000000 0.000000 0.000000 -0.422358 0.000000 0.000000
# 5 0.000000 0.000000 0.000000 0.000000 0.043255 0.000000
# 6 0.000000 0.000000 0.000000 0.000000 0.000000 0.071926
#
#
# Mechanical properties :
#
#
# Convention : Reuss Voigt Hill
#
# Bulk Modulus (GPa) = 10.03377 58.45209 34.24293
# Shear Modulus (GPa) = -36.16240 22.57537 -6.79351
#
# Velocity S-wave (km/s) = -4.21122 3.32734 -1.82527
# Velocity P-wave (km/s) = 4.32726 6.58992 3.51439
#
# Compressibility (1/GPa) = 0.09966348
#
# Stress axis : x y z
#
# Youngs Moduli (GPa) = 49.11308 11.05842 145.20192
#
# Poissons Ratio (x) = -0.06443 1.01510
# Poissons Ratio (y) = -0.28613 1.13864
# Poissons Ratio (z) = 0.34335 0.08672
#
# Static dielectric constant tensor:
#      x y z
#    x 1.676710 0.000000 0.000000 
#    y 0.000000 1.774980 0.000000 
#    z 0.000000 0.000000 1.829880 
# 
# From -- ./inp_files/18253.got.cif
#   From: 2010.05.17/outbox.cif.g08.bks.cpg/sg35_10_cif.got.tgz:18253.got - 2010.06.03 17:29:28.
