data_PCOD9348977
_publ_section_title
;
Structure prediction by ZEFSAII (Michael W. Deem and Ramdas Pophale) SiO2 
 PCOD9348977
Probable space group: C M M 2
;
_chemical_formula_sum "Si O2"
_cell_formula_units_Z 56
_cell_length_a 19.520246
_cell_length_b 8.613635
_cell_length_c 18.447048
_cell_angle_alpha 90.000000
_cell_angle_beta 90.000000
_cell_angle_gamma 90.000000
_cell_volume 3101.691708
_symmetry_space_group_name_H-M "C M M 2"
_symmetry_group_IT_number 35
_symmetry_cell_setting 'orthorhombic'
loop_
_space_group_symop_operation_xyz
x,y,z
-x,-y,z
-x,y,z
x,-y,z
1/2+x,1/2+y,z
1/2-x,1/2-y,z
1/2-x,1/2+y,z
1/2+x,1/2-y,z
loop_
_atom_site_type_symbol
_atom_site_label
_atom_site_fract_x
_atom_site_fract_y
_atom_site_fract_z
Si Si1 0.326244 0.186718 0.885530
Si Si2 0.079119 0.187124 0.173398
Si Si3 0.326430 0.185201 0.464807
Si Si4 0.920870 0.312837 0.018876
Si Si5 0.173612 0.813663 0.728225
Si Si6 0.579643 0.312298 0.592515
Si Si7 0.326037 0.313066 0.306862
O O1 0.250000 0.250000 0.898751
O O2 0.375773 0.237030 0.950557
O O3 0.347686 0.249407 0.806760
O O4 0.324579 0.000000 0.882924
O O5 0.124004 0.235931 0.242008
O O6 0.000000 0.237419 0.181947
O O7 0.080232 0.000000 0.170661
O O8 0.104483 0.250434 0.096227
O O9 0.250000 0.250000 0.480611
O O10 0.379598 0.241978 0.524912
O O11 0.346674 0.248199 0.385435
O O12 0.322834 0.000000 0.463216
O O13 0.919840 0.500000 0.021172
O O14 0.000000 0.262349 0.010403
O O15 0.250000 0.750000 0.712514
O O16 0.120638 0.768521 0.665464
O O17 0.177389 0.000000 0.731680
O O18 0.500000 0.265272 0.594474
O O19 0.581934 0.500000 0.586993
O O20 0.324600 0.500000 0.310559
O O21 0.250000 0.250000 0.292386
#
# Coordination Sequence:
#
# PCOD9348977 Si02
#       7
#     8   8   8   8   8   8   8
#     4  10  20  34  53  77 105 136 172 215 261 309
#     4   9  19  35  54  76 102 136 176 214 257 310
#     4  11  22  37  58  82 108 141 181 220 264 318
#     4   9  19  35  53  74 102 137 174 212 258 309
#     4  10  20  35  56  79 104 138 177 215 260 313
#     4  10  22  39  57  80 111 143 176 218 267 316
#     4  10  20  35  55  79 107 138 174 217 264 313
#
# _framework density 18.054663999999999
#
# number of rings (size 3 to 8) (size 9 to 14) (size 15 to 20)
#    0.000    2.143    0.000    4.714    0.000    6.571 
#    0.000    4.286    0.000    0.000    0.000    0.000 
#    0.000    0.000    0.000    0.000    0.000    0.000 
#
# Total GULP energy -156324.735878 kJ/mol
# GULP energy per Si atom -5583.026281 kJ/mol
# Density = 1.801357 g / cm^3
# Si number density = 18.054664 Si / 1000 Ang^3
#
#
#
# Elastic Constant Matrix: (Units=GPa)
#
#
# Indices 1 2 3 4 5 6 
#
# 1 105.7551 39.3678 128.8666 0.0000 0.0000 0.0000
# 2 39.3678 48.4401 52.5286 0.0000 0.0000 0.0000
# 3 128.8666 52.5286 201.6764 0.0000 0.0000 0.0000
# 4 0.0000 0.0000 0.0000 30.4684 0.0000 0.0000
# 5 0.0000 0.0000 0.0000 0.0000 71.7462 0.0000
# 6 0.0000 0.0000 0.0000 0.0000 0.0000 21.8395
#
#
#
# Elastic Compliance Matrix: (Units=1/GPa)
#
#
# Indices 1 2 3 4 5 6 
#
# 1 0.044557 -0.007439 -0.026533 0.000000 0.000000 0.000000
# 2 -0.007439 0.030012 -0.003063 0.000000 0.000000 0.000000
# 3 -0.026533 -0.003063 0.022710 0.000000 0.000000 0.000000
# 4 0.000000 0.000000 0.000000 0.032821 0.000000 0.000000
# 5 0.000000 0.000000 0.000000 0.000000 0.013938 0.000000
# 6 0.000000 0.000000 0.000000 0.000000 0.000000 0.045789
#
#
# Mechanical properties :
#
#
# Convention : Reuss Voigt Hill
#
# Bulk Modulus (GPa) = 43.08932 88.59972 65.84452
# Shear Modulus (GPa) = 18.40712 33.81806 26.11259
#
# Velocity S-wave (km/s) = 3.19646 4.33262 3.80716
# Velocity P-wave (km/s) = 6.12707 8.61443 7.47494
#
# Compressibility (1/GPa) = 0.02320761
#
# Stress axis : x y z
#
# Youngs Moduli (GPa) = 22.44330 33.32002 44.03267
#
# Poissons Ratio (x) = 0.24787 1.16832
# Poissons Ratio (y) = 0.16696 0.13489
# Poissons Ratio (z) = 0.59549 0.10207
#
# Static dielectric constant tensor:
#      x y z
#    x 1.601800 0.000000 0.000000 
#    y 0.000000 1.614090 0.000000 
#    z 0.000000 0.000000 1.604600 
# 
# From -- ./inp_files/17396.got.cif
#   From: 2010.05.17/outbox.cif.g08.bks.cpg/sg35_9_cif.got.tgz:17396.got - 2010.06.03 17:29:28.
