data_PCOD9348421
_publ_section_title
;
Structure prediction by ZEFSAII (Michael W. Deem and Ramdas Pophale) SiO2 
 PCOD9348421
Probable space group: C M M 2
;
_chemical_formula_sum "Si O2"
_cell_formula_units_Z 64
_cell_length_a 17.591559
_cell_length_b 13.365467
_cell_length_c 14.355974
_cell_angle_alpha 90.000000
_cell_angle_beta 90.000000
_cell_angle_gamma 90.000000
_cell_volume 3375.368012
_symmetry_space_group_name_H-M "C M M 2"
_symmetry_group_IT_number 35
_symmetry_cell_setting 'orthorhombic'
loop_
_space_group_symop_operation_xyz
x,y,z
-x,-y,z
-x,y,z
x,-y,z
1/2+x,1/2+y,z
1/2-x,1/2-y,z
1/2-x,1/2+y,z
1/2+x,1/2-y,z
loop_
_atom_site_type_symbol
_atom_site_label
_atom_site_fract_x
_atom_site_fract_y
_atom_site_fract_z
Si Si1 0.808849 0.382577 0.037410
Si Si2 0.913441 0.250897 0.175995
Si Si3 0.146662 0.382724 0.818188
Si Si4 0.419194 0.320036 0.831936
Si Si5 0.086588 0.120193 0.554032
Si Si6 0.369325 0.383753 0.027510
Si Si7 0.091627 0.886117 0.335064
Si Si8 0.293034 0.614311 0.699856
O O1 0.817546 0.500000 0.059439
O O2 0.861482 0.322294 0.110774
O O3 0.719320 0.357715 0.042993
O O4 0.828266 0.372305 0.926978
O O5 0.914312 0.147594 0.118203
O O6 0.881320 0.208675 0.273745
O O7 0.000000 0.290087 0.185142
O O8 0.127105 0.500000 0.804565
O O9 0.085515 0.296209 0.804217
O O10 0.214015 0.352538 0.746399
O O11 0.500000 0.363889 0.805576
O O12 0.351452 0.380100 0.785453
O O13 0.405958 0.326575 0.941562
O O14 0.103858 0.132328 0.444806
O O15 0.155914 0.161187 0.617040
O O16 0.000000 0.158055 0.573177
O O17 0.083368 0.000000 0.571037
O O18 0.373642 0.500000 0.006798
O O19 0.000000 0.888339 0.322369
O O20 0.119776 0.000000 0.312680
O O21 0.277700 0.500000 0.671729
#
# Coordination Sequence:
#
# PCOD9348421 Si02
#       8
#     8   8   8   8   8   8   8   8
#     4  10  21  37  53  67  96 146 188 220 259 306
#     4  11  21  32  52  81 107 138 176 220 267 313
#     4  10  21  37  53  69  98 144 187 220 258 305
#     4  12  23  33  50  76 103 136 175 220 267 314
#     4   8  14  27  49  78 112 145 174 209 261 327
#     4  11  22  35  50  71 101 138 175 212 263 321
#     4   8  15  29  49  77 114 146 170 208 270 335
#     4  10  19  32  53  80 108 138 169 210 265 325
#
# _framework density 18.960896000000002
#
# number of rings (size 3 to 8) (size 9 to 14) (size 15 to 20)
#    0.000    2.000    2.500    3.000    0.000    3.250 
#    0.000    1.250    0.000    3.000    0.000    2.625 
#    0.000    3.000    0.000    0.000    0.000    0.250 
#
# Total GULP energy -178164.133044 kJ/mol
# GULP energy per Si atom -5567.629158 kJ/mol
# Density = 1.891774 g / cm^3
# Si number density = 18.960896 Si / 1000 Ang^3
#
#
#
# Elastic Constant Matrix: (Units=GPa)
#
#
# Indices 1 2 3 4 5 6 
#
# 1 77.1157 21.3460 21.6852 0.0000 0.0000 0.0000
# 2 21.3460 67.6683 12.0614 0.0000 0.0000 0.0000
# 3 21.6852 12.0614 84.5530 0.0000 0.0000 0.0000
# 4 0.0000 0.0000 0.0000 25.0261 0.0000 0.0000
# 5 0.0000 0.0000 0.0000 0.0000 22.9341 0.0000
# 6 0.0000 0.0000 0.0000 0.0000 0.0000 13.1092
#
#
#
# Elastic Compliance Matrix: (Units=1/GPa)
#
#
# Indices 1 2 3 4 5 6 
#
# 1 0.015037 -0.004162 -0.003263 0.000000 0.000000 0.000000
# 2 -0.004162 0.016315 -0.001260 0.000000 0.000000 0.000000
# 3 -0.003263 -0.001260 0.012843 0.000000 0.000000 0.000000
# 4 0.000000 0.000000 0.000000 0.039958 0.000000 0.000000
# 5 0.000000 0.000000 0.000000 0.000000 0.043603 0.000000
# 6 0.000000 0.000000 0.000000 0.000000 0.000000 0.076282
#
#
# Mechanical properties :
#
#
# Convention : Reuss Voigt Hill
#
# Bulk Modulus (GPa) = 37.27651 37.72467 37.50059
# Shear Modulus (GPa) = 21.70598 23.83018 22.76808
#
# Velocity S-wave (km/s) = 3.38712 3.54899 3.46900
# Velocity P-wave (km/s) = 5.91601 6.06078 5.98883
#
# Compressibility (1/GPa) = 0.02682654
#
# Stress axis : x y z
#
# Youngs Moduli (GPa) = 66.50226 61.29173 77.86068
#
# Poissons Ratio (x) = 0.25509 0.25405
# Poissons Ratio (y) = 0.27677 0.09810
# Poissons Ratio (z) = 0.21699 0.07723
#
# Static dielectric constant tensor:
#      x y z
#    x 1.664640 0.000000 0.000000 
#    y 0.000000 1.721700 0.000000 
#    z 0.000000 0.000000 1.678650 
# 
# From -- ./inp_files/16903.got.cif
#   From: 2010.05.17/outbox.cif.g08.bks.cpg/sg35_9_cif.got.tgz:16903.got - 2010.06.03 17:29:28.
