data_PCOD9348390
_publ_section_title
;
Structure prediction by ZEFSAII (Michael W. Deem and Ramdas Pophale) SiO2 
 PCOD9348390
Probable space group: C M M 2
;
_chemical_formula_sum "Si O2"
_cell_formula_units_Z 56
_cell_length_a 8.634290
_cell_length_b 19.608475
_cell_length_c 18.323981
_cell_angle_alpha 90.000000
_cell_angle_beta 90.000000
_cell_angle_gamma 90.000000
_cell_volume 3102.346360
_symmetry_space_group_name_H-M "C M M 2"
_symmetry_group_IT_number 35
_symmetry_cell_setting 'orthorhombic'
loop_
_space_group_symop_operation_xyz
x,y,z
-x,-y,z
-x,y,z
x,-y,z
1/2+x,1/2+y,z
1/2-x,1/2-y,z
1/2-x,1/2+y,z
1/2+x,1/2-y,z
loop_
_atom_site_type_symbol
_atom_site_label
_atom_site_fract_x
_atom_site_fract_y
_atom_site_fract_z
Si Si1 0.183602 0.675767 0.568130
Si Si2 0.813956 0.673946 0.146457
Si Si3 0.687172 0.920868 0.282266
Si Si4 0.688663 0.578202 0.856201
Si Si5 0.686474 0.674152 0.988482
Si Si6 0.815425 0.174610 0.408306
Si Si7 0.815378 0.081392 0.692534
O O1 0.250000 0.750000 0.588485
O O2 0.257264 0.657758 0.489802
O O3 0.228688 0.622271 0.630089
O O4 0.000000 0.680452 0.559411
O O5 0.750000 0.750000 0.162026
O O6 0.769038 0.621146 0.209619
O O7 0.000000 0.677813 0.142815
O O8 0.749034 0.652317 0.067635
O O9 0.500000 0.919212 0.287298
O O10 0.755693 0.880670 0.350946
O O11 0.735411 0.000000 0.279568
O O12 0.500000 0.577850 0.855693
O O13 0.738780 0.500000 0.866791
O O14 0.738235 0.625654 0.922559
O O15 0.735183 0.601022 0.774806
O O16 0.500000 0.675563 0.990796
O O17 0.750000 0.750000 0.975976
O O18 0.750000 0.250000 0.389976
O O19 0.000000 0.177825 0.407524
O O20 0.000000 0.094262 0.685962
O O21 0.792646 0.000000 0.685809
#
# Coordination Sequence:
#
# PCOD9348390 Si02
#       7
#     8   8   8   8   8   8   8
#     4  11  22  37  57  81 110 141 178 222 267 316
#     4  10  20  35  55  77 104 140 178 216 263 316
#     4  10  22  39  57  80 111 143 176 218 267 316
#     4   8  16  32  53  76 103 138 177 216 261 312
#     4  10  19  32  52  77 105 136 174 219 264 312
#     4  11  22  38  60  83 108 140 179 219 264 318
#     4   9  18  35  57  79 107 143 181 220 266 321
#
# _framework density 18.050853
#
# number of rings (size 3 to 8) (size 9 to 14) (size 15 to 20)
#    0.000    2.143    0.000    6.429    0.000    4.571 
#    0.000    2.857    0.000    3.000    0.000    0.000 
#    0.000    0.000    0.000    0.000    0.000    0.000 
#
# Total GULP energy -156326.371062 kJ/mol
# GULP energy per Si atom -5583.084681 kJ/mol
# Density = 1.800977 g / cm^3
# Si number density = 18.050853 Si / 1000 Ang^3
#
#
#
# Elastic Constant Matrix: (Units=GPa)
#
#
# Indices 1 2 3 4 5 6 
#
# 1 60.8192 41.6767 47.0259 0.0000 0.0000 0.0000
# 2 41.6767 98.3202 104.6469 0.0000 0.0000 0.0000
# 3 47.0259 104.6469 144.5769 0.0000 0.0000 0.0000
# 4 0.0000 0.0000 0.0000 47.5077 0.0000 0.0000
# 5 0.0000 0.0000 0.0000 0.0000 9.6973 0.0000
# 6 0.0000 0.0000 0.0000 0.0000 0.0000 21.2167
#
#
#
# Elastic Compliance Matrix: (Units=1/GPa)
#
#
# Indices 1 2 3 4 5 6 
#
# 1 0.023289 -0.007880 -0.001871 0.000000 0.000000 0.000000
# 2 -0.007880 0.046963 -0.031429 0.000000 0.000000 0.000000
# 3 -0.001871 -0.031429 0.030274 0.000000 0.000000 0.000000
# 4 0.000000 0.000000 0.000000 0.021049 0.000000 0.000000
# 5 0.000000 0.000000 0.000000 0.000000 0.103121 0.000000
# 6 0.000000 0.000000 0.000000 0.000000 0.000000 0.047133
#
#
# Mechanical properties :
#
#
# Convention : Reuss Voigt Hill
#
# Bulk Modulus (GPa) = 55.05174 76.71282 65.88228
# Shear Modulus (GPa) = 13.87943 23.04212 18.46077
#
# Velocity S-wave (km/s) = 2.77593 3.57671 3.20145
# Velocity P-wave (km/s) = 6.39052 7.72318 7.08824
#
# Compressibility (1/GPa) = 0.01816473
#
# Stress axis : x y z
#
# Youngs Moduli (GPa) = 42.93861 21.29349 33.03130
#
# Poissons Ratio (x) = 0.16780 0.06181
# Poissons Ratio (y) = 0.33836 1.03815
# Poissons Ratio (z) = 0.08035 0.66924
#
# Static dielectric constant tensor:
#      x y z
#    x 1.608830 0.000000 0.000000 
#    y 0.000000 1.597090 0.000000 
#    z 0.000000 0.000000 1.609660 
# 
# From -- ./inp_files/15639.got.cif
#   From: 2010.05.17/outbox.cif.g08.bks.cpg/sg35_8_cif.got.tgz:15639.got - 2010.06.03 17:29:28.
