data_PCOD9348106
_publ_section_title
;
Structure prediction by ZEFSAII (Michael W. Deem and Ramdas Pophale) SiO2 
 PCOD9348106
Probable space group: C M M 2
;
_chemical_formula_sum "Si O2"
_cell_formula_units_Z 64
_cell_length_a 18.200411
_cell_length_b 19.343958
_cell_length_c 9.648080
_cell_angle_alpha 90.000000
_cell_angle_beta 90.000000
_cell_angle_gamma 90.000000
_cell_volume 3396.780094
_symmetry_space_group_name_H-M "C M M 2"
_symmetry_group_IT_number 35
_symmetry_cell_setting 'orthorhombic'
loop_
_space_group_symop_operation_xyz
x,y,z
-x,-y,z
-x,y,z
x,-y,z
1/2+x,1/2+y,z
1/2-x,1/2-y,z
1/2-x,1/2+y,z
1/2+x,1/2-y,z
loop_
_atom_site_type_symbol
_atom_site_label
_atom_site_fract_x
_atom_site_fract_y
_atom_site_fract_z
Si Si1 0.587587 0.775618 0.043050
Si Si2 0.381694 0.423218 0.858392
Si Si3 0.918826 0.082459 0.461939
Si Si4 0.132612 0.127469 0.163950
Si Si5 0.680884 0.199489 0.527057
Si Si6 0.709332 0.175771 0.216741
Si Si7 0.271469 0.421023 0.634640
Si Si8 0.582878 0.725537 0.745436
O O1 0.500000 0.789974 0.047160
O O2 0.602947 0.704508 0.128307
O O3 0.643222 0.830625 0.108565
O O4 0.613008 0.760467 0.885965
O O5 0.410535 0.500000 0.820180
O O6 0.300202 0.420000 0.792484
O O7 0.416930 0.355925 0.786634
O O8 0.383202 0.414161 0.022966
O O9 0.906948 0.101324 0.301631
O O10 0.843579 0.101442 0.543405
O O11 0.000000 0.110217 0.505570
O O12 0.922081 0.000000 0.476728
O O13 0.220257 0.126466 0.196838
O O14 0.750000 0.250000 0.521403
O O15 0.671561 0.176756 0.367937
O O16 0.706167 0.131583 0.609385
O O17 0.622418 0.244916 0.610267
O O18 0.750000 0.250000 0.197339
O O19 0.253910 0.500000 0.596548
O O20 0.500000 0.747932 0.732466
#
# Coordination Sequence:
#
# PCOD9348106 Si02
#       8
#     8   8   8   8   8   8   8   8
#     4   9  19  33  48  73 108 144 182 230 288 338
#     4  10  21  35  54  80 116 157 193 230 279 342
#     4  10  20  34  52  75 110 154 190 226 277 336
#     4  10  18  33  52  78 108 144 195 237 278 338
#     4  11  20  36  57  81 109 147 190 240 287 338
#     4   9  19  31  50  77 105 140 187 240 286 335
#     4  10  21  37  54  80 113 149 192 234 281 341
#     4  10  22  36  55  82 114 151 193 238 288 345
#
# _framework density 18.841373000000001
#
# number of rings (size 3 to 8) (size 9 to 14) (size 15 to 20)
#    0.000    2.125    2.500    0.750    1.750    2.250 
#    0.000    1.250    0.000    0.375    0.000    0.000 
#    0.000    2.000    0.000    0.000    0.000    0.000 
#
# Total GULP energy -178231.500802 kJ/mol
# GULP energy per Si atom -5569.734400 kJ/mol
# Density = 1.879849 g / cm^3
# Si number density = 18.841373 Si / 1000 Ang^3
#
#
#
# Elastic Constant Matrix: (Units=GPa)
#
#
# Indices 1 2 3 4 5 6 
#
# 1 55.0423 16.5683 15.5495 0.0000 0.0000 0.0000
# 2 16.5683 51.4453 4.0859 0.0000 0.0000 0.0000
# 3 15.5495 4.0859 76.4982 0.0000 0.0000 0.0000
# 4 0.0000 0.0000 0.0000 18.8488 0.0000 0.0000
# 5 0.0000 0.0000 0.0000 0.0000 18.6219 0.0000
# 6 0.0000 0.0000 0.0000 0.0000 0.0000 9.8718
#
#
#
# Elastic Compliance Matrix: (Units=1/GPa)
#
#
# Indices 1 2 3 4 5 6 
#
# 1 0.021255 -0.006530 -0.003972 0.000000 0.000000 0.000000
# 2 -0.006530 0.021527 0.000178 0.000000 0.000000 0.000000
# 3 -0.003972 0.000178 0.013870 0.000000 0.000000 0.000000
# 4 0.000000 0.000000 0.000000 0.053054 0.000000 0.000000
# 5 0.000000 0.000000 0.000000 0.000000 0.053700 0.000000
# 6 0.000000 0.000000 0.000000 0.000000 0.000000 0.101299
#
#
# Mechanical properties :
#
#
# Convention : Reuss Voigt Hill
#
# Bulk Modulus (GPa) = 27.77460 28.37702 28.07581
# Shear Modulus (GPa) = 16.81491 19.25397 18.03444
#
# Velocity S-wave (km/s) = 2.99062 3.20018 3.09718
# Velocity P-wave (km/s) = 5.16705 5.36177 5.26531
#
# Compressibility (1/GPa) = 0.03600412
#
# Stress axis : x y z
#
# Youngs Moduli (GPa) = 47.04673 46.45317 72.09784
#
# Poissons Ratio (x) = 0.30334 0.28635
# Poissons Ratio (y) = 0.30722 -0.01280
# Poissons Ratio (z) = 0.18686 -0.00825
#
# Static dielectric constant tensor:
#      x y z
#    x 1.666140 0.000000 0.000000 
#    y 0.000000 1.693600 0.000000 
#    z 0.000000 0.000000 1.727270 
# 
# From -- ./inp_files/8780.got.cif
#   From: 2010.05.17/outbox.cif.g08.bks.cpg/sg35_5_cif.got.tgz:8780.got - 2010.06.03 17:29:28.
