data_PCOD9348249
_publ_section_title
;
Structure prediction by ZEFSAII (Michael W. Deem and Ramdas Pophale) SiO2 
 PCOD9348249
Probable space group: C M M 2
;
_chemical_formula_sum "Si O2"
_cell_formula_units_Z 64
_cell_length_a 7.819408
_cell_length_b 18.935486
_cell_length_c 21.392367
_cell_angle_alpha 90.000000
_cell_angle_beta 90.000000
_cell_angle_gamma 90.000000
_cell_volume 3167.445647
_symmetry_space_group_name_H-M "C M M 2"
_symmetry_group_IT_number 35
_symmetry_cell_setting 'orthorhombic'
loop_
_space_group_symop_operation_xyz
x,y,z
-x,-y,z
-x,y,z
x,-y,z
1/2+x,1/2+y,z
1/2-x,1/2-y,z
1/2-x,1/2+y,z
1/2+x,1/2-y,z
loop_
_atom_site_type_symbol
_atom_site_label
_atom_site_fract_x
_atom_site_fract_y
_atom_site_fract_z
Si Si1 0.793824 0.331779 0.589460
Si Si2 0.709842 0.918247 0.090736
Si Si3 0.796745 0.080211 0.332211
Si Si4 0.208626 0.418304 0.709005
Si Si5 0.294123 0.832106 0.968752
Si Si6 0.291256 0.918163 0.849162
Si Si7 0.702107 0.831987 0.210737
Si Si8 0.794844 0.580489 0.470927
O O1 0.750000 0.250000 0.588536
O O2 0.730438 0.369632 0.652578
O O3 0.729535 0.371335 0.527224
O O4 0.000000 0.338197 0.589710
O O5 0.500000 0.918246 0.090829
O O6 0.772407 0.876876 0.152233
O O7 0.763012 0.000000 0.090661
O O8 0.765783 0.876521 0.028781
O O9 0.747065 0.130946 0.275907
O O10 0.743248 0.106104 0.400913
O O11 0.000000 0.075432 0.332268
O O12 0.726400 0.000000 0.323612
O O13 0.257098 0.500000 0.698442
O O14 0.264129 0.397691 0.779042
O O15 0.000000 0.416535 0.709076
O O16 0.500000 0.837519 0.968118
O O17 0.250000 0.750000 0.973538
O O18 0.230713 0.867673 0.904512
O O19 0.500000 0.916904 0.849219
O O20 0.242438 0.000000 0.860220
O O21 0.500000 0.835128 0.204605
O O22 0.750000 0.750000 0.208759
O O23 0.728747 0.500000 0.476014
O O24 0.000000 0.577347 0.476738
#
# Coordination Sequence:
#
# PCOD9348249 Si02
#       8
#     8   8   8   8   8   8   8   8
#     4  10  20  32  48  72 101 131 163 204 253 301
#     4   9  18  33  54  77  99 129 172 216 252 292
#     4  10  21  37  57  81 107 134 167 209 255 304
#     4   8  14  27  48  72  96 125 167 213 248 284
#     4  10  19  31  49  74 104 134 165 204 250 299
#     4   8  14  26  47  73  97 126 168 212 247 284
#     4  11  22  36  55  78 106 138 171 209 255 306
#     4   9  18  34  55  75  96 129 173 213 248 292
#
# _framework density 20.205556000000001
#
# number of rings (size 3 to 8) (size 9 to 14) (size 15 to 20)
#    0.000    2.625    0.000    3.000    0.000    5.750 
#    0.000    1.875    0.000    4.125    0.000    1.750 
#    0.000    0.000    0.000    0.000    0.000    0.000 
#
# Total GULP energy -178618.837459 kJ/mol
# GULP energy per Si atom -5581.838671 kJ/mol
# Density = 2.015957 g / cm^3
# Si number density = 20.205556 Si / 1000 Ang^3
#
#
#
# Elastic Constant Matrix: (Units=GPa)
#
#
# Indices 1 2 3 4 5 6 
#
# 1 25.5029 4.8952 10.3504 0.0000 0.0000 0.0000
# 2 4.8952 162.0863 151.3361 0.0000 0.0000 0.0000
# 3 10.3504 151.3361 236.4589 0.0000 0.0000 0.0000
# 4 0.0000 0.0000 0.0000 5.1687 0.0000 0.0000
# 5 0.0000 0.0000 0.0000 0.0000 -12.6024 0.0000
# 6 0.0000 0.0000 0.0000 0.0000 0.0000 20.8064
#
#
#
# Elastic Compliance Matrix: (Units=1/GPa)
#
#
# Indices 1 2 3 4 5 6 
#
# 1 0.039994 0.001060 -0.002429 0.000000 0.000000 0.000000
# 2 0.001060 0.015359 -0.009876 0.000000 0.000000 0.000000
# 3 -0.002429 -0.009876 0.010656 0.000000 0.000000 0.000000
# 4 0.000000 0.000000 0.000000 0.193472 0.000000 0.000000
# 5 0.000000 0.000000 0.000000 0.000000 -0.079350 0.000000
# 6 0.000000 0.000000 0.000000 0.000000 0.000000 0.048062
#
#
# Mechanical properties :
#
#
# Convention : Reuss Voigt Hill
#
# Bulk Modulus (GPa) = 22.97879 84.13460 53.55670
# Shear Modulus (GPa) = 18.85452 19.83897 19.34674
#
# Velocity S-wave (km/s) = 3.05804 3.13686 3.09770
# Velocity P-wave (km/s) = 4.88529 7.40605 6.27358
#
# Compressibility (1/GPa) = 0.04351839
#
# Stress axis : x y z
#
# Youngs Moduli (GPa) = 25.00396 65.11027 93.84237
#
# Poissons Ratio (x) = -0.06903 0.22796
# Poissons Ratio (y) = -0.02651 0.92679
# Poissons Ratio (z) = 0.06074 0.64303
#
# Static dielectric constant tensor:
#      x y z
#    x 1.747800 0.000000 0.000000 
#    y 0.000000 1.676450 0.000000 
#    z 0.000000 0.000000 1.724780 
# 
# From -- ./inp_files/18371.got.cif
#   From: 2010.05.17/outbox.cif.g08.bks.cpg/sg35_10_cif.got.tgz:18371.got - 2010.06.03 17:29:28.
