data_PCOD9348951
_publ_section_title
;
Structure prediction by ZEFSAII (Michael W. Deem and Ramdas Pophale) SiO2 
 PCOD9348951
Probable space group: C M M 2
;
_chemical_formula_sum "Si O2"
_cell_formula_units_Z 48
_cell_length_a 16.071551
_cell_length_b 7.805729
_cell_length_c 17.934330
_cell_angle_alpha 90.000000
_cell_angle_beta 90.000000
_cell_angle_gamma 90.000000
_cell_volume 2249.864778
_symmetry_space_group_name_H-M "C M M 2"
_symmetry_group_IT_number 35
_symmetry_cell_setting 'orthorhombic'
loop_
_space_group_symop_operation_xyz
x,y,z
-x,-y,z
-x,y,z
x,-y,z
1/2+x,1/2+y,z
1/2-x,1/2-y,z
1/2-x,1/2+y,z
1/2+x,1/2-y,z
loop_
_atom_site_type_symbol
_atom_site_label
_atom_site_fract_x
_atom_site_fract_y
_atom_site_fract_z
Si Si1 0.000000 0.706663 0.861300
Si Si2 0.652295 0.206852 0.760088
Si Si3 0.091753 0.294189 0.275935
Si Si4 0.151915 0.294004 0.595580
Si Si5 0.339957 0.702190 0.121866
Si Si6 0.000000 0.206852 0.034701
Si Si7 0.152357 0.293297 0.435179
O O1 0.915653 0.767863 0.819870
O O2 0.000000 0.500000 0.855674
O O3 0.000000 0.752896 0.947697
O O4 0.750000 0.250000 0.772984
O O5 0.624864 0.268621 0.677053
O O6 0.649154 0.000000 0.758951
O O7 0.089885 0.500000 0.281295
O O8 0.152367 0.251589 0.208590
O O9 0.113772 0.227734 0.358204
O O10 0.000000 0.231445 0.254276
O O11 0.141679 0.500000 0.595701
O O12 0.250000 0.250000 0.593690
O O13 0.118101 0.231092 0.515534
O O14 0.346492 0.500000 0.118638
O O15 0.250000 0.750000 0.091459
O O16 0.417582 0.775674 0.075903
O O17 0.000000 0.000000 0.041668
O O18 0.143473 0.500000 0.435303
O O19 0.250000 0.250000 0.432481
#
# Coordination Sequence:
#
# PCOD9348951 Si02
#       7
#     4   8   8   8   8   4   8
#     4  10  22  38  58  85 114 142 178 223 276 332
#     4   9  18  34  55  81 111 146 185 226 271 324
#     4  10  20  34  52  78 113 149 188 232 276 323
#     4   8  14  27  47  70 101 140 181 224 268 311
#     4  11  23  41  63  87 112 145 186 227 277 336
#     4  10  24  44  62  83 114 144 178 223 274 336
#     4   9  17  29  46  72 103 140 184 228 269 316
#
# _framework density 21.334614999999999
#
# number of rings (size 3 to 8) (size 9 to 14) (size 15 to 20)
#    0.000    2.500    0.833    1.000    0.000    4.667 
#    1.500    3.333    0.000    0.000    0.000    0.000 
#    0.000    0.000    0.000    0.000    0.000    0.000 
#
# Total GULP energy -133821.673151 kJ/mol
# GULP energy per Si atom -5575.903048 kJ/mol
# Density = 2.128606 g / cm^3
# Si number density = 21.334615 Si / 1000 Ang^3
#
#
#
# Elastic Constant Matrix: (Units=GPa)
#
#
# Indices 1 2 3 4 5 6 
#
# 1 124.1405 6.6094 82.0803 0.0000 0.0000 0.0000
# 2 6.6094 30.7404 8.2450 0.0000 0.0000 0.0000
# 3 82.0803 8.2450 172.6926 0.0000 0.0000 0.0000
# 4 0.0000 0.0000 0.0000 26.2990 0.0000 0.0000
# 5 0.0000 0.0000 0.0000 0.0000 28.7702 0.0000
# 6 0.0000 0.0000 0.0000 0.0000 0.0000 17.0964
#
#
#
# Elastic Compliance Matrix: (Units=1/GPa)
#
#
# Indices 1 2 3 4 5 6 
#
# 1 0.011780 -0.001044 -0.005549 0.000000 0.000000 0.000000
# 2 -0.001044 0.033045 -0.001081 0.000000 0.000000 0.000000
# 3 -0.005549 -0.001081 0.008480 0.000000 0.000000 0.000000
# 4 0.000000 0.000000 0.000000 0.038024 0.000000 0.000000
# 5 0.000000 0.000000 0.000000 0.000000 0.034758 0.000000
# 6 0.000000 0.000000 0.000000 0.000000 0.000000 0.058492
#
#
# Mechanical properties :
#
#
# Convention : Reuss Voigt Hill
#
# Bulk Modulus (GPa) = 26.34692 57.93810 42.14251
# Shear Modulus (GPa) = 23.52047 29.80902 26.66475
#
# Velocity S-wave (km/s) = 3.32393 3.74199 3.53914
# Velocity P-wave (km/s) = 5.20649 6.77390 6.04124
#
# Compressibility (1/GPa) = 0.03795511
#
# Stress axis : x y z
#
# Youngs Moduli (GPa) = 84.88942 30.26171 117.92794
#
# Poissons Ratio (x) = 0.03161 0.65440
# Poissons Ratio (y) = 0.08866 0.12751
# Poissons Ratio (z) = 0.47106 0.03272
#
# Static dielectric constant tensor:
#      x y z
#    x 1.753910 0.000000 0.000000 
#    y 0.000000 1.733240 0.000000 
#    z 0.000000 0.000000 1.795320 
# 
# From -- ./inp_files/17079.got.cif
#   From: 2010.05.17/outbox.cif.g08.bks.cpg/sg35_9_cif.got.tgz:17079.got - 2010.06.03 17:29:28.
