data_PCOD9348903
_publ_section_title
;
Structure prediction by ZEFSAII (Michael W. Deem and Ramdas Pophale) SiO2 
 PCOD9348903
Probable space group: C M M 2
;
_chemical_formula_sum "Si O2"
_cell_formula_units_Z 58
_cell_length_a 8.634190
_cell_length_b 19.463069
_cell_length_c 18.112122
_cell_angle_alpha 90.000000
_cell_angle_beta 90.000000
_cell_angle_gamma 90.000000
_cell_volume 3043.702903
_symmetry_space_group_name_H-M "C M M 2"
_symmetry_group_IT_number 35
_symmetry_cell_setting 'orthorhombic'
loop_
_space_group_symop_operation_xyz
x,y,z
-x,-y,z
-x,y,z
x,-y,z
1/2+x,1/2+y,z
1/2-x,1/2-y,z
1/2-x,1/2+y,z
1/2+x,1/2-y,z
loop_
_atom_site_type_symbol
_atom_site_label
_atom_site_fract_x
_atom_site_fract_y
_atom_site_fract_z
Si Si1 0.187472 0.674677 0.245710
Si Si2 0.311347 0.078431 0.378293
Si Si3 0.187134 0.419208 0.546030
Si Si4 0.671978 0.858899 0.080321
Si Si5 0.681709 0.323138 0.929642
Si Si6 0.500000 0.000000 0.066124
Si Si7 0.814318 0.420361 0.809683
Si Si8 0.315670 0.672655 0.677285
O O1 0.250000 0.750000 0.259662
O O2 0.242791 0.625376 0.311360
O O3 0.232409 0.652518 0.162930
O O4 0.000000 0.673397 0.246768
O O5 0.500000 0.079081 0.377724
O O6 0.266778 0.098250 0.461694
O O7 0.262700 0.000000 0.366172
O O8 0.226103 0.500000 0.559554
O O9 0.262567 0.368022 0.604059
O O10 0.000000 0.414260 0.551843
O O11 0.500000 0.824063 0.073846
O O12 0.632047 0.938834 0.068822
O O13 0.779672 0.831704 0.015834
O O14 0.500000 0.324765 0.915410
O O15 0.750000 0.250000 0.904075
O O16 0.763441 0.384905 0.885791
O O17 0.763439 0.500000 0.804519
O O18 0.746134 0.373156 0.745092
O O19 0.000000 0.419665 0.804716
O O20 0.500000 0.676274 0.680755
O O21 0.250000 0.750000 0.679352
#
# Coordination Sequence:
#
# PCOD9348903 Si02
#       8
#     8   8   8   8   8   2   8   8
#     4  10  20  33  54  82 114 151 196 243 294 348
#     4   8  16  31  56  84 111 148 195 242 287 342
#     4   9  18  36  60  87 118 153 194 240 293 351
#     4   9  20  36  59  85 114 152 195 244 295 348
#     4  12  25  41  62  88 122 159 198 240 291 347
#     4   8  20  36  62  88 112 148 198 256 292 356
#     4  11  25  44  67  91 120 155 192 238 290 346
#     4  12  25  41  62  88 120 155 194 240 290 349
#
# _framework density 19.055737000000001
#
# number of rings (size 3 to 8) (size 9 to 14) (size 15 to 20)
#    0.414    1.517    0.000    4.966    1.931    5.241 
#    0.000    2.069    0.000    1.241    0.000    0.000 
#    0.000    0.000    0.000    0.000    0.000    0.000 
#
# Total GULP energy -161613.660871 kJ/mol
# GULP energy per Si atom -5572.884858 kJ/mol
# Density = 1.901237 g / cm^3
# Si number density = 19.055737 Si / 1000 Ang^3
#
#
#
# Elastic Constant Matrix: (Units=GPa)
#
#
# Indices 1 2 3 4 5 6 
#
# 1 58.4630 42.8663 36.1488 0.0000 0.0000 0.0000
# 2 42.8663 142.2729 79.7239 0.0000 0.0000 0.0000
# 3 36.1488 79.7239 132.9844 0.0000 0.0000 0.0000
# 4 0.0000 0.0000 0.0000 18.3317 0.0000 0.0000
# 5 0.0000 0.0000 0.0000 0.0000 8.3539 0.0000
# 6 0.0000 0.0000 0.0000 0.0000 0.0000 29.8667
#
#
#
# Elastic Compliance Matrix: (Units=1/GPa)
#
#
# Indices 1 2 3 4 5 6 
#
# 1 0.022788 -0.005112 -0.003130 0.000000 0.000000 0.000000
# 2 -0.005112 0.011731 -0.005643 0.000000 0.000000 0.000000
# 3 -0.003130 -0.005643 0.011754 0.000000 0.000000 0.000000
# 4 0.000000 0.000000 0.000000 0.054550 0.000000 0.000000
# 5 0.000000 0.000000 0.000000 0.000000 0.119705 0.000000
# 6 0.000000 0.000000 0.000000 0.000000 0.000000 0.033482
#
#
# Mechanical properties :
#
#
# Convention : Reuss Voigt Hill
#
# Bulk Modulus (GPa) = 54.04595 72.35537 63.20066
# Shear Modulus (GPa) = 17.36421 22.97588 20.17005
#
# Velocity S-wave (km/s) = 3.02194 3.47611 3.25695
# Velocity P-wave (km/s) = 6.37179 7.35962 6.88345
#
# Compressibility (1/GPa) = 0.01850278
#
# Stress axis : x y z
#
# Youngs Moduli (GPa) = 43.88189 85.24207 85.08094
#
# Poissons Ratio (x) = 0.43578 0.26628
# Poissons Ratio (y) = 0.22434 0.48013
# Poissons Ratio (z) = 0.13734 0.48104
#
# Static dielectric constant tensor:
#      x y z
#    x 1.652330 0.000000 0.000000 
#    y 0.000000 1.633340 0.000000 
#    z 0.000000 0.000000 1.678230 
# 
# From -- ./inp_files/18159.got.cif
#   From: 2010.05.17/outbox.cif.g08.bks.cpg/sg35_10_cif.got.tgz:18159.got - 2010.06.03 17:29:28.
