data_PCOD9348262
_publ_section_title
;
Structure prediction by ZEFSAII (Michael W. Deem and Ramdas Pophale) SiO2 
 PCOD9348262
Probable space group: C M M 2
;
_chemical_formula_sum "Si O2"
_cell_formula_units_Z 64
_cell_length_a 7.780262
_cell_length_b 29.109692
_cell_length_c 14.365370
_cell_angle_alpha 90.000000
_cell_angle_beta 90.000000
_cell_angle_gamma 90.000000
_cell_volume 3253.483801
_symmetry_space_group_name_H-M "C M M 2"
_symmetry_group_IT_number 35
_symmetry_cell_setting 'orthorhombic'
loop_
_space_group_symop_operation_xyz
x,y,z
-x,-y,z
-x,y,z
x,-y,z
1/2+x,1/2+y,z
1/2-x,1/2-y,z
1/2-x,1/2+y,z
1/2+x,1/2-y,z
loop_
_atom_site_type_symbol
_atom_site_label
_atom_site_fract_x
_atom_site_fract_y
_atom_site_fract_z
Si Si1 0.796874 0.447797 0.489220
Si Si2 0.306590 0.625848 0.846486
Si Si3 0.296647 0.948730 0.197652
Si Si4 0.190637 0.875314 0.349505
Si Si5 0.207331 0.196319 0.700260
Si Si6 0.297406 0.448555 0.984964
Si Si7 0.296229 0.948157 0.709039
Si Si8 0.792462 0.803718 0.492409
O O1 0.756386 0.500000 0.463012
O O2 0.688215 0.411905 0.433150
O O3 0.772829 0.443391 0.599053
O O4 0.000000 0.440364 0.468416
O O5 0.500000 0.639577 0.876110
O O6 0.225041 0.668477 0.790108
O O7 0.224254 0.595466 0.929418
O O8 0.310993 0.588191 0.764850
O O9 0.500000 0.951398 0.185600
O O10 0.263770 0.905995 0.265748
O O11 0.238926 0.000000 0.231850
O O12 0.218418 0.942026 0.095469
O O13 0.275714 0.832222 0.403454
O O14 0.000000 0.861117 0.319956
O O15 0.250000 0.250000 0.707698
O O16 0.268476 0.180888 0.596383
O O17 0.000000 0.190865 0.700519
O O18 0.500000 0.449889 0.960910
O O19 0.225770 0.500000 0.963657
O O20 0.500000 0.941773 0.727979
O O21 0.249764 0.000000 0.735443
O O22 0.750000 0.750000 0.484388
O O23 0.000000 0.808988 0.492286
#
# Coordination Sequence:
#
# PCOD9348262 Si02
#       8
#     8   8   8   8   8   8   8   8
#     4   9  18  31  44  63  96 134 167 197 233 284
#     4  10  19  31  50  74  99 128 164 207 251 295
#     4  10  21  36  53  74 101 133 168 206 248 296
#     4  11  21  32  50  75  99 125 162 207 252 298
#     4   9  18  33  51  73 102 133 166 204 246 293
#     4   9  18  33  52  74 100 130 165 206 252 299
#     4   9  18  30  43  64  97 133 165 197 235 285
#     4   9  19  34  51  73 101 132 166 204 246 294
#
# _framework density 19.671220999999999
#
# number of rings (size 3 to 8) (size 9 to 14) (size 15 to 20)
#    0.000    2.500    0.000    3.000    0.000    6.750 
#    0.000    5.000    0.000    0.750    0.000    1.750 
#    0.000    0.000    0.000    0.000    0.000    0.000 
#
# Total GULP energy -178294.637416 kJ/mol
# GULP energy per Si atom -5571.707419 kJ/mol
# Density = 1.962645 g / cm^3
# Si number density = 19.671221 Si / 1000 Ang^3
#
#
#
# Elastic Constant Matrix: (Units=GPa)
#
#
# Indices 1 2 3 4 5 6 
#
# 1 21.1348 2.3093 5.9711 0.0000 0.0000 0.0000
# 2 2.3093 85.3829 56.8695 0.0000 0.0000 0.0000
# 3 5.9711 56.8695 90.1834 0.0000 0.0000 0.0000
# 4 0.0000 0.0000 0.0000 34.1242 0.0000 0.0000
# 5 0.0000 0.0000 0.0000 0.0000 -270.3351 0.0000
# 6 0.0000 0.0000 0.0000 0.0000 0.0000 15.4235
#
#
#
# Elastic Compliance Matrix: (Units=1/GPa)
#
#
# Indices 1 2 3 4 5 6 
#
# 1 0.048317 0.001421 -0.004095 0.000000 0.000000 0.000000
# 2 0.001421 0.020235 -0.012854 0.000000 0.000000 0.000000
# 3 -0.004095 -0.012854 0.019466 0.000000 0.000000 0.000000
# 4 0.000000 0.000000 0.000000 0.029305 0.000000 0.000000
# 5 0.000000 0.000000 0.000000 0.000000 -0.003699 0.000000
# 6 0.000000 0.000000 0.000000 0.000000 0.000000 0.064836
#
#
# Mechanical properties :
#
#
# Convention : Reuss Voigt Hill
#
# Bulk Modulus (GPa) = 17.55600 36.33341 26.94470
# Shear Modulus (GPa) = 21.88148 -35.38739 -6.75296
#
# Velocity S-wave (km/s) = 3.33882 -4.24600 -1.85482
# Velocity P-wave (km/s) = 4.87932 2.35107 3.02326
#
# Compressibility (1/GPa) = 0.05696060
#
# Stress axis : x y z
#
# Youngs Moduli (GPa) = 20.69660 49.41889 51.37281
#
# Poissons Ratio (x) = -0.07021 0.21037
# Poissons Ratio (y) = -0.02940 0.66036
# Poissons Ratio (z) = 0.08475 0.63525
#
# Static dielectric constant tensor:
#      x y z
#    x 1.964570 0.000000 0.000000 
#    y 0.000000 1.722350 0.000000 
#    z 0.000000 0.000000 1.712860 
# 
# From -- ./inp_files/16244.got.cif
#   From: 2010.05.17/outbox.cif.g08.bks.cpg/sg35_9_cif.got.tgz:16244.got - 2010.06.03 17:29:28.
