data_PCOD9348570
_publ_section_title
;
Structure prediction by ZEFSAII (Michael W. Deem and Ramdas Pophale) SiO2 
 PCOD9348570
Probable space group: C M M 2
;
_chemical_formula_sum "Si O2"
_cell_formula_units_Z 64
_cell_length_a 15.701832
_cell_length_b 17.283080
_cell_length_c 11.940194
_cell_angle_alpha 90.000000
_cell_angle_beta 90.000000
_cell_angle_gamma 90.000000
_cell_volume 3240.282309
_symmetry_space_group_name_H-M "C M M 2"
_symmetry_group_IT_number 35
_symmetry_cell_setting 'orthorhombic'
loop_
_space_group_symop_operation_xyz
x,y,z
-x,-y,z
-x,y,z
x,-y,z
1/2+x,1/2+y,z
1/2-x,1/2-y,z
1/2-x,1/2+y,z
1/2+x,1/2-y,z
loop_
_atom_site_type_symbol
_atom_site_label
_atom_site_fract_x
_atom_site_fract_y
_atom_site_fract_z
Si Si1 0.353975 0.668618 0.363000
Si Si2 0.747262 0.655034 0.784549
Si Si3 0.405564 0.675226 0.622492
Si Si4 0.825389 0.589393 0.403613
Si Si5 0.091839 0.090017 0.156931
Si Si6 0.097844 0.323520 0.218259
Si Si7 0.403892 0.138918 0.640065
Si Si8 0.756582 0.658692 0.039007
O O1 0.386711 0.670569 0.489886
O O2 0.255583 0.643771 0.375513
O O3 0.400321 0.603878 0.289349
O O4 0.371505 0.746795 0.289549
O O5 0.750000 0.750000 0.784927
O O6 0.666759 0.638985 0.702785
O O7 0.831990 0.619793 0.729911
O O8 0.747942 0.627293 0.912858
O O9 0.500000 0.644204 0.646654
O O10 0.406926 0.767623 0.642544
O O11 0.799072 0.500000 0.404282
O O12 0.893039 0.607655 0.307366
O O13 0.867522 0.612332 0.520818
O O14 0.174661 0.129104 0.105587
O O15 0.000000 0.121584 0.118101
O O16 0.094696 0.000000 0.130827
O O17 0.158532 0.347918 0.114846
O O18 0.000000 0.310933 0.185027
O O19 0.500000 0.110003 0.658156
O O20 0.750000 0.750000 0.026789
#
# Coordination Sequence:
#
# PCOD9348570 Si02
#       8
#     8   8   8   8   8   8   8   8
#     4  12  21  38  62  91 122 155 200 250 305 362
#     4   9  20  36  57  87 121 156 204 254 303 355
#     4  10  19  33  60  92 121 153 196 255 309 358
#     4  12  24  38  60  90 127 165 199 245 309 374
#     4  11  24  41  62  90 125 164 204 250 308 372
#     4  12  24  38  62  94 126 161 201 251 305 364
#     4  10  20  36  57  86 121 159 200 248 305 361
#     4  11  22  39  62  89 121 162 208 257 303 356
#
# _framework density 19.751365
#
# number of rings (size 3 to 8) (size 9 to 14) (size 15 to 20)
#    0.000    1.125    5.000    2.250    0.000    2.000 
#    0.000    3.125    0.000    0.000    0.000    1.750 
#    0.000    0.000    0.000    0.000    0.000    0.000 
#
# Total GULP energy -178430.454133 kJ/mol
# GULP energy per Si atom -5575.951692 kJ/mol
# Density = 1.970641 g / cm^3
# Si number density = 19.751365 Si / 1000 Ang^3
#
#
#
# Elastic Constant Matrix: (Units=GPa)
#
#
# Indices 1 2 3 4 5 6 
#
# 1 200.5068 38.0587 84.6604 0.0000 0.0000 0.0000
# 2 38.0587 23.5636 9.8411 0.0000 0.0000 0.0000
# 3 84.6604 9.8411 153.1796 0.0000 0.0000 0.0000
# 4 0.0000 0.0000 0.0000 76.2611 0.0000 0.0000
# 5 0.0000 0.0000 0.0000 0.0000 6.8501 0.0000
# 6 0.0000 0.0000 0.0000 0.0000 0.0000 14.2518
#
#
#
# Elastic Compliance Matrix: (Units=1/GPa)
#
#
# Indices 1 2 3 4 5 6 
#
# 1 0.009318 -0.013255 -0.004299 0.000000 0.000000 0.000000
# 2 -0.013255 0.062464 0.003313 0.000000 0.000000 0.000000
# 3 -0.004299 0.003313 0.008691 0.000000 0.000000 0.000000
# 4 0.000000 0.000000 0.000000 0.013113 0.000000 0.000000
# 5 0.000000 0.000000 0.000000 0.000000 0.145983 0.000000
# 6 0.000000 0.000000 0.000000 0.000000 0.000000 0.070166
#
#
# Mechanical properties :
#
#
# Convention : Reuss Voigt Hill
#
# Bulk Modulus (GPa) = 19.23378 71.37449 45.30414
# Shear Modulus (GPa) = 14.06279 35.78526 24.92403
#
# Velocity S-wave (km/s) = 2.67121 4.26113 3.55616
# Velocity P-wave (km/s) = 4.39009 7.77332 6.31258
#
# Compressibility (1/GPa) = 0.05199186
#
# Stress axis : x y z
#
# Youngs Moduli (GPa) = 107.31485 16.00923 115.05900
#
# Poissons Ratio (x) = 0.21221 0.49459
# Poissons Ratio (y) = 1.42249 -0.38119
# Poissons Ratio (z) = 0.46130 -0.05304
#
# Static dielectric constant tensor:
#      x y z
#    x 1.710900 0.000000 0.000000 
#    y 0.000000 1.707460 0.000000 
#    z 0.000000 0.000000 1.709440 
# 
# From -- ./inp_files/13163.got.cif
#   From: 2010.05.17/outbox.cif.g08.bks.cpg/sg35_7_cif.got.tgz:13163.got - 2010.06.03 17:29:28.
