data_PCOD9348374
_publ_section_title
;
Structure prediction by ZEFSAII (Michael W. Deem and Ramdas Pophale) SiO2 
 PCOD9348374
Probable space group: C M M 2
;
_chemical_formula_sum "Si O2"
_cell_formula_units_Z 48
_cell_length_a 15.711329
_cell_length_b 7.329460
_cell_length_c 18.353437
_cell_angle_alpha 90.000000
_cell_angle_beta 90.000000
_cell_angle_gamma 90.000000
_cell_volume 2113.500269
_symmetry_space_group_name_H-M "C M M 2"
_symmetry_group_IT_number 35
_symmetry_cell_setting 'orthorhombic'
loop_
_space_group_symop_operation_xyz
x,y,z
-x,-y,z
-x,y,z
x,-y,z
1/2+x,1/2+y,z
1/2-x,1/2-y,z
1/2-x,1/2+y,z
1/2+x,1/2-y,z
loop_
_atom_site_type_symbol
_atom_site_label
_atom_site_fract_x
_atom_site_fract_y
_atom_site_fract_z
Si Si1 0.500000 0.276559 0.209930
Si Si2 0.844378 0.783267 0.111206
Si Si3 0.000000 0.223110 0.377181
Si Si4 0.648935 0.281843 0.483093
Si Si5 0.898084 0.791275 0.799500
Si Si6 0.099884 0.777670 0.955540
Si Si7 0.850551 0.216862 0.642897
O O1 0.500000 0.500000 0.210756
O O2 0.417311 0.215766 0.164962
O O3 0.500000 0.217721 0.293530
O O4 0.750000 0.750000 0.139120
O O5 0.857411 0.000000 0.105842
O O6 0.853741 0.713316 0.028367
O O7 0.915521 0.282299 0.420984
O O8 0.000000 0.000000 0.376619
O O9 0.640176 0.500000 0.486058
O O10 0.750000 0.250000 0.471192
O O11 0.621468 0.212872 0.563615
O O12 0.867383 0.711741 0.876625
O O13 0.881184 0.707699 0.720428
O O14 0.000000 0.798682 0.807392
O O15 0.864941 0.000000 0.795786
O O16 0.000000 0.730419 0.964068
O O17 0.103555 0.000000 0.952182
O O18 0.750000 0.250000 0.642535
O O19 0.870750 0.000000 0.643533
#
# Coordination Sequence:
#
# PCOD9348374 Si02
#       7
#     4   8   4   8   8   8   8
#     4   9  18  34  53  72  98 128 159 193 235 291
#     4  10  19  32  52  75  97 126 161 196 236 284
#     4   9  18  32  53  76  94 124 163 197 235 283
#     4   9  18  32  50  72  99 126 158 198 238 281
#     4   8  14  23  40  66  90 115 154 197 227 258
#     4   8  13  25  44  65  91 123 158 195 231 272
#     4   9  17  28  43  64  91 121 150 188 233 273
#
# _framework density 22.711141000000001
#
# number of rings (size 3 to 8) (size 9 to 14) (size 15 to 20)
#    0.000    3.167    0.833    1.000    1.167    1.333 
#    0.000    0.833    0.000    1.500    0.000    2.333 
#    0.000    0.000    0.000    0.000    0.000    0.000 
#
# Total GULP energy -133851.522804 kJ/mol
# GULP energy per Si atom -5577.146784 kJ/mol
# Density = 2.265945 g / cm^3
# Si number density = 22.711141 Si / 1000 Ang^3
#
#
#
# Elastic Constant Matrix: (Units=GPa)
#
#
# Indices 1 2 3 4 5 6 
#
# 1 109.9202 -4.9556 102.4437 0.0000 0.0000 0.0000
# 2 -4.9556 91.5601 13.9801 0.0000 0.0000 0.0000
# 3 102.4437 13.9801 252.6067 0.0000 0.0000 0.0000
# 4 0.0000 0.0000 0.0000 -17.4473 0.0000 0.0000
# 5 0.0000 0.0000 0.0000 0.0000 -49.8992 0.0000
# 6 0.0000 0.0000 0.0000 0.0000 0.0000 6.0177
#
#
#
# Elastic Compliance Matrix: (Units=1/GPa)
#
#
# Indices 1 2 3 4 5 6 
#
# 1 0.014896 0.001743 -0.006138 0.000000 0.000000 0.000000
# 2 0.001743 0.011219 -0.001328 0.000000 0.000000 0.000000
# 3 -0.006138 -0.001328 0.006521 0.000000 0.000000 0.000000
# 4 0.000000 0.000000 0.000000 -0.057315 0.000000 0.000000
# 5 0.000000 0.000000 0.000000 0.000000 -0.020040 0.000000
# 6 0.000000 0.000000 0.000000 0.000000 0.000000 0.166177
#
#
# Mechanical properties :
#
#
# Convention : Reuss Voigt Hill
#
# Bulk Modulus (GPa) = 47.18721 75.22484 61.20602
# Shear Modulus (GPa) = 35.72299 10.57548 23.14924
#
# Velocity S-wave (km/s) = 3.97032 2.16024 3.19610
# Velocity P-wave (km/s) = 6.46839 6.27826 6.37403
#
# Compressibility (1/GPa) = 0.02119218
#
# Stress axis : x y z
#
# Youngs Moduli (GPa) = 67.13102 89.13521 153.34371
#
# Poissons Ratio (x) = -0.15540 0.94116
# Poissons Ratio (y) = -0.11704 0.20363
# Poissons Ratio (z) = 0.41202 0.11836
#
# Static dielectric constant tensor:
#      x y z
#    x 1.806460 0.000000 0.000000 
#    y 0.000000 1.885550 0.000000 
#    z 0.000000 0.000000 1.868050 
# 
# From -- ./inp_files/16723.got.cif
#   From: 2010.05.17/outbox.cif.g08.bks.cpg/sg35_9_cif.got.tgz:16723.got - 2010.06.03 17:29:28.
