data_PCOD9348884
_publ_section_title
;
Structure prediction by ZEFSAII (Michael W. Deem and Ramdas Pophale) SiO2 
 PCOD9348884
Probable space group: C M M 2
;
_chemical_formula_sum "Si O2"
_cell_formula_units_Z 48
_cell_length_a 15.708160
_cell_length_b 14.886807
_cell_length_c 10.010795
_cell_angle_alpha 90.000000
_cell_angle_beta 90.000000
_cell_angle_gamma 90.000000
_cell_volume 2340.967812
_symmetry_space_group_name_H-M "C M M 2"
_symmetry_group_IT_number 35
_symmetry_cell_setting 'orthorhombic'
loop_
_space_group_symop_operation_xyz
x,y,z
-x,-y,z
-x,y,z
x,-y,z
1/2+x,1/2+y,z
1/2-x,1/2-y,z
1/2-x,1/2+y,z
1/2+x,1/2-y,z
loop_
_atom_site_type_symbol
_atom_site_label
_atom_site_fract_x
_atom_site_fract_y
_atom_site_fract_z
Si Si1 0.598573 0.108171 0.345640
Si Si2 0.824863 0.325211 0.804489
Si Si3 0.406231 0.329569 0.674227
Si Si4 0.397991 0.207685 0.068883
Si Si5 0.254654 0.899775 0.551812
Si Si6 0.601535 0.402221 0.969436
O O1 0.500000 0.126637 0.387204
O O2 0.616677 0.165070 0.212580
O O3 0.670708 0.131038 0.453708
O O4 0.603162 0.000000 0.321185
O O5 0.750000 0.250000 0.811256
O O6 0.900719 0.270520 0.733361
O O7 0.794138 0.398190 0.700698
O O8 0.852454 0.349070 0.952394
O O9 0.500000 0.350437 0.622908
O O10 0.331483 0.343173 0.567900
O O11 0.389898 0.388316 0.809074
O O12 0.500000 0.206233 0.046233
O O13 0.368531 0.311466 0.044220
O O14 0.229864 0.000000 0.512855
O O15 0.500000 0.405146 0.993899
O O16 0.637853 0.500000 0.007067
#
# Coordination Sequence:
#
# PCOD9348884 Si02
#       6
#     8   8   8   8   8   8
#     4   9  19  35  52  74 110 154 194 232 279 332
#     4   9  18  32  50  79 112 140 178 229 278 331
#     4   9  17  31  53  82 115 147 181 227 283 339
#     4   9  17  31  52  76 104 143 188 230 277 332
#     4  10  20  33  52  81 114 149 189 232 282 335
#     4   8  13  23  45  80 115 141 171 220 281 340
#
# _framework density 20.504341
#
# number of rings (size 3 to 8) (size 9 to 14) (size 15 to 20)
#    0.000    3.000    0.000    2.000    0.000    3.000 
#    0.000    2.500    0.000    0.000    0.000   19.833 
#    0.000   36.000    0.000    0.333    0.000    0.333 
#
# Total GULP energy -133685.503432 kJ/mol
# GULP energy per Si atom -5570.229310 kJ/mol
# Density = 2.045767 g / cm^3
# Si number density = 20.504341 Si / 1000 Ang^3
#
#
#
# Elastic Constant Matrix: (Units=GPa)
#
#
# Indices 1 2 3 4 5 6 
#
# 1 115.4866 34.0555 76.0181 0.0000 0.0000 0.0000
# 2 34.0555 52.8677 26.9308 0.0000 0.0000 0.0000
# 3 76.0181 26.9308 84.6536 0.0000 0.0000 0.0000
# 4 0.0000 0.0000 0.0000 23.3213 0.0000 0.0000
# 5 0.0000 0.0000 0.0000 0.0000 29.7388 0.0000
# 6 0.0000 0.0000 0.0000 0.0000 0.0000 17.2707
#
#
#
# Elastic Compliance Matrix: (Units=1/GPa)
#
#
# Indices 1 2 3 4 5 6 
#
# 1 0.022211 -0.004949 -0.018371 0.000000 0.000000 0.000000
# 2 -0.004949 0.023676 -0.003088 0.000000 0.000000 0.000000
# 3 -0.018371 -0.003088 0.029292 0.000000 0.000000 0.000000
# 4 0.000000 0.000000 0.000000 0.042879 0.000000 0.000000
# 5 0.000000 0.000000 0.000000 0.000000 0.033626 0.000000
# 6 0.000000 0.000000 0.000000 0.000000 0.000000 0.057901
#
#
# Mechanical properties :
#
#
# Convention : Reuss Voigt Hill
#
# Bulk Modulus (GPa) = 44.71548 58.55742 51.63645
# Shear Modulus (GPa) = 18.52848 21.79973 20.16410
#
# Velocity S-wave (km/s) = 3.00932 3.26418 3.13933
# Velocity P-wave (km/s) = 5.82493 6.54423 6.19503
#
# Compressibility (1/GPa) = 0.02236362
#
# Stress axis : x y z
#
# Youngs Moduli (GPa) = 45.02317 42.23649 34.13945
#
# Poissons Ratio (x) = 0.20905 0.62716
# Poissons Ratio (y) = 0.22284 0.10541
# Poissons Ratio (z) = 0.82710 0.13041
#
# Static dielectric constant tensor:
#      x y z
#    x 1.780750 0.000000 0.000000 
#    y 0.000000 1.786060 0.000000 
#    z 0.000000 0.000000 1.719750 
# 
# From -- ./inp_files/8369.got.cif
#   From: 2010.05.17/outbox.cif.g08.bks.cpg/sg35_5_cif.got.tgz:8369.got - 2010.06.03 17:29:28.
