data_PCOD9348702
_publ_section_title
;
Structure prediction by ZEFSAII (Michael W. Deem and Ramdas Pophale) SiO2 
 PCOD9348702
Probable space group: C M M 2
;
_chemical_formula_sum "Si O2"
_cell_formula_units_Z 48
_cell_length_a 15.952933
_cell_length_b 8.241147
_cell_length_c 17.957919
_cell_angle_alpha 90.000000
_cell_angle_beta 90.000000
_cell_angle_gamma 90.000000
_cell_volume 2360.935978
_symmetry_space_group_name_H-M "C M M 2"
_symmetry_group_IT_number 35
_symmetry_cell_setting 'orthorhombic'
loop_
_space_group_symop_operation_xyz
x,y,z
-x,-y,z
-x,y,z
x,-y,z
1/2+x,1/2+y,z
1/2-x,1/2-y,z
1/2-x,1/2+y,z
1/2+x,1/2-y,z
loop_
_atom_site_type_symbol
_atom_site_label
_atom_site_fract_x
_atom_site_fract_y
_atom_site_fract_z
Si Si1 0.500000 0.693872 0.018660
Si Si2 0.652809 0.805337 0.584726
Si Si3 0.653211 0.692846 0.745620
Si Si4 0.653484 0.803650 0.423906
Si Si5 0.838683 0.693518 0.109831
Si Si6 0.500000 0.699034 0.847641
Si Si7 0.904631 0.697038 0.263597
O O1 0.500000 0.500000 0.017771
O O2 0.582593 0.751034 0.061768
O O3 0.500000 0.751804 0.933264
O O4 0.750000 0.750000 0.582951
O O5 0.620734 0.738181 0.662792
O O6 0.616727 0.751872 0.504344
O O7 0.649106 0.000000 0.588186
O O8 0.656369 0.500000 0.750613
O O9 0.750000 0.750000 0.754870
O O10 0.584563 0.753077 0.804950
O O11 0.750000 0.750000 0.422311
O O12 0.614440 0.743022 0.346756
O O13 0.649061 0.000000 0.423474
O O14 0.840000 0.500000 0.112940
O O15 0.750000 0.750000 0.078690
O O16 0.848930 0.756887 0.195024
O O17 0.500000 0.500000 0.846140
O O18 0.897325 0.500000 0.266498
O O19 0.000000 0.735691 0.244061
#
# Coordination Sequence:
#
# PCOD9348702 Si02
#       7
#     4   8   8   8   8   4   8
#     4  11  23  43  65  88 119 150 188 241 293 351
#     4   9  16  28  47  76 107 142 184 229 275 323
#     4  10  19  36  59  82 110 147 186 227 277 334
#     4   9  17  29  48  73 103 142 186 229 274 322
#     4  11  22  39  63  91 119 155 196 237 289 348
#     4   9  22  41  61  84 113 148 182 223 285 347
#     4   9  17  32  53  76 109 150 189 232 279 330
#
# _framework density 20.330921
#
# number of rings (size 3 to 8) (size 9 to 14) (size 15 to 20)
#    0.000    2.333    0.833    3.250    0.000    1.333 
#    1.500    7.500    0.000    0.000    0.000    0.000 
#    0.000    0.000    0.000    0.000    0.000    0.000 
#
# Total GULP energy -133836.243641 kJ/mol
# GULP energy per Si atom -5576.510152 kJ/mol
# Density = 2.028465 g / cm^3
# Si number density = 20.330921 Si / 1000 Ang^3
#
#
#
# Elastic Constant Matrix: (Units=GPa)
#
#
# Indices 1 2 3 4 5 6 
#
# 1 114.9355 13.3778 80.2992 0.0000 0.0000 0.0000
# 2 13.3778 29.8573 23.5606 0.0000 0.0000 0.0000
# 3 80.2992 23.5606 174.6155 0.0000 0.0000 0.0000
# 4 0.0000 0.0000 0.0000 12.3528 0.0000 0.0000
# 5 0.0000 0.0000 0.0000 0.0000 28.2630 0.0000
# 6 0.0000 0.0000 0.0000 0.0000 0.0000 19.5839
#
#
#
# Elastic Compliance Matrix: (Units=1/GPa)
#
#
# Indices 1 2 3 4 5 6 
#
# 1 0.012859 -0.001226 -0.005748 0.000000 0.000000 0.000000
# 2 -0.001226 0.037601 -0.004510 0.000000 0.000000 0.000000
# 3 -0.005748 -0.004510 0.008979 0.000000 0.000000 0.000000
# 4 0.000000 0.000000 0.000000 0.080954 0.000000 0.000000
# 5 0.000000 0.000000 0.000000 0.000000 0.035382 0.000000
# 6 0.000000 0.000000 0.000000 0.000000 0.000000 0.051062
#
#
# Mechanical properties :
#
#
# Convention : Reuss Voigt Hill
#
# Bulk Modulus (GPa) = 27.41887 61.54261 44.48074
# Shear Modulus (GPa) = 19.08688 25.51798 22.30243
#
# Velocity S-wave (km/s) = 3.06733 3.54663 3.31565
# Velocity P-wave (km/s) = 5.10492 6.86350 6.04846
#
# Compressibility (1/GPa) = 0.03647123
#
# Stress axis : x y z
#
# Youngs Moduli (GPa) = 77.76636 26.59539 111.37538
#
# Poissons Ratio (x) = 0.03260 0.64019
# Poissons Ratio (y) = 0.09533 0.50227
# Poissons Ratio (z) = 0.44700 0.11994
#
# Static dielectric constant tensor:
#      x y z
#    x 1.703660 0.000000 0.000000 
#    y 0.000000 1.750760 0.000000 
#    z 0.000000 0.000000 1.768250 
# 
# From -- ./inp_files/17942.got.cif
#   From: 2010.05.17/outbox.cif.g08.bks.cpg/sg35_9_cif.got.tgz:17942.got - 2010.06.03 17:29:28.
