data_PCOD9348637
_publ_section_title
;
Structure prediction by ZEFSAII (Michael W. Deem and Ramdas Pophale) SiO2 
 PCOD9348637
Probable space group: C M M 2
;
_chemical_formula_sum "Si O2"
_cell_formula_units_Z 60
_cell_length_a 14.077654
_cell_length_b 14.287368
_cell_length_c 13.731450
_cell_angle_alpha 90.000000
_cell_angle_beta 90.000000
_cell_angle_gamma 90.000000
_cell_volume 2761.842560
_symmetry_space_group_name_H-M "C M M 2"
_symmetry_group_IT_number 35
_symmetry_cell_setting 'orthorhombic'
loop_
_space_group_symop_operation_xyz
x,y,z
-x,-y,z
-x,y,z
x,-y,z
1/2+x,1/2+y,z
1/2-x,1/2-y,z
1/2-x,1/2+y,z
1/2+x,1/2-y,z
loop_
_atom_site_type_symbol
_atom_site_label
_atom_site_fract_x
_atom_site_fract_y
_atom_site_fract_z
Si Si1 0.896889 0.613492 0.730070
Si Si2 0.211310 0.354177 0.138476
Si Si3 0.803028 0.388689 0.924581
Si Si4 0.804542 0.111532 0.634200
Si Si5 0.891454 0.304494 0.328575
Si Si6 0.250000 0.750000 0.482066
Si Si7 0.105285 0.098948 0.239463
Si Si8 0.105421 0.113870 0.842611
O O1 0.902257 0.500000 0.731828
O O2 0.871282 0.647312 0.839245
O O3 0.804647 0.632754 0.665815
O O4 0.000000 0.648859 0.698305
O O5 0.250000 0.250000 0.130796
O O6 0.142952 0.358723 0.231800
O O7 0.309603 0.405205 0.163039
O O8 0.166203 0.377270 0.035378
O O9 0.797464 0.500000 0.907076
O O10 0.695182 0.352638 0.906742
O O11 0.817375 0.181491 0.544953
O O12 0.867621 0.132785 0.729609
O O13 0.813702 0.000000 0.613575
O O14 0.683189 0.184836 0.414961
O O15 0.884511 0.193448 0.301214
O O16 0.000000 0.326712 0.352600
O O17 0.000000 0.105047 0.193541
O O18 0.108597 0.000000 0.295721
O O19 0.000000 0.148018 0.867649
O O20 0.103241 0.000000 0.850764
#
# Coordination Sequence:
#
# PCOD9348637 Si02
#       8
#     8   8   8   8   8   4   8   8
#     4   8  15  32  54  76 107 142 178 223 270 322
#     4  10  19  35  51  74 112 152 182 228 283 332
#     4   9  17  29  51  81 108 144 187 222 262 327
#     4   9  20  36  58  84 111 144 183 229 288 348
#     4  10  22  40  56  78 112 149 187 236 298 342
#     4  12  22  40  60  84 106 146 190 250 290 344
#     4   9  17  32  57  82 103 136 186 237 285 338
#     4   8  15  32  55  82 118 148 172 218 281 338
#
# _framework density 21.724627000000002
#
# number of rings (size 3 to 8) (size 9 to 14) (size 15 to 20)
#    0.000    2.800    2.000    2.000    0.000    2.667 
#    4.800    1.333    0.000    2.800    0.000    0.000 
#    0.000    0.000    0.000    0.000    0.000    0.000 
#
# Total GULP energy -167245.248025 kJ/mol
# GULP energy per Si atom -5574.841601 kJ/mol
# Density = 2.167518 g / cm^3
# Si number density = 21.724627 Si / 1000 Ang^3
#
#
#
# Elastic Constant Matrix: (Units=GPa)
#
#
# Indices 1 2 3 4 5 6 
#
# 1 80.8248 -2.0459 3.1347 0.0000 0.0000 0.0000
# 2 -2.0459 46.5280 -1.0018 0.0000 0.0000 0.0000
# 3 3.1347 -1.0018 66.9527 0.0000 0.0000 0.0000
# 4 0.0000 0.0000 0.0000 -0.5865 0.0000 0.0000
# 5 0.0000 0.0000 0.0000 0.0000 4.9327 0.0000
# 6 0.0000 0.0000 0.0000 0.0000 0.0000 141.4995
#
#
#
# Elastic Compliance Matrix: (Units=1/GPa)
#
#
# Indices 1 2 3 4 5 6 
#
# 1 0.012408 0.000533 -0.000573 0.000000 0.000000 0.000000
# 2 0.000533 0.021522 0.000297 0.000000 0.000000 0.000000
# 3 -0.000573 0.000297 0.014967 0.000000 0.000000 0.000000
# 4 0.000000 0.000000 0.000000 -1.705168 0.000000 0.000000
# 5 0.000000 0.000000 0.000000 0.000000 0.202730 0.000000
# 6 0.000000 0.000000 0.000000 0.000000 0.000000 0.007067
#
#
# Mechanical properties :
#
#
# Convention : Reuss Voigt Hill
#
# Bulk Modulus (GPa) = 20.23784 21.60883 20.92334
# Shear Modulus (GPa) = -3.49524 42.11706 19.31091
#
# Velocity S-wave (km/s) = -1.26979 4.40782 2.98467
# Velocity P-wave (km/s) = 2.68067 5.98944 4.64001
#
# Compressibility (1/GPa) = 0.04941238
#
# Stress axis : x y z
#
# Youngs Moduli (GPa) = 80.59209 46.46349 66.81285
#
# Poissons Ratio (x) = -0.02478 0.03828
# Poissons Ratio (y) = -0.04298 -0.01985
# Poissons Ratio (z) = 0.04618 -0.01380
#
# Static dielectric constant tensor:
#      x y z
#    x 1.788900 0.000000 0.000000 
#    y 0.000000 1.875680 0.000000 
#    z 0.000000 0.000000 1.805630 
# 
# From -- ./inp_files/16856.got.cif
#   From: 2010.05.17/outbox.cif.g08.bks.cpg/sg35_9_cif.got.tgz:16856.got - 2010.06.03 17:29:28.
