data_PCOD9348157
_publ_section_title
;
Structure prediction by ZEFSAII (Michael W. Deem and Ramdas Pophale) SiO2 
 PCOD9348157
Probable space group: C M M 2
;
_chemical_formula_sum "Si O2"
_cell_formula_units_Z 52
_cell_length_a 28.460498
_cell_length_b 12.427313
_cell_length_c 7.612300
_cell_angle_alpha 90.000000
_cell_angle_beta 90.000000
_cell_angle_gamma 90.000000
_cell_volume 2692.375484
_symmetry_space_group_name_H-M "C M M 2"
_symmetry_group_IT_number 35
_symmetry_cell_setting 'orthorhombic'
loop_
_space_group_symop_operation_xyz
x,y,z
-x,-y,z
-x,y,z
x,-y,z
1/2+x,1/2+y,z
1/2-x,1/2-y,z
1/2-x,1/2+y,z
1/2+x,1/2-y,z
loop_
_atom_site_type_symbol
_atom_site_label
_atom_site_fract_x
_atom_site_fract_y
_atom_site_fract_z
Si Si1 0.826410 0.000000 0.952540
Si Si2 0.944424 0.377223 0.096813
Si Si3 0.799999 0.771708 0.927197
Si Si4 0.902039 0.000000 0.671521
Si Si5 0.905626 0.237325 0.784775
Si Si6 0.388522 0.126521 0.459374
Si Si7 0.649882 0.500000 0.324087
Si Si8 0.696378 0.263102 0.329478
O O1 0.795546 0.103132 0.970876
O O2 0.851032 0.000000 0.765504
O O3 0.862999 0.000000 0.115819
O O4 0.933247 0.500000 0.035324
O O5 0.917129 0.360256 0.278643
O O6 0.000000 0.371804 0.127056
O O7 0.929503 0.289109 0.954497
O O8 0.750000 0.750000 0.838472
O O9 0.849135 0.759163 0.826154
O O10 0.805042 0.724253 0.123941
O O11 0.921277 0.884980 0.738673
O O12 0.892484 0.000000 0.463421
O O13 0.914165 0.313193 0.618347
O O14 0.339165 0.186759 0.432498
O O15 0.382953 0.000000 0.495072
O O16 0.678203 0.387228 0.349372
O O17 0.750000 0.250000 0.386561
#
# Coordination Sequence:
#
# PCOD9348157 Si02
#       8
#     4   8   8   4   8   8   4   8
#     4   8  18  32  50  73 107 159 206 233 279 347
#     4  10  23  45  69  90 118 153 193 251 318 372
#     4   9  18  35  53  81 118 160 203 246 291 344
#     4  10  20  34  59  85 119 160 196 236 289 360
#     4  11  21  39  63  91 121 161 202 247 300 363
#     4  11  23  39  60  92 124 157 207 255 300 360
#     4  10  18  36  54  76 118 169 204 241 305 345
#     4  10  20  35  56  83 121 168 213 252 298 352
#
# _framework density 19.313801000000002
#
# number of rings (size 3 to 8) (size 9 to 14) (size 15 to 20)
#    0.000    2.000    3.077    0.462    1.077    1.231 
#    4.154    1.923    0.000    0.000    0.000    0.000 
#    0.000    0.000    0.000    0.000    0.000    0.000 
#
# Total GULP energy -144816.468481 kJ/mol
# GULP energy per Si atom -5569.864172 kJ/mol
# Density = 1.926984 g / cm^3
# Si number density = 19.313801 Si / 1000 Ang^3
#
#
#
# Elastic Constant Matrix: (Units=GPa)
#
#
# Indices 1 2 3 4 5 6 
#
# 1 52.4120 31.1559 13.6969 0.0000 0.0000 0.0000
# 2 31.1559 130.9351 48.2597 0.0000 0.0000 0.0000
# 3 13.6969 48.2597 75.1743 0.0000 0.0000 0.0000
# 4 0.0000 0.0000 0.0000 -64.0036 0.0000 0.0000
# 5 0.0000 0.0000 0.0000 0.0000 -2.8096 0.0000
# 6 0.0000 0.0000 0.0000 0.0000 0.0000 12.4171
#
#
#
# Elastic Compliance Matrix: (Units=1/GPa)
#
#
# Indices 1 2 3 4 5 6 
#
# 1 0.022265 -0.004981 -0.000859 0.000000 0.000000 0.000000
# 2 -0.004981 0.011119 -0.006231 0.000000 0.000000 0.000000
# 3 -0.000859 -0.006231 0.017459 0.000000 0.000000 0.000000
# 4 0.000000 0.000000 0.000000 -0.015624 0.000000 0.000000
# 5 0.000000 0.000000 0.000000 0.000000 -0.355923 0.000000
# 6 0.000000 0.000000 0.000000 0.000000 0.000000 0.080534
#
#
# Mechanical properties :
#
#
# Convention : Reuss Voigt Hill
#
# Bulk Modulus (GPa) = 37.45112 49.41626 43.43369
# Shear Modulus (GPa) = -24.13969 0.14804 -11.99583
#
# Velocity S-wave (km/s) = -3.53918 0.27715 -2.49489
# Velocity P-wave (km/s) = 1.65284 5.07385 3.77332
#
# Compressibility (1/GPa) = 0.02670147
#
# Stress axis : x y z
#
# Youngs Moduli (GPa) = 44.91312 89.93500 57.27796
#
# Poissons Ratio (x) = 0.44801 0.04919
# Poissons Ratio (y) = 0.22373 0.35687
# Poissons Ratio (z) = 0.03857 0.56034
#
# Static dielectric constant tensor:
#      x y z
#    x 1.661780 0.000000 0.000000 
#    y 0.000000 1.802420 0.000000 
#    z 0.000000 0.000000 1.703310 
# 
# From -- ./inp_files/10575.got.cif
#   From: 2010.05.17/outbox.cif.g08.bks.cpg/sg35_6_cif.got.tgz:10575.got - 2010.06.03 17:29:28.
