data_PCOD9348515
_publ_section_title
;
Structure prediction by ZEFSAII (Michael W. Deem and Ramdas Pophale) SiO2 
 PCOD9348515
Probable space group: C M M 2
;
_chemical_formula_sum "Si O2"
_cell_formula_units_Z 48
_cell_length_a 8.548753
_cell_length_b 15.722630
_cell_length_c 17.913225
_cell_angle_alpha 90.000000
_cell_angle_beta 90.000000
_cell_angle_gamma 90.000000
_cell_volume 2407.696516
_symmetry_space_group_name_H-M "C M M 2"
_symmetry_group_IT_number 35
_symmetry_cell_setting 'orthorhombic'
loop_
_space_group_symop_operation_xyz
x,y,z
-x,-y,z
-x,y,z
x,-y,z
1/2+x,1/2+y,z
1/2-x,1/2-y,z
1/2-x,1/2+y,z
1/2+x,1/2-y,z
loop_
_atom_site_type_symbol
_atom_site_label
_atom_site_fract_x
_atom_site_fract_y
_atom_site_fract_z
Si Si1 0.186763 0.152764 0.977020
Si Si2 0.178571 0.398426 0.296551
Si Si3 0.814496 0.160611 0.612972
Si Si4 0.310453 0.899604 0.457099
Si Si5 0.189070 0.654079 0.135319
Si Si6 0.687144 0.000000 0.703101
Si Si7 0.187956 0.500000 0.877373
O O1 0.250000 0.250000 0.966814
O O2 0.247022 0.085103 0.916703
O O3 0.000000 0.156998 0.976437
O O4 0.244078 0.118542 0.058050
O O5 0.169692 0.500000 0.304571
O O6 0.248508 0.368615 0.375504
O O7 0.246815 0.381568 0.214931
O O8 0.000000 0.364742 0.293513
O O9 0.750000 0.250000 0.641774
O O10 0.756856 0.148041 0.527957
O O11 0.750968 0.082764 0.661330
O O12 0.000000 0.160731 0.614225
O O13 0.500000 0.893446 0.456964
O O14 0.271693 0.000000 0.465735
O O15 0.250000 0.750000 0.135304
O O16 0.000000 0.648112 0.132105
O O17 0.500000 0.000000 0.697020
O O18 0.730568 0.000000 0.790076
O O19 0.000000 0.500000 0.884085
#
# Coordination Sequence:
#
# PCOD9348515 Si02
#       7
#     8   8   8   8   8   4   4
#     4  11  23  41  64  93 129 166 208 255 306 364
#     4   8  16  30  51  81 112 155 205 250 300 354
#     4  12  25  41  65  95 128 166 209 251 305 367
#     4   9  17  34  59  84 120 163 207 257 309 361
#     4  10  19  33  54  79 115 158 204 253 305 358
#     4  11  25  47  71  96 127 158 197 251 310 371
#     4  11  25  45  71  98 123 160 201 245 310 377
#
# _framework density 19.936067000000001
#
# number of rings (size 3 to 8) (size 9 to 14) (size 15 to 20)
#    0.000    1.833    0.833    6.000    1.167    2.667 
#    0.000    3.333    0.000    2.000    0.000    0.000 
#    0.000    0.000    0.000    0.000    0.000    0.000 
#
# Total GULP energy -133946.659303 kJ/mol
# GULP energy per Si atom -5581.110804 kJ/mol
# Density = 1.989069 g / cm^3
# Si number density = 19.936067 Si / 1000 Ang^3
#
#
#
# Elastic Constant Matrix: (Units=GPa)
#
#
# Indices 1 2 3 4 5 6 
#
# 1 78.4321 35.1160 60.9291 0.0000 0.0000 0.0000
# 2 35.1160 107.5239 77.6037 0.0000 0.0000 0.0000
# 3 60.9291 77.6037 183.6296 0.0000 0.0000 0.0000
# 4 0.0000 0.0000 0.0000 -48.8441 0.0000 0.0000
# 5 0.0000 0.0000 0.0000 0.0000 10.6885 0.0000
# 6 0.0000 0.0000 0.0000 0.0000 0.0000 27.1224
#
#
#
# Elastic Compliance Matrix: (Units=1/GPa)
#
#
# Indices 1 2 3 4 5 6 
#
# 1 0.017531 -0.002197 -0.004888 0.000000 0.000000 0.000000
# 2 -0.002197 0.013657 -0.005043 0.000000 0.000000 0.000000
# 3 -0.004888 -0.005043 0.009199 0.000000 0.000000 0.000000
# 4 0.000000 0.000000 0.000000 -0.020473 0.000000 0.000000
# 5 0.000000 0.000000 0.000000 0.000000 0.093559 0.000000
# 6 0.000000 0.000000 0.000000 0.000000 0.000000 0.036870
#
#
# Mechanical properties :
#
#
# Convention : Reuss Voigt Hill
#
# Bulk Modulus (GPa) = 61.99394 79.65369 70.82382
# Shear Modulus (GPa) = 27.78153 10.85582 19.31867
#
# Velocity S-wave (km/s) = 3.73705 2.33605 3.11630
# Velocity P-wave (km/s) = 7.05582 6.87877 6.96786
#
# Compressibility (1/GPa) = 0.01613061
#
# Stress axis : x y z
#
# Youngs Moduli (GPa) = 57.04152 73.22078 108.71065
#
# Poissons Ratio (x) = 0.16090 0.53140
# Poissons Ratio (y) = 0.12535 0.54818
# Poissons Ratio (z) = 0.27883 0.36922
#
# Static dielectric constant tensor:
#      x y z
#    x 1.680710 0.000000 0.000000 
#    y 0.000000 1.687180 0.000000 
#    z 0.000000 0.000000 1.744870 
# 
# From -- ./inp_files/17842.got.cif
#   From: 2010.05.17/outbox.cif.g08.bks.cpg/sg35_9_cif.got.tgz:17842.got - 2010.06.03 17:29:28.
