data_PCOD9348947
_publ_section_title
;
Structure prediction by ZEFSAII (Michael W. Deem and Ramdas Pophale) SiO2 
 PCOD9348947
Probable space group: C M M 2
;
_chemical_formula_sum "Si O2"
_cell_formula_units_Z 48
_cell_length_a 15.788454
_cell_length_b 16.420851
_cell_length_c 9.684345
_cell_angle_alpha 90.000000
_cell_angle_beta 90.000000
_cell_angle_gamma 90.000000
_cell_volume 2510.761838
_symmetry_space_group_name_H-M "C M M 2"
_symmetry_group_IT_number 35
_symmetry_cell_setting 'orthorhombic'
loop_
_space_group_symop_operation_xyz
x,y,z
-x,-y,z
-x,y,z
x,-y,z
1/2+x,1/2+y,z
1/2-x,1/2-y,z
1/2-x,1/2+y,z
1/2+x,1/2-y,z
loop_
_atom_site_type_symbol
_atom_site_label
_atom_site_fract_x
_atom_site_fract_y
_atom_site_fract_z
Si Si1 0.162733 0.703162 0.813640
Si Si2 0.744969 0.906497 0.040981
Si Si3 0.901260 0.597344 0.557898
Si Si4 0.095072 0.096205 0.539670
Si Si5 0.094906 0.127512 0.859120
Si Si6 0.250424 0.900762 0.356053
O O1 0.250000 0.750000 0.772463
O O2 0.127161 0.648702 0.690674
O O3 0.100008 0.774844 0.856908
O O4 0.186085 0.647785 0.944062
O O5 0.750604 0.874812 0.197138
O O6 0.715474 0.000000 0.043597
O O7 0.836592 0.903697 0.967178
O O8 0.891159 0.500000 0.584636
O O9 0.837132 0.619689 0.434774
O O10 0.000000 0.612134 0.526470
O O11 0.117388 0.103087 0.701635
O O12 0.169603 0.130117 0.443754
O O13 0.000000 0.131327 0.520846
O O14 0.089606 0.000000 0.509517
O O15 0.000000 0.099102 0.887553
O O16 0.245387 0.000000 0.355144
#
# Coordination Sequence:
#
# PCOD9348947 Si02
#       6
#     8   8   8   8   8   8
#     4  10  20  35  54  76 106 141 176 215 260 311
#     4  10  20  34  54  78 104 139 177 214 261 311
#     4  10  20  36  59  82 103 134 179 226 268 312
#     4   9  17  31  54  82 109 139 175 216 264 317
#     4  10  20  34  52  77 109 139 171 214 261 312
#     4   9  18  33  53  78 108 137 172 221 268 312
#
# _framework density 19.117704
#
# number of rings (size 3 to 8) (size 9 to 14) (size 15 to 20)
#    0.000    2.333    0.000    3.500    0.000    3.000 
#    0.000   10.833    0.000    4.000    0.000    0.000 
#    0.000    0.000    0.000    0.000    0.000    0.000 
#
# Total GULP energy -133922.103569 kJ/mol
# GULP energy per Si atom -5580.087649 kJ/mol
# Density = 1.907419 g / cm^3
# Si number density = 19.117704 Si / 1000 Ang^3
#
#
#
# Elastic Constant Matrix: (Units=GPa)
#
#
# Indices 1 2 3 4 5 6 
#
# 1 111.7600 29.6845 78.0742 0.0000 0.0000 0.0000
# 2 29.6845 47.7379 28.9582 0.0000 0.0000 0.0000
# 3 78.0742 28.9582 142.2120 0.0000 0.0000 0.0000
# 4 0.0000 0.0000 0.0000 -31.1009 0.0000 0.0000
# 5 0.0000 0.0000 0.0000 0.0000 4.3407 0.0000
# 6 0.0000 0.0000 0.0000 0.0000 0.0000 2.3308
#
#
#
# Elastic Compliance Matrix: (Units=1/GPa)
#
#
# Indices 1 2 3 4 5 6 
#
# 1 0.015539 -0.005120 -0.007488 0.000000 0.000000 0.000000
# 2 -0.005120 0.025587 -0.002399 0.000000 0.000000 0.000000
# 3 -0.007488 -0.002399 0.011631 0.000000 0.000000 0.000000
# 4 0.000000 0.000000 0.000000 -0.032153 0.000000 0.000000
# 5 0.000000 0.000000 0.000000 0.000000 0.230377 0.000000
# 6 0.000000 0.000000 0.000000 0.000000 0.000000 0.429045
#
#
# Mechanical properties :
#
#
# Convention : Reuss Voigt Hill
#
# Bulk Modulus (GPa) = 43.97149 63.90487 53.93818
# Shear Modulus (GPa) = 6.96746 6.11364 6.54055
#
# Velocity S-wave (km/s) = 1.91113 1.79021 1.85166
# Velocity P-wave (km/s) = 5.28396 6.14595 5.73119
#
# Compressibility (1/GPa) = 0.02274201
#
# Stress axis : x y z
#
# Youngs Moduli (GPa) = 64.35486 39.08255 85.97451
#
# Poissons Ratio (x) = 0.20010 0.64380
# Poissons Ratio (y) = 0.32949 0.20628
# Poissons Ratio (z) = 0.48190 0.09377
#
# Static dielectric constant tensor:
#      x y z
#    x 1.677390 0.000000 0.000000 
#    y 0.000000 1.690010 0.000000 
#    z 0.000000 0.000000 1.628880 
# 
# From -- ./inp_files/7331.got.cif
#   From: 2010.05.17/outbox.cif.g08.bks.cpg/sg35_4_cif.got.tgz:7331.got - 2010.06.03 17:29:28.
