data_PCOD9348561
_publ_section_title
;
Structure prediction by ZEFSAII (Michael W. Deem and Ramdas Pophale) SiO2 
 PCOD9348561
Probable space group: C M M 2
;
_chemical_formula_sum "Si O2"
_cell_formula_units_Z 64
_cell_length_a 18.222401
_cell_length_b 15.804231
_cell_length_c 11.920114
_cell_angle_alpha 90.000000
_cell_angle_beta 90.000000
_cell_angle_gamma 90.000000
_cell_volume 3432.885966
_symmetry_space_group_name_H-M "C M M 2"
_symmetry_group_IT_number 35
_symmetry_cell_setting 'orthorhombic'
loop_
_space_group_symop_operation_xyz
x,y,z
-x,-y,z
-x,y,z
x,-y,z
1/2+x,1/2+y,z
1/2-x,1/2-y,z
1/2-x,1/2+y,z
1/2+x,1/2-y,z
loop_
_atom_site_type_symbol
_atom_site_label
_atom_site_fract_x
_atom_site_fract_y
_atom_site_fract_z
Si Si1 0.744585 0.647260 0.320160
Si Si2 0.417479 0.753587 0.075189
Si Si3 0.081525 0.167472 0.313435
Si Si4 0.844408 0.903966 0.957203
Si Si5 0.916733 0.243307 0.563145
Si Si6 0.678508 0.095640 0.551849
Si Si7 0.705968 0.335874 0.721360
Si Si8 0.809730 0.594505 0.087833
O O1 0.750000 0.750000 0.312409
O O2 0.659292 0.619239 0.307854
O O3 0.777653 0.620607 0.438928
O O4 0.790283 0.608571 0.218272
O O5 0.500000 0.777760 0.045463
O O6 0.415226 0.731012 0.207801
O O7 0.362293 0.829707 0.050854
O O8 0.394922 0.668016 0.011287
O O9 0.084907 0.213373 0.433759
O O10 0.000000 0.125504 0.306594
O O11 0.827284 0.881329 0.828822
O O12 0.872838 0.000000 0.968559
O O13 0.766905 0.899232 0.022179
O O14 0.887424 0.338743 0.566465
O O15 0.858869 0.190297 0.636131
O O16 0.000000 0.234734 0.604076
O O17 0.735384 0.108432 0.653695
O O18 0.653283 0.000000 0.544567
O O19 0.750000 0.250000 0.754111
O O20 0.840090 0.500000 0.070645
#
# Coordination Sequence:
#
# PCOD9348561 Si02
#       8
#     8   8   8   8   8   8   8   8
#     4  12  17  34  58  82 115 151 194 233 278 336
#     4  11  22  38  60  84 118 158 189 231 290 347
#     4  10  19  33  57  83 114 151 186 227 281 344
#     4  11  23  39  61  87 113 147 193 245 292 344
#     4  10  20  36  58  82 110 150 191 228 283 347
#     4  11  21  33  54  86 117 147 187 236 286 339
#     4  10  20  37  59  82 109 148 192 239 286 342
#     4  11  22  36  59  89 117 150 194 241 286 341
#
# _framework density 18.643204000000001
#
# number of rings (size 3 to 8) (size 9 to 14) (size 15 to 20)
#    0.000    1.250    5.000    2.250    0.000    1.250 
#    0.000    0.000    0.000    7.125    0.000    3.500 
#    0.000    0.000    0.000    0.000    0.000    0.000 
#
# Total GULP energy -178651.538379 kJ/mol
# GULP energy per Si atom -5582.860574 kJ/mol
# Density = 1.860077 g / cm^3
# Si number density = 18.643204 Si / 1000 Ang^3
#
#
#
# Elastic Constant Matrix: (Units=GPa)
#
#
# Indices 1 2 3 4 5 6 
#
# 1 58.6447 -6.8416 -14.3545 0.0000 0.0000 0.0000
# 2 -6.8416 54.2107 5.7484 0.0000 0.0000 0.0000
# 3 -14.3545 5.7484 57.2046 0.0000 0.0000 0.0000
# 4 0.0000 0.0000 0.0000 19.5472 0.0000 0.0000
# 5 0.0000 0.0000 0.0000 0.0000 -340.5409 0.0000
# 6 0.0000 0.0000 0.0000 0.0000 0.0000 6.9172
#
#
#
# Elastic Compliance Matrix: (Units=1/GPa)
#
#
# Indices 1 2 3 4 5 6 
#
# 1 0.018349 0.001847 0.004419 0.000000 0.000000 0.000000
# 2 0.001847 0.018831 -0.001429 0.000000 0.000000 0.000000
# 3 0.004419 -0.001429 0.018734 0.000000 0.000000 0.000000
# 4 0.000000 0.000000 0.000000 0.051158 0.000000 0.000000
# 5 0.000000 0.000000 0.000000 0.000000 -0.002937 0.000000
# 6 0.000000 0.000000 0.000000 0.000000 0.000000 0.144567
#
#
# Mechanical properties :
#
#
# Convention : Reuss Voigt Hill
#
# Bulk Modulus (GPa) = 15.24674 15.46271 15.35473
# Shear Modulus (GPa) = 19.16511 -50.44813 -15.64151
#
# Velocity S-wave (km/s) = 3.20971 -5.20755 -2.89968
# Velocity P-wave (km/s) = 4.68319 5.27693 1.71956
#
# Compressibility (1/GPa) = 0.06558779
#
# Stress axis : x y z
#
# Youngs Moduli (GPa) = 54.49914 53.10340 53.38029
#
# Poissons Ratio (x) = -0.09809 -0.23587
# Poissons Ratio (y) = -0.10067 0.07627
# Poissons Ratio (z) = -0.24082 0.07587
#
# Static dielectric constant tensor:
#      x y z
#    x 1.643410 0.000000 0.000000 
#    y 0.000000 1.661220 0.000000 
#    z 0.000000 0.000000 1.633860 
# 
# From -- ./inp_files/13173.got.cif
#   From: 2010.05.17/outbox.cif.g08.bks.cpg/sg35_7_cif.got.tgz:13173.got - 2010.06.03 17:29:28.
