data_PCOD9348290
_publ_section_title
;
Structure prediction by ZEFSAII (Michael W. Deem and Ramdas Pophale) SiO2 
 PCOD9348290
Probable space group: C M M 2
;
_chemical_formula_sum "Si O2"
_cell_formula_units_Z 48
_cell_length_a 14.616241
_cell_length_b 15.023564
_cell_length_c 11.027911
_cell_angle_alpha 90.000000
_cell_angle_beta 90.000000
_cell_angle_gamma 90.000000
_cell_volume 2421.597275
_symmetry_space_group_name_H-M "C M M 2"
_symmetry_group_IT_number 35
_symmetry_cell_setting 'orthorhombic'
loop_
_space_group_symop_operation_xyz
x,y,z
-x,-y,z
-x,y,z
x,-y,z
1/2+x,1/2+y,z
1/2-x,1/2-y,z
1/2-x,1/2+y,z
1/2+x,1/2-y,z
loop_
_atom_site_type_symbol
_atom_site_label
_atom_site_fract_x
_atom_site_fract_y
_atom_site_fract_z
Si Si1 0.000000 0.298498 0.991251
Si Si2 0.500000 0.674107 0.756872
Si Si3 0.799220 0.894950 0.756871
Si Si4 0.195447 0.392013 0.519216
Si Si5 0.500000 0.803926 0.256872
Si Si6 0.000000 0.298499 0.522493
Si Si7 0.803026 0.393486 0.256871
Si Si8 0.695447 0.892013 0.994526
O O1 0.091892 0.357321 0.983162
O O2 0.000000 0.232689 0.878595
O O3 0.000000 0.255268 0.126700
O O4 0.593274 0.619583 0.756871
O O5 0.500000 0.732691 0.635149
O O6 0.753543 0.859347 0.633741
O O7 0.753543 0.859347 0.880001
O O8 0.780317 0.000000 0.756872
O O9 0.194255 0.500000 0.519552
O O10 0.091892 0.357321 0.530580
O O11 0.234413 0.362689 0.387346
O O12 0.500000 0.755268 0.387044
O O13 0.409379 0.864768 0.256871
O O14 0.796726 0.500000 0.256872
O O15 0.765587 0.362689 0.126396
O O16 0.694255 0.000000 0.994190
#
# Coordination Sequence:
#
# PCOD9348290 Si02
#       8
#     4   4   8   8   4   4   8   8
#     4  10  19  31  52  81 110 134 156 192 245 304
#     4  12  25  38  51  66  94 136 178 216 249 288
#     4  10  22  39  55  69  90 127 175 220 255 288
#     4   9  17  31  53  80 107 132 160 197 243 296
#     4   8  15  28  44  72 111 140 156 176 230 306
#     4  10  19  31  52  81 110 134 156 192 245 304
#     4   8  13  24  47  77 105 131 158 191 235 290
#     4   9  17  31  53  80 107 132 160 197 243 296
#
# _framework density 19.821626999999999
#
# number of rings (size 3 to 8) (size 9 to 14) (size 15 to 20)
#    0.000    2.667    0.000    2.000    0.000    6.667 
#    0.000    5.000    0.000    6.000    0.000    7.000 
#    0.000    0.000    0.000    0.000    0.000    0.000 
#
# Total GULP energy -133767.363068 kJ/mol
# GULP energy per Si atom -5573.640128 kJ/mol
# Density = 1.977651 g / cm^3
# Si number density = 19.821627 Si / 1000 Ang^3
#
#
#
# Elastic Constant Matrix: (Units=GPa)
#
#
# Indices 1 2 3 4 5 6 
#
# 1 72.6138 -13.1147 69.2418 0.0000 0.0000 0.0000
# 2 -13.1147 26.5287 19.4569 0.0000 0.0000 0.0000
# 3 69.2418 19.4569 228.9467 0.0000 0.0000 0.0000
# 4 0.0000 0.0000 0.0000 0.7818 0.0000 0.0000
# 5 0.0000 0.0000 0.0000 0.0000 -235.5193 0.0000
# 6 0.0000 0.0000 0.0000 0.0000 0.0000 1463.5165
#
#
#
# Elastic Compliance Matrix: (Units=1/GPa)
#
#
# Indices 1 2 3 4 5 6 
#
# 1 0.026910 0.020553 -0.009885 0.000000 0.000000 0.000000
# 2 0.020553 0.055899 -0.010967 0.000000 0.000000 0.000000
# 3 -0.009885 -0.010967 0.008289 0.000000 0.000000 0.000000
# 4 0.000000 0.000000 0.000000 1.279069 0.000000 0.000000
# 5 0.000000 0.000000 0.000000 0.000000 -0.004246 0.000000
# 6 0.000000 0.000000 0.000000 0.000000 0.000000 0.000683
#
#
# Mechanical properties :
#
#
# Convention : Reuss Voigt Hill
#
# Bulk Modulus (GPa) = 11.04958 53.25079 32.15019
# Shear Modulus (GPa) = 3.57815 262.58949 133.08382
#
# Velocity S-wave (km/s) = 1.34503 11.52232 8.20283
# Velocity P-wave (km/s) = 2.82820 14.28082 10.29419
#
# Compressibility (1/GPa) = 0.09050115
#
# Stress axis : x y z
#
# Youngs Moduli (GPa) = 37.16127 17.88939 120.63510
#
# Poissons Ratio (x) = -0.36768 1.19250
# Poissons Ratio (y) = -0.76378 1.32296
# Poissons Ratio (z) = 0.36735 0.19619
#
# Static dielectric constant tensor:
#      x y z
#    x 1.646750 0.000000 0.000000 
#    y 0.000000 1.662740 0.000000 
#    z 0.000000 0.000000 1.788170 
# 
# From -- ./inp_files/12951.got.cif
#   From: 2010.05.17/outbox.cif.g08.bks.cpg/sg35_7_cif.got.tgz:12951.got - 2010.06.03 17:29:28.
