data_PCOD9348752
_publ_section_title
;
Structure prediction by ZEFSAII (Michael W. Deem and Ramdas Pophale) SiO2 
 PCOD9348752
Probable space group: C M M 2
;
_chemical_formula_sum "Si O2"
_cell_formula_units_Z 58
_cell_length_a 14.447400
_cell_length_b 30.394683
_cell_length_c 7.765806
_cell_angle_alpha 90.000000
_cell_angle_beta 90.000000
_cell_angle_gamma 90.000000
_cell_volume 3410.152906
_symmetry_space_group_name_H-M "C M M 2"
_symmetry_group_IT_number 35
_symmetry_cell_setting 'orthorhombic'
loop_
_space_group_symop_operation_xyz
x,y,z
-x,-y,z
-x,y,z
x,-y,z
1/2+x,1/2+y,z
1/2-x,1/2-y,z
1/2-x,1/2+y,z
1/2+x,1/2-y,z
loop_
_atom_site_type_symbol
_atom_site_label
_atom_site_fract_x
_atom_site_fract_y
_atom_site_fract_z
Si Si1 0.607657 0.730685 0.107700
Si Si2 0.500000 0.500000 0.812906
Si Si3 0.894902 0.669883 0.612403
Si Si4 0.892343 0.769314 0.518129
Si Si5 0.605100 0.169886 0.013440
Si Si6 0.703023 0.640418 0.511496
Si Si7 0.602956 0.591002 0.812920
Si Si8 0.796977 0.859583 0.114340
O O1 0.500000 0.720489 0.074691
O O2 0.620645 0.736483 0.312914
O O3 0.667363 0.688777 0.056042
O O4 0.627197 0.778012 0.027248
O O5 0.579236 0.539446 0.812909
O O6 0.872811 0.721986 0.598580
O O7 0.894167 0.657819 0.812923
O O8 0.813932 0.643055 0.521435
O O9 0.000000 0.664395 0.544932
O O10 0.832632 0.811220 0.569787
O O11 0.000000 0.779513 0.551134
O O12 0.500000 0.164402 0.080912
O O13 0.686067 0.143057 0.104410
O O14 0.658391 0.606333 0.643998
O O15 0.673536 0.633543 0.312918
O O16 0.500000 0.612869 0.812930
O O17 0.658396 0.606329 0.981840
#
# Coordination Sequence:
#
# PCOD9348752 Si02
#       8
#     8   2   8   8   8   8   8   8
#     4   9  18  30  44  70 110 153 197 238 275 318
#     4   8  24  48  66  88 118 142 160 224 314 364
#     4  10  20  32  47  74 115 160 201 236 275 312
#     4   9  18  30  44  70 110 153 197 238 275 318
#     4  10  20  32  47  74 115 160 201 236 275 312
#     4  11  21  34  56  83 109 149 196 234 276 328
#     4  10  22  42  62  84 113 137 167 223 283 360
#     4  11  21  34  56  83 109 149 196 234 276 328
#
# _framework density 17.008036000000001
#
# number of rings (size 3 to 8) (size 9 to 14) (size 15 to 20)
#    0.414    1.655    1.379    2.483    1.931    6.621 
#    0.000    1.379    0.000    0.000    0.000    1.931 
#    0.000    2.207    0.000    0.000    0.000    0.000 
#
# Total GULP energy -161459.385164 kJ/mol
# GULP energy per Si atom -5567.565006 kJ/mol
# Density = 1.696932 g / cm^3
# Si number density = 17.008036 Si / 1000 Ang^3
#
#
#
# Elastic Constant Matrix: (Units=GPa)
#
#
# Indices 1 2 3 4 5 6 
#
# 1 95.1609 56.2426 36.4106 0.0000 0.0000 0.0000
# 2 56.2426 52.9389 36.4528 0.0000 0.0000 0.0000
# 3 36.4106 36.4528 71.1873 0.0000 0.0000 0.0000
# 4 0.0000 0.0000 0.0000 6.8518 0.0000 0.0000
# 5 0.0000 0.0000 0.0000 0.0000 17.9584 0.0000
# 6 0.0000 0.0000 0.0000 0.0000 0.0000 19.6680
#
#
#
# Elastic Compliance Matrix: (Units=1/GPa)
#
#
# Indices 1 2 3 4 5 6 
#
# 1 0.028335 -0.031084 0.001425 0.000000 0.000000 0.000000
# 2 -0.031084 0.063278 -0.016504 0.000000 0.000000 0.000000
# 3 0.001425 -0.016504 0.021770 0.000000 0.000000 0.000000
# 4 0.000000 0.000000 0.000000 0.145947 0.000000 0.000000
# 5 0.000000 0.000000 0.000000 0.000000 0.055684 0.000000
# 6 0.000000 0.000000 0.000000 0.000000 0.000000 0.050844
#
#
# Mechanical properties :
#
#
# Convention : Reuss Voigt Hill
#
# Bulk Modulus (GPa) = 47.49252 53.05546 50.27399
# Shear Modulus (GPa) = 10.74796 14.90772 12.82784
#
# Velocity S-wave (km/s) = 2.51656 2.96380 2.74929
# Velocity P-wave (km/s) = 6.03558 6.55547 6.30089
#
# Compressibility (1/GPa) = 0.02105595
#
# Stress axis : x y z
#
# Youngs Moduli (GPa) = 35.29197 15.80324 45.93491
#
# Poissons Ratio (x) = 0.49123 -0.06544
# Poissons Ratio (y) = 1.09703 0.75811
# Poissons Ratio (z) = -0.05028 0.26082
#
# Static dielectric constant tensor:
#      x y z
#    x 1.637130 0.000000 0.000000 
#    y 0.000000 1.527900 0.000000 
#    z 0.000000 0.000000 1.602180 
# 
# From -- ./inp_files/7943.got.cif
#   From: 2010.05.17/outbox.cif.g08.bks.cpg/sg35_4_cif.got.tgz:7943.got - 2010.06.03 17:29:28.
