data_PCOD9348941
_publ_section_title
;
Structure prediction by ZEFSAII (Michael W. Deem and Ramdas Pophale) SiO2 
 PCOD9348941
Probable space group: C M M 2
;
_chemical_formula_sum "Si O2"
_cell_formula_units_Z 56
_cell_length_a 9.035133
_cell_length_b 15.142421
_cell_length_c 18.905920
_cell_angle_alpha 90.000000
_cell_angle_beta 90.000000
_cell_angle_gamma 90.000000
_cell_volume 2586.590525
_symmetry_space_group_name_H-M "C M M 2"
_symmetry_group_IT_number 35
_symmetry_cell_setting 'orthorhombic'
loop_
_space_group_symop_operation_xyz
x,y,z
-x,-y,z
-x,y,z
x,-y,z
1/2+x,1/2+y,z
1/2-x,1/2-y,z
1/2-x,1/2+y,z
1/2+x,1/2-y,z
loop_
_atom_site_type_symbol
_atom_site_label
_atom_site_fract_x
_atom_site_fract_y
_atom_site_fract_z
Si Si1 0.169061 0.608167 0.612900
Si Si2 0.169098 0.108345 0.470105
Si Si3 0.323219 0.346920 0.190142
Si Si4 0.167203 0.104811 0.910458
Si Si5 0.164560 0.395647 0.331290
Si Si6 0.676212 0.153580 0.051670
Si Si7 0.673461 0.392620 0.754740
O O1 0.171512 0.500000 0.613556
O O2 0.264219 0.635813 0.545264
O O3 0.234217 0.639057 0.687736
O O4 0.000000 0.635905 0.604445
O O5 0.265268 0.139865 0.403531
O O6 0.000000 0.136605 0.462423
O O7 0.170136 0.000000 0.469521
O O8 0.500000 0.344151 0.183426
O O9 0.250000 0.250000 0.192377
O O10 0.271540 0.386288 0.264373
O O11 0.251255 0.391323 0.120364
O O12 0.218823 0.138236 0.833439
O O13 0.000000 0.140010 0.925854
O O14 0.151922 0.000000 0.902124
O O15 0.276042 0.117405 0.975708
O O16 0.148625 0.500000 0.342622
O O17 0.000000 0.358416 0.316529
O O18 0.500000 0.155933 0.060160
O O19 0.750000 0.250000 0.050596
O O20 0.500000 0.371637 0.746083
O O21 0.685107 0.500000 0.753717
#
# Coordination Sequence:
#
# PCOD9348941 Si02
#       7
#     8   8   8   8   8   8   8
#     4   9  15  22  35  58  90 127 164 202 244 288
#     4   9  16  26  41  63  93 129 167 204 245 293
#     4  11  22  38  58  77 100 130 167 207 249 299
#     4   9  18  33  52  75 104 135 167 206 253 301
#     4  10  20  34  52  76 106 135 166 207 253 298
#     4  11  22  37  56  76 100 130 167 208 250 298
#     4   8  14  25  41  62  91 127 163 199 241 290
#
# _framework density 21.650123000000001
#
# number of rings (size 3 to 8) (size 9 to 14) (size 15 to 20)
#    0.000    2.429    0.000    5.571    0.000    5.714 
#    0.000    1.429    0.000    0.000    0.000    1.000 
#    0.000    4.571    0.000    0.000    0.000    0.000 
#
# Total GULP energy -156268.901133 kJ/mol
# GULP energy per Si atom -5581.032183 kJ/mol
# Density = 2.160085 g / cm^3
# Si number density = 21.650123 Si / 1000 Ang^3
#
#
#
# Elastic Constant Matrix: (Units=GPa)
#
#
# Indices 1 2 3 4 5 6 
#
# 1 180.0401 7.3533 100.4428 0.0000 0.0000 0.0000
# 2 7.3533 28.1683 5.4989 0.0000 0.0000 0.0000
# 3 100.4428 5.4989 184.1446 0.0000 0.0000 0.0000
# 4 0.0000 0.0000 0.0000 27.0243 0.0000 0.0000
# 5 0.0000 0.0000 0.0000 0.0000 6.2286 0.0000
# 6 0.0000 0.0000 0.0000 0.0000 0.0000 11.5504
#
#
#
# Elastic Compliance Matrix: (Units=1/GPa)
#
#
# Indices 1 2 3 4 5 6 
#
# 1 0.008027 -0.001248 -0.004341 0.000000 0.000000 0.000000
# 2 -0.001248 0.035903 -0.000391 0.000000 0.000000 0.000000
# 3 -0.004341 -0.000391 0.007810 0.000000 0.000000 0.000000
# 4 0.000000 0.000000 0.000000 0.037004 0.000000 0.000000
# 5 0.000000 0.000000 0.000000 0.000000 0.160551 0.000000
# 6 0.000000 0.000000 0.000000 0.000000 0.000000 0.086577
#
#
# Mechanical properties :
#
#
# Convention : Reuss Voigt Hill
#
# Bulk Modulus (GPa) = 25.13879 68.77145 46.95512
# Shear Modulus (GPa) = 13.84684 27.56452 20.70568
#
# Velocity S-wave (km/s) = 2.53172 3.57204 3.09589
# Velocity P-wave (km/s) = 4.49252 6.98903 5.87491
#
# Compressibility (1/GPa) = 0.03977917
#
# Stress axis : x y z
#
# Youngs Moduli (GPa) = 124.57601 27.85277 128.03844
#
# Poissons Ratio (x) = 0.03476 0.55584
# Poissons Ratio (y) = 0.15547 0.05011
# Poissons Ratio (z) = 0.54081 0.01090
#
# Static dielectric constant tensor:
#      x y z
#    x 1.753180 0.000000 0.000000 
#    y 0.000000 1.877760 0.000000 
#    z 0.000000 0.000000 1.826680 
# 
# From -- ./inp_files/15634.got.cif
#   From: 2010.05.17/outbox.cif.g08.bks.cpg/sg35_8_cif.got.tgz:15634.got - 2010.06.03 17:29:28.
