data_PCOD9348840
_publ_section_title
;
Structure prediction by ZEFSAII (Michael W. Deem and Ramdas Pophale) SiO2 
 PCOD9348840
Probable space group: C M M 2
;
_chemical_formula_sum "Si O2"
_cell_formula_units_Z 64
_cell_length_a 7.654691
_cell_length_b 18.820560
_cell_length_c 21.468688
_cell_angle_alpha 90.000000
_cell_angle_beta 90.000000
_cell_angle_gamma 90.000000
_cell_volume 3092.898801
_symmetry_space_group_name_H-M "C M M 2"
_symmetry_group_IT_number 35
_symmetry_cell_setting 'orthorhombic'
loop_
_space_group_symop_operation_xyz
x,y,z
-x,-y,z
-x,y,z
x,-y,z
1/2+x,1/2+y,z
1/2-x,1/2-y,z
1/2-x,1/2+y,z
1/2+x,1/2-y,z
loop_
_atom_site_type_symbol
_atom_site_label
_atom_site_fract_x
_atom_site_fract_y
_atom_site_fract_z
Si Si1 0.289877 0.332757 0.049870
Si Si2 0.209722 0.418577 0.791548
Si Si3 0.709953 0.166894 0.672117
Si Si4 0.290047 0.166894 0.427623
Si Si5 0.290278 0.918577 0.308192
Si Si6 0.209884 0.918782 0.169204
Si Si7 0.709884 0.418782 0.930536
Si Si8 0.213998 0.582284 0.549870
O O1 0.500000 0.340315 0.049870
O O2 0.250000 0.250000 0.049870
O O3 0.223865 0.371216 0.112431
O O4 0.223865 0.371216 0.987309
O O5 0.275736 0.500000 0.786127
O O6 0.275961 0.369253 0.735810
O O7 0.249401 0.392189 0.861127
O O8 0.000000 0.421760 0.786209
O O9 0.500000 0.160227 0.672364
O O10 0.750000 0.250000 0.668397
O O11 0.772731 0.123829 0.611618
O O12 0.500000 0.160227 0.427376
O O13 0.250000 0.250000 0.431343
O O14 0.224039 0.130747 0.363930
O O15 0.227269 0.123829 0.488122
O O16 0.500000 0.921760 0.313531
O O17 0.250598 0.892189 0.238613
O O18 0.224265 0.000000 0.313613
O O19 0.000000 0.921624 0.164314
O O20 0.275844 0.000000 0.164308
O O21 0.500000 0.421623 0.935426
O O22 0.775843 0.500000 0.935432
O O23 0.267860 0.500000 0.549870
O O24 0.000000 0.582605 0.549870
#
# Coordination Sequence:
#
# PCOD9348840 Si02
#       8
#     8   8   8   8   8   8   8   8
#     4  10  21  35  51  73 101 130 162 202 246 294
#     4   9  18  33  52  74  99 128 165 206 244 286
#     4  10  20  33  51  75 103 133 164 202 247 294
#     4  10  20  33  51  75 103 133 164 202 247 294
#     4   9  18  33  52  74  99 128 165 206 244 286
#     4   9  18  34  55  75  96 127 166 205 245 290
#     4   9  18  34  55  75  96 127 166 205 245 290
#     4   9  17  32  55  77  96 127 172 212 244 285
#
# _framework density 20.692561999999999
#
# number of rings (size 3 to 8) (size 9 to 14) (size 15 to 20)
#    0.000    2.625    0.000    1.500    0.000    7.500 
#    0.000    5.000    0.000    6.750    0.000    0.000 
#    0.000    0.000    0.000    0.000    0.000    0.000 
#
# Total GULP energy -178656.059951 kJ/mol
# GULP energy per Si atom -5583.001873 kJ/mol
# Density = 2.064546 g / cm^3
# Si number density = 20.692562 Si / 1000 Ang^3
#
#
#
# Elastic Constant Matrix: (Units=GPa)
#
#
# Indices 1 2 3 4 5 6 
#
# 1 38.1094 0.6006 7.6160 0.0000 0.0000 0.0000
# 2 0.6006 152.0203 145.9400 0.0000 0.0000 0.0000
# 3 7.6160 145.9400 256.5014 0.0000 0.0000 0.0000
# 4 0.0000 0.0000 0.0000 -13.4905 0.0000 0.0000
# 5 0.0000 0.0000 0.0000 0.0000 22.3401 0.0000
# 6 0.0000 0.0000 0.0000 0.0000 0.0000 24.1955
#
#
#
# Elastic Compliance Matrix: (Units=1/GPa)
#
#
# Indices 1 2 3 4 5 6 
#
# 1 0.026538 0.001436 -0.001605 0.000000 0.000000 0.000000
# 2 0.001436 0.014573 -0.008334 0.000000 0.000000 0.000000
# 3 -0.001605 -0.008334 0.008688 0.000000 0.000000 0.000000
# 4 0.000000 0.000000 0.000000 -0.074126 0.000000 0.000000
# 5 0.000000 0.000000 0.000000 0.000000 0.044763 0.000000
# 6 0.000000 0.000000 0.000000 0.000000 0.000000 0.041330
#
#
# Mechanical properties :
#
#
# Convention : Reuss Voigt Hill
#
# Bulk Modulus (GPa) = 30.49417 83.88269 57.18843
# Shear Modulus (GPa) = 55.73856 26.10731 40.92293
#
# Velocity S-wave (km/s) = 5.19567 3.55586 4.45192
# Velocity P-wave (km/s) = 7.12475 7.58185 7.35685
#
# Compressibility (1/GPa) = 0.03279316
#
# Stress axis : x y z
#
# Youngs Moduli (GPa) = 37.68131 68.61794 115.09813
#
# Poissons Ratio (x) = -0.09853 0.18473
# Poissons Ratio (y) = -0.05411 0.95927
# Poissons Ratio (z) = 0.06048 0.57189
#
# Static dielectric constant tensor:
#      x y z
#    x 1.784980 0.000000 0.000000 
#    y 0.000000 1.695990 0.000000 
#    z 0.000000 0.000000 1.731740 
# 
# From -- ./inp_files/16492.got.cif
#   From: 2010.05.17/outbox.cif.g08.bks.cpg/sg35_9_cif.got.tgz:16492.got - 2010.06.03 17:29:28.
