data_PCOD9348801
_publ_section_title
;
Structure prediction by ZEFSAII (Michael W. Deem and Ramdas Pophale) SiO2 
 PCOD9348801
Probable space group: C M M 2
;
_chemical_formula_sum "Si O2"
_cell_formula_units_Z 64
_cell_length_a 8.229251
_cell_length_b 20.995166
_cell_length_c 20.437478
_cell_angle_alpha 90.000000
_cell_angle_beta 90.000000
_cell_angle_gamma 90.000000
_cell_volume 3531.074855
_symmetry_space_group_name_H-M "C M M 2"
_symmetry_group_IT_number 35
_symmetry_cell_setting 'orthorhombic'
loop_
_space_group_symop_operation_xyz
x,y,z
-x,-y,z
-x,y,z
x,-y,z
1/2+x,1/2+y,z
1/2-x,1/2-y,z
1/2-x,1/2+y,z
1/2+x,1/2-y,z
loop_
_atom_site_type_symbol
_atom_site_label
_atom_site_fract_x
_atom_site_fract_y
_atom_site_fract_z
Si Si1 0.693743 0.320399 0.325900
Si Si2 0.695938 0.927924 0.226007
Si Si3 0.698306 0.427535 0.576503
Si Si4 0.801694 0.927535 0.726226
Si Si5 0.303488 0.320744 0.827395
Si Si6 0.696512 0.320744 0.475334
Si Si7 0.195938 0.427924 0.076722
Si Si8 0.806257 0.179601 0.976829
O O1 0.500000 0.320272 0.327975
O O2 0.750000 0.250000 0.305065
O O3 0.748686 0.375186 0.276918
O O4 0.753973 0.331068 0.400513
O O5 0.500000 0.928334 0.225539
O O6 0.749949 0.914216 0.151364
O O7 0.750247 0.000000 0.242815
O O8 0.500000 0.426939 0.575739
O O9 0.748184 0.500000 0.560419
O O10 0.747740 0.413622 0.651365
O O11 0.754943 0.375125 0.524851
O O12 0.745057 0.875125 0.777878
O O13 0.000000 0.926939 0.726990
O O14 0.751816 0.000000 0.742310
O O15 0.500000 0.322441 0.827745
O O16 0.250000 0.250000 0.807258
O O17 0.246027 0.331068 0.902216
O O18 0.500000 0.322441 0.474984
O O19 0.750000 0.250000 0.495471
O O20 0.250247 0.500000 0.059914
O O21 0.251314 0.375186 0.025810
O O22 0.000000 0.428334 0.077190
O O23 0.750000 0.250000 0.997664
O O24 0.000000 0.179728 0.974754
#
# Coordination Sequence:
#
# PCOD9348801 Si02
#       8
#     8   8   8   8   8   8   8   8
#     4  10  20  33  50  72  99 130 163 201 242 285
#     4   9  19  36  55  74  98 127 158 195 240 289
#     4   8  14  26  45  68  93 122 157 195 233 275
#     4   8  14  26  45  68  93 122 157 195 233 275
#     4   9  18  31  47  69  96 124 156 195 236 278
#     4   9  18  31  47  69  96 124 156 195 236 278
#     4   9  19  36  55  74  98 127 158 195 240 289
#     4  10  20  33  50  72  99 130 163 201 242 285
#
# _framework density 18.124790999999998
#
# number of rings (size 3 to 8) (size 9 to 14) (size 15 to 20)
#    0.000    3.000    0.000    2.250    0.000    4.000 
#    0.000    3.750    0.000    0.750    0.000    1.750 
#    0.000    0.000    0.000    0.000    0.000    0.000 
#
# Total GULP energy -178382.479944 kJ/mol
# GULP energy per Si atom -5574.452498 kJ/mol
# Density = 1.808354 g / cm^3
# Si number density = 18.124791 Si / 1000 Ang^3
#
#
#
# Elastic Constant Matrix: (Units=GPa)
#
#
# Indices 1 2 3 4 5 6 
#
# 1 10.2846 17.8579 15.3997 0.0000 0.0000 0.0000
# 2 17.8579 195.8445 140.1365 0.0000 0.0000 0.0000
# 3 15.3997 140.1365 123.5581 0.0000 0.0000 0.0000
# 4 0.0000 0.0000 0.0000 42.5087 0.0000 0.0000
# 5 0.0000 0.0000 0.0000 0.0000 10.7718 0.0000
# 6 0.0000 0.0000 0.0000 0.0000 0.0000 25.4268
#
#
#
# Elastic Compliance Matrix: (Units=1/GPa)
#
#
# Indices 1 2 3 4 5 6 
#
# 1 0.119602 -0.001270 -0.013466 0.000000 0.000000 0.000000
# 2 -0.001270 0.027110 -0.030589 0.000000 0.000000 0.000000
# 3 -0.013466 -0.030589 0.044465 0.000000 0.000000 0.000000
# 4 0.000000 0.000000 0.000000 0.023525 0.000000 0.000000
# 5 0.000000 0.000000 0.000000 0.000000 0.092835 0.000000
# 6 0.000000 0.000000 0.000000 0.000000 0.000000 0.039329
#
#
# Mechanical properties :
#
#
# Convention : Reuss Voigt Hill
#
# Bulk Modulus (GPa) = 9.94767 75.16393 42.55580
# Shear Modulus (GPa) = 10.61515 26.16100 18.38808
#
# Velocity S-wave (km/s) = 2.42269 3.80331 3.18862
# Velocity P-wave (km/s) = 3.65051 7.80046 6.08988
#
# Compressibility (1/GPa) = 0.10052607
#
# Stress axis : x y z
#
# Youngs Moduli (GPa) = 8.36110 36.88668 22.48946
#
# Poissons Ratio (x) = 0.04685 0.30284
# Poissons Ratio (y) = 0.01062 0.68794
# Poissons Ratio (z) = 0.11259 1.12834
#
# Static dielectric constant tensor:
#      x y z
#    x 1.632660 0.000000 0.000000 
#    y 0.000000 1.601730 0.000000 
#    z 0.000000 0.000000 1.622900 
# 
# From -- ./inp_files/18453.got.cif
#   From: 2010.05.17/outbox.cif.g08.bks.cpg/sg35_10_cif.got.tgz:18453.got - 2010.06.03 17:29:28.
