data_PCOD9348961
_publ_section_title
;
Structure prediction by ZEFSAII (Michael W. Deem and Ramdas Pophale) SiO2 
 PCOD9348961
Probable space group: C M M 2
;
_chemical_formula_sum "Si O2"
_cell_formula_units_Z 56
_cell_length_a 8.220276
_cell_length_b 20.119899
_cell_length_c 18.237441
_cell_angle_alpha 90.000000
_cell_angle_beta 90.000000
_cell_angle_gamma 90.000000
_cell_volume 3016.310845
_symmetry_space_group_name_H-M "C M M 2"
_symmetry_group_IT_number 35
_symmetry_cell_setting 'orthorhombic'
loop_
_space_group_symop_operation_xyz
x,y,z
-x,-y,z
-x,y,z
x,-y,z
1/2+x,1/2+y,z
1/2-x,1/2-y,z
1/2-x,1/2+y,z
1/2+x,1/2-y,z
loop_
_atom_site_type_symbol
_atom_site_label
_atom_site_fract_x
_atom_site_fract_y
_atom_site_fract_z
Si Si1 0.305044 0.675399 0.641280
Si Si2 0.303991 0.423924 0.098248
Si Si3 0.193822 0.676221 0.222674
Si Si4 0.303256 0.824515 0.389454
Si Si5 0.696463 0.324088 0.808870
Si Si6 0.301442 0.576693 0.934265
Si Si7 0.803857 0.576241 0.515715
O O1 0.500000 0.674376 0.640195
O O2 0.250000 0.750000 0.619819
O O3 0.248166 0.663512 0.725180
O O4 0.241881 0.619109 0.586865
O O5 0.500000 0.424519 0.097279
O O6 0.248769 0.500000 0.109562
O O7 0.249455 0.376616 0.163120
O O8 0.250057 0.402570 0.016390
O O9 0.250000 0.750000 0.201745
O O10 0.254344 0.663398 0.305901
O O11 0.000000 0.675450 0.225574
O O12 0.500000 0.825398 0.389681
O O13 0.250000 0.750000 0.411094
O O14 0.245470 0.880687 0.445824
O O15 0.500000 0.326586 0.808059
O O16 0.750000 0.250000 0.829052
O O17 0.756381 0.376376 0.868966
O O18 0.500000 0.578129 0.933468
O O19 0.253559 0.500000 0.923392
O O20 0.744074 0.500000 0.517186
O O21 0.000000 0.573611 0.511570
#
# Coordination Sequence:
#
# PCOD9348961 Si02
#       7
#     8   8   8   8   8   8   8
#     4  10  20  34  53  76 102 133 169 207 248 296
#     4   9  18  33  52  74 102 135 169 205 248 298
#     4  10  20  34  53  76 102 131 166 208 250 295
#     4   9  19  35  54  74  97 130 168 204 246 297
#     4   9  18  32  51  74  99 128 163 204 246 290
#     4   8  15  30  51  72  96 130 168 202 241 291
#     4  10  21  36  53  75 104 134 164 202 249 298
#
# _framework density 18.565726000000002
#
# number of rings (size 3 to 8) (size 9 to 14) (size 15 to 20)
#    0.000    2.714    0.000    2.143    0.000    5.143 
#    0.000    5.000    0.000    1.286    0.000    0.000 
#    0.000    0.000    0.000    0.000    0.000    0.000 
#
# Total GULP energy -156161.221226 kJ/mol
# GULP energy per Si atom -5577.186472 kJ/mol
# Density = 1.852347 g / cm^3
# Si number density = 18.565726 Si / 1000 Ang^3
#
#
#
# Elastic Constant Matrix: (Units=GPa)
#
#
# Indices 1 2 3 4 5 6 
#
# 1 8.6448 14.2079 14.0486 0.0000 0.0000 0.0000
# 2 14.2079 162.5288 127.7203 0.0000 0.0000 0.0000
# 3 14.0486 127.7203 143.1719 0.0000 0.0000 0.0000
# 4 0.0000 0.0000 0.0000 244.5233 0.0000 0.0000
# 5 0.0000 0.0000 0.0000 0.0000 3.3788 0.0000
# 6 0.0000 0.0000 0.0000 0.0000 0.0000 24.7153
#
#
#
# Elastic Compliance Matrix: (Units=1/GPa)
#
#
# Indices 1 2 3 4 5 6 
#
# 1 0.138725 -0.004783 -0.009345 0.000000 0.000000 0.000000
# 2 -0.004783 0.020744 -0.018036 0.000000 0.000000 0.000000
# 3 -0.009345 -0.018036 0.023991 0.000000 0.000000 0.000000
# 4 0.000000 0.000000 0.000000 0.004090 0.000000 0.000000
# 5 0.000000 0.000000 0.000000 0.000000 0.295966 0.000000
# 6 0.000000 0.000000 0.000000 0.000000 0.000000 0.040461
#
#
# Mechanical properties :
#
#
# Convention : Reuss Voigt Hill
#
# Bulk Modulus (GPa) = 8.39410 69.58876 38.99143
# Shear Modulus (GPa) = 7.96157 65.08139 36.52148
#
# Velocity S-wave (km/s) = 2.07307 5.92711 4.44006
# Velocity P-wave (km/s) = 3.20332 9.18720 6.87990
#
# Compressibility (1/GPa) = 0.11913125
#
# Stress axis : x y z
#
# Youngs Moduli (GPa) = 7.20851 48.20625 41.68200
#
# Poissons Ratio (x) = 0.23058 0.38953
# Poissons Ratio (y) = 0.03448 0.75178
# Poissons Ratio (z) = 0.06737 0.86945
#
# Static dielectric constant tensor:
#      x y z
#    x 1.651960 0.000000 0.000000 
#    y 0.000000 1.600030 0.000000 
#    z 0.000000 0.000000 1.654750 
# 
# From -- ./inp_files/15610.got.cif
#   From: 2010.05.17/outbox.cif.g08.bks.cpg/sg35_8_cif.got.tgz:15610.got - 2010.06.03 17:29:28.
