data_PCOD9348280
_publ_section_title
;
Structure prediction by ZEFSAII (Michael W. Deem and Ramdas Pophale) SiO2 
 PCOD9348280
Probable space group: C M M 2
;
_chemical_formula_sum "Si O2"
_cell_formula_units_Z 34
_cell_length_a 7.229036
_cell_length_b 41.223499
_cell_length_c 5.338062
_cell_angle_alpha 90.000000
_cell_angle_beta 90.000000
_cell_angle_gamma 90.000000
_cell_volume 1590.775349
_symmetry_space_group_name_H-M "C M M 2"
_symmetry_group_IT_number 35
_symmetry_cell_setting 'orthorhombic'
loop_
_space_group_symop_operation_xyz
x,y,z
-x,-y,z
-x,y,z
x,-y,z
1/2+x,1/2+y,z
1/2-x,1/2-y,z
1/2-x,1/2+y,z
1/2+x,1/2-y,z
loop_
_atom_site_type_symbol
_atom_site_label
_atom_site_fract_x
_atom_site_fract_y
_atom_site_fract_z
Si Si1 0.000000 0.500000 0.375000
Si Si2 0.219721 0.211618 0.375004
Si Si3 0.724505 0.561536 0.374994
Si Si4 0.223128 0.898824 0.874994
Si Si5 0.726435 0.324218 0.875004
O O1 0.838366 0.528461 0.375000
O O2 0.250000 0.250000 0.375003
O O3 0.288588 0.194553 0.626823
O O4 0.000000 0.206548 0.375005
O O5 0.288588 0.194553 0.123186
O O6 0.500000 0.556448 0.374994
O O7 0.774076 0.581928 0.623822
O O8 0.774078 0.581927 0.126159
O O9 0.285566 0.861633 0.875001
O O10 0.000000 0.897642 0.874996
O O11 0.500000 0.324076 0.875005
#
# Coordination Sequence:
#
# PCOD9348280 Si02
#       5
#     2   8   8   8   8
#     4  12  26  42  64  88 128 154 194 238 304 348
#     4  10  19  31  51  77 110 143 186 225 279 333
#     4  10  22  39  62  88 116 154 192 241 290 352
#     4   9  18  36  61  86 111 143 198 243 285 338
#     4   9  17  31  55  80 101 144 188 231 273 334
#
# _framework density 21.373225999999999
#
# number of rings (size 3 to 8) (size 9 to 14) (size 15 to 20)
#    0.000    2.353    0.000    2.471    0.000    8.471 
#    0.000    3.529   15.529    0.000    0.000    0.000 
#    0.000    0.000    0.000    0.000    0.000    0.000 
#
# Total GULP energy -94755.998061 kJ/mol
# GULP energy per Si atom -5573.882239 kJ/mol
# Density = 2.132458 g / cm^3
# Si number density = 21.373226 Si / 1000 Ang^3
#
#
#
# Elastic Constant Matrix: (Units=GPa)
#
#
# Indices 1 2 3 4 5 6 
#
# 1 121.6803 39.2557 34.5568 0.0000 0.0000 0.0000
# 2 39.2557 286.2218 166.5174 0.0000 0.0000 0.0000
# 3 34.5568 166.5174 253.3648 0.0000 0.0000 0.0000
# 4 0.0000 0.0000 0.0000 -10.7648 0.0000 0.0000
# 5 0.0000 0.0000 0.0000 0.0000 -23.6832 0.0000
# 6 0.0000 0.0000 0.0000 0.0000 0.0000 18.4450
#
#
#
# Elastic Compliance Matrix: (Units=1/GPa)
#
#
# Indices 1 2 3 4 5 6 
#
# 1 0.008664 -0.000811 -0.000649 0.000000 0.000000 0.000000
# 2 -0.000811 0.005733 -0.003657 0.000000 0.000000 0.000000
# 3 -0.000649 -0.003657 0.006439 0.000000 0.000000 0.000000
# 4 0.000000 0.000000 0.000000 -0.092896 0.000000 0.000000
# 5 0.000000 0.000000 0.000000 0.000000 -0.042224 0.000000
# 6 0.000000 0.000000 0.000000 0.000000 0.000000 0.054215
#
#
# Mechanical properties :
#
#
# Convention : Reuss Voigt Hill
#
# Bulk Modulus (GPa) = 94.31971 126.88075 110.60023
# Shear Modulus (GPa) = -107.98753 24.86187 -41.56283
#
# Velocity S-wave (km/s) = -7.11578 3.41431 -4.41457
# Velocity P-wave (km/s) = 4.82564 8.66236 5.08673
#
# Compressibility (1/GPa) = 0.01060224
#
# Stress axis : x y z
#
# Youngs Moduli (GPa) = 115.41872 174.44252 155.30790
#
# Poissons Ratio (x) = 0.14144 0.10077
# Poissons Ratio (y) = 0.09359 0.56796
# Poissons Ratio (z) = 0.07488 0.63793
#
# Static dielectric constant tensor:
#      x y z
#    x -1.464900 0.000000 0.000000 
#    y 0.000000 1.699800 0.000000 
#    z 0.000000 0.000000 1.743700 
# 
# From -- ./inp_files/613.got.cif
#   From: 2010.05.17/outbox.cif.g08.bks.cpg/sg35_1_cif.got.tgz:613.got - 2010.06.03 17:29:28.
