data_PCOD9348596
_publ_section_title
;
Structure prediction by ZEFSAII (Michael W. Deem and Ramdas Pophale) SiO2 
 PCOD9348596
Probable space group: C M M 2
;
_chemical_formula_sum "Si O2"
_cell_formula_units_Z 56
_cell_length_a 14.163658
_cell_length_b 14.691999
_cell_length_c 12.899135
_cell_angle_alpha 90.000000
_cell_angle_beta 90.000000
_cell_angle_gamma 90.000000
_cell_volume 2684.212594
_symmetry_space_group_name_H-M "C M M 2"
_symmetry_group_IT_number 35
_symmetry_cell_setting 'orthorhombic'
loop_
_space_group_symop_operation_xyz
x,y,z
-x,-y,z
-x,y,z
x,-y,z
1/2+x,1/2+y,z
1/2-x,1/2-y,z
1/2-x,1/2+y,z
1/2+x,1/2-y,z
loop_
_atom_site_type_symbol
_atom_site_label
_atom_site_fract_x
_atom_site_fract_y
_atom_site_fract_z
Si Si1 0.109989 0.602094 0.471800
Si Si2 0.388331 0.601283 0.818194
Si Si3 0.608410 0.598038 0.185282
Si Si4 0.612059 0.192457 0.875762
Si Si5 0.781544 0.646227 0.071835
Si Si6 0.387415 0.203417 0.270071
Si Si7 0.724942 0.147676 0.670812
O O1 0.111326 0.500000 0.427567
O O2 0.144249 0.669820 0.382257
O O3 0.173306 0.603980 0.573894
O O4 0.000000 0.623573 0.498128
O O5 0.500000 0.607448 0.793171
O O6 0.373876 0.500000 0.866136
O O7 0.366110 0.697273 0.877508
O O8 0.320234 0.605112 0.718041
O O9 0.500000 0.608423 0.147753
O O10 0.613882 0.500000 0.240902
O O11 0.684433 0.595515 0.093811
O O12 0.631184 0.689180 0.249928
O O13 0.500000 0.184359 0.881162
O O14 0.653807 0.156149 0.768201
O O15 0.658369 0.134440 0.968514
O O16 0.750000 0.750000 0.064264
O O17 0.843320 0.644500 0.176820
O O18 0.500000 0.191709 0.266180
O O19 0.750000 0.250000 0.638870
#
# Coordination Sequence:
#
# PCOD9348596 Si02
#       7
#     8   8   8   8   8   8   8
#     4  10  21  38  61  86 113 152 201 248 294 348
#     4   9  18  34  57  85 117 152 193 242 292 346
#     4   9  19  37  61  88 118 153 194 241 294 354
#     4  10  20  36  58  84 116 154 194 237 290 348
#     4  10  19  34  56  82 114 150 186 228 284 346
#     4   9  19  36  58  84 114 149 194 246 296 349
#     4  10  20  35  57  85 118 156 195 239 293 351
#
# _framework density 20.862728000000001
#
# number of rings (size 3 to 8) (size 9 to 14) (size 15 to 20)
#    0.000    2.429    0.000    2.571    0.000    3.429 
#    0.000    7.857    0.000   27.000    0.000   16.000 
#    0.000    0.000    0.000    0.000    0.000    0.000 
#
# Total GULP energy -156102.977857 kJ/mol
# GULP energy per Si atom -5575.106352 kJ/mol
# Density = 2.081524 g / cm^3
# Si number density = 20.862728 Si / 1000 Ang^3
#
#
#
# Elastic Constant Matrix: (Units=GPa)
#
#
# Indices 1 2 3 4 5 6 
#
# 1 89.9158 42.6340 62.7538 0.0000 0.0000 0.0000
# 2 42.6340 95.2351 48.3472 0.0000 0.0000 0.0000
# 3 62.7538 48.3472 129.9872 0.0000 0.0000 0.0000
# 4 0.0000 0.0000 0.0000 10.8565 0.0000 0.0000
# 5 0.0000 0.0000 0.0000 0.0000 27.9353 0.0000
# 6 0.0000 0.0000 0.0000 0.0000 0.0000 0.7016
#
#
#
# Elastic Compliance Matrix: (Units=1/GPa)
#
#
# Indices 1 2 3 4 5 6 
#
# 1 0.018248 -0.004557 -0.007114 0.000000 0.000000 0.000000
# 2 -0.004557 0.014083 -0.003038 0.000000 0.000000 0.000000
# 3 -0.007114 -0.003038 0.012258 0.000000 0.000000 0.000000
# 4 0.000000 0.000000 0.000000 0.092111 0.000000 0.000000
# 5 0.000000 0.000000 0.000000 0.000000 0.035797 0.000000
# 6 0.000000 0.000000 0.000000 0.000000 0.000000 1.425335
#
#
# Mechanical properties :
#
#
# Convention : Reuss Voigt Hill
#
# Bulk Modulus (GPa) = 65.92391 69.17867 67.55129
# Shear Modulus (GPa) = 3.06315 18.65888 10.86102
#
# Velocity S-wave (km/s) = 1.21302 2.99384 2.28413
# Velocity P-wave (km/s) = 5.79909 6.72173 6.27738
#
# Compressibility (1/GPa) = 0.01516900
#
# Stress axis : x y z
#
# Youngs Moduli (GPa) = 54.80183 71.00949 81.58262
#
# Poissons Ratio (x) = 0.32361 0.58041
# Poissons Ratio (y) = 0.24974 0.24783
# Poissons Ratio (z) = 0.38988 0.21571
#
# Static dielectric constant tensor:
#      x y z
#    x 1.774650 0.000000 0.000000 
#    y 0.000000 1.804030 0.000000 
#    z 0.000000 0.000000 1.737290 
# 
# From -- ./inp_files/13026.got.cif
#   From: 2010.05.17/outbox.cif.g08.bks.cpg/sg35_7_cif.got.tgz:13026.got - 2010.06.03 17:29:28.
