data_PCOD9348681
_publ_section_title
;
Structure prediction by ZEFSAII (Michael W. Deem and Ramdas Pophale) SiO2 
 PCOD9348681
Probable space group: C M M 2
;
_chemical_formula_sum "Si O2"
_cell_formula_units_Z 44
_cell_length_a 15.027914
_cell_length_b 7.501441
_cell_length_c 17.134368
_cell_angle_alpha 90.000000
_cell_angle_beta 90.000000
_cell_angle_gamma 90.000000
_cell_volume 1931.574614
_symmetry_space_group_name_H-M "C M M 2"
_symmetry_group_IT_number 35
_symmetry_cell_setting 'orthorhombic'
loop_
_space_group_symop_operation_xyz
x,y,z
-x,-y,z
-x,y,z
x,-y,z
1/2+x,1/2+y,z
1/2-x,1/2-y,z
1/2-x,1/2+y,z
1/2+x,1/2-y,z
loop_
_atom_site_type_symbol
_atom_site_label
_atom_site_fract_x
_atom_site_fract_y
_atom_site_fract_z
Si Si1 0.646915 0.711502 0.567810
Si Si2 0.250000 0.250000 0.853999
Si Si3 0.899161 0.291973 0.743995
Si Si4 0.353190 0.287636 0.147808
Si Si5 0.898043 0.217715 0.972336
Si Si6 0.000000 0.218597 0.268338
Si Si7 0.500000 0.282051 0.446654
O O1 0.634422 0.500000 0.573937
O O2 0.750000 0.750000 0.554444
O O3 0.617355 0.785192 0.651535
O O4 0.585370 0.775179 0.497046
O O5 0.176577 0.185978 0.790251
O O6 0.175307 0.307037 0.917573
O O7 0.889517 0.500000 0.767477
O O8 0.000000 0.232493 0.759923
O O9 0.366021 0.500000 0.145158
O O10 0.250000 0.250000 0.160032
O O11 0.414864 0.222207 0.217938
O O12 0.382640 0.225761 0.061875
O O13 0.000000 0.256055 0.950400
O O14 0.885305 0.000000 0.966448
O O15 0.000000 0.279209 0.357537
O O16 0.000000 0.000000 0.270539
O O17 0.500000 0.500000 0.444450
#
# Coordination Sequence:
#
# PCOD9348681 Si02
#       7
#     8   4   8   8   8   4   4
#     4  11  22  39  63  88 117 154 197 241 296 353
#     4  12  22  36  58  84 118 152 198 248 294 336
#     4  11  24  40  58  84 119 157 198 244 299 351
#     4  10  19  35  60  87 115 154 194 237 291 342
#     4  10  20  35  55  82 114 153 202 242 281 340
#     4   9  18  36  63  88 119 154 192 235 283 349
#     4   9  20  38  61  92 119 150 194 239 287 349
#
# _framework density 22.779343000000001
#
# number of rings (size 3 to 8) (size 9 to 14) (size 15 to 20)
#    0.000    1.636    3.636    1.636    0.000    1.455 
#    0.000    0.455    0.000    4.364    0.000    0.000 
#    0.000    0.000    0.000    0.000    0.000    0.000 
#
# Total GULP energy -122783.197371 kJ/mol
# GULP energy per Si atom -5581.054426 kJ/mol
# Density = 2.272750 g / cm^3
# Si number density = 22.779343 Si / 1000 Ang^3
#
#
#
# Elastic Constant Matrix: (Units=GPa)
#
#
# Indices 1 2 3 4 5 6 
#
# 1 244.4950 16.5188 118.0760 0.0000 0.0000 0.0000
# 2 16.5188 83.1075 16.9946 0.0000 0.0000 0.0000
# 3 118.0760 16.9946 235.6733 0.0000 0.0000 0.0000
# 4 0.0000 0.0000 0.0000 12.8002 0.0000 0.0000
# 5 0.0000 0.0000 0.0000 0.0000 26.8106 0.0000
# 6 0.0000 0.0000 0.0000 0.0000 0.0000 3.7098
#
#
#
# Elastic Compliance Matrix: (Units=1/GPa)
#
#
# Indices 1 2 3 4 5 6 
#
# 1 0.005418 -0.000530 -0.002677 0.000000 0.000000 0.000000
# 2 -0.000530 0.012264 -0.000619 0.000000 0.000000 0.000000
# 3 -0.002677 -0.000619 0.005629 0.000000 0.000000 0.000000
# 4 0.000000 0.000000 0.000000 0.078123 0.000000 0.000000
# 5 0.000000 0.000000 0.000000 0.000000 0.037299 0.000000
# 6 0.000000 0.000000 0.000000 0.000000 0.000000 0.269559
#
#
# Mechanical properties :
#
#
# Convention : Reuss Voigt Hill
#
# Bulk Modulus (GPa) = 63.85191 96.27274 80.06232
# Shear Modulus (GPa) = 11.87188 36.10989 23.99089
#
# Velocity S-wave (km/s) = 2.28539 3.98578 3.24880
# Velocity P-wave (km/s) = 5.92077 7.97100 7.02112
#
# Compressibility (1/GPa) = 0.01566124
#
# Stress axis : x y z
#
# Youngs Moduli (GPa) = 184.55461 81.53634 177.65824
#
# Poissons Ratio (x) = 0.04319 0.47551
# Poissons Ratio (y) = 0.09775 0.10998
# Poissons Ratio (z) = 0.49397 0.05047
#
# Static dielectric constant tensor:
#      x y z
#    x 1.757250 0.000000 0.000000 
#    y 0.000000 1.824320 0.000000 
#    z 0.000000 0.000000 1.800030 
# 
# From -- ./inp_files/18716.got.cif
#   From: 2010.05.17/outbox.cif.g08.bks.cpg/sg35_10_cif.got.tgz:18716.got - 2010.06.03 17:29:28.
