data_PCOD9348875
_publ_section_title
;
Structure prediction by ZEFSAII (Michael W. Deem and Ramdas Pophale) SiO2 
 PCOD9348875
Probable space group: C M M 2
;
_chemical_formula_sum "Si O2"
_cell_formula_units_Z 48
_cell_length_a 19.185060
_cell_length_b 8.690727
_cell_length_c 15.874702
_cell_angle_alpha 90.000000
_cell_angle_beta 90.000000
_cell_angle_gamma 90.000000
_cell_volume 2646.822702
_symmetry_space_group_name_H-M "C M M 2"
_symmetry_group_IT_number 35
_symmetry_cell_setting 'orthorhombic'
loop_
_space_group_symop_operation_xyz
x,y,z
-x,-y,z
-x,y,z
x,-y,z
1/2+x,1/2+y,z
1/2-x,1/2-y,z
1/2-x,1/2+y,z
1/2+x,1/2-y,z
loop_
_atom_site_type_symbol
_atom_site_label
_atom_site_fract_x
_atom_site_fract_y
_atom_site_fract_z
Si Si1 0.172019 0.684642 0.888790
Si Si2 0.919901 0.687645 0.727926
Si Si3 0.672408 0.185911 0.570495
Si Si4 0.581563 0.315495 0.231329
Si Si5 0.081670 0.185917 0.040693
Si Si6 0.827003 0.316308 0.380669
O O1 0.175489 0.500000 0.888502
O O2 0.250000 0.750000 0.885126
O O3 0.126472 0.735117 0.807833
O O4 0.131354 0.740818 0.971555
O O5 0.921254 0.500000 0.727849
O O6 0.881303 0.736767 0.642272
O O7 0.000000 0.740072 0.733444
O O8 0.750000 0.250000 0.586094
O O9 0.650661 0.231180 0.475504
O O10 0.676149 0.000000 0.573270
O O11 0.500000 0.279118 0.240871
O O12 0.589177 0.500000 0.235523
O O13 0.601759 0.268095 0.136201
O O14 0.624436 0.241632 0.306219
O O15 0.000000 0.227499 0.027199
O O16 0.085741 0.000000 0.035839
O O17 0.824208 0.500000 0.379048
O O18 0.750000 0.250000 0.368044
#
# Coordination Sequence:
#
# PCOD9348875 Si02
#       6
#     8   8   8   8   8   8
#     4  11  22  35  54  79 106 138 175 214 257 305
#     4   9  18  33  53  77 104 134 169 210 257 308
#     4   9  18  33  53  75 102 136 171 210 255 303
#     4   9  19  36  56  77 104 138 172 211 262 313
#     4   9  19  37  58  78 103 136 172 212 261 313
#     4  10  20  33  52  78 106 139 177 216 258 304
#
# _framework density 18.134951000000001
#
# number of rings (size 3 to 8) (size 9 to 14) (size 15 to 20)
#    0.000    2.500    0.000    3.000    0.000    4.000 
#    0.000    4.167    0.000    2.500    0.000    0.000 
#    0.000    0.000    0.000    0.000    0.000    0.000 
#
# Total GULP energy -133910.213681 kJ/mol
# GULP energy per Si atom -5579.592237 kJ/mol
# Density = 1.809368 g / cm^3
# Si number density = 18.134951 Si / 1000 Ang^3
#
#
#
# Elastic Constant Matrix: (Units=GPa)
#
#
# Indices 1 2 3 4 5 6 
#
# 1 139.4179 41.2414 132.0328 0.0000 0.0000 0.0000
# 2 41.2414 19.1018 49.7713 0.0000 0.0000 0.0000
# 3 132.0328 49.7713 201.9359 0.0000 0.0000 0.0000
# 4 0.0000 0.0000 0.0000 20.1381 0.0000 0.0000
# 5 0.0000 0.0000 0.0000 0.0000 37.3055 0.0000
# 6 0.0000 0.0000 0.0000 0.0000 0.0000 20.7307
#
#
#
# Elastic Compliance Matrix: (Units=1/GPa)
#
#
# Indices 1 2 3 4 5 6 
#
# 1 0.023799 -0.030292 -0.008095 0.000000 0.000000 0.000000
# 2 -0.030292 0.184870 -0.025759 0.000000 0.000000 0.000000
# 3 -0.008095 -0.025759 0.016594 0.000000 0.000000 0.000000
# 4 0.000000 0.000000 0.000000 0.049657 0.000000 0.000000
# 5 0.000000 0.000000 0.000000 0.000000 0.026806 0.000000
# 6 0.000000 0.000000 0.000000 0.000000 0.000000 0.048238
#
#
# Mechanical properties :
#
#
# Convention : Reuss Voigt Hill
#
# Bulk Modulus (GPa) = 10.31233 89.61629 49.96431
# Shear Modulus (GPa) = 9.79280 24.79554 17.29417
#
# Velocity S-wave (km/s) = 2.32630 3.70168 3.09145
# Velocity P-wave (km/s) = 3.59366 8.23369 6.35248
#
# Compressibility (1/GPa) = 0.09697131
#
# Stress axis : x y z
#
# Youngs Moduli (GPa) = 42.01787 5.40920 60.26436
#
# Poissons Ratio (x) = 0.16386 0.48782
# Poissons Ratio (y) = 1.27281 1.55235
# Poissons Ratio (z) = 0.34012 0.13934
#
# Static dielectric constant tensor:
#      x y z
#    x 1.585160 0.000000 0.000000 
#    y 0.000000 1.614710 0.000000 
#    z 0.000000 0.000000 1.626660 
# 
# From -- ./inp_files/15075.got.cif
#   From: 2010.05.17/outbox.cif.g08.bks.cpg/sg35_8_cif.got.tgz:15075.got - 2010.06.03 17:29:28.
