data_PCOD9348679
_publ_section_title
;
Structure prediction by ZEFSAII (Michael W. Deem and Ramdas Pophale) SiO2 
 PCOD9348679
Probable space group: C M M 2
;
_chemical_formula_sum "Si O2"
_cell_formula_units_Z 58
_cell_length_a 8.642106
_cell_length_b 19.645267
_cell_length_c 18.007674
_cell_angle_alpha 90.000000
_cell_angle_beta 90.000000
_cell_angle_gamma 90.000000
_cell_volume 3057.279501
_symmetry_space_group_name_H-M "C M M 2"
_symmetry_group_IT_number 35
_symmetry_cell_setting 'orthorhombic'
loop_
_space_group_symop_operation_xyz
x,y,z
-x,-y,z
-x,y,z
x,-y,z
1/2+x,1/2+y,z
1/2-x,1/2-y,z
1/2-x,1/2+y,z
1/2+x,1/2-y,z
loop_
_atom_site_type_symbol
_atom_site_label
_atom_site_fract_x
_atom_site_fract_y
_atom_site_fract_z
Si Si1 0.814208 0.079428 0.530310
Si Si2 0.688671 0.422398 0.956496
Si Si3 0.313624 0.324225 0.822365
Si Si4 0.313501 0.823020 0.405628
Si Si5 0.670767 0.858691 0.240956
Si Si6 0.000000 0.500000 0.244372
Si Si7 0.185068 0.324820 0.658080
Si Si8 0.816410 0.176737 0.085738
O O1 0.750798 0.117834 0.457866
O O2 0.746019 0.119465 0.600678
O O3 0.000000 0.083975 0.531913
O O4 0.770014 0.000000 0.530600
O O5 0.500000 0.424064 0.958009
O O6 0.743838 0.500000 0.955542
O O7 0.731536 0.380026 0.883283
O O8 0.741653 0.381291 0.029174
O O9 0.500000 0.321168 0.817623
O O10 0.250000 0.250000 0.844488
O O11 0.254193 0.160508 0.741091
O O12 0.500000 0.823971 0.408466
O O13 0.250000 0.750000 0.430940
O O14 0.265335 0.835166 0.320164
O O15 0.500000 0.824978 0.231063
O O16 0.632005 0.938924 0.244518
O O17 0.769395 0.840315 0.169668
O O18 0.250000 0.250000 0.637613
O O19 0.000000 0.322352 0.657455
O O20 0.750000 0.250000 0.064562
O O21 0.000000 0.179470 0.079349
#
# Coordination Sequence:
#
# PCOD9348679 Si02
#       8
#     8   8   8   8   8   2   8   8
#     4  11  25  42  61  87 120 155 194 240 292 349
#     4   9  20  36  55  82 115 152 193 240 295 353
#     4  10  19  35  60  85 114 150 190 238 291 348
#     4  11  23  39  63  87 119 155 197 243 291 347
#     4   9  21  38  62  85 118 154 193 237 294 349
#     4   8  20  40  62  88 120 156 186 248 296 356
#     4  11  22  39  63  89 119 153 194 240 288 347
#     4  11  22  37  59  86 118 155 201 249 294 347
#
# _framework density 18.971114
#
# number of rings (size 3 to 8) (size 9 to 14) (size 15 to 20)
#    0.414    1.379    0.000    4.966    1.931    3.862 
#    0.000    3.448    0.000    4.552    0.000    0.000 
#    0.000    0.000    0.000    0.000    0.000    0.000 
#
# Total GULP energy -161695.578738 kJ/mol
# GULP energy per Si atom -5575.709612 kJ/mol
# Density = 1.892794 g / cm^3
# Si number density = 18.971114 Si / 1000 Ang^3
#
#
#
# Elastic Constant Matrix: (Units=GPa)
#
#
# Indices 1 2 3 4 5 6 
#
# 1 70.7331 49.6443 46.4196 0.0000 0.0000 0.0000
# 2 49.6443 173.6116 107.1255 0.0000 0.0000 0.0000
# 3 46.4196 107.1255 136.9003 0.0000 0.0000 0.0000
# 4 0.0000 0.0000 0.0000 48.3709 0.0000 0.0000
# 5 0.0000 0.0000 0.0000 0.0000 -0.2014 0.0000
# 6 0.0000 0.0000 0.0000 0.0000 0.0000 27.8810
#
#
#
# Elastic Compliance Matrix: (Units=1/GPa)
#
#
# Indices 1 2 3 4 5 6 
#
# 1 0.018862 -0.002798 -0.004206 0.000000 0.000000 0.000000
# 2 -0.002798 0.011553 -0.008091 0.000000 0.000000 0.000000
# 3 -0.004206 -0.008091 0.015062 0.000000 0.000000 0.000000
# 4 0.000000 0.000000 0.000000 0.020674 0.000000 0.000000
# 5 0.000000 0.000000 0.000000 0.000000 -4.965602 0.000000
# 6 0.000000 0.000000 0.000000 0.000000 0.000000 0.035867
#
#
# Mechanical properties :
#
#
# Convention : Reuss Voigt Hill
#
# Bulk Modulus (GPa) = 65.42015 87.51377 76.46696
# Shear Modulus (GPa) = -1.03556 27.08046 13.02245
#
# Velocity S-wave (km/s) = -0.73963 3.78227 2.62283
# Velocity P-wave (km/s) = 5.81632 8.08110 7.04038
#
# Compressibility (1/GPa) = 0.01528581
#
# Stress axis : x y z
#
# Youngs Moduli (GPa) = 53.01703 86.55845 66.39115
#
# Poissons Ratio (x) = 0.24222 0.27923
# Poissons Ratio (y) = 0.14836 0.53719
# Poissons Ratio (z) = 0.22298 0.70038
#
# Static dielectric constant tensor:
#      x y z
#    x 1.656480 0.000000 0.000000 
#    y 0.000000 1.639680 0.000000 
#    z 0.000000 0.000000 1.651770 
# 
# From -- ./inp_files/18170.got.cif
#   From: 2010.05.17/outbox.cif.g08.bks.cpg/sg35_10_cif.got.tgz:18170.got - 2010.06.03 17:29:28.
