data_PCOD9348600
_publ_section_title
;
Structure prediction by ZEFSAII (Michael W. Deem and Ramdas Pophale) SiO2 
 PCOD9348600
Probable space group: C M M 2
;
_chemical_formula_sum "Si O2"
_cell_formula_units_Z 48
_cell_length_a 8.723737
_cell_length_b 29.012052
_cell_length_c 10.520850
_cell_angle_alpha 90.000000
_cell_angle_beta 90.000000
_cell_angle_gamma 90.000000
_cell_volume 2662.758870
_symmetry_space_group_name_H-M "C M M 2"
_symmetry_group_IT_number 35
_symmetry_cell_setting 'orthorhombic'
loop_
_space_group_symop_operation_xyz
x,y,z
-x,-y,z
-x,y,z
x,-y,z
1/2+x,1/2+y,z
1/2-x,1/2-y,z
1/2-x,1/2+y,z
1/2+x,1/2-y,z
loop_
_atom_site_type_symbol
_atom_site_label
_atom_site_fract_x
_atom_site_fract_y
_atom_site_fract_z
Si Si1 0.316123 0.554207 0.974470
Si Si2 0.816513 0.299597 0.135107
Si Si3 0.183322 0.604337 0.729632
Si Si4 0.314655 0.446578 0.484523
Si Si5 0.315064 0.392336 0.231454
Si Si6 0.815494 0.299378 0.838803
O O1 0.500000 0.559698 0.957822
O O2 0.283877 0.500000 0.983452
O O3 0.232408 0.576317 0.854719
O O4 0.271557 0.579555 0.104633
O O5 0.750000 0.250000 0.172954
O O6 0.753765 0.341531 0.218068
O O7 0.000000 0.298482 0.139880
O O8 0.769598 0.307379 0.986729
O O9 0.255551 0.580515 0.607101
O O10 0.234102 0.657172 0.754600
O O11 0.000000 0.603964 0.718072
O O12 0.500000 0.446890 0.486731
O O13 0.263777 0.500000 0.485235
O O14 0.266010 0.420150 0.356483
O O15 0.500000 0.389134 0.233584
O O16 0.750000 0.250000 0.799103
O O17 0.000000 0.297245 0.836455
#
# Coordination Sequence:
#
# PCOD9348600 Si02
#       6
#     8   8   8   8   8   8
#     4  10  20  34  55  82 109 141 185 234 281 332
#     4  10  19  34  56  84 116 147 183 229 280 336
#     4  11  22  37  55  82 115 147 185 231 282 334
#     4  10  22  40  59  80 111 152 194 233 276 331
#     4  10  20  36  58  83 111 146 188 234 282 330
#     4   9  19  34  54  81 112 143 179 225 277 329
#
# _framework density 18.026416000000001
#
# number of rings (size 3 to 8) (size 9 to 14) (size 15 to 20)
#    0.000    2.000    1.667    2.000    0.000    7.333 
#    0.000    0.833    0.000    5.000    0.000    0.000 
#    0.000    0.000    0.000    0.000    0.000    0.000 
#
# Total GULP energy -134009.513200 kJ/mol
# GULP energy per Si atom -5583.729717 kJ/mol
# Density = 1.798539 g / cm^3
# Si number density = 18.026416 Si / 1000 Ang^3
#
#
#
# Elastic Constant Matrix: (Units=GPa)
#
#
# Indices 1 2 3 4 5 6 
#
# 1 13.6466 37.2306 30.3269 0.0000 0.0000 0.0000
# 2 37.2306 185.6174 89.7876 0.0000 0.0000 0.0000
# 3 30.3269 89.7876 135.2983 0.0000 0.0000 0.0000
# 4 0.0000 0.0000 0.0000 31.8959 0.0000 0.0000
# 5 0.0000 0.0000 0.0000 0.0000 -14.9658 0.0000
# 6 0.0000 0.0000 0.0000 0.0000 0.0000 30.5527
#
#
#
# Elastic Compliance Matrix: (Units=1/GPa)
#
#
# Indices 1 2 3 4 5 6 
#
# 1 0.220876 -0.029977 -0.029616 0.000000 0.000000 0.000000
# 2 -0.029977 0.012003 -0.001246 0.000000 0.000000 0.000000
# 3 -0.029616 -0.001246 0.014856 0.000000 0.000000 0.000000
# 4 0.000000 0.000000 0.000000 0.031352 0.000000 0.000000
# 5 0.000000 0.000000 0.000000 0.000000 -0.066819 0.000000
# 6 0.000000 0.000000 0.000000 0.000000 0.000000 0.032730
#
#
# Mechanical properties :
#
#
# Convention : Reuss Voigt Hill
#
# Bulk Modulus (GPa) = 7.93284 72.13916 40.03600
# Shear Modulus (GPa) = 12.23404 21.31104 16.77254
#
# Velocity S-wave (km/s) = 2.60796 3.44206 3.05362
# Velocity P-wave (km/s) = 3.67135 7.47680 5.88988
#
# Compressibility (1/GPa) = 0.12605830
#
# Stress axis : x y z
#
# Youngs Moduli (GPa) = 4.52742 83.31297 67.31129
#
# Poissons Ratio (x) = 2.49747 1.99346
# Poissons Ratio (y) = 0.13572 0.08388
# Poissons Ratio (z) = 0.13408 0.10382
#
# Static dielectric constant tensor:
#      x y z
#    x 1.611610 0.000000 0.000000 
#    y 0.000000 1.608200 0.000000 
#    z 0.000000 0.000000 1.592350 
# 
# From -- ./inp_files/5320.got.cif
#   From: 2010.05.17/outbox.cif.g08.bks.cpg/sg35_3_cif.got.tgz:5320.got - 2010.06.03 17:29:28.
