data_PCOD9348395
_publ_section_title
;
Structure prediction by ZEFSAII (Michael W. Deem and Ramdas Pophale) SiO2 
 PCOD9348395
Probable space group: C M M 2
;
_chemical_formula_sum "Si O2"
_cell_formula_units_Z 64
_cell_length_a 8.757287
_cell_length_b 19.379348
_cell_length_c 21.309426
_cell_angle_alpha 90.000000
_cell_angle_beta 90.000000
_cell_angle_gamma 90.000000
_cell_volume 3616.433603
_symmetry_space_group_name_H-M "C M M 2"
_symmetry_group_IT_number 35
_symmetry_cell_setting 'orthorhombic'
loop_
_space_group_symop_operation_xyz
x,y,z
-x,-y,z
-x,y,z
x,-y,z
1/2+x,1/2+y,z
1/2-x,1/2-y,z
1/2-x,1/2+y,z
1/2+x,1/2-y,z
loop_
_atom_site_type_symbol
_atom_site_label
_atom_site_fract_x
_atom_site_fract_y
_atom_site_fract_z
Si Si1 0.184648 0.827402 0.326130
Si Si2 0.816305 0.827122 0.463692
Si Si3 0.682629 0.080981 0.712382
Si Si4 0.817324 0.674322 0.955179
Si Si5 0.816265 0.172441 0.601211
Si Si6 0.181638 0.081501 0.846328
Si Si7 0.317140 0.826004 0.099785
Si Si8 0.315233 0.579991 0.208231
O O1 0.250000 0.750000 0.318583
O O2 0.229300 0.855862 0.395447
O O3 0.233290 0.877323 0.270004
O O4 0.000000 0.822511 0.324402
O O5 0.750000 0.750000 0.463668
O O6 0.771977 0.856642 0.531748
O O7 0.000000 0.824102 0.463776
O O8 0.500000 0.086764 0.712151
O O9 0.752218 0.125635 0.656548
O O10 0.745966 0.103919 0.780092
O O11 0.723590 0.000000 0.704675
O O12 0.750000 0.750000 0.942804
O O13 0.750435 0.622057 0.904740
O O14 0.000000 0.676298 0.950380
O O15 0.777425 0.656623 0.027447
O O16 0.750000 0.250000 0.606197
O O17 0.000000 0.175610 0.604865
O O18 0.000000 0.091317 0.843833
O O19 0.213645 0.000000 0.853271
O O20 0.500000 0.822997 0.105102
O O21 0.250000 0.750000 0.113560
O O22 0.250710 0.881181 0.147885
O O23 0.500000 0.582120 0.205537
O O24 0.268651 0.500000 0.211030
#
# Coordination Sequence:
#
# PCOD9348395 Si02
#       8
#     8   8   8   8   8   8   8   8
#     4   9  17  31  51  74  99 131 172 213 257 308
#     4   8  15  28  47  72 100 130 166 210 257 305
#     4  10  21  37  55  75 103 139 176 214 257 306
#     4  10  21  37  57  81 108 136 169 211 258 306
#     4  10  19  32  52  78 106 135 171 215 261 308
#     4  10  21  37  57  80 106 137 173 212 254 304
#     4  10  21  37  57  79 104 136 173 213 256 306
#     4  10  21  35  51  74 106 141 175 214 258 304
#
# _framework density 17.696992000000002
#
# number of rings (size 3 to 8) (size 9 to 14) (size 15 to 20)
#    0.000    2.375    0.000    2.250    0.000    6.250 
#    0.000    5.625    0.000    2.250    0.000    0.000 
#    0.000    0.000    0.000    0.000    0.000    0.000 
#
# Total GULP energy -178458.811638 kJ/mol
# GULP energy per Si atom -5576.837864 kJ/mol
# Density = 1.765671 g / cm^3
# Si number density = 17.696992 Si / 1000 Ang^3
#
#
#
# Elastic Constant Matrix: (Units=GPa)
#
#
# Indices 1 2 3 4 5 6 
#
# 1 31.5464 37.7598 54.7657 0.0000 0.0000 0.0000
# 2 37.7598 89.4372 102.0305 0.0000 0.0000 0.0000
# 3 54.7657 102.0305 182.9906 0.0000 0.0000 0.0000
# 4 0.0000 0.0000 0.0000 -43.0490 0.0000 0.0000
# 5 0.0000 0.0000 0.0000 0.0000 26.0021 0.0000
# 6 0.0000 0.0000 0.0000 0.0000 0.0000 25.6632
#
#
#
# Elastic Compliance Matrix: (Units=1/GPa)
#
#
# Indices 1 2 3 4 5 6 
#
# 1 0.073786 -0.016377 -0.012952 0.000000 0.000000 0.000000
# 2 -0.016377 0.034359 -0.014256 0.000000 0.000000 0.000000
# 3 -0.012952 -0.014256 0.017290 0.000000 0.000000 0.000000
# 4 0.000000 0.000000 0.000000 -0.023229 0.000000 0.000000
# 5 0.000000 0.000000 0.000000 0.000000 0.038458 0.000000
# 6 0.000000 0.000000 0.000000 0.000000 0.000000 0.038966
#
#
# Mechanical properties :
#
#
# Convention : Reuss Voigt Hill
#
# Bulk Modulus (GPa) = 26.13323 77.00959 51.57141
# Shear Modulus (GPa) = 17.88561 9.01781 13.45171
#
# Velocity S-wave (km/s) = 3.18253 2.25981 2.76001
# Velocity P-wave (km/s) = 5.32013 7.10064 6.27387
#
# Compressibility (1/GPa) = 0.03826545
#
# Stress axis : x y z
#
# Youngs Moduli (GPa) = 13.55271 29.10458 57.83749
#
# Poissons Ratio (x) = 0.47664 0.74908
# Poissons Ratio (y) = 0.22195 0.82455
# Poissons Ratio (z) = 0.17553 0.41492
#
# Static dielectric constant tensor:
#      x y z
#    x 1.598190 0.000000 0.000000 
#    y 0.000000 1.563820 0.000000 
#    z 0.000000 0.000000 1.623950 
# 
# From -- ./inp_files/18317.got.cif
#   From: 2010.05.17/outbox.cif.g08.bks.cpg/sg35_10_cif.got.tgz:18317.got - 2010.06.03 17:29:28.
