data_PCOD9348412
_publ_section_title
;
Structure prediction by ZEFSAII (Michael W. Deem and Ramdas Pophale) SiO2 
 PCOD9348412
Probable space group: C M M 2
;
_chemical_formula_sum "Si O2"
_cell_formula_units_Z 64
_cell_length_a 33.745305
_cell_length_b 9.480445
_cell_length_c 10.832102
_cell_angle_alpha 90.000000
_cell_angle_beta 90.000000
_cell_angle_gamma 90.000000
_cell_volume 3465.411575
_symmetry_space_group_name_H-M "C M M 2"
_symmetry_group_IT_number 35
_symmetry_cell_setting 'orthorhombic'
loop_
_space_group_symop_operation_xyz
x,y,z
-x,-y,z
-x,y,z
x,-y,z
1/2+x,1/2+y,z
1/2-x,1/2-y,z
1/2-x,1/2+y,z
1/2+x,1/2-y,z
loop_
_atom_site_type_symbol
_atom_site_label
_atom_site_fract_x
_atom_site_fract_y
_atom_site_fract_z
Si Si1 0.855858 0.656725 0.033070
Si Si2 0.787427 0.162239 0.943804
Si Si3 0.684237 0.667250 0.663102
Si Si4 0.454967 0.346881 0.688477
Si Si5 0.290065 0.171639 0.419972
Si Si6 0.621955 0.163232 0.309236
Si Si7 0.955171 0.162569 0.391674
Si Si8 0.887870 0.340551 0.759810
O O1 0.836508 0.500000 0.034532
O O2 0.878574 0.670436 0.160615
O O3 0.824258 0.778972 0.018631
O O4 0.880058 0.663427 0.906078
O O5 0.750000 0.250000 0.981924
O O6 0.795054 0.182825 0.796877
O O7 0.781096 0.000000 0.965818
O O8 0.683308 0.500000 0.632152
O O9 0.704003 0.760337 0.556272
O O10 0.640985 0.733352 0.688033
O O11 0.500000 0.343946 0.731486
O O12 0.437315 0.500000 0.725367
O O13 0.455210 0.341274 0.540384
O O14 0.431344 0.214489 0.736349
O O15 0.250000 0.250000 0.369744
O O16 0.332813 0.201716 0.352890
O O17 0.284834 0.000000 0.422476
O O18 0.584286 0.252171 0.355250
O O19 0.616707 0.000000 0.348073
O O20 0.000000 0.213614 0.354738
O O21 0.951662 0.000000 0.348434
O O22 0.880363 0.500000 0.716690
#
# Coordination Sequence:
#
# PCOD9348412 Si02
#       8
#     8   8   8   8   8   8   8   8
#     4   9  20  38  54  71 101 138 176 217 259 308
#     4  10  20  33  52  77 102 132 171 215 263 313
#     4  10  20  34  53  77 106 138 172 214 266 321
#     4   9  18  33  53  78 109 140 168 205 258 319
#     4  11  23  37  54  79 110 143 182 224 269 323
#     4  10  22  39  57  78 106 143 185 227 269 314
#     4   9  19  36  58  84 111 140 176 218 267 323
#     4  10  19  32  53  78 104 136 173 215 263 315
#
# _framework density 18.468223999999999
#
# number of rings (size 3 to 8) (size 9 to 14) (size 15 to 20)
#    0.000    2.250    0.000    3.375    0.000    8.000 
#    0.000    3.125    0.000    3.750    0.000    0.000 
#    0.000    0.000    0.000    0.000    0.000    0.000 
#
# Total GULP energy -178293.627292 kJ/mol
# GULP energy per Si atom -5571.675853 kJ/mol
# Density = 1.842619 g / cm^3
# Si number density = 18.468224 Si / 1000 Ang^3
#
#
#
# Elastic Constant Matrix: (Units=GPa)
#
#
# Indices 1 2 3 4 5 6 
#
# 1 118.6451 59.9675 16.5968 0.0000 0.0000 0.0000
# 2 59.9675 76.8684 19.6155 0.0000 0.0000 0.0000
# 3 16.5968 19.6155 16.0617 0.0000 0.0000 0.0000
# 4 0.0000 0.0000 0.0000 22.0594 0.0000 0.0000
# 5 0.0000 0.0000 0.0000 0.0000 4.2743 0.0000
# 6 0.0000 0.0000 0.0000 0.0000 0.0000 36.3014
#
#
#
# Elastic Compliance Matrix: (Units=1/GPa)
#
#
# Indices 1 2 3 4 5 6 
#
# 1 0.013945 -0.010462 -0.001632 0.000000 0.000000 0.000000
# 2 -0.010462 0.026749 -0.021856 0.000000 0.000000 0.000000
# 3 -0.001632 -0.021856 0.090638 0.000000 0.000000 0.000000
# 4 0.000000 0.000000 0.000000 0.045332 0.000000 0.000000
# 5 0.000000 0.000000 0.000000 0.000000 0.233957 0.000000
# 6 0.000000 0.000000 0.000000 0.000000 0.000000 0.027547
#
#
# Mechanical properties :
#
#
# Convention : Reuss Voigt Hill
#
# Bulk Modulus (GPa) = 15.76529 44.88165 30.32347
# Shear Modulus (GPa) = 9.48384 20.22004 14.85194
#
# Velocity S-wave (km/s) = 2.26856 3.31245 2.83890
# Velocity P-wave (km/s) = 3.92642 6.24377 5.21543
#
# Compressibility (1/GPa) = 0.06343049
#
# Stress axis : x y z
#
# Youngs Moduli (GPa) = 71.71112 37.38526 11.03288
#
# Poissons Ratio (x) = 0.39114 0.01801
# Poissons Ratio (y) = 0.75026 0.24113
# Poissons Ratio (z) = 0.11705 0.81709
#
# Static dielectric constant tensor:
#      x y z
#    x 1.669990 0.000000 0.000000 
#    y 0.000000 1.640970 0.000000 
#    z 0.000000 0.000000 1.628740 
# 
# From -- ./inp_files/11909.got.cif
#   From: 2010.05.17/outbox.cif.g08.bks.cpg/sg35_6_cif.got.tgz:11909.got - 2010.06.03 17:29:28.
