data_PCOD9348900
_publ_section_title
;
Structure prediction by ZEFSAII (Michael W. Deem and Ramdas Pophale) SiO2 
 PCOD9348900
Probable space group: C M M 2
;
_chemical_formula_sum "Si O2"
_cell_formula_units_Z 48
_cell_length_a 15.641809
_cell_length_b 8.711475
_cell_length_c 17.713116
_cell_angle_alpha 90.000000
_cell_angle_beta 90.000000
_cell_angle_gamma 90.000000
_cell_volume 2413.646365
_symmetry_space_group_name_H-M "C M M 2"
_symmetry_group_IT_number 35
_symmetry_cell_setting 'orthorhombic'
loop_
_space_group_symop_operation_xyz
x,y,z
-x,-y,z
-x,y,z
x,-y,z
1/2+x,1/2+y,z
1/2-x,1/2-y,z
1/2-x,1/2+y,z
1/2+x,1/2-y,z
loop_
_atom_site_type_symbol
_atom_site_label
_atom_site_fract_x
_atom_site_fract_y
_atom_site_fract_z
Si Si1 0.653071 0.816237 0.139000
Si Si2 0.845412 0.817372 0.461355
Si Si3 0.500000 0.317189 0.862371
Si Si4 0.653280 0.314943 0.297233
Si Si5 0.000000 0.183370 0.041248
Si Si6 0.161066 0.315370 0.774328
Si Si7 0.400906 0.175866 0.614992
O O1 0.750000 0.750000 0.129119
O O2 0.618729 0.759415 0.220921
O O3 0.585213 0.754936 0.078365
O O4 0.657987 0.000000 0.137804
O O5 0.750000 0.750000 0.465205
O O6 0.884776 0.774280 0.379483
O O7 0.891635 0.762563 0.536494
O O8 0.839898 0.000000 0.461765
O O9 0.500000 0.500000 0.849939
O O10 0.417052 0.244916 0.823484
O O11 0.500000 0.288443 0.951768
O O12 0.653732 0.500000 0.289282
O O13 0.750000 0.250000 0.300920
O O14 0.000000 0.000000 0.054569
O O15 0.160674 0.500000 0.773510
O O16 0.250000 0.250000 0.803733
O O17 0.148937 0.260984 0.687294
O O18 0.500000 0.174306 0.637778
O O19 0.373043 0.000000 0.601689
#
# Coordination Sequence:
#
# PCOD9348900 Si02
#       7
#     8   8   4   8   4   8   8
#     4  11  22  39  65  95 126 165 209 252 308 368
#     4  10  20  33  53  82 114 156 204 252 302 354
#     4  11  25  45  69  96 125 160 201 251 310 369
#     4   9  17  32  54  81 116 158 203 254 305 354
#     4  11  25  45  67  94 127 160 201 253 308 369
#     4  11  23  42  67  95 127 164 206 252 307 368
#     4  10  21  38  57  82 118 160 203 254 307 355
#
# _framework density 19.886922999999999
#
# number of rings (size 3 to 8) (size 9 to 14) (size 15 to 20)
#    0.000    1.667    0.833    5.000    0.000    7.000 
#    1.500    0.000    0.000    0.000    0.000    0.000 
#    0.000    0.000    0.000    0.000    0.000    0.000 
#
# Total GULP energy -134018.715881 kJ/mol
# GULP energy per Si atom -5584.113162 kJ/mol
# Density = 1.984166 g / cm^3
# Si number density = 19.886923 Si / 1000 Ang^3
#
#
#
# Elastic Constant Matrix: (Units=GPa)
#
#
# Indices 1 2 3 4 5 6 
#
# 1 109.7874 41.2590 64.5808 0.0000 0.0000 0.0000
# 2 41.2590 102.4387 73.1673 0.0000 0.0000 0.0000
# 3 64.5808 73.1673 135.2564 0.0000 0.0000 0.0000
# 4 0.0000 0.0000 0.0000 32.2782 0.0000 0.0000
# 5 0.0000 0.0000 0.0000 0.0000 1680.7755 0.0000
# 6 0.0000 0.0000 0.0000 0.0000 0.0000 28.4319
#
#
#
# Elastic Compliance Matrix: (Units=1/GPa)
#
#
# Indices 1 2 3 4 5 6 
#
# 1 0.012769 -0.001285 -0.005402 0.000000 0.000000 0.000000
# 2 -0.001285 0.016038 -0.008062 0.000000 0.000000 0.000000
# 3 -0.005402 -0.008062 0.014334 0.000000 0.000000 0.000000
# 4 0.000000 0.000000 0.000000 0.030981 0.000000 0.000000
# 5 0.000000 0.000000 0.000000 0.000000 0.000595 0.000000
# 6 0.000000 0.000000 0.000000 0.000000 0.000000 0.035172
#
#
# Mechanical properties :
#
#
# Convention : Reuss Voigt Hill
#
# Bulk Modulus (GPa) = 73.29732 78.38852 75.84292
# Shear Modulus (GPa) = 34.73831 359.52882 197.13356
#
# Velocity S-wave (km/s) = 4.18400 13.46028 9.96707
# Velocity P-wave (km/s) = 7.76390 16.76528 13.06432
#
# Compressibility (1/GPa) = 0.01364306
#
# Stress axis : x y z
#
# Youngs Moduli (GPa) = 78.31581 62.35214 69.76449
#
# Poissons Ratio (x) = 0.08010 0.37685
# Poissons Ratio (y) = 0.10060 0.56247
# Poissons Ratio (z) = 0.42305 0.50271
#
# Static dielectric constant tensor:
#      x y z
#    x -2.153330 0.000000 0.000000 
#    y 0.000000 1.676820 0.000000 
#    z 0.000000 0.000000 1.723170 
# 
# From -- ./inp_files/17859.got.cif
#   From: 2010.05.17/outbox.cif.g08.bks.cpg/sg35_9_cif.got.tgz:17859.got - 2010.06.03 17:29:28.
