data_PCOD9348335
_publ_section_title
;
Structure prediction by ZEFSAII (Michael W. Deem and Ramdas Pophale) SiO2 
 PCOD9348335
Probable space group: C M M 2
;
_chemical_formula_sum "Si O2"
_cell_formula_units_Z 56
_cell_length_a 8.945088
_cell_length_b 15.388104
_cell_length_c 19.356077
_cell_angle_alpha 90.000000
_cell_angle_beta 90.000000
_cell_angle_gamma 90.000000
_cell_volume 2664.324211
_symmetry_space_group_name_H-M "C M M 2"
_symmetry_group_IT_number 35
_symmetry_cell_setting 'orthorhombic'
loop_
_space_group_symop_operation_xyz
x,y,z
-x,-y,z
-x,y,z
x,-y,z
1/2+x,1/2+y,z
1/2-x,1/2-y,z
1/2-x,1/2+y,z
1/2+x,1/2-y,z
loop_
_atom_site_type_symbol
_atom_site_label
_atom_site_fract_x
_atom_site_fract_y
_atom_site_fract_z
Si Si1 0.680045 0.347647 0.183160
Si Si2 0.320228 0.653547 0.332991
Si Si3 0.820835 0.154160 0.482391
Si Si4 0.166040 0.897275 0.755789
Si Si5 0.166077 0.397166 0.621828
Si Si6 0.321554 0.845448 0.894742
Si Si7 0.320546 0.152729 0.045886
O O1 0.500000 0.343130 0.176323
O O2 0.750000 0.250000 0.185596
O O3 0.717926 0.387407 0.258502
O O4 0.749671 0.389119 0.114312
O O5 0.500000 0.662324 0.332877
O O6 0.250000 0.750000 0.333100
O O7 0.280335 0.612927 0.407391
O O8 0.750000 0.250000 0.481415
O O9 0.756181 0.112071 0.551077
O O10 0.000000 0.157638 0.486890
O O11 0.250317 0.860133 0.688923
O O12 0.255745 0.888564 0.826701
O O13 0.000000 0.858931 0.763230
O O14 0.150359 0.000000 0.743293
O O15 0.150545 0.500000 0.633946
O O16 0.000000 0.358899 0.614273
O O17 0.500000 0.840231 0.889586
O O18 0.250000 0.750000 0.895359
O O19 0.287286 0.886461 0.970180
O O20 0.500000 0.158332 0.053482
O O21 0.250000 0.250000 0.043347
#
# Coordination Sequence:
#
# PCOD9348335 Si02
#       7
#     8   8   8   8   8   8   8
#     4   9  14  21  35  56  85 121 157 191 230 275
#     4   8  15  25  38  60  90 123 156 192 233 276
#     4  10  19  32  50  73 102 131 162 200 242 287
#     4  10  21  37  56  76  97 123 158 198 240 289
#     4  10  21  37  55  74  97 125 159 198 240 288
#     4  10  20  33  50  73 102 132 162 199 242 286
#     4   9  16  25  38  60  90 123 157 192 232 276
#
# _framework density 21.018464000000002
#
# number of rings (size 3 to 8) (size 9 to 14) (size 15 to 20)
#    0.000    2.571    0.000    3.429    0.000    5.143 
#    0.000    2.857    0.000    0.000    0.000    1.000 
#    0.000    1.143    0.000    0.000    0.000    0.000 
#
# Total GULP energy -155999.092385 kJ/mol
# GULP energy per Si atom -5571.396157 kJ/mol
# Density = 2.097062 g / cm^3
# Si number density = 21.018464 Si / 1000 Ang^3
#
#
#
# Elastic Constant Matrix: (Units=GPa)
#
#
# Indices 1 2 3 4 5 6 
#
# 1 113.1392 4.6882 94.4616 0.0000 0.0000 0.0000
# 2 4.6882 23.3468 10.0898 0.0000 0.0000 0.0000
# 3 94.4616 10.0898 247.4115 0.0000 0.0000 0.0000
# 4 0.0000 0.0000 0.0000 -132.7894 0.0000 0.0000
# 5 0.0000 0.0000 0.0000 0.0000 -24.1211 0.0000
# 6 0.0000 0.0000 0.0000 0.0000 0.0000 10.5503
#
#
#
# Elastic Compliance Matrix: (Units=1/GPa)
#
#
# Indices 1 2 3 4 5 6 
#
# 1 0.012980 -0.000473 -0.004936 0.000000 0.000000 0.000000
# 2 -0.000473 0.043618 -0.001598 0.000000 0.000000 0.000000
# 3 -0.004936 -0.001598 0.005992 0.000000 0.000000 0.000000
# 4 0.000000 0.000000 0.000000 -0.007531 0.000000 0.000000
# 5 0.000000 0.000000 0.000000 0.000000 -0.041457 0.000000
# 6 0.000000 0.000000 0.000000 0.000000 0.000000 0.094784
#
#
# Mechanical properties :
#
#
# Convention : Reuss Voigt Hill
#
# Bulk Modulus (GPa) = 20.58698 66.93073 43.75885
# Shear Modulus (GPa) = 36.07698 -10.96152 12.55773
#
# Velocity S-wave (km/s) = 4.14749 -2.28616 2.44696
# Velocity P-wave (km/s) = 5.72290 4.99442 5.37102
#
# Compressibility (1/GPa) = 0.04857440
#
# Stress axis : x y z
#
# Youngs Moduli (GPa) = 77.04329 22.92623 166.89682
#
# Poissons Ratio (x) = 0.01085 0.82386
# Poissons Ratio (y) = 0.03645 0.26673
# Poissons Ratio (z) = 0.38031 0.03664
#
# Static dielectric constant tensor:
#      x y z
#    x 1.732590 0.000000 0.000000 
#    y 0.000000 1.752580 0.000000 
#    z 0.000000 0.000000 1.835600 
# 
# From -- ./inp_files/18174.got.cif
#   From: 2010.05.17/outbox.cif.g08.bks.cpg/sg35_10_cif.got.tgz:18174.got - 2010.06.03 17:29:28.
