data_PCOD9348207
_publ_section_title
;
Structure prediction by ZEFSAII (Michael W. Deem and Ramdas Pophale) SiO2 
 PCOD9348207
Probable space group: C M M 2
;
_chemical_formula_sum "Si O2"
_cell_formula_units_Z 64
_cell_length_a 8.830671
_cell_length_b 29.845269
_cell_length_c 12.777398
_cell_angle_alpha 90.000000
_cell_angle_beta 90.000000
_cell_angle_gamma 90.000000
_cell_volume 3367.531177
_symmetry_space_group_name_H-M "C M M 2"
_symmetry_group_IT_number 35
_symmetry_cell_setting 'orthorhombic'
loop_
_space_group_symop_operation_xyz
x,y,z
-x,-y,z
-x,y,z
x,-y,z
1/2+x,1/2+y,z
1/2-x,1/2-y,z
1/2-x,1/2+y,z
1/2+x,1/2-y,z
loop_
_atom_site_type_symbol
_atom_site_label
_atom_site_fract_x
_atom_site_fract_y
_atom_site_fract_z
Si Si1 0.180416 0.886340 0.411400
Si Si2 0.318188 0.395095 0.813113
Si Si3 0.826858 0.420304 0.025260
Si Si4 0.184900 0.948089 0.606713
Si Si5 0.174302 0.683389 0.089643
Si Si6 0.818456 0.297401 0.329549
Si Si7 0.818875 0.450370 0.244463
Si Si8 0.679877 0.704056 0.871877
O O1 0.230803 0.916860 0.509372
O O2 0.257049 0.838098 0.399175
O O3 0.227903 0.914246 0.309312
O O4 0.000000 0.880810 0.416911
O O5 0.500000 0.393426 0.809320
O O6 0.265446 0.423149 0.712936
O O7 0.265112 0.343026 0.820897
O O8 0.268451 0.418995 0.920104
O O9 0.827072 0.370034 0.072825
O O10 0.773978 0.449491 0.122771
O O11 0.000000 0.432409 0.999245
O O12 0.000000 0.949101 0.606709
O O13 0.235193 0.000000 0.599799
O O14 0.225782 0.694593 0.206990
O O15 0.000000 0.699291 0.076773
O O16 0.275051 0.701169 0.994586
O O17 0.750000 0.250000 0.362395
O O18 0.000000 0.296837 0.332698
O O19 0.794411 0.500000 0.288373
O O20 0.000000 0.440474 0.248313
O O21 0.500000 0.705995 0.861890
O O22 0.750000 0.750000 0.828879
#
# Coordination Sequence:
#
# PCOD9348207 Si02
#       8
#     8   8   8   8   8   8   8   8
#     4  11  22  37  59  84 112 146 190 241 286 336
#     4   9  19  35  55  80 108 141 182 232 282 333
#     4   9  17  32  51  77 113 150 181 220 277 337
#     4   9  19  38  62  84 108 142 186 237 291 339
#     4   9  17  31  51  74 107 148 185 221 264 321
#     4  11  22  37  56  82 115 152 191 230 282 338
#     4  10  20  35  55  80 114 153 186 226 287 349
#     4  10  19  30  48  76 109 144 183 222 267 324
#
# _framework density 19.005020999999999
#
# number of rings (size 3 to 8) (size 9 to 14) (size 15 to 20)
#    0.000    2.250    1.250    1.875    0.000    4.250 
#    0.000    1.875    0.000    3.000    0.000    0.000 
#    0.000    0.000    0.000    0.000    0.000    0.000 
#
# Total GULP energy -178515.897905 kJ/mol
# GULP energy per Si atom -5578.621810 kJ/mol
# Density = 1.896176 g / cm^3
# Si number density = 19.005021 Si / 1000 Ang^3
#
#
#
# Elastic Constant Matrix: (Units=GPa)
#
#
# Indices 1 2 3 4 5 6 
#
# 1 27.0109 36.6004 21.5329 0.0000 0.0000 0.0000
# 2 36.6004 143.9952 72.2823 0.0000 0.0000 0.0000
# 3 21.5329 72.2823 99.4287 0.0000 0.0000 0.0000
# 4 0.0000 0.0000 0.0000 17.7577 0.0000 0.0000
# 5 0.0000 0.0000 0.0000 0.0000 24.5658 0.0000
# 6 0.0000 0.0000 0.0000 0.0000 0.0000 14.8677
#
#
#
# Elastic Compliance Matrix: (Units=1/GPa)
#
#
# Indices 1 2 3 4 5 6 
#
# 1 0.056981 -0.013052 -0.002852 0.000000 0.000000 0.000000
# 2 -0.013052 0.013925 -0.007296 0.000000 0.000000 0.000000
# 3 -0.002852 -0.007296 0.015979 0.000000 0.000000 0.000000
# 4 0.000000 0.000000 0.000000 0.056314 0.000000 0.000000
# 5 0.000000 0.000000 0.000000 0.000000 0.040707 0.000000
# 6 0.000000 0.000000 0.000000 0.000000 0.000000 0.067260
#
#
# Mechanical properties :
#
#
# Convention : Reuss Voigt Hill
#
# Bulk Modulus (GPa) = 24.70038 59.02956 41.86497
# Shear Modulus (GPa) = 16.07402 20.77285 18.42343
#
# Velocity S-wave (km/s) = 2.91138 3.30967 3.11689
# Velocity P-wave (km/s) = 4.93219 6.76259 5.91858
#
# Compressibility (1/GPa) = 0.04048521
#
# Stress axis : x y z
#
# Youngs Moduli (GPa) = 17.54966 71.81435 62.58064
#
# Poissons Ratio (x) = 0.93731 0.17847
# Poissons Ratio (y) = 0.22905 0.45661
# Poissons Ratio (z) = 0.05005 0.52399
#
# Static dielectric constant tensor:
#      x y z
#    x 1.650120 0.000000 0.000000 
#    y 0.000000 1.696520 0.000000 
#    z 0.000000 0.000000 1.648060 
# 
# From -- ./inp_files/11922.got.cif
#   From: 2010.05.17/outbox.cif.g08.bks.cpg/sg35_6_cif.got.tgz:11922.got - 2010.06.03 17:29:28.
