data_PCOD9348430
_publ_section_title
;
Structure prediction by ZEFSAII (Michael W. Deem and Ramdas Pophale) SiO2 
 PCOD9348430
Probable space group: C M M 2
;
_chemical_formula_sum "Si O2"
_cell_formula_units_Z 64
_cell_length_a 21.870812
_cell_length_b 15.255752
_cell_length_c 9.872052
_cell_angle_alpha 90.000000
_cell_angle_beta 90.000000
_cell_angle_gamma 90.000000
_cell_volume 3293.866262
_symmetry_space_group_name_H-M "C M M 2"
_symmetry_group_IT_number 35
_symmetry_cell_setting 'orthorhombic'
loop_
_space_group_symop_operation_xyz
x,y,z
-x,-y,z
-x,y,z
x,-y,z
1/2+x,1/2+y,z
1/2-x,1/2-y,z
1/2-x,1/2+y,z
1/2+x,1/2-y,z
loop_
_atom_site_type_symbol
_atom_site_label
_atom_site_fract_x
_atom_site_fract_y
_atom_site_fract_z
Si Si1 0.126863 0.352985 0.947560
Si Si2 0.313579 0.694350 0.799202
Si Si3 0.253770 0.847934 0.320877
Si Si4 0.570035 0.239087 0.469806
Si Si5 0.393644 0.104099 0.247460
Si Si6 0.262368 0.597475 0.039210
Si Si7 0.346891 0.399561 0.517966
Si Si8 0.426599 0.093863 0.672009
O O1 0.139893 0.259464 0.876961
O O2 0.193653 0.391177 0.983802
O O3 0.092591 0.402873 0.827936
O O4 0.095805 0.362064 0.093831
O O5 0.250000 0.750000 0.779952
O O6 0.302245 0.620355 0.911240
O O7 0.332351 0.646106 0.662047
O O8 0.250000 0.750000 0.377898
O O9 0.322145 0.882405 0.292122
O O10 0.213539 0.902357 0.424742
O O11 0.225088 0.843199 0.169653
O O12 0.500000 0.261887 0.501960
O O13 0.571694 0.170446 0.346335
O O14 0.607477 0.328346 0.449728
O O15 0.597269 0.178327 0.591155
O O16 0.408046 0.000000 0.256476
O O17 0.270677 0.500000 0.090203
O O18 0.369403 0.500000 0.532878
O O19 0.500000 0.096407 0.660879
O O20 0.405354 0.000000 0.613318
#
# Coordination Sequence:
#
# PCOD9348430 Si02
#       8
#     8   8   8   8   8   8   8   8
#     4  10  19  36  56  86 122 154 190 229 287 358
#     4  10  21  35  55  86 122 158 185 236 293 357
#     4  11  20  37  59  89 125 157 192 238 298 362
#     4  11  25  43  60  84 118 159 206 256 303 347
#     4  11  22  37  62  94 128 161 193 237 298 371
#     4  10  19  32  53  86 122 155 189 229 284 358
#     4  12  24  40  62  88 117 157 207 254 297 349
#     4  10  20  36  59  85 115 152 195 242 295 354
#
# _framework density 19.430054999999999
#
# number of rings (size 3 to 8) (size 9 to 14) (size 15 to 20)
#    0.000    1.375    2.500    6.000    0.000    1.500 
#    0.000    2.500    0.000    0.000    0.000    0.000 
#    0.000    0.000    0.000    0.000    0.000    0.000 
#
# Total GULP energy -178379.221935 kJ/mol
# GULP energy per Si atom -5574.350685 kJ/mol
# Density = 1.938583 g / cm^3
# Si number density = 19.430055 Si / 1000 Ang^3
#
#
#
# Elastic Constant Matrix: (Units=GPa)
#
#
# Indices 1 2 3 4 5 6 
#
# 1 19.4727 17.8506 6.2907 0.0000 0.0000 0.0000
# 2 17.8506 137.2515 36.0018 0.0000 0.0000 0.0000
# 3 6.2907 36.0018 95.9062 0.0000 0.0000 0.0000
# 4 0.0000 0.0000 0.0000 61.9009 0.0000 0.0000
# 5 0.0000 0.0000 0.0000 0.0000 16.9796 0.0000
# 6 0.0000 0.0000 0.0000 0.0000 0.0000 8.6759
#
#
#
# Elastic Compliance Matrix: (Units=1/GPa)
#
#
# Indices 1 2 3 4 5 6 
#
# 1 0.058407 -0.007311 -0.001087 0.000000 0.000000 0.000000
# 2 -0.007311 0.008997 -0.002898 0.000000 0.000000 0.000000
# 3 -0.001087 -0.002898 0.011586 0.000000 0.000000 0.000000
# 4 0.000000 0.000000 0.000000 0.016155 0.000000 0.000000
# 5 0.000000 0.000000 0.000000 0.000000 0.058894 0.000000
# 6 0.000000 0.000000 0.000000 0.000000 0.000000 0.115262
#
#
# Mechanical properties :
#
#
# Convention : Reuss Voigt Hill
#
# Bulk Modulus (GPa) = 17.73084 41.43519 29.58302
# Shear Modulus (GPa) = 16.09313 30.34376 23.21844
#
# Velocity S-wave (km/s) = 2.88107 3.95611 3.46059
# Velocity P-wave (km/s) = 4.49586 6.49918 5.58803
#
# Compressibility (1/GPa) = 0.05639891
#
# Stress axis : x y z
#
# Youngs Moduli (GPa) = 17.12117 111.14974 86.31192
#
# Poissons Ratio (x) = 0.81265 0.09378
# Poissons Ratio (y) = 0.12518 0.25011
# Poissons Ratio (z) = 0.01860 0.32208
#
# Static dielectric constant tensor:
#      x y z
#    x 1.685460 0.000000 0.000000 
#    y 0.000000 1.707670 0.000000 
#    z 0.000000 0.000000 1.693690 
# 
# From -- ./inp_files/7822.got.cif
#   From: 2010.05.17/outbox.cif.g08.bks.cpg/sg35_4_cif.got.tgz:7822.got - 2010.06.03 17:29:28.
