data_PCOD9348975
_publ_section_title
;
Structure prediction by ZEFSAII (Michael W. Deem and Ramdas Pophale) SiO2 
 PCOD9348975
Probable space group: C M M 2
;
_chemical_formula_sum "Si O2"
_cell_formula_units_Z 64
_cell_length_a 7.743211
_cell_length_b 18.784319
_cell_length_c 21.499578
_cell_angle_alpha 90.000000
_cell_angle_beta 90.000000
_cell_angle_gamma 90.000000
_cell_volume 3127.133948
_symmetry_space_group_name_H-M "C M M 2"
_symmetry_group_IT_number 35
_symmetry_cell_setting 'orthorhombic'
loop_
_space_group_symop_operation_xyz
x,y,z
-x,-y,z
-x,y,z
x,-y,z
1/2+x,1/2+y,z
1/2-x,1/2-y,z
1/2-x,1/2+y,z
1/2+x,1/2-y,z
loop_
_atom_site_type_symbol
_atom_site_label
_atom_site_fract_x
_atom_site_fract_y
_atom_site_fract_z
Si Si1 0.707943 0.166739 0.265820
Si Si2 0.793512 0.419112 0.385890
Si Si3 0.707892 0.166816 0.022777
Si Si4 0.292533 0.581809 0.628939
Si Si5 0.207876 0.667180 0.884906
Si Si6 0.705572 0.332951 0.509691
Si Si7 0.288389 0.082201 0.143630
Si Si8 0.292037 0.081243 0.766104
O O1 0.500000 0.161253 0.265932
O O2 0.750000 0.250000 0.267026
O O3 0.773913 0.125479 0.326896
O O4 0.769203 0.127971 0.203057
O O5 0.725298 0.500000 0.388501
O O6 0.762843 0.376585 0.449289
O O7 0.000000 0.424131 0.378010
O O8 0.500000 0.160848 0.021818
O O9 0.750000 0.250000 0.032733
O O10 0.770876 0.119061 0.079745
O O11 0.771812 0.145715 0.953784
O O12 0.500000 0.578713 0.624124
O O13 0.227382 0.500000 0.624269
O O14 0.225491 0.630056 0.572640
O O15 0.251506 0.610254 0.697773
O O16 0.250000 0.750000 0.877315
O O17 0.274329 0.624134 0.825556
O O18 0.000000 0.659423 0.885784
O O19 0.500000 0.337942 0.511754
O O20 0.750000 0.250000 0.505525
O O21 0.500000 0.083011 0.143403
O O22 0.235562 0.000000 0.148221
O O23 0.500000 0.079627 0.770057
O O24 0.227754 0.000000 0.768154
#
# Coordination Sequence:
#
# PCOD9348975 Si02
#       8
#     8   8   8   8   8   8   8   8
#     4  10  20  34  53  77 105 136 170 209 251 297
#     4  10  21  37  57  80 106 137 172 211 256 305
#     4   9  17  30  49  71  96 129 166 204 247 295
#     4   9  19  36  55  74  98 130 167 206 250 301
#     4   9  18  31  47  70  99 129 163 203 247 295
#     4  11  23  38  56  79 107 137 171 212 256 303
#     4   9  17  30  50  75 100 129 168 210 250 294
#     4   9  18  32  50  72  98 128 163 205 250 295
#
# _framework density 20.466023
#
# number of rings (size 3 to 8) (size 9 to 14) (size 15 to 20)
#    0.000    2.500    0.000    1.875    0.000    6.250 
#    0.000    6.250    0.000    2.250    0.000    3.500 
#    0.000    0.000    0.000    0.000    0.000    0.000 
#
# Total GULP energy -178628.821018 kJ/mol
# GULP energy per Si atom -5582.150657 kJ/mol
# Density = 2.041944 g / cm^3
# Si number density = 20.466023 Si / 1000 Ang^3
#
#
#
# Elastic Constant Matrix: (Units=GPa)
#
#
# Indices 1 2 3 4 5 6 
#
# 1 31.2923 2.1654 7.1453 0.0000 0.0000 0.0000
# 2 2.1654 155.3830 136.8059 0.0000 0.0000 0.0000
# 3 7.1453 136.8059 245.9185 0.0000 0.0000 0.0000
# 4 0.0000 0.0000 0.0000 49.5071 0.0000 0.0000
# 5 0.0000 0.0000 0.0000 0.0000 52.0908 0.0000
# 6 0.0000 0.0000 0.0000 0.0000 0.0000 19.8703
#
#
#
# Elastic Compliance Matrix: (Units=1/GPa)
#
#
# Indices 1 2 3 4 5 6 
#
# 1 0.032213 0.000735 -0.001345 0.000000 0.000000 0.000000
# 2 0.000735 0.012631 -0.007048 0.000000 0.000000 0.000000
# 3 -0.001345 -0.007048 0.008026 0.000000 0.000000 0.000000
# 4 0.000000 0.000000 0.000000 0.020199 0.000000 0.000000
# 5 0.000000 0.000000 0.000000 0.000000 0.019197 0.000000
# 6 0.000000 0.000000 0.000000 0.000000 0.000000 0.050326
#
#
# Mechanical properties :
#
#
# Convention : Reuss Voigt Hill
#
# Bulk Modulus (GPa) = 26.62781 80.53633 53.58207
# Shear Modulus (GPa) = 29.33817 43.39211 36.36514
#
# Velocity S-wave (km/s) = 3.79027 4.60956 4.21985
# Velocity P-wave (km/s) = 5.67397 8.23210 7.06970
#
# Compressibility (1/GPa) = 0.03755473
#
# Stress axis : x y z
#
# Youngs Moduli (GPa) = 31.04337 79.17176 124.59084
#
# Poissons Ratio (x) = -0.05821 0.16758
# Poissons Ratio (y) = -0.02283 0.87811
# Poissons Ratio (z) = 0.04175 0.55800
#
# Static dielectric constant tensor:
#      x y z
#    x 1.754410 0.000000 0.000000 
#    y 0.000000 1.677810 0.000000 
#    z 0.000000 0.000000 1.733670 
# 
# From -- ./inp_files/18687.got.cif
#   From: 2010.05.17/outbox.cif.g08.bks.cpg/sg35_10_cif.got.tgz:18687.got - 2010.06.03 17:29:28.
