data_PCOD9348272
_publ_section_title
;
Structure prediction by ZEFSAII (Michael W. Deem and Ramdas Pophale) SiO2 
 PCOD9348272
Probable space group: C M M 2
;
_chemical_formula_sum "Si O2"
_cell_formula_units_Z 48
_cell_length_a 7.733291
_cell_length_b 24.587889
_cell_length_c 10.095406
_cell_angle_alpha 90.000000
_cell_angle_beta 90.000000
_cell_angle_gamma 90.000000
_cell_volume 1919.594010
_symmetry_space_group_name_H-M "C M M 2"
_symmetry_group_IT_number 35
_symmetry_cell_setting 'orthorhombic'
loop_
_space_group_symop_operation_xyz
x,y,z
-x,-y,z
-x,y,z
x,-y,z
1/2+x,1/2+y,z
1/2-x,1/2-y,z
1/2-x,1/2+y,z
1/2+x,1/2-y,z
loop_
_atom_site_type_symbol
_atom_site_label
_atom_site_fract_x
_atom_site_fract_y
_atom_site_fract_z
Si Si1 0.798087 0.830274 0.732110
Si Si2 0.703589 0.194109 0.025968
Si Si3 0.707710 0.080605 0.120045
Si Si4 0.789626 0.560975 0.415065
Si Si5 0.204235 0.056068 0.822384
Si Si6 0.309138 0.188654 0.455718
O O1 0.789346 0.807453 0.881005
O O2 0.724201 0.890950 0.753998
O O3 0.691463 0.804313 0.615145
O O4 0.000000 0.829900 0.693043
O O5 0.500000 0.189565 0.003188
O O6 0.750000 0.250000 0.092541
O O7 0.758417 0.143788 0.114158
O O8 0.500000 0.074923 0.112347
O O9 0.759862 0.057521 0.259861
O O10 0.777323 0.059122 0.980823
O O11 0.733588 0.500000 0.470863
O O12 0.733206 0.625006 0.447380
O O13 0.000000 0.561601 0.429028
O O14 0.000000 0.056709 0.793914
O O15 0.284143 0.000000 0.776893
O O16 0.500000 0.182297 0.396897
O O17 0.250000 0.250000 0.409726
#
# Coordination Sequence:
#
# PCOD9348272 Si02
#       6
#     8   8   8   8   8   8
#     4  10  20  35  54  76 106 143 181 223 272 326
#     4  10  19  31  50  78 109 140 176 218 266 322
#     4   9  18  33  54  79 106 139 179 220 265 321
#     4   9  19  37  60  84 110 143 185 232 278 323
#     4   9  18  32  51  78 111 143 174 215 271 329
#     4  11  23  39  59  82 110 145 186 232 279 328
#
# _framework density 25.005289999999999
#
# number of rings (size 3 to 8) (size 9 to 14) (size 15 to 20)
#    0.000    2.333    0.000    2.500    0.000    3.667 
#    0.000    1.667    0.000    3.500    0.000    0.000 
#    0.000    0.000    0.000    0.000    0.000    0.000 
#
# Total GULP energy -133671.438507 kJ/mol
# GULP energy per Si atom -5569.643271 kJ/mol
# Density = 2.494838 g / cm^3
# Si number density = 25.005290 Si / 1000 Ang^3
#
#
#
# Elastic Constant Matrix: (Units=GPa)
#
#
# Indices 1 2 3 4 5 6 
#
# 1 49.5928 11.0273 -2.2765 0.0000 0.0000 0.0000
# 2 11.0273 251.8013 22.8609 0.0000 0.0000 0.0000
# 3 -2.2765 22.8609 84.6206 0.0000 0.0000 0.0000
# 4 0.0000 0.0000 0.0000 -11.7344 0.0000 0.0000
# 5 0.0000 0.0000 0.0000 0.0000 2.4837 0.0000
# 6 0.0000 0.0000 0.0000 0.0000 0.0000 29.7163
#
#
#
# Elastic Compliance Matrix: (Units=1/GPa)
#
#
# Indices 1 2 3 4 5 6 
#
# 1 0.020417 -0.000968 0.000811 0.000000 0.000000 0.000000
# 2 -0.000968 0.004117 -0.001138 0.000000 0.000000 0.000000
# 3 0.000811 -0.001138 0.012147 0.000000 0.000000 0.000000
# 4 0.000000 0.000000 0.000000 -0.085220 0.000000 0.000000
# 5 0.000000 0.000000 0.000000 0.000000 0.402629 0.000000
# 6 0.000000 0.000000 0.000000 0.000000 0.000000 0.033652
#
#
# Mechanical properties :
#
#
# Convention : Reuss Voigt Hill
#
# Bulk Modulus (GPa) = 29.33425 49.91533 39.62479
# Shear Modulus (GPa) = 12.44726 27.71999 20.08363
#
# Velocity S-wave (km/s) = 2.23353 3.33312 2.83711
# Velocity P-wave (km/s) = 4.29048 5.90069 5.15880
#
# Compressibility (1/GPa) = 0.03408984
#
# Stress axis : x y z
#
# Youngs Moduli (GPa) = 48.97975 242.88881 82.32637
#
# Poissons Ratio (x) = 0.23505 -0.06674
# Poissons Ratio (y) = 0.04740 0.09371
# Poissons Ratio (z) = -0.03971 0.27648
#
# Static dielectric constant tensor:
#      x y z
#    x 1.979800 0.000000 0.000000 
#    y 0.000000 2.159560 0.000000 
#    z 0.000000 0.000000 1.923880 
# 
# From -- ./inp_files/11389.got.cif
#   From: 2010.05.17/outbox.cif.g08.bks.cpg/sg35_6_cif.got.tgz:11389.got - 2010.06.03 17:29:28.
