data_PCOD9348527
_publ_section_title
;
Structure prediction by ZEFSAII (Michael W. Deem and Ramdas Pophale) SiO2 
 PCOD9348527
Probable space group: C M M 2
;
_chemical_formula_sum "Si O2"
_cell_formula_units_Z 64
_cell_length_a 32.845571
_cell_length_b 16.352469
_cell_length_c 5.211434
_cell_angle_alpha 90.000000
_cell_angle_beta 90.000000
_cell_angle_gamma 90.000000
_cell_volume 2799.093416
_symmetry_space_group_name_H-M "C M M 2"
_symmetry_group_IT_number 35
_symmetry_cell_setting 'orthorhombic'
loop_
_space_group_symop_operation_xyz
x,y,z
-x,-y,z
-x,y,z
x,-y,z
1/2+x,1/2+y,z
1/2-x,1/2-y,z
1/2-x,1/2+y,z
1/2+x,1/2-y,z
loop_
_atom_site_type_symbol
_atom_site_label
_atom_site_fract_x
_atom_site_fract_y
_atom_site_fract_z
Si Si1 0.455590 0.743932 0.941170
Si Si2 0.581752 0.909256 0.928156
Si Si3 0.787319 0.400807 0.177240
Si Si4 0.384051 0.689695 0.308715
Si Si5 0.576106 0.410891 0.687674
Si Si6 0.743105 0.400987 0.671744
Si Si7 0.663415 0.407712 0.972170
Si Si8 0.872590 0.638364 0.446163
O O1 0.500000 0.740173 0.066861
O O2 0.448226 0.835872 0.843273
O O3 0.451770 0.666760 0.750885
O O4 0.416850 0.728542 0.118908
O O5 0.618428 0.903980 0.718317
O O6 0.564152 0.000000 0.913394
O O7 0.596820 0.893914 0.221429
O O8 0.788054 0.500000 0.163909
O O9 0.774583 0.371733 0.893317
O O10 0.829520 0.375186 0.308067
O O11 0.753794 0.373725 0.386575
O O12 0.406085 0.608431 0.409055
O O13 0.342215 0.660679 0.185893
O O14 0.377030 0.764303 0.501717
O O15 0.557026 0.500000 0.712699
O O16 0.618310 0.410076 0.848480
O O17 0.746362 0.500000 0.665766
O O18 0.697774 0.383976 0.770371
O O19 0.673064 0.500000 0.067437
#
# Coordination Sequence:
#
# PCOD9348527 Si02
#       8
#     8   8   8   8   8   8   8   8
#     4  10  23  42  61  91 131 161 197 259 320 378
#     4  11  22  40  66  96 125 169 217 255 308 377
#     4  10  19  33  54  83 117 158 205 258 315 365
#     4  10  21  38  61  87 120 164 208 258 316 375
#     4  10  20  38  64  91 118 163 214 257 312 377
#     4   9  19  33  53  84 119 157 206 259 314 365
#     4   9  19  35  59  85 116 161 214 266 309 372
#     4  11  22  39  63  90 128 167 213 267 311 369
#
# _framework density 22.864546000000001
#
# number of rings (size 3 to 8) (size 9 to 14) (size 15 to 20)
#    0.000    2.000    1.250    2.250    1.750    2.500 
#    0.000    0.625    0.000    1.500    0.000    0.000 
#    0.000    0.000    0.000    0.000    0.000    0.000 
#
# Total GULP energy -178409.872824 kJ/mol
# GULP energy per Si atom -5575.308526 kJ/mol
# Density = 2.281251 g / cm^3
# Si number density = 22.864546 Si / 1000 Ang^3
#
#
#
# Elastic Constant Matrix: (Units=GPa)
#
#
# Indices 1 2 3 4 5 6 
#
# 1 47.2657 16.9753 -16.5306 0.0000 0.0000 0.0000
# 2 16.9753 124.2782 6.2980 0.0000 0.0000 0.0000
# 3 -16.5306 6.2980 49.9188 0.0000 0.0000 0.0000
# 4 0.0000 0.0000 0.0000 20.7924 0.0000 0.0000
# 5 0.0000 0.0000 0.0000 0.0000 -0.3786 0.0000
# 6 0.0000 0.0000 0.0000 0.0000 0.0000 79.4412
#
#
#
# Elastic Compliance Matrix: (Units=1/GPa)
#
#
# Indices 1 2 3 4 5 6 
#
# 1 0.025740 -0.003973 0.009025 0.000000 0.000000 0.000000
# 2 -0.003973 0.008712 -0.002415 0.000000 0.000000 0.000000
# 3 0.009025 -0.002415 0.023326 0.000000 0.000000 0.000000
# 4 0.000000 0.000000 0.000000 0.048094 0.000000 0.000000
# 5 0.000000 0.000000 0.000000 0.000000 -2.640998 0.000000
# 6 0.000000 0.000000 0.000000 0.000000 0.000000 0.012588
#
#
# Mechanical properties :
#
#
# Convention : Reuss Voigt Hill
#
# Bulk Modulus (GPa) = 15.85988 26.10535 20.98261
# Shear Modulus (GPa) = -1.99458 34.28566 16.14554
#
# Velocity S-wave (km/s) = -0.93501 3.87655 2.66021
# Velocity P-wave (km/s) = 2.40538 5.61062 4.31653
#
# Compressibility (1/GPa) = 0.06305220
#
# Stress axis : x y z
#
# Youngs Moduli (GPa) = 38.84930 114.79002 42.87075
#
# Poissons Ratio (x) = 0.45610 -0.38692
# Poissons Ratio (y) = 0.15436 0.10353
# Poissons Ratio (z) = -0.35063 0.27720
#
# Static dielectric constant tensor:
#      x y z
#    x 1.857150 0.000000 0.000000 
#    y 0.000000 1.886890 0.000000 
#    z 0.000000 0.000000 1.922080 
# 
# From -- ./inp_files/4082.got.cif
#   From: 2010.05.17/outbox.cif.g08.bks.cpg/sg35_3_cif.got.tgz:4082.got - 2010.06.03 17:29:28.
