data_PCOD9348004
_publ_section_title
;
Structure prediction by ZEFSAII (Michael W. Deem and Ramdas Pophale) SiO2 
 PCOD9348004
Probable space group: P N N 2
;
_chemical_formula_sum "Si O2"
_cell_formula_units_Z 30
_cell_length_a 6.552902
_cell_length_b 17.467728
_cell_length_c 12.120985
_cell_angle_alpha 90.000000
_cell_angle_beta 90.000000
_cell_angle_gamma 90.000000
_cell_volume 1387.420181
_symmetry_space_group_name_H-M "P N N 2"
_symmetry_group_IT_number 34
_symmetry_cell_setting 'orthorhombic'
loop_
_space_group_symop_operation_xyz
x,y,z
-x,-y,z
1/2-x,1/2+y,1/2+z
1/2+x,1/2-y,1/2+z
loop_
_atom_site_type_symbol
_atom_site_label
_atom_site_fract_x
_atom_site_fract_y
_atom_site_fract_z
Si Si1 0.814675 0.951301 0.598490
Si Si2 0.975831 0.191077 0.531990
Si Si3 0.311862 0.302059 0.604752
Si Si4 0.500000 0.000000 0.426281
Si Si5 0.358407 0.063197 0.816408
Si Si6 0.746495 0.142980 0.330250
Si Si7 0.522939 0.306859 0.371923
Si Si8 0.360654 0.813698 0.703053
O O1 0.760706 0.981292 0.718969
O O2 0.887229 0.865237 0.604847
O O3 0.640471 0.953330 0.509955
O O4 0.000000 0.000000 0.552963
O O5 0.946910 0.159897 0.407515
O O6 0.754432 0.182483 0.586124
O O7 0.095403 0.269505 0.556066
O O8 0.272664 0.364598 0.698492
O O9 0.436398 0.318274 0.494550
O O10 0.460003 0.246899 0.678151
O O11 0.631864 0.065173 0.365882
O O12 0.192985 0.124822 0.861556
O O13 0.517382 0.114627 0.748635
O O14 0.500000 0.000000 0.879722
O O15 0.622660 0.222776 0.352384
O O16 0.327064 0.304349 0.289389
#
# Coordination Sequence:
#
# PCOD9348004 Si02
#       8
#     4   4   4   2   4   4   4   4
#     4  12  21  39  65 107 141 169 219 293 374 418
#     4  12  22  41  71 107 140 181 233 303 359 428
#     4  12  25  43  71 104 142 194 244 290 361 442
#     4  12  26  40  70 104 146 188 226 306 370 436
#     4  12  25  41  69 105 145 184 230 296 376 429
#     4  12  24  47  69 108 143 187 246 296 367 439
#     4  12  26  43  71 106 141 188 242 301 358 435
#     4  12  21  43  72 104 138 179 233 298 362 422
#
# _framework density 21.622864
#
# number of rings (size 3 to 8) (size 9 to 14) (size 15 to 20)
#    0.000    0.000    8.667    3.200    0.000    0.000 
#    0.000    0.000    1.467    4.800    0.000    0.000 
#    0.000    0.000    0.000    0.000    0.000    0.000 
#
# Total GULP energy -167091.084322 kJ/mol
# GULP energy per Si atom -5569.702811 kJ/mol
# Density = 2.157365 g / cm^3
# Si number density = 21.622864 Si / 1000 Ang^3
#
#
#
# Elastic Constant Matrix: (Units=GPa)
#
#
# Indices 1 2 3 4 5 6 
#
# 1 96.1259 30.7498 26.6216 0.0000 0.0000 0.0000
# 2 30.7498 56.9444 22.1565 0.0000 0.0000 0.0000
# 3 26.6216 22.1565 115.7692 0.0000 0.0000 0.0000
# 4 0.0000 0.0000 0.0000 11.1264 0.0000 0.0000
# 5 0.0000 0.0000 0.0000 0.0000 30.1893 0.0000
# 6 0.0000 0.0000 0.0000 0.0000 0.0000 33.3622
#
#
#
# Elastic Compliance Matrix: (Units=1/GPa)
#
#
# Indices 1 2 3 4 5 6 
#
# 1 0.012901 -0.006280 -0.001765 0.000000 0.000000 0.000000
# 2 -0.006280 0.022031 -0.002772 0.000000 0.000000 0.000000
# 3 -0.001765 -0.002772 0.009574 0.000000 0.000000 0.000000
# 4 0.000000 0.000000 0.000000 0.089877 0.000000 0.000000
# 5 0.000000 0.000000 0.000000 0.000000 0.033124 0.000000
# 6 0.000000 0.000000 0.000000 0.000000 0.000000 0.029974
#
#
# Mechanical properties :
#
#
# Convention : Reuss Voigt Hill
#
# Bulk Modulus (GPa) = 43.72126 47.54392 45.63259
# Shear Modulus (GPa) = 22.05190 27.55635 24.80413
#
# Velocity S-wave (km/s) = 3.19696 3.57376 3.39060
# Velocity P-wave (km/s) = 5.82162 6.25016 6.03969
#
# Compressibility (1/GPa) = 0.02287217
#
# Stress axis : x y z
#
# Youngs Moduli (GPa) = 77.51612 45.39129 104.44679
#
# Poissons Ratio (x) = 0.28504 0.18432
# Poissons Ratio (y) = 0.48677 0.28956
# Poissons Ratio (z) = 0.13679 0.12584
#
# Static dielectric constant tensor:
#      x y z
#    x 1.914850 0.000000 0.000000 
#    y 0.000000 1.853520 0.000000 
#    z 0.000000 0.000000 1.872670 
# 
# From -- ./inp_files/4515.got.cif
#   From: 2010.05.17/outbox.cif.g08.bks.cpg/sg34_3_cif.got.tgz:4515.got - 2010.06.03 17:23:11.
