data_PCOD9348264
_publ_section_title
;
Structure prediction by ZEFSAII (Michael W. Deem and Ramdas Pophale) SiO2 
 PCOD9348264
Probable space group: C M M 2
;
_chemical_formula_sum "Si O2"
_cell_formula_units_Z 56
_cell_length_a 7.936187
_cell_length_b 24.183271
_cell_length_c 16.131608
_cell_angle_alpha 90.000000
_cell_angle_beta 90.000000
_cell_angle_gamma 90.000000
_cell_volume 3096.025972
_symmetry_space_group_name_H-M "C M M 2"
_symmetry_group_IT_number 35
_symmetry_cell_setting 'orthorhombic'
loop_
_space_group_symop_operation_xyz
x,y,z
-x,-y,z
-x,y,z
x,-y,z
1/2+x,1/2+y,z
1/2-x,1/2-y,z
1/2-x,1/2+y,z
1/2+x,1/2-y,z
loop_
_atom_site_type_symbol
_atom_site_label
_atom_site_fract_x
_atom_site_fract_y
_atom_site_fract_z
Si Si1 0.201096 0.185534 0.381270
Si Si2 0.797254 0.185363 0.561906
Si Si3 0.200169 0.883674 0.899550
Si Si4 0.796796 0.500000 0.163036
Si Si5 0.704101 0.685297 0.743418
Si Si6 0.702417 0.881197 0.219022
Si Si7 0.201868 0.313868 0.058779
Si Si8 0.795405 0.000000 0.968797
O O1 0.250000 0.250000 0.368906
O O2 0.265516 0.165397 0.471960
O O3 0.256976 0.147642 0.305563
O O4 0.000000 0.184311 0.383937
O O5 0.750000 0.250000 0.561842
O O6 0.736640 0.165387 0.652058
O O7 0.000000 0.179650 0.562042
O O8 0.268600 0.852894 0.818035
O O9 0.266780 0.944248 0.923926
O O10 0.000000 0.890124 0.886550
O O11 0.227281 0.844466 0.978469
O O12 0.733810 0.556402 0.205405
O O13 0.000000 0.500000 0.169355
O O14 0.754839 0.500000 0.065386
O O15 0.500000 0.683413 0.743761
O O16 0.750000 0.750000 0.755029
O O17 0.500000 0.883052 0.212599
O O18 0.764191 0.843897 0.142235
O O19 0.250000 0.250000 0.059477
O O20 0.000000 0.318521 0.055700
O O21 0.000000 0.000000 0.967047
#
# Coordination Sequence:
#
# PCOD9348264 Si02
#       8
#     8   8   8   4   8   8   8   4
#     4  10  19  31  50  75 103 131 163 201 245 293
#     4   8  15  28  46  69  97 129 160 195 238 288
#     4  10  20  33  50  72  98 129 165 204 243 287
#     4  10  20  38  56  71  92 126 170 207 244 289
#     4   9  17  30  48  71 100 129 160 197 241 292
#     4  10  21  35  52  72  96 127 164 203 244 291
#     4  11  22  34  49  70  99 130 159 196 243 295
#     4  10  20  34  52  73  96 126 168 211 246 281
#
# _framework density 18.087703999999999
#
# number of rings (size 3 to 8) (size 9 to 14) (size 15 to 20)
#    0.000    2.286    1.429    1.714    0.000    5.143 
#    0.000    0.000    0.000    0.857    0.000    3.000 
#    0.000    0.000    0.000    0.000    0.000    0.000 
#
# Total GULP energy -156100.569624 kJ/mol
# GULP energy per Si atom -5575.020344 kJ/mol
# Density = 1.804654 g / cm^3
# Si number density = 18.087704 Si / 1000 Ang^3
#
#
#
# Elastic Constant Matrix: (Units=GPa)
#
#
# Indices 1 2 3 4 5 6 
#
# 1 13.1174 2.1609 -1.1800 0.0000 0.0000 0.0000
# 2 2.1609 141.4734 96.2939 0.0000 0.0000 0.0000
# 3 -1.1800 96.2939 203.1725 0.0000 0.0000 0.0000
# 4 0.0000 0.0000 0.0000 6.8043 0.0000 0.0000
# 5 0.0000 0.0000 0.0000 0.0000 59.9227 0.0000
# 6 0.0000 0.0000 0.0000 0.0000 0.0000 -1.2743
#
#
#
# Elastic Compliance Matrix: (Units=1/GPa)
#
#
# Indices 1 2 3 4 5 6 
#
# 1 0.076726 -0.002178 0.001478 0.000000 0.000000 0.000000
# 2 -0.002178 0.010496 -0.004987 0.000000 0.000000 0.000000
# 3 0.001478 -0.004987 0.007294 0.000000 0.000000 0.000000
# 4 0.000000 0.000000 0.000000 0.146966 0.000000 0.000000
# 5 0.000000 0.000000 0.000000 0.000000 0.016688 0.000000
# 6 0.000000 0.000000 0.000000 0.000000 0.000000 -0.784750
#
#
# Mechanical properties :
#
#
# Convention : Reuss Voigt Hill
#
# Bulk Modulus (GPa) = 12.02758 61.36811 36.69784
# Shear Modulus (GPa) = -10.25664 30.45644 10.09990
#
# Velocity S-wave (km/s) = -2.38387 4.10789 2.36558
# Velocity P-wave (km/s) = 0.95554 7.51674 5.27202
#
# Compressibility (1/GPa) = 0.08314223
#
# Stress axis : x y z
#
# Youngs Moduli (GPa) = 13.03332 95.27040 137.09300
#
# Poissons Ratio (x) = 0.20748 -0.20260
# Poissons Ratio (y) = 0.02838 0.68374
# Poissons Ratio (z) = -0.01926 0.47516
#
# Static dielectric constant tensor:
#      x y z
#    x 1.643360 0.000000 0.000000 
#    y 0.000000 1.598290 0.000000 
#    z 0.000000 0.000000 1.654190 
# 
# From -- ./inp_files/15669.got.cif
#   From: 2010.05.17/outbox.cif.g08.bks.cpg/sg35_8_cif.got.tgz:15669.got - 2010.06.03 17:29:28.
