data_PCOD9348704
_publ_section_title
;
Structure prediction by ZEFSAII (Michael W. Deem and Ramdas Pophale) SiO2 
 PCOD9348704
Probable space group: C M M 2
;
_chemical_formula_sum "Si O2"
_cell_formula_units_Z 64
_cell_length_a 30.229233
_cell_length_b 8.408010
_cell_length_c 12.664701
_cell_angle_alpha 90.000000
_cell_angle_beta 90.000000
_cell_angle_gamma 90.000000
_cell_volume 3218.957840
_symmetry_space_group_name_H-M "C M M 2"
_symmetry_group_IT_number 35
_symmetry_cell_setting 'orthorhombic'
loop_
_space_group_symop_operation_xyz
x,y,z
-x,-y,z
-x,y,z
x,-y,z
1/2+x,1/2+y,z
1/2-x,1/2-y,z
1/2-x,1/2+y,z
1/2+x,1/2-y,z
loop_
_atom_site_type_symbol
_atom_site_label
_atom_site_fract_x
_atom_site_fract_y
_atom_site_fract_z
Si Si1 0.548731 0.306828 0.323580
Si Si2 0.800463 0.809004 0.576890
Si Si3 0.951259 0.194925 0.854566
Si Si4 0.432538 0.684722 0.090006
Si Si5 0.170170 0.183021 0.148531
Si Si6 0.855042 0.689471 0.375997
Si Si7 0.139967 0.189081 0.770385
Si Si8 0.297067 0.184874 0.941839
O O1 0.500000 0.266098 0.367610
O O2 0.552260 0.500000 0.322040
O O3 0.550139 0.248641 0.201130
O O4 0.593389 0.244204 0.377882
O O5 0.750000 0.750000 0.579213
O O6 0.826598 0.756034 0.472539
O O7 0.829382 0.747343 0.676362
O O8 0.799184 0.000000 0.580757
O O9 0.909923 0.251093 0.784865
O O10 0.000000 0.239008 0.816124
O O11 0.949020 0.000000 0.857461
O O12 0.945752 0.251564 0.976301
O O13 0.446894 0.500000 0.088269
O O14 0.379800 0.687789 0.103194
O O15 0.166060 0.246367 0.266910
O O16 0.185248 0.000000 0.147925
O O17 0.198308 0.284318 0.066540
O O18 0.853726 0.500000 0.375914
O O19 0.165190 0.221484 0.879513
O O20 0.136716 0.000000 0.754182
O O21 0.250000 0.250000 0.905062
O O22 0.301252 0.000000 0.918561
#
# Coordination Sequence:
#
# PCOD9348704 Si02
#       8
#     8   8   8   8   8   8   8   8
#     4   9  17  31  54  86 122 163 208 248 290 345
#     4  11  24  43  66  88 112 148 201 256 309 365
#     4   9  15  26  51  87 121 154 194 237 283 336
#     4   8  13  24  48  80 116 153 193 237 279 329
#     4  10  19  36  59  84 119 157 196 241 294 351
#     4  11  23  39  60  88 122 155 197 248 308 367
#     4  10  21  39  61  88 121 155 198 250 298 349
#     4  12  24  37  57  86 120 157 196 239 298 364
#
# _framework density 19.882211000000002
#
# number of rings (size 3 to 8) (size 9 to 14) (size 15 to 20)
#    0.000    2.000    1.250    4.500    0.000    4.250 
#    0.000    3.125    0.000    2.625    0.000    0.000 
#    0.000    0.000    0.000    0.000    0.000    0.000 
#
# Total GULP energy -178560.320613 kJ/mol
# GULP energy per Si atom -5580.010019 kJ/mol
# Density = 1.983696 g / cm^3
# Si number density = 19.882211 Si / 1000 Ang^3
#
#
#
# Elastic Constant Matrix: (Units=GPa)
#
#
# Indices 1 2 3 4 5 6 
#
# 1 152.3573 10.8961 66.7617 0.0000 0.0000 0.0000
# 2 10.8961 26.0320 5.7048 0.0000 0.0000 0.0000
# 3 66.7617 5.7048 103.6509 0.0000 0.0000 0.0000
# 4 0.0000 0.0000 0.0000 12.3856 0.0000 0.0000
# 5 0.0000 0.0000 0.0000 0.0000 12.7005 0.0000
# 6 0.0000 0.0000 0.0000 0.0000 0.0000 17.4869
#
#
#
# Elastic Compliance Matrix: (Units=1/GPa)
#
#
# Indices 1 2 3 4 5 6 
#
# 1 0.009317 -0.002616 -0.005857 0.000000 0.000000 0.000000
# 2 -0.002616 0.039618 -0.000495 0.000000 0.000000 0.000000
# 3 -0.005857 -0.000495 0.013448 0.000000 0.000000 0.000000
# 4 0.000000 0.000000 0.000000 0.080739 0.000000 0.000000
# 5 0.000000 0.000000 0.000000 0.000000 0.078737 0.000000
# 6 0.000000 0.000000 0.000000 0.000000 0.000000 0.057186
#
#
# Mechanical properties :
#
#
# Convention : Reuss Voigt Hill
#
# Bulk Modulus (GPa) = 22.49966 49.86282 36.18124
# Shear Modulus (GPa) = 16.03606 21.75977 18.89791
#
# Velocity S-wave (km/s) = 2.84307 3.31181 3.08635
# Velocity P-wave (km/s) = 4.70302 6.30537 5.56220
#
# Compressibility (1/GPa) = 0.04444512
#
# Stress axis : x y z
#
# Youngs Moduli (GPa) = 107.32810 25.24107 74.36222
#
# Poissons Ratio (x) = 0.06604 0.43556
# Poissons Ratio (y) = 0.28080 0.03684
# Poissons Ratio (z) = 0.62865 0.01250
#
# Static dielectric constant tensor:
#      x y z
#    x 1.720250 0.000000 0.000000 
#    y 0.000000 1.693130 0.000000 
#    z 0.000000 0.000000 1.697750 
# 
# From -- ./inp_files/14589.got.cif
#   From: 2010.05.17/outbox.cif.g08.bks.cpg/sg35_8_cif.got.tgz:14589.got - 2010.06.03 17:29:28.
