data_PCOD9348432
_publ_section_title
;
Structure prediction by ZEFSAII (Michael W. Deem and Ramdas Pophale) SiO2 
 PCOD9348432
Probable space group: C M M 2
;
_chemical_formula_sum "Si O2"
_cell_formula_units_Z 64
_cell_length_a 26.508251
_cell_length_b 13.807430
_cell_length_c 9.599706
_cell_angle_alpha 90.000000
_cell_angle_beta 90.000000
_cell_angle_gamma 90.000000
_cell_volume 3513.596266
_symmetry_space_group_name_H-M "C M M 2"
_symmetry_group_IT_number 35
_symmetry_cell_setting 'orthorhombic'
loop_
_space_group_symop_operation_xyz
x,y,z
-x,-y,z
-x,y,z
x,-y,z
1/2+x,1/2+y,z
1/2-x,1/2-y,z
1/2-x,1/2+y,z
1/2+x,1/2-y,z
loop_
_atom_site_type_symbol
_atom_site_label
_atom_site_fract_x
_atom_site_fract_y
_atom_site_fract_z
Si Si1 0.873755 0.388053 0.920070
Si Si2 0.558318 0.706381 0.859864
Si Si3 0.356882 0.277660 0.405871
Si Si4 0.159634 0.888118 0.890770
Si Si5 0.329774 0.888297 0.608733
Si Si6 0.712871 0.384003 0.606107
Si Si7 0.691913 0.241328 0.116309
Si Si8 0.058163 0.887142 0.556659
O O1 0.887318 0.500000 0.950713
O O2 0.919685 0.310392 0.909490
O O3 0.851800 0.384223 0.763599
O O4 0.830877 0.349013 0.027240
O O5 0.500000 0.693796 0.901228
O O6 0.600451 0.631628 0.913986
O O7 0.560717 0.681105 0.694102
O O8 0.357505 0.180646 0.499496
O O9 0.310577 0.338836 0.468967
O O10 0.344957 0.254809 0.247152
O O11 0.405678 0.341763 0.441071
O O12 0.178841 0.853182 0.738756
O O13 0.171470 0.000000 0.899653
O O14 0.187859 0.828478 0.007073
O O15 0.271248 0.858256 0.620509
O O16 0.331676 0.000000 0.561576
O O17 0.709683 0.500000 0.599383
O O18 0.750000 0.250000 0.164399
O O19 0.000000 0.888679 0.512368
O O20 0.072605 0.000000 0.590616
#
# Coordination Sequence:
#
# PCOD9348432 Si02
#       8
#     8   8   8   8   8   8   8   8
#     4  10  21  40  60  82 113 151 197 242 288 342
#     4  10  19  34  60  91 115 142 184 241 297 341
#     4  12  21  36  55  81 118 150 191 236 283 340
#     4  10  20  36  56  82 115 150 191 235 281 344
#     4  10  20  34  55  80 106 143 193 245 287 331
#     4  10  19  32  54  80 108 147 191 238 288 338
#     4  11  24  37  54  83 119 161 194 233 283 341
#     4  10  20  36  60  88 117 148 183 231 294 354
#
# _framework density 18.214955
#
# number of rings (size 3 to 8) (size 9 to 14) (size 15 to 20)
#    0.000    1.625    2.500    3.375    0.000    4.000 
#    0.000    2.500    0.000    0.375    0.000    0.000 
#    0.000    0.000    0.000    0.000    0.000    0.000 
#
# Total GULP energy -178420.276814 kJ/mol
# GULP energy per Si atom -5575.633650 kJ/mol
# Density = 1.817350 g / cm^3
# Si number density = 18.214955 Si / 1000 Ang^3
#
#
#
# Elastic Constant Matrix: (Units=GPa)
#
#
# Indices 1 2 3 4 5 6 
#
# 1 56.2137 5.4893 -8.7398 0.0000 0.0000 0.0000
# 2 5.4893 92.9693 20.6934 0.0000 0.0000 0.0000
# 3 -8.7398 20.6934 54.6908 0.0000 0.0000 0.0000
# 4 0.0000 0.0000 0.0000 1.8520 0.0000 0.0000
# 5 0.0000 0.0000 0.0000 0.0000 22.5150 0.0000
# 6 0.0000 0.0000 0.0000 0.0000 0.0000 19.0249
#
#
#
# Elastic Compliance Matrix: (Units=1/GPa)
#
#
# Indices 1 2 3 4 5 6 
#
# 1 0.018550 -0.001916 0.003690 0.000000 0.000000 0.000000
# 2 -0.001916 0.011943 -0.004825 0.000000 0.000000 0.000000
# 3 0.003690 -0.004825 0.020700 0.000000 0.000000 0.000000
# 4 0.000000 0.000000 0.000000 0.539953 0.000000 0.000000
# 5 0.000000 0.000000 0.000000 0.000000 0.044415 0.000000
# 6 0.000000 0.000000 0.000000 0.000000 0.000000 0.052563
#
#
# Mechanical properties :
#
#
# Convention : Reuss Voigt Hill
#
# Bulk Modulus (GPa) = 22.17842 26.52883 24.35363
# Shear Modulus (GPa) = 7.04962 21.10711 14.07836
#
# Velocity S-wave (km/s) = 1.96943 3.40778 2.78313
# Velocity P-wave (km/s) = 4.16820 5.48451 4.87102
#
# Compressibility (1/GPa) = 0.04508887
#
# Stress axis : x y z
#
# Youngs Moduli (GPa) = 53.90825 83.72806 48.30928
#
# Poissons Ratio (x) = 0.16046 -0.17824
# Poissons Ratio (y) = 0.10331 0.23311
# Poissons Ratio (z) = -0.19890 0.40401
#
# Static dielectric constant tensor:
#      x y z
#    x 1.645300 0.000000 0.000000 
#    y 0.000000 1.656200 0.000000 
#    z 0.000000 0.000000 1.605210 
# 
# From -- ./inp_files/9906.got.cif
#   From: 2010.05.17/outbox.cif.g08.bks.cpg/sg35_5_cif.got.tgz:9906.got - 2010.06.03 17:29:28.
