data_PCOD9348829
_publ_section_title
;
Structure prediction by ZEFSAII (Michael W. Deem and Ramdas Pophale) SiO2 
 PCOD9348829
Probable space group: C M M 2
;
_chemical_formula_sum "Si O2"
_cell_formula_units_Z 56
_cell_length_a 9.016783
_cell_length_b 15.029732
_cell_length_c 18.876430
_cell_angle_alpha 90.000000
_cell_angle_beta 90.000000
_cell_angle_gamma 90.000000
_cell_volume 2558.130622
_symmetry_space_group_name_H-M "C M M 2"
_symmetry_group_IT_number 35
_symmetry_cell_setting 'orthorhombic'
loop_
_space_group_symop_operation_xyz
x,y,z
-x,-y,z
-x,y,z
x,-y,z
1/2+x,1/2+y,z
1/2-x,1/2-y,z
1/2-x,1/2+y,z
1/2+x,1/2-y,z
loop_
_atom_site_type_symbol
_atom_site_label
_atom_site_fract_x
_atom_site_fract_y
_atom_site_fract_z
Si Si1 0.176877 0.652456 0.608950
Si Si2 0.830640 0.890757 0.188915
Si Si3 0.323038 0.652400 0.469708
Si Si4 0.335521 0.894972 0.327983
Si Si5 0.327511 0.891193 0.889429
Si Si6 0.327619 0.108460 0.046177
Si Si7 0.335601 0.605135 0.750509
O O1 0.250000 0.750000 0.610792
O O2 0.250202 0.607960 0.539406
O O3 0.227008 0.613992 0.683973
O O4 0.000000 0.654852 0.601551
O O5 0.733541 0.859216 0.255387
O O6 0.765992 0.861574 0.113435
O O7 0.000000 0.862890 0.197711
O O8 0.828541 0.000000 0.189003
O O9 0.500000 0.654778 0.476802
O O10 0.250000 0.750000 0.467912
O O11 0.272172 0.613763 0.394866
O O12 0.500000 0.857236 0.343329
O O13 0.351804 0.000000 0.316444
O O14 0.500000 0.865857 0.881294
O O15 0.232172 0.858242 0.823283
O O16 0.324852 0.000000 0.888600
O O17 0.274897 0.863754 0.967869
O O18 0.500000 0.134017 0.054095
O O19 0.324351 0.000000 0.046645
O O20 0.500000 0.642593 0.734644
O O21 0.351376 0.500000 0.761826
#
# Coordination Sequence:
#
# PCOD9348829 Si02
#       7
#     8   8   8   8   8   8   8
#     4  11  22  38  58  77 100 130 167 207 249 299
#     4   9  16  25  39  63  95 129 165 205 249 294
#     4  11  22  38  58  78 102 130 165 206 249 299
#     4  10  20  34  52  75 104 136 170 208 252 299
#     4   8  14  25  41  63  93 129 167 205 247 294
#     4   8  13  22  37  58  88 127 166 202 243 292
#     4  10  20  33  50  75 106 136 168 208 253 298
#
# _framework density 21.890985000000001
#
# number of rings (size 3 to 8) (size 9 to 14) (size 15 to 20)
#    0.000    2.429    0.000    5.571    0.000    4.571 
#    0.000    2.857    0.000    0.000    0.000    1.000 
#    0.000    6.857    0.000    0.000    0.000    0.000 
#
# Total GULP energy -156294.613447 kJ/mol
# GULP energy per Si atom -5581.950480 kJ/mol
# Density = 2.184116 g / cm^3
# Si number density = 21.890985 Si / 1000 Ang^3
#
#
#
# Elastic Constant Matrix: (Units=GPa)
#
#
# Indices 1 2 3 4 5 6 
#
# 1 186.6212 8.4945 101.8331 0.0000 0.0000 0.0000
# 2 8.4945 34.2217 5.6752 0.0000 0.0000 0.0000
# 3 101.8331 5.6752 192.1277 0.0000 0.0000 0.0000
# 4 0.0000 0.0000 0.0000 22.8223 0.0000 0.0000
# 5 0.0000 0.0000 0.0000 0.0000 9.1484 0.0000
# 6 0.0000 0.0000 0.0000 0.0000 0.0000 12.1367
#
#
#
# Elastic Compliance Matrix: (Units=1/GPa)
#
#
# Indices 1 2 3 4 5 6 
#
# 1 0.007589 -0.001223 -0.003986 0.000000 0.000000 0.000000
# 2 -0.001223 0.029562 -0.000225 0.000000 0.000000 0.000000
# 3 -0.003986 -0.000225 0.007324 0.000000 0.000000 0.000000
# 4 0.000000 0.000000 0.000000 0.043817 0.000000 0.000000
# 5 0.000000 0.000000 0.000000 0.000000 0.109309 0.000000
# 6 0.000000 0.000000 0.000000 0.000000 0.000000 0.082395
#
#
# Mechanical properties :
#
#
# Convention : Reuss Voigt Hill
#
# Bulk Modulus (GPa) = 29.75548 71.66402 50.70975
# Shear Modulus (GPa) = 16.55260 28.61931 22.58595
#
# Velocity S-wave (km/s) = 2.75278 3.61966 3.21557
# Velocity P-wave (km/s) = 4.87091 7.09063 6.08288
#
# Compressibility (1/GPa) = 0.03360726
#
# Stress axis : x y z
#
# Youngs Moduli (GPa) = 131.76277 33.82709 136.52864
#
# Poissons Ratio (x) = 0.04136 0.54427
# Poissons Ratio (y) = 0.16111 0.03074
# Poissons Ratio (z) = 0.52527 0.00762
#
# Static dielectric constant tensor:
#      x y z
#    x 1.772450 0.000000 0.000000 
#    y 0.000000 1.895260 0.000000 
#    z 0.000000 0.000000 1.827230 
# 
# From -- ./inp_files/18192.got.cif
#   From: 2010.05.17/outbox.cif.g08.bks.cpg/sg35_10_cif.got.tgz:18192.got - 2010.06.03 17:29:28.
