data_PCOD9348505
_publ_section_title
;
Structure prediction by ZEFSAII (Michael W. Deem and Ramdas Pophale) SiO2 
 PCOD9348505
Probable space group: C M M 2
;
_chemical_formula_sum "Si O2"
_cell_formula_units_Z 64
_cell_length_a 8.643903
_cell_length_b 19.187607
_cell_length_c 21.516758
_cell_angle_alpha 90.000000
_cell_angle_beta 90.000000
_cell_angle_gamma 90.000000
_cell_volume 3568.679406
_symmetry_space_group_name_H-M "C M M 2"
_symmetry_group_IT_number 35
_symmetry_cell_setting 'orthorhombic'
loop_
_space_group_symop_operation_xyz
x,y,z
-x,-y,z
-x,y,z
x,-y,z
1/2+x,1/2+y,z
1/2-x,1/2-y,z
1/2-x,1/2+y,z
1/2+x,1/2-y,z
loop_
_atom_site_type_symbol
_atom_site_label
_atom_site_fract_x
_atom_site_fract_y
_atom_site_fract_z
Si Si1 0.686035 0.672203 0.717700
Si Si2 0.185881 0.671939 0.850792
Si Si3 0.186012 0.828935 0.082517
Si Si4 0.313610 0.419097 0.599644
Si Si5 0.686188 0.671487 0.218995
Si Si6 0.686945 0.080539 0.969541
Si Si7 0.815054 0.581164 0.467271
Si Si8 0.814148 0.828700 0.354704
O O1 0.500000 0.673988 0.720684
O O2 0.750000 0.750000 0.708720
O O3 0.750477 0.647482 0.784136
O O4 0.734094 0.624874 0.659624
O O5 0.250000 0.750000 0.861659
O O6 0.000000 0.675486 0.848078
O O7 0.232576 0.621230 0.906757
O O8 0.250000 0.750000 0.075809
O O9 0.232951 0.857061 0.151399
O O10 0.248520 0.877718 0.028339
O O11 0.000000 0.825815 0.079562
O O12 0.500000 0.416148 0.595312
O O13 0.268019 0.500000 0.607353
O O14 0.244365 0.393595 0.534460
O O15 0.500000 0.673375 0.218980
O O16 0.750000 0.750000 0.219258
O O17 0.733062 0.641718 0.286255
O O18 0.500000 0.081800 0.972348
O O19 0.737139 0.000000 0.968980
O O20 0.766751 0.500000 0.461301
O O21 0.748344 0.625486 0.410847
O O22 0.000000 0.584301 0.466216
O O23 0.750000 0.750000 0.359457
O O24 0.000000 0.826272 0.357356
#
# Coordination Sequence:
#
# PCOD9348505 Si02
#       8
#     8   8   8   8   8   8   8   8
#     4  10  20  34  54  79 105 131 163 207 254 302
#     4  10  20  35  55  76 101 134 170 208 251 303
#     4  10  19  33  55  80 104 134 173 214 257 308
#     4   9  19  36  55  74  99 134 173 210 252 303
#     4   8  16  30  49  75 103 131 167 210 256 306
#     4  10  22  38  53  74 106 140 174 214 259 305
#     4  10  21  36  53  75 104 138 177 217 255 303
#     4  10  19  33  54  78 105 136 170 213 262 309
#
# _framework density 17.933805
#
# number of rings (size 3 to 8) (size 9 to 14) (size 15 to 20)
#    0.000    2.375    0.000    3.000    0.000    6.000 
#    0.000    1.875    0.000    3.750    0.000    0.000 
#    0.000    0.000    0.000    0.000    0.000    0.000 
#
# Total GULP energy -178452.089467 kJ/mol
# GULP energy per Si atom -5576.627796 kJ/mol
# Density = 1.789299 g / cm^3
# Si number density = 17.933805 Si / 1000 Ang^3
#
#
#
# Elastic Constant Matrix: (Units=GPa)
#
#
# Indices 1 2 3 4 5 6 
#
# 1 30.4755 25.6777 48.0531 0.0000 0.0000 0.0000
# 2 25.6777 74.3420 99.0920 0.0000 0.0000 0.0000
# 3 48.0531 99.0920 232.6372 0.0000 0.0000 0.0000
# 4 0.0000 0.0000 0.0000 -49.6597 0.0000 0.0000
# 5 0.0000 0.0000 0.0000 0.0000 6.7957 0.0000
# 6 0.0000 0.0000 0.0000 0.0000 0.0000 21.7775
#
#
#
# Elastic Compliance Matrix: (Units=1/GPa)
#
#
# Indices 1 2 3 4 5 6 
#
# 1 0.050748 -0.008227 -0.006978 0.000000 0.000000 0.000000
# 2 -0.008227 0.032454 -0.012124 0.000000 0.000000 0.000000
# 3 -0.006978 -0.012124 0.010904 0.000000 0.000000 0.000000
# 4 0.000000 0.000000 0.000000 -0.020137 0.000000 0.000000
# 5 0.000000 0.000000 0.000000 0.000000 0.147151 0.000000
# 6 0.000000 0.000000 0.000000 0.000000 0.000000 0.045919
#
#
# Mechanical properties :
#
#
# Convention : Reuss Voigt Hill
#
# Bulk Modulus (GPa) = 25.35042 75.90003 50.62523
# Shear Modulus (GPa) = 14.93219 6.75816 10.84518
#
# Velocity S-wave (km/s) = 2.88866 1.94334 2.46180
# Velocity P-wave (km/s) = 5.02912 6.88837 6.03082
#
# Compressibility (1/GPa) = 0.03944707
#
# Stress axis : x y z
#
# Youngs Moduli (GPa) = 19.70517 30.81307 91.70708
#
# Poissons Ratio (x) = 0.25350 0.63994
# Poissons Ratio (y) = 0.16212 1.11189
# Poissons Ratio (z) = 0.13750 0.37359
#
# Static dielectric constant tensor:
#      x y z
#    x 1.610820 0.000000 0.000000 
#    y 0.000000 1.581120 0.000000 
#    z 0.000000 0.000000 1.633720 
# 
# From -- ./inp_files/18346.got.cif
#   From: 2010.05.17/outbox.cif.g08.bks.cpg/sg35_10_cif.got.tgz:18346.got - 2010.06.03 17:29:28.
