data_PCOD9348953
_publ_section_title
;
Structure prediction by ZEFSAII (Michael W. Deem and Ramdas Pophale) SiO2 
 PCOD9348953
Probable space group: C M M 2
;
_chemical_formula_sum "Si O2"
_cell_formula_units_Z 40
_cell_length_a 10.279296
_cell_length_b 22.235400
_cell_length_c 10.147120
_cell_angle_alpha 90.000000
_cell_angle_beta 90.000000
_cell_angle_gamma 90.000000
_cell_volume 2319.268956
_symmetry_space_group_name_H-M "C M M 2"
_symmetry_group_IT_number 35
_symmetry_cell_setting 'orthorhombic'
loop_
_space_group_symop_operation_xyz
x,y,z
-x,-y,z
-x,y,z
x,-y,z
1/2+x,1/2+y,z
1/2-x,1/2-y,z
1/2-x,1/2+y,z
1/2+x,1/2-y,z
loop_
_atom_site_type_symbol
_atom_site_label
_atom_site_fract_x
_atom_site_fract_y
_atom_site_fract_z
Si Si1 0.345138 0.134141 0.869930
Si Si2 0.346563 0.000000 0.870523
Si Si3 0.250000 0.750000 0.025940
Si Si4 0.500000 0.703000 0.490766
Si Si5 0.500000 0.253332 0.207878
Si Si6 0.648695 0.500000 0.627215
Si Si7 0.500000 0.164273 0.433668
Si Si8 0.744533 0.374699 0.568762
O O1 0.500000 0.145333 0.871790
O O2 0.324527 0.066718 0.931961
O O3 0.296340 0.130848 0.718701
O O4 0.275444 0.189840 0.940826
O O5 0.500000 0.000000 0.830716
O O6 0.250075 0.000000 0.747082
O O7 0.374048 0.740635 0.118966
O O8 0.500000 0.700926 0.331176
O O9 0.500000 0.774004 0.519499
O O10 0.368268 0.673716 0.543481
O O11 0.500000 0.188935 0.284417
O O12 0.500000 0.500000 0.674120
O O13 0.677892 0.439261 0.549908
O O14 0.632069 0.131590 0.473195
#
# Coordination Sequence:
#
# PCOD9348953 Si02
#       8
#     8   4   4   4   4   4   4   8
#     4  10  21  35  59  89 120 143 190 242 288 346
#     4   8  18  38  58  79 113 164 186 221 292 352
#     4  12  22  38  60  86 114 154 192 254 276 334
#     4  10  22  36  59  82 115 156 182 244 282 358
#     4  10  24  40  56  80 116 154 200 228 292 332
#     4  10  20  34  52  85 125 150 178 229 288 368
#     4  10  22  36  59  80 111 156 194 240 274 360
#     4  11  20  36  59  88 120 151 186 232 302 344
#
# _framework density 17.246815000000002
#
# number of rings (size 3 to 8) (size 9 to 14) (size 15 to 20)
#    0.600    1.200    3.000    1.800    4.200    0.800 
#    1.800    0.000    0.000    7.200    0.000    0.000 
#    0.000    0.000    0.000    0.000    0.000    0.000 
#
# Total GULP energy -111368.455317 kJ/mol
# GULP energy per Si atom -5568.422766 kJ/mol
# Density = 1.720756 g / cm^3
# Si number density = 17.246815 Si / 1000 Ang^3
#
#
#
# Elastic Constant Matrix: (Units=GPa)
#
#
# Indices 1 2 3 4 5 6 
#
# 1 107.2722 36.4284 29.4422 0.0000 0.0000 0.0000
# 2 36.4284 110.9388 32.2548 0.0000 0.0000 0.0000
# 3 29.4422 32.2548 60.2552 0.0000 0.0000 0.0000
# 4 0.0000 0.0000 0.0000 -1.0622 0.0000 0.0000
# 5 0.0000 0.0000 0.0000 0.0000 59.1275 0.0000
# 6 0.0000 0.0000 0.0000 0.0000 0.0000 39.4296
#
#
#
# Elastic Compliance Matrix: (Units=1/GPa)
#
#
# Indices 1 2 3 4 5 6 
#
# 1 0.011322 -0.002498 -0.004195 0.000000 0.000000 0.000000
# 2 -0.002498 0.011227 -0.004789 0.000000 0.000000 0.000000
# 3 -0.004195 -0.004789 0.021209 0.000000 0.000000 0.000000
# 4 0.000000 0.000000 0.000000 -0.941414 0.000000 0.000000
# 5 0.000000 0.000000 0.000000 0.000000 0.016913 0.000000
# 6 0.000000 0.000000 0.000000 0.000000 0.000000 0.025362
#
#
# Mechanical properties :
#
#
# Convention : Reuss Voigt Hill
#
# Bulk Modulus (GPa) = 48.09119 52.74635 50.41877
# Shear Modulus (GPa) = -6.05703 31.52169 12.73233
#
# Velocity S-wave (km/s) = -1.87606 4.27978 2.72001
# Velocity P-wave (km/s) = 4.82202 7.42103 6.25793
#
# Compressibility (1/GPa) = 0.02079383
#
# Stress axis : x y z
#
# Youngs Moduli (GPa) = 88.32587 89.07391 47.14896
#
# Poissons Ratio (x) = 0.22251 0.19778
# Poissons Ratio (y) = 0.22064 0.22580
# Poissons Ratio (z) = 0.37051 0.42658
#
# Static dielectric constant tensor:
#      x y z
#    x 1.541410 0.000000 0.000000 
#    y 0.000000 1.635890 0.000000 
#    z 0.000000 0.000000 1.566050 
# 
# From -- ./inp_files/11272.got.cif
#   From: 2010.05.17/outbox.cif.g08.bks.cpg/sg35_6_cif.got.tgz:11272.got - 2010.06.03 17:29:28.
