data_PCOD9348591
_publ_section_title
;
Structure prediction by ZEFSAII (Michael W. Deem and Ramdas Pophale) SiO2 
 PCOD9348591
Probable space group: C M M 2
;
_chemical_formula_sum "Si O2"
_cell_formula_units_Z 32
_cell_length_a 8.631476
_cell_length_b 14.566375
_cell_length_c 14.607118
_cell_angle_alpha 90.000000
_cell_angle_beta 90.000000
_cell_angle_gamma 90.000000
_cell_volume 1836.542958
_symmetry_space_group_name_H-M "C M M 2"
_symmetry_group_IT_number 35
_symmetry_cell_setting 'orthorhombic'
loop_
_space_group_symop_operation_xyz
x,y,z
-x,-y,z
-x,y,z
x,-y,z
1/2+x,1/2+y,z
1/2-x,1/2-y,z
1/2-x,1/2+y,z
1/2+x,1/2-y,z
loop_
_atom_site_type_symbol
_atom_site_label
_atom_site_fract_x
_atom_site_fract_y
_atom_site_fract_z
Si Si1 0.186661 0.500000 0.588050
Si Si2 0.686278 0.352665 0.233872
Si Si3 0.688522 0.000000 0.884238
Si Si4 0.186952 0.352109 0.736480
Si Si5 0.313346 0.000000 0.094579
Si Si6 0.686098 0.500000 0.384286
O O1 0.235398 0.411237 0.647532
O O2 0.247666 0.500000 0.485612
O O3 0.000000 0.500000 0.585883
O O4 0.500000 0.351639 0.229180
O O5 0.750000 0.250000 0.235607
O O6 0.750922 0.411317 0.148758
O O7 0.732311 0.411064 0.324226
O O8 0.736494 0.088958 0.825404
O O9 0.500000 0.000000 0.884702
O O10 0.739109 0.000000 0.989067
O O11 0.250000 0.250000 0.736213
O O12 0.000000 0.349483 0.736742
O O13 0.500000 0.000000 0.097480
O O14 0.500000 0.500000 0.389634
#
# Coordination Sequence:
#
# PCOD9348591 Si02
#       6
#     4   8   4   8   4   4
#     4   9  19  34  52  72 100 135 167 201 250 305
#     4  10  21  37  54  76 105 137 172 213 257 307
#     4   8  17  34  53  73 102 135 167 202 249 303
#     4   9  18  34  52  73 101 133 167 205 247 297
#     4  10  19  34  56  79 104 137 171 212 260 305
#     4   9  20  36  53  74 102 131 167 213 255 299
#
# _framework density 17.424040999999999
#
# number of rings (size 3 to 8) (size 9 to 14) (size 15 to 20)
#    0.000    2.750    0.000    3.375    0.000    6.000 
#    0.000   11.875    0.000    0.000    0.000    0.000 
#    0.000    0.000    0.000    0.000    0.000    0.000 
#
# Total GULP energy -89225.300909 kJ/mol
# GULP energy per Si atom -5576.581307 kJ/mol
# Density = 1.738438 g / cm^3
# Si number density = 17.424041 Si / 1000 Ang^3
#
#
#
# Elastic Constant Matrix: (Units=GPa)
#
#
# Indices 1 2 3 4 5 6 
#
# 1 32.2162 41.2865 39.7427 0.0000 0.0000 0.0000
# 2 41.2865 203.1156 113.4073 0.0000 0.0000 0.0000
# 3 39.7427 113.4073 204.1410 0.0000 0.0000 0.0000
# 4 0.0000 0.0000 0.0000 6.3082 0.0000 0.0000
# 5 0.0000 0.0000 0.0000 0.0000 24.6313 0.0000
# 6 0.0000 0.0000 0.0000 0.0000 0.0000 32.4169
#
#
#
# Elastic Compliance Matrix: (Units=1/GPa)
#
#
# Indices 1 2 3 4 5 6 
#
# 1 0.045775 -0.006275 -0.005426 0.000000 0.000000 0.000000
# 2 -0.006275 0.007997 -0.003221 0.000000 0.000000 0.000000
# 3 -0.005426 -0.003221 0.007744 0.000000 0.000000 0.000000
# 4 0.000000 0.000000 0.000000 0.158523 0.000000 0.000000
# 5 0.000000 0.000000 0.000000 0.000000 0.040599 0.000000
# 6 0.000000 0.000000 0.000000 0.000000 0.000000 0.030848
#
#
# Mechanical properties :
#
#
# Convention : Reuss Voigt Hill
#
# Bulk Modulus (GPa) = 31.57250 92.03845 61.80548
# Shear Modulus (GPa) = 15.06529 29.00704 22.03617
#
# Velocity S-wave (km/s) = 2.94364 4.08459 3.56012
# Velocity P-wave (km/s) = 5.45094 8.67078 7.24207
#
# Compressibility (1/GPa) = 0.03167313
#
# Stress axis : x y z
#
# Youngs Moduli (GPa) = 21.84578 125.04182 129.12790
#
# Poissons Ratio (x) = 0.78468 0.70059
# Poissons Ratio (y) = 0.13709 0.41593
# Poissons Ratio (z) = 0.11853 0.40277
#
# Static dielectric constant tensor:
#      x y z
#    x 1.593330 0.000000 0.000000 
#    y 0.000000 1.567420 0.000000 
#    z 0.000000 0.000000 1.582030 
# 
# From -- ./inp_files/14645.got.cif
#   From: 2010.05.17/outbox.cif.g08.bks.cpg/sg35_8_cif.got.tgz:14645.got - 2010.06.03 17:29:28.
