data_PCOD9348595
_publ_section_title
;
Structure prediction by ZEFSAII (Michael W. Deem and Ramdas Pophale) SiO2 
 PCOD9348595
Probable space group: C M M 2
;
_chemical_formula_sum "Si O2"
_cell_formula_units_Z 52
_cell_length_a 19.901945
_cell_length_b 7.436071
_cell_length_c 15.333455
_cell_angle_alpha 90.000000
_cell_angle_beta 90.000000
_cell_angle_gamma 90.000000
_cell_volume 2269.232905
_symmetry_space_group_name_H-M "C M M 2"
_symmetry_group_IT_number 35
_symmetry_cell_setting 'orthorhombic'
loop_
_space_group_symop_operation_xyz
x,y,z
-x,-y,z
-x,y,z
x,-y,z
1/2+x,1/2+y,z
1/2-x,1/2-y,z
1/2-x,1/2+y,z
1/2+x,1/2-y,z
loop_
_atom_site_type_symbol
_atom_site_label
_atom_site_fract_x
_atom_site_fract_y
_atom_site_fract_z
Si Si1 0.422172 0.712544 0.076520
Si Si2 0.500000 0.716768 0.833954
Si Si3 0.923995 0.283212 0.275178
Si Si4 0.855902 0.780547 0.908226
Si Si5 0.153860 0.288424 0.611774
Si Si6 0.822700 0.714191 0.419700
Si Si7 0.250000 0.250000 0.766570
Si Si8 0.000000 0.784080 0.637582
O O1 0.500000 0.783823 0.066265
O O2 0.428051 0.500000 0.058410
O O3 0.402575 0.737930 0.176924
O O4 0.363780 0.773259 0.009709
O O5 0.500000 0.500000 0.832393
O O6 0.569049 0.767007 0.877880
O O7 0.500000 0.781997 0.736334
O O8 0.924466 0.500000 0.280231
O O9 0.878181 0.215367 0.353499
O O10 0.000000 0.217957 0.285435
O O11 0.804094 0.690781 0.841614
O O12 0.844938 0.000000 0.899526
O O13 0.170900 0.500000 0.623205
O O14 0.176991 0.214322 0.518346
O O15 0.192328 0.196718 0.693499
O O16 0.072965 0.275069 0.604553
O O17 0.833091 0.500000 0.429080
O O18 0.750000 0.750000 0.380555
O O19 0.000000 0.000000 0.633732
#
# Coordination Sequence:
#
# PCOD9348595 Si02
#       8
#     8   4   8   8   8   8   4   4
#     4   9  17  33  60  87 112 147 194 243 291 341
#     4   9  16  31  57  80 103 142 194 239 279 335
#     4   9  19  37  61  86 115 150 192 240 296 351
#     4  10  19  34  56  82 112 151 195 237 287 349
#     4  11  24  40  60  88 121 156 198 251 302 352
#     4  10  22  40  62  86 118 160 195 237 294 355
#     4  12  22  36  58  84 122 162 196 240 294 360
#     4  11  23  39  63  86 111 154 204 251 297 355
#
# _framework density 22.915233000000001
#
# number of rings (size 3 to 8) (size 9 to 14) (size 15 to 20)
#    0.000    2.000    3.077    0.692    1.077    1.846 
#    1.385    1.538    0.000    0.000    0.000    0.000 
#    0.000    0.000    0.000    0.000    0.000    0.000 
#
# Total GULP energy -144738.131973 kJ/mol
# GULP energy per Si atom -5566.851230 kJ/mol
# Density = 2.286308 g / cm^3
# Si number density = 22.915233 Si / 1000 Ang^3
#
#
#
# Elastic Constant Matrix: (Units=GPa)
#
#
# Indices 1 2 3 4 5 6 
#
# 1 147.1064 2.9375 83.0059 0.0000 0.0000 0.0000
# 2 2.9375 94.6935 11.2037 0.0000 0.0000 0.0000
# 3 83.0059 11.2037 183.7071 0.0000 0.0000 0.0000
# 4 0.0000 0.0000 0.0000 -7.0673 0.0000 0.0000
# 5 0.0000 0.0000 0.0000 0.0000-1068.7464 0.0000
# 6 0.0000 0.0000 0.0000 0.0000 0.0000 2.3419
#
#
#
# Elastic Compliance Matrix: (Units=1/GPa)
#
#
# Indices 1 2 3 4 5 6 
#
# 1 0.009128 0.000206 -0.004137 0.000000 0.000000 0.000000
# 2 0.000206 0.010642 -0.000742 0.000000 0.000000 0.000000
# 3 -0.004137 -0.000742 0.007358 0.000000 0.000000 0.000000
# 4 0.000000 0.000000 0.000000 -0.141497 0.000000 0.000000
# 5 0.000000 0.000000 0.000000 0.000000 -0.000936 0.000000
# 6 0.000000 0.000000 0.000000 0.000000 0.000000 0.427012
#
#
# Mechanical properties :
#
#
# Convention : Reuss Voigt Hill
#
# Bulk Modulus (GPa) = 56.23669 68.86682 62.55175
# Shear Modulus (GPa) = 15.29147 -192.80370 -88.75612
#
# Velocity S-wave (km/s) = 2.58603 -9.18262 -6.23028
# Velocity P-wave (km/s) = 5.78888 9.07244 4.93953
#
# Compressibility (1/GPa) = 0.01778199
#
# Stress axis : x y z
#
# Youngs Moduli (GPa) = 109.55308 93.96903 135.90736
#
# Poissons Ratio (x) = -0.01939 0.56224
# Poissons Ratio (y) = -0.02260 0.10087
# Poissons Ratio (z) = 0.45322 0.06975
#
# Static dielectric constant tensor:
#      x y z
#    x 5.748660 0.000000 0.000000 
#    y 0.000000 1.903080 0.000000 
#    z 0.000000 0.000000 1.860120 
# 
# From -- ./inp_files/17379.got.cif
#   From: 2010.05.17/outbox.cif.g08.bks.cpg/sg35_9_cif.got.tgz:17379.got - 2010.06.03 17:29:28.
