data_PCOD9348463
_publ_section_title
;
Structure prediction by ZEFSAII (Michael W. Deem and Ramdas Pophale) SiO2 
 PCOD9348463
Probable space group: C M M 2
;
_chemical_formula_sum "Si O2"
_cell_formula_units_Z 40
_cell_length_a 13.345455
_cell_length_b 25.249830
_cell_length_c 4.979343
_cell_angle_alpha 90.000000
_cell_angle_beta 90.000000
_cell_angle_gamma 90.000000
_cell_volume 1677.891551
_symmetry_space_group_name_H-M "C M M 2"
_symmetry_group_IT_number 35
_symmetry_cell_setting 'orthorhombic'
loop_
_space_group_symop_operation_xyz
x,y,z
-x,-y,z
-x,y,z
x,-y,z
1/2+x,1/2+y,z
1/2-x,1/2-y,z
1/2-x,1/2+y,z
1/2+x,1/2-y,z
loop_
_atom_site_type_symbol
_atom_site_label
_atom_site_fract_x
_atom_site_fract_y
_atom_site_fract_z
Si Si1 0.635731 0.766021 0.119650
Si Si2 0.318455 0.057870 0.822051
Si Si3 0.659281 0.830343 0.625061
Si Si4 0.322178 0.557565 0.320716
Si Si5 0.893611 0.833435 0.478617
O O1 0.750000 0.750000 0.098362
O O2 0.626666 0.814793 0.326940
O O3 0.597458 0.714203 0.268099
O O4 0.612380 0.787054 0.825090
O O5 0.370957 0.111513 0.726166
O O6 0.224415 0.054906 0.617935
O O7 0.369595 0.000000 0.806612
O O8 0.270870 0.064196 0.116361
O O9 0.783531 0.827444 0.623063
O O10 0.368978 0.500000 0.259897
O O11 0.385327 0.610791 0.321093
O O12 0.000000 0.834294 0.636899
#
# Coordination Sequence:
#
# PCOD9348463 Si02
#       5
#     8   8   8   8   8
#     4  10  19  33  50  69  98 135 169 205 258 306
#     4   9  16  29  49  71  95 127 170 210 242 293
#     4  10  19  34  51  71 101 136 165 205 261 304
#     4   9  18  31  46  67  99 136 169 205 248 287
#     4  10  21  35  54  79 104 136 181 220 250 299
#
# _framework density 23.839441000000001
#
# number of rings (size 3 to 8) (size 9 to 14) (size 15 to 20)
#    0.000    2.400    0.000    5.400    0.000    2.000 
#    0.000   25.000    0.000    9.600    0.000    0.000 
#    0.000    4.800    0.000    3.200    0.000    4.200 
#
# Total GULP energy -111448.587757 kJ/mol
# GULP energy per Si atom -5572.429388 kJ/mol
# Density = 2.378518 g / cm^3
# Si number density = 23.839441 Si / 1000 Ang^3
#
#
#
# Elastic Constant Matrix: (Units=GPa)
#
#
# Indices 1 2 3 4 5 6 
#
# 1 94.7165 18.4542 5.8922 0.0000 0.0000 0.0000
# 2 18.4542 190.0809 17.9462 0.0000 0.0000 0.0000
# 3 5.8922 17.9462 72.5050 0.0000 0.0000 0.0000
# 4 0.0000 0.0000 0.0000 32.2800 0.0000 0.0000
# 5 0.0000 0.0000 0.0000 0.0000 70.5111 0.0000
# 6 0.0000 0.0000 0.0000 0.0000 0.0000 83.9323
#
#
#
# Elastic Compliance Matrix: (Units=1/GPa)
#
#
# Indices 1 2 3 4 5 6 
#
# 1 0.010790 -0.000988 -0.000632 0.000000 0.000000 0.000000
# 2 -0.000988 0.005477 -0.001275 0.000000 0.000000 0.000000
# 3 -0.000632 -0.001275 0.014159 0.000000 0.000000 0.000000
# 4 0.000000 0.000000 0.000000 0.030979 0.000000 0.000000
# 5 0.000000 0.000000 0.000000 0.000000 0.014182 0.000000
# 6 0.000000 0.000000 0.000000 0.000000 0.000000 0.011914
#
#
# Mechanical properties :
#
#
# Convention : Reuss Voigt Hill
#
# Bulk Modulus (GPa) = 40.59276 49.09862 44.84569
# Shear Modulus (GPa) = 49.25898 58.34534 53.80216
#
# Velocity S-wave (km/s) = 4.55057 4.95252 4.75579
# Velocity P-wave (km/s) = 6.68392 7.30366 7.00065
#
# Compressibility (1/GPa) = 0.02463494
#
# Stress axis : x y z
#
# Youngs Moduli (GPa) = 92.68170 182.57375 70.62527
#
# Poissons Ratio (x) = 0.18035 0.04466
# Poissons Ratio (y) = 0.09155 0.09008
# Poissons Ratio (z) = 0.05860 0.23286
#
# Static dielectric constant tensor:
#      x y z
#    x 1.359870 0.000000 0.000000 
#    y 0.000000 1.975680 0.000000 
#    z 0.000000 0.000000 1.851460 
# 
# From -- ./inp_files/1832.got.cif
#   From: 2010.05.17/outbox.cif.g08.bks.cpg/sg35_1_cif.got.tgz:1832.got - 2010.06.03 17:29:28.
