data_PCOD9348308
_publ_section_title
;
Structure prediction by ZEFSAII (Michael W. Deem and Ramdas Pophale) SiO2 
 PCOD9348308
Probable space group: C M M 2
;
_chemical_formula_sum "Si O2"
_cell_formula_units_Z 64
_cell_length_a 8.927902
_cell_length_b 29.267953
_cell_length_c 15.875344
_cell_angle_alpha 90.000000
_cell_angle_beta 90.000000
_cell_angle_gamma 90.000000
_cell_volume 4148.249869
_symmetry_space_group_name_H-M "C M M 2"
_symmetry_group_IT_number 35
_symmetry_cell_setting 'orthorhombic'
loop_
_space_group_symop_operation_xyz
x,y,z
-x,-y,z
-x,y,z
x,-y,z
1/2+x,1/2+y,z
1/2-x,1/2-y,z
1/2-x,1/2+y,z
1/2+x,1/2-y,z
loop_
_atom_site_type_symbol
_atom_site_label
_atom_site_fract_x
_atom_site_fract_y
_atom_site_fract_z
Si Si1 0.678745 0.054084 0.953300
Si Si2 0.679625 0.798665 0.168482
Si Si3 0.180152 0.946920 0.274426
Si Si4 0.318861 0.895072 0.432752
Si Si5 0.179836 0.109511 0.106452
Si Si6 0.179364 0.297998 0.366852
Si Si7 0.819853 0.553668 0.602443
Si Si8 0.672143 0.444556 0.777668
O O1 0.500000 0.058980 0.958005
O O2 0.736983 0.068580 0.861057
O O3 0.714693 0.000000 0.964188
O O4 0.757614 0.083182 0.025603
O O5 0.500000 0.797704 0.160579
O O6 0.750000 0.750000 0.144063
O O7 0.749045 0.840577 0.117509
O O8 0.717033 0.805664 0.267975
O O9 0.254746 0.924294 0.355630
O O10 0.221220 0.919455 0.190058
O O11 0.000000 0.944540 0.283119
O O12 0.222991 0.000000 0.266857
O O13 0.500000 0.896663 0.428552
O O14 0.272135 0.842502 0.418756
O O15 0.273108 0.916960 0.521582
O O16 0.000000 0.112495 0.102467
O O17 0.250000 0.250000 0.393385
O O18 0.000000 0.294265 0.372145
O O19 0.782157 0.500000 0.588586
O O20 0.745743 0.569623 0.689492
O O21 0.000000 0.556288 0.610776
O O22 0.500000 0.429709 0.783659
O O23 0.674197 0.500000 0.776190
#
# Coordination Sequence:
#
# PCOD9348308 Si02
#       8
#     8   8   8   8   8   8   8   8
#     4  10  20  33  50  72  98 129 165 203 243 290
#     4  10  19  33  51  71  95 124 163 207 250 292
#     4  10  21  33  44  63  95 132 165 196 232 278
#     4  10  19  32  48  69  94 126 164 201 239 284
#     4  11  21  33  49  70  98 131 165 201 244 291
#     4   9  18  31  48  68  92 121 159 203 246 286
#     4   9  17  29  46  68  95 126 159 195 236 284
#     4   9  17  30  48  69  94 124 158 198 242 286
#
# _framework density 15.428191999999999
#
# number of rings (size 3 to 8) (size 9 to 14) (size 15 to 20)
#    0.000    2.250    1.250    2.250    0.000    5.500 
#    0.000    1.250    0.000    0.000    0.000    0.875 
#    0.000    2.000    0.000    0.000    0.000    0.000 
#
# Total GULP energy -178504.244363 kJ/mol
# GULP energy per Si atom -5578.257636 kJ/mol
# Density = 1.539308 g / cm^3
# Si number density = 15.428192 Si / 1000 Ang^3
#
#
#
# Elastic Constant Matrix: (Units=GPa)
#
#
# Indices 1 2 3 4 5 6 
#
# 1 42.4776 43.8736 48.5319 0.0000 0.0000 0.0000
# 2 43.8736 116.2363 71.5846 0.0000 0.0000 0.0000
# 3 48.5319 71.5846 133.3671 0.0000 0.0000 0.0000
# 4 0.0000 0.0000 0.0000 7.0747 0.0000 0.0000
# 5 0.0000 0.0000 0.0000 0.0000 24.7674 0.0000
# 6 0.0000 0.0000 0.0000 0.0000 0.0000 23.6298
#
#
#
# Elastic Compliance Matrix: (Units=1/GPa)
#
#
# Indices 1 2 3 4 5 6 
#
# 1 0.048230 -0.011048 -0.011621 0.000000 0.000000 0.000000
# 2 -0.011048 0.015382 -0.004236 0.000000 0.000000 0.000000
# 3 -0.011621 -0.004236 0.014001 0.000000 0.000000 0.000000
# 4 0.000000 0.000000 0.000000 0.141349 0.000000 0.000000
# 5 0.000000 0.000000 0.000000 0.000000 0.040376 0.000000
# 6 0.000000 0.000000 0.000000 0.000000 0.000000 0.042320
#
#
# Mechanical properties :
#
#
# Convention : Reuss Voigt Hill
#
# Bulk Modulus (GPa) = 42.01126 68.89568 55.45347
# Shear Modulus (GPa) = 13.75898 19.63378 16.69638
#
# Velocity S-wave (km/s) = 2.98956 3.57121 3.29325
# Velocity P-wave (km/s) = 6.26146 7.85859 7.10504
#
# Compressibility (1/GPa) = 0.02380314
#
# Stress axis : x y z
#
# Youngs Moduli (GPa) = 20.73419 65.01171 71.42584
#
# Poissons Ratio (x) = 0.71822 0.83002
# Poissons Ratio (y) = 0.22906 0.30256
# Poissons Ratio (z) = 0.24095 0.27539
#
# Static dielectric constant tensor:
#      x y z
#    x 1.513760 0.000000 0.000000 
#    y 0.000000 1.500390 0.000000 
#    z 0.000000 0.000000 1.492680 
# 
# From -- ./inp_files/16178.got.cif
#   From: 2010.05.17/outbox.cif.g08.bks.cpg/sg35_9_cif.got.tgz:16178.got - 2010.06.03 17:29:28.
