data_PCOD9348834
_publ_section_title
;
Structure prediction by ZEFSAII (Michael W. Deem and Ramdas Pophale) SiO2 
 PCOD9348834
Probable space group: C M M 2
;
_chemical_formula_sum "Si O2"
_cell_formula_units_Z 64
_cell_length_a 8.658839
_cell_length_b 29.356138
_cell_length_c 16.017228
_cell_angle_alpha 90.000000
_cell_angle_beta 90.000000
_cell_angle_gamma 90.000000
_cell_volume 4071.420348
_symmetry_space_group_name_H-M "C M M 2"
_symmetry_group_IT_number 35
_symmetry_cell_setting 'orthorhombic'
loop_
_space_group_symop_operation_xyz
x,y,z
-x,-y,z
-x,y,z
x,-y,z
1/2+x,1/2+y,z
1/2-x,1/2-y,z
1/2-x,1/2+y,z
1/2+x,1/2-y,z
loop_
_atom_site_type_symbol
_atom_site_label
_atom_site_fract_x
_atom_site_fract_y
_atom_site_fract_z
Si Si1 0.313833 0.551623 0.589050
Si Si2 0.314878 0.698595 0.183454
Si Si3 0.184303 0.643064 0.522937
Si Si4 0.684710 0.301292 0.368457
Si Si5 0.687677 0.449354 0.783453
Si Si6 0.813846 0.853489 0.851013
Si Si7 0.686060 0.198942 0.689506
Si Si8 0.315841 0.801538 0.010525
O O1 0.500000 0.554977 0.585852
O O2 0.271062 0.500000 0.564622
O O3 0.241608 0.591630 0.535204
O O4 0.267443 0.557723 0.686449
O O5 0.500000 0.699401 0.174793
O O6 0.250000 0.750000 0.185614
O O7 0.275163 0.680142 0.275514
O O8 0.242068 0.678634 0.099387
O O9 0.253100 0.667357 0.442003
O O10 0.230474 0.671143 0.606199
O O11 0.000000 0.644120 0.517833
O O12 0.500000 0.298405 0.373130
O O13 0.750000 0.250000 0.377088
O O14 0.500000 0.449903 0.784292
O O15 0.739994 0.500000 0.809410
O O16 0.736217 0.406000 0.837255
O O17 0.755833 0.825584 0.770532
O O18 0.000000 0.851564 0.854038
O O19 0.745313 0.831089 0.933763
O O20 0.500000 0.199699 0.695805
O O21 0.750000 0.250000 0.684045
O O22 0.500000 0.799020 0.009942
O O23 0.250000 0.750000 0.002383
#
# Coordination Sequence:
#
# PCOD9348834 Si02
#       8
#     8   8   8   8   8   8   8   8
#     4   9  17  32  53  73  94 124 164 207 249 292
#     4   9  17  31  50  72  95 123 160 201 244 286
#     4  11  22  33  48  71 100 132 166 202 243 293
#     4  10  20  33  51  73 100 130 164 204 244 290
#     4   8  15  29  50  73  93 119 158 201 243 285
#     4  11  20  32  51  71  95 127 161 200 241 286
#     4  11  23  35  45  63  94 131 168 200 233 278
#     4  11  21  33  49  70  99 130 163 200 239 288
#
# _framework density 15.719331
#
# number of rings (size 3 to 8) (size 9 to 14) (size 15 to 20)
#    0.000    2.000    1.250    5.250    0.000    4.250 
#    0.000    0.000    0.000    1.500    0.000    0.875 
#    0.000    3.000    0.000    0.000    0.000    0.000 
#
# Total GULP energy -178502.618216 kJ/mol
# GULP energy per Si atom -5578.206819 kJ/mol
# Density = 1.568355 g / cm^3
# Si number density = 15.719331 Si / 1000 Ang^3
#
#
#
# Elastic Constant Matrix: (Units=GPa)
#
#
# Indices 1 2 3 4 5 6 
#
# 1 62.9263 36.9206 52.9397 0.0000 0.0000 0.0000
# 2 36.9206 116.6302 76.8410 0.0000 0.0000 0.0000
# 3 52.9397 76.8410 154.2663 0.0000 0.0000 0.0000
# 4 0.0000 0.0000 0.0000 5.6901 0.0000 0.0000
# 5 0.0000 0.0000 0.0000 0.0000 20.9359 0.0000
# 6 0.0000 0.0000 0.0000 0.0000 0.0000 17.7114
#
#
#
# Elastic Compliance Matrix: (Units=1/GPa)
#
#
# Indices 1 2 3 4 5 6 
#
# 1 0.023074 -0.003107 -0.006371 0.000000 0.000000 0.000000
# 2 -0.003107 0.013181 -0.005499 0.000000 0.000000 0.000000
# 3 -0.006371 -0.005499 0.011408 0.000000 0.000000 0.000000
# 4 0.000000 0.000000 0.000000 0.175743 0.000000 0.000000
# 5 0.000000 0.000000 0.000000 0.000000 0.047765 0.000000
# 6 0.000000 0.000000 0.000000 0.000000 0.000000 0.056461
#
#
# Mechanical properties :
#
#
# Convention : Reuss Voigt Hill
#
# Bulk Modulus (GPa) = 56.46919 74.13614 65.30266
# Shear Modulus (GPa) = 13.75560 20.00893 16.88227
#
# Velocity S-wave (km/s) = 2.96138 3.57162 3.28072
# Velocity P-wave (km/s) = 6.90611 8.01707 7.48224
#
# Compressibility (1/GPa) = 0.01770877
#
# Stress axis : x y z
#
# Youngs Moduli (GPa) = 43.33821 75.86812 87.65988
#
# Poissons Ratio (x) = 0.23573 0.55846
# Poissons Ratio (y) = 0.13466 0.48206
# Poissons Ratio (z) = 0.27610 0.41721
#
# Static dielectric constant tensor:
#      x y z
#    x 1.529680 0.000000 0.000000 
#    y 0.000000 1.509560 0.000000 
#    z 0.000000 0.000000 1.531110 
# 
# From -- ./inp_files/16170.got.cif
#   From: 2010.05.17/outbox.cif.g08.bks.cpg/sg35_9_cif.got.tgz:16170.got - 2010.06.03 17:29:28.
