data_PCOD9348080
_publ_section_title
;
Structure prediction by ZEFSAII (Michael W. Deem and Ramdas Pophale) SiO2 
 PCOD9348080
Probable space group: C M M 2
;
_chemical_formula_sum "Si O2"
_cell_formula_units_Z 56
_cell_length_a 18.439456
_cell_length_b 8.701697
_cell_length_c 18.631048
_cell_angle_alpha 90.000000
_cell_angle_beta 90.000000
_cell_angle_gamma 90.000000
_cell_volume 2989.436590
_symmetry_space_group_name_H-M "C M M 2"
_symmetry_group_IT_number 35
_symmetry_cell_setting 'orthorhombic'
loop_
_space_group_symop_operation_xyz
x,y,z
-x,-y,z
-x,y,z
x,-y,z
1/2+x,1/2+y,z
1/2-x,1/2-y,z
1/2-x,1/2+y,z
1/2+x,1/2-y,z
loop_
_atom_site_type_symbol
_atom_site_label
_atom_site_fract_x
_atom_site_fract_y
_atom_site_fract_z
Si Si1 0.668365 0.816477 0.503080
Si Si2 0.169097 0.684932 0.776673
Si Si3 0.084901 0.684459 0.921250
Si Si4 0.169119 0.682007 0.207214
Si Si5 0.914112 0.183208 0.639505
Si Si6 0.587013 0.679453 0.074089
Si Si7 0.832142 0.816340 0.354415
O O1 0.750000 0.750000 0.511391
O O2 0.621781 0.762654 0.570596
O O3 0.636618 0.749401 0.428515
O O4 0.672466 0.000000 0.498716
O O5 0.170224 0.500000 0.771833
O O6 0.250000 0.750000 0.773321
O O7 0.131571 0.728356 0.852090
O O8 0.123146 0.751703 0.710888
O O9 0.089382 0.500000 0.930228
O O10 0.000000 0.723119 0.908952
O O11 0.109124 0.763550 0.994993
O O12 0.174010 0.500000 0.217180
O O13 0.250000 0.750000 0.198304
O O14 0.124019 0.725120 0.137062
O O15 0.135695 0.756961 0.279439
O O16 0.000000 0.212171 0.641457
O O17 0.902057 0.000000 0.635184
O O18 0.500000 0.697066 0.078176
O O19 0.605002 0.500000 0.083027
O O20 0.750000 0.750000 0.353483
O O21 0.830670 0.000000 0.356129
#
# Coordination Sequence:
#
# PCOD9348080 Si02
#       7
#     8   8   8   8   8   8   8
#     4  11  21  36  59  85 114 147 187 231 277 330
#     4  11  23  39  60  86 116 148 185 229 276 328
#     4   9  19  37  59  81 108 146 189 231 278 332
#     4  11  21  35  56  82 113 148 189 234 281 332
#     4  11  24  41  60  83 113 148 186 229 279 333
#     4  10  21  37  57  82 113 149 188 230 279 334
#     4  10  18  32  54  81 113 146 185 230 279 332
#
# _framework density 18.732626
#
# number of rings (size 3 to 8) (size 9 to 14) (size 15 to 20)
#    0.000    1.571    0.000    7.714    0.000    4.286 
#    0.000    3.571    0.000    4.286    0.000    0.000 
#    0.000    0.000    0.000    0.000    0.000    0.000 
#
# Total GULP energy -156463.895104 kJ/mol
# GULP energy per Si atom -5587.996254 kJ/mol
# Density = 1.868999 g / cm^3
# Si number density = 18.732626 Si / 1000 Ang^3
#
#
#
# Elastic Constant Matrix: (Units=GPa)
#
#
# Indices 1 2 3 4 5 6 
#
# 1 54.0631 52.9992 57.3377 0.0000 0.0000 0.0000
# 2 52.9992 148.4012 85.2505 0.0000 0.0000 0.0000
# 3 57.3377 85.2505 177.5674 0.0000 0.0000 0.0000
# 4 0.0000 0.0000 0.0000 42.5401 0.0000 0.0000
# 5 0.0000 0.0000 0.0000 0.0000 52.1710 0.0000
# 6 0.0000 0.0000 0.0000 0.0000 0.0000 15.2402
#
#
#
# Elastic Compliance Matrix: (Units=1/GPa)
#
#
# Indices 1 2 3 4 5 6 
#
# 1 0.033885 -0.008031 -0.007086 0.000000 0.000000 0.000000
# 2 -0.008031 0.011208 -0.002788 0.000000 0.000000 0.000000
# 3 -0.007086 -0.002788 0.009258 0.000000 0.000000 0.000000
# 4 0.000000 0.000000 0.000000 0.023507 0.000000 0.000000
# 5 0.000000 0.000000 0.000000 0.000000 0.019168 0.000000
# 6 0.000000 0.000000 0.000000 0.000000 0.000000 0.065616
#
#
# Mechanical properties :
#
#
# Convention : Reuss Voigt Hill
#
# Bulk Modulus (GPa) = 53.93207 85.68960 69.81084
# Shear Modulus (GPa) = 24.43412 34.28656 29.36034
#
# Velocity S-wave (km/s) = 3.61551 4.28286 3.96326
# Velocity P-wave (km/s) = 6.80310 8.38451 7.63486
#
# Compressibility (1/GPa) = 0.01854184
#
# Stress axis : x y z
#
# Youngs Moduli (GPa) = 29.51166 89.22152 108.01201
#
# Poissons Ratio (x) = 0.71652 0.76538
# Poissons Ratio (y) = 0.23700 0.30112
# Poissons Ratio (z) = 0.20912 0.24873
#
# Static dielectric constant tensor:
#      x y z
#    x 1.625920 0.000000 0.000000 
#    y 0.000000 1.628690 0.000000 
#    z 0.000000 0.000000 1.654020 
# 
# From -- ./inp_files/17420.got.cif
#   From: 2010.05.17/outbox.cif.g08.bks.cpg/sg35_9_cif.got.tgz:17420.got - 2010.06.03 17:29:28.
