data_PCOD9348749
_publ_section_title
;
Structure prediction by ZEFSAII (Michael W. Deem and Ramdas Pophale) SiO2 
 PCOD9348749
Probable space group: C M M 2
;
_chemical_formula_sum "Si O2"
_cell_formula_units_Z 56
_cell_length_a 9.548944
_cell_length_b 14.973257
_cell_length_c 18.850967
_cell_angle_alpha 90.000000
_cell_angle_beta 90.000000
_cell_angle_gamma 90.000000
_cell_volume 2695.288501
_symmetry_space_group_name_H-M "C M M 2"
_symmetry_group_IT_number 35
_symmetry_cell_setting 'orthorhombic'
loop_
_space_group_symop_operation_xyz
x,y,z
-x,-y,z
-x,y,z
x,-y,z
1/2+x,1/2+y,z
1/2-x,1/2-y,z
1/2-x,1/2+y,z
1/2+x,1/2-y,z
loop_
_atom_site_type_symbol
_atom_site_label
_atom_site_fract_x
_atom_site_fract_y
_atom_site_fract_z
Si Si1 0.838271 0.390682 0.820890
Si Si2 0.160965 0.391124 0.980307
Si Si3 0.668495 0.844154 0.555369
Si Si4 0.343141 0.395014 0.690498
Si Si5 0.166888 0.657977 0.400938
Si Si6 0.341029 0.390289 0.114601
Si Si7 0.656486 0.894883 0.244364
O O1 0.837923 0.500000 0.819511
O O2 0.796368 0.363990 0.900733
O O3 0.735356 0.357593 0.759581
O O4 0.000000 0.363973 0.808359
O O5 0.162036 0.500000 0.980852
O O6 0.000000 0.363829 0.992030
O O7 0.258795 0.361703 0.044250
O O8 0.500000 0.836365 0.564959
O O9 0.750000 0.750000 0.551605
O O10 0.742366 0.887970 0.622610
O O11 0.693675 0.887455 0.477449
O O12 0.500000 0.357227 0.678526
O O13 0.359390 0.500000 0.703879
O O14 0.250000 0.750000 0.400521
O O15 0.202019 0.612645 0.326288
O O16 0.000000 0.674176 0.400179
O O17 0.500000 0.359542 0.113490
O O18 0.342738 0.500000 0.114556
O O19 0.262558 0.359589 0.185790
O O20 0.500000 0.855624 0.237242
O O21 0.644713 0.000000 0.229494
#
# Coordination Sequence:
#
# PCOD9348749 Si02
#       7
#     8   8   8   8   8   8   8
#     4   8  14  25  41  62  89 122 159 195 232 276
#     4   8  13  22  37  57  84 120 157 190 227 272
#     4  10  20  35  54  73  95 124 160 200 241 288
#     4  10  20  32  47  71 102 131 160 197 241 286
#     4   9  19  34  52  72  92 119 154 193 235 279
#     4   9  16  24  36  59  90 121 153 189 230 273
#     4   9  17  30  47  67  93 123 155 190 228 273
#
# _framework density 20.776996
#
# number of rings (size 3 to 8) (size 9 to 14) (size 15 to 20)
#    0.000    3.000    0.000    2.143    0.000    4.857 
#    0.000    4.286    0.000    1.714    0.000    1.000 
#    0.000    4.571    0.000    0.000    0.000    0.000 
#
# Total GULP energy -156047.289283 kJ/mol
# GULP energy per Si atom -5573.117474 kJ/mol
# Density = 2.072971 g / cm^3
# Si number density = 20.776996 Si / 1000 Ang^3
#
#
#
# Elastic Constant Matrix: (Units=GPa)
#
#
# Indices 1 2 3 4 5 6 
#
# 1 130.5034 10.5025 131.3159 0.0000 0.0000 0.0000
# 2 10.5025 27.9451 6.1022 0.0000 0.0000 0.0000
# 3 131.3159 6.1022 214.0276 0.0000 0.0000 0.0000
# 4 0.0000 0.0000 0.0000 44.5930 0.0000 0.0000
# 5 0.0000 0.0000 0.0000 0.0000 126.5061 0.0000
# 6 0.0000 0.0000 0.0000 0.0000 0.0000 10.1458
#
#
#
# Elastic Compliance Matrix: (Units=1/GPa)
#
#
# Indices 1 2 3 4 5 6 
#
# 1 0.020708 -0.005040 -0.012562 0.000000 0.000000 0.000000
# 2 -0.005040 0.037235 0.002030 0.000000 0.000000 0.000000
# 3 -0.012562 0.002030 0.012322 0.000000 0.000000 0.000000
# 4 0.000000 0.000000 0.000000 0.022425 0.000000 0.000000
# 5 0.000000 0.000000 0.000000 0.000000 0.007905 0.000000
# 6 0.000000 0.000000 0.000000 0.000000 0.000000 0.098563
#
#
# Mechanical properties :
#
#
# Convention : Reuss Voigt Hill
#
# Bulk Modulus (GPa) = 25.56040 74.25748 49.90894
# Shear Modulus (GPa) = 20.54732 51.21934 35.88333
#
# Velocity S-wave (km/s) = 3.14816 4.97046 4.16031
# Velocity P-wave (km/s) = 5.05406 8.29207 6.86666
#
# Compressibility (1/GPa) = 0.03912301
#
# Stress axis : x y z
#
# Youngs Moduli (GPa) = 48.29023 26.85635 81.15830
#
# Poissons Ratio (x) = 0.13535 1.01949
# Poissons Ratio (y) = 0.24337 -0.16479
# Poissons Ratio (z) = 0.60661 -0.05453
#
# Static dielectric constant tensor:
#      x y z
#    x 1.692300 0.000000 0.000000 
#    y 0.000000 1.808390 0.000000 
#    z 0.000000 0.000000 1.764640 
# 
# From -- ./inp_files/15651.got.cif
#   From: 2010.05.17/outbox.cif.g08.bks.cpg/sg35_8_cif.got.tgz:15651.got - 2010.06.03 17:29:28.
