data_PCOD9348475
_publ_section_title
;
Structure prediction by ZEFSAII (Michael W. Deem and Ramdas Pophale) SiO2 
 PCOD9348475
Probable space group: C M M 2
;
_chemical_formula_sum "Si O2"
_cell_formula_units_Z 64
_cell_length_a 9.026977
_cell_length_b 18.466162
_cell_length_c 21.522880
_cell_angle_alpha 90.000000
_cell_angle_beta 90.000000
_cell_angle_gamma 90.000000
_cell_volume 3587.726773
_symmetry_space_group_name_H-M "C M M 2"
_symmetry_group_IT_number 35
_symmetry_cell_setting 'orthorhombic'
loop_
_space_group_symop_operation_xyz
x,y,z
-x,-y,z
-x,y,z
x,-y,z
1/2+x,1/2+y,z
1/2-x,1/2-y,z
1/2-x,1/2+y,z
1/2+x,1/2-y,z
loop_
_atom_site_type_symbol
_atom_site_label
_atom_site_fract_x
_atom_site_fract_y
_atom_site_fract_z
Si Si1 0.170934 0.411929 0.000000
Si Si2 0.322104 0.170047 0.509771
Si Si3 0.177533 0.171321 0.747959
Si Si4 0.677351 0.415342 0.622221
Si Si5 0.327755 0.587171 0.125885
Si Si6 0.677510 0.170337 0.237707
Si Si7 0.321407 0.914373 0.860991
Si Si8 0.322532 0.170797 0.373494
O O1 0.172042 0.500000 0.999025
O O2 0.266971 0.388493 0.058660
O O3 0.000000 0.389681 0.008795
O O4 0.221097 0.390085 0.930948
O O5 0.500000 0.176416 0.514387
O O6 0.250000 0.250000 0.514461
O O7 0.259748 0.121197 0.564662
O O8 0.283689 0.138611 0.440910
O O9 0.250000 0.250000 0.743306
O O10 0.214395 0.125733 0.686077
O O11 0.241176 0.130398 0.807932
O O12 0.000000 0.177157 0.752247
O O13 0.500000 0.408713 0.612966
O O14 0.713955 0.500000 0.627425
O O15 0.500000 0.605876 0.132017
O O16 0.313153 0.500000 0.128489
O O17 0.237390 0.622536 0.181668
O O18 0.500000 0.176684 0.233935
O O19 0.750000 0.250000 0.233809
O O20 0.716954 0.138088 0.306276
O O21 0.500000 0.906937 0.856250
O O22 0.287376 0.000000 0.854531
O O23 0.500000 0.178629 0.373468
O O24 0.250000 0.250000 0.373467
#
# Coordination Sequence:
#
# PCOD9348475 Si02
#       8
#     8   8   8   8   8   8   8   8
#     4   8  15  30  52  76 102 134 171 210 255 307
#     4  10  19  33  55  81 106 134 171 213 258 308
#     4  11  23  38  56  78 106 139 174 213 256 304
#     4  10  22  39  56  77 106 138 173 213 257 305
#     4  10  20  33  50  75 106 138 175 217 257 303
#     4  10  19  33  53  75 102 136 173 215 262 310
#     4   9  18  34  57  83 108 134 168 211 257 307
#     4   8  16  30  49  74 101 131 169 211 255 306
#
# _framework density 17.838594000000001
#
# number of rings (size 3 to 8) (size 9 to 14) (size 15 to 20)
#    0.000    2.500    0.000    3.000    0.000    5.250 
#    0.000    2.500    0.000    6.750    0.000    0.000 
#    0.000    0.000    0.000    0.000    0.000    0.000 
#
# Total GULP energy -178400.574890 kJ/mol
# GULP energy per Si atom -5575.017965 kJ/mol
# Density = 1.779799 g / cm^3
# Si number density = 17.838594 Si / 1000 Ang^3
#
#
#
# Elastic Constant Matrix: (Units=GPa)
#
#
# Indices 1 2 3 4 5 6 
#
# 1 61.1684 42.6993 80.8334 0.0000 0.0000 0.0000
# 2 42.6993 63.3465 70.5551 0.0000 0.0000 0.0000
# 3 80.8334 70.5551 207.4782 0.0000 0.0000 0.0000
# 4 0.0000 0.0000 0.0000 29.7543 0.0000 0.0000
# 5 0.0000 0.0000 0.0000 0.0000 8.4530 0.0000
# 6 0.0000 0.0000 0.0000 0.0000 0.0000 22.8728
#
#
#
# Elastic Compliance Matrix: (Units=1/GPa)
#
#
# Indices 1 2 3 4 5 6 
#
# 1 0.042023 -0.016243 -0.010849 0.000000 0.000000 0.000000
# 2 -0.016243 0.031689 -0.004448 0.000000 0.000000 0.000000
# 3 -0.010849 -0.004448 0.010559 0.000000 0.000000 0.000000
# 4 0.000000 0.000000 0.000000 0.033609 0.000000 0.000000
# 5 0.000000 0.000000 0.000000 0.000000 0.118302 0.000000
# 6 0.000000 0.000000 0.000000 0.000000 0.000000 0.043720
#
#
# Mechanical properties :
#
#
# Convention : Reuss Voigt Hill
#
# Bulk Modulus (GPa) = 47.18732 80.01875 63.60304
# Shear Modulus (GPa) = 14.28388 21.40968 17.84678
#
# Velocity S-wave (km/s) = 2.83278 3.46813 3.16643
# Velocity P-wave (km/s) = 6.09995 7.80972 7.00718
#
# Compressibility (1/GPa) = 0.02119213
#
# Stress axis : x y z
#
# Youngs Moduli (GPa) = 23.79627 31.55662 94.70621
#
# Poissons Ratio (x) = 0.51258 1.02744
# Poissons Ratio (y) = 0.38653 0.42124
# Poissons Ratio (z) = 0.25816 0.14036
#
# Static dielectric constant tensor:
#      x y z
#    x 1.596800 0.000000 0.000000 
#    y 0.000000 1.577650 0.000000 
#    z 0.000000 0.000000 1.631610 
# 
# From -- ./inp_files/18381.got.cif
#   From: 2010.05.17/outbox.cif.g08.bks.cpg/sg35_10_cif.got.tgz:18381.got - 2010.06.03 17:29:28.
