data_PCOD9348806
_publ_section_title
;
Structure prediction by ZEFSAII (Michael W. Deem and Ramdas Pophale) SiO2 
 PCOD9348806
Probable space group: C M M 2
;
_chemical_formula_sum "Si O2"
_cell_formula_units_Z 40
_cell_length_a 20.127617
_cell_length_b 8.884461
_cell_length_c 13.202662
_cell_angle_alpha 90.000000
_cell_angle_beta 90.000000
_cell_angle_gamma 90.000000
_cell_volume 2360.940000
_symmetry_space_group_name_H-M "C M M 2"
_symmetry_group_IT_number 35
_symmetry_cell_setting 'orthorhombic'
loop_
_space_group_symop_operation_xyz
x,y,z
-x,-y,z
-x,y,z
x,-y,z
1/2+x,1/2+y,z
1/2-x,1/2-y,z
1/2-x,1/2+y,z
1/2+x,1/2-y,z
loop_
_atom_site_type_symbol
_atom_site_label
_atom_site_fract_x
_atom_site_fract_y
_atom_site_fract_z
Si Si1 0.423566 0.183787 0.997030
Si Si2 0.678071 0.818641 0.169621
Si Si3 0.422011 0.679233 0.563417
Si Si4 0.419341 0.173392 0.773730
Si Si5 0.322376 0.819710 0.402694
O O1 0.500000 0.232454 0.011354
O O2 0.398724 0.229884 0.885038
O O3 0.424351 0.000000 0.995160
O O4 0.376251 0.232133 0.088042
O O5 0.750000 0.750000 0.147235
O O6 0.660713 0.779362 0.285883
O O7 0.682360 0.000000 0.164476
O O8 0.500000 0.721130 0.551339
O O9 0.416754 0.500000 0.555012
O O10 0.400481 0.731309 0.675857
O O11 0.376748 0.757248 0.479619
O O12 0.500000 0.172325 0.778089
O O13 0.397754 0.000000 0.760265
O O14 0.250000 0.750000 0.424577
O O15 0.318703 0.000000 0.410075
#
# Coordination Sequence:
#
# PCOD9348806 Si02
#       5
#     8   8   8   8   8
#     4   8  14  27  49  74  96 121 158 200 236 274
#     4   9  18  32  50  71  96 126 157 193 238 287
#     4  10  20  33  50  73 101 130 162 203 246 288
#     4   8  14  27  48  71  95 125 160 197 238 284
#     4  10  20  34  52  72  97 130 166 203 244 292
#
# _framework density 16.942404
#
# number of rings (size 3 to 8) (size 9 to 14) (size 15 to 20)
#    0.000    3.000    0.000    2.400    0.000    2.800 
#    0.000    4.000    0.000    4.200    0.000    0.000 
#    0.000    0.000    0.000    0.000    0.000    0.000 
#
# Total GULP energy -111423.811373 kJ/mol
# GULP energy per Si atom -5571.190569 kJ/mol
# Density = 1.690384 g / cm^3
# Si number density = 16.942404 Si / 1000 Ang^3
#
#
#
# Elastic Constant Matrix: (Units=GPa)
#
#
# Indices 1 2 3 4 5 6 
#
# 1 85.0519 35.0677 100.0531 0.0000 0.0000 0.0000
# 2 35.0677 32.8459 46.6731 0.0000 0.0000 0.0000
# 3 100.0531 46.6731 163.2713 0.0000 0.0000 0.0000
# 4 0.0000 0.0000 0.0000 15.6554 0.0000 0.0000
# 5 0.0000 0.0000 0.0000 0.0000 -22.1776 0.0000
# 6 0.0000 0.0000 0.0000 0.0000 0.0000 23.6867
#
#
#
# Elastic Compliance Matrix: (Units=1/GPa)
#
#
# Indices 1 2 3 4 5 6 
#
# 1 0.046306 -0.015352 -0.023988 0.000000 0.000000 0.000000
# 2 -0.015352 0.056362 -0.006704 0.000000 0.000000 0.000000
# 3 -0.023988 -0.006704 0.022741 0.000000 0.000000 0.000000
# 4 0.000000 0.000000 0.000000 0.063876 0.000000 0.000000
# 5 0.000000 0.000000 0.000000 0.000000 -0.045091 0.000000
# 6 0.000000 0.000000 0.000000 0.000000 0.000000 0.042218
#
#
# Mechanical properties :
#
#
# Convention : Reuss Voigt Hill
#
# Bulk Modulus (GPa) = 30.01103 71.63964 50.82533
# Shear Modulus (GPa) = 17.26471 10.05791 13.66131
#
# Velocity S-wave (km/s) = 3.19568 2.43914 2.84269
# Velocity P-wave (km/s) = 5.60076 7.09285 6.39050
#
# Compressibility (1/GPa) = 0.03332109
#
# Stress axis : x y z
#
# Youngs Moduli (GPa) = 21.59525 17.74245 43.97329
#
# Poissons Ratio (x) = 0.27239 1.05483
# Poissons Ratio (y) = 0.33154 0.29479
# Poissons Ratio (z) = 0.51803 0.11894
#
# Static dielectric constant tensor:
#      x y z
#    x 1.545920 0.000000 0.000000 
#    y 0.000000 1.567220 0.000000 
#    z 0.000000 0.000000 1.586640 
# 
# From -- ./inp_files/11027.got.cif
#   From: 2010.05.17/outbox.cif.g08.bks.cpg/sg35_6_cif.got.tgz:11027.got - 2010.06.03 17:29:28.
