data_PCOD9348056
_publ_section_title
;
Structure prediction by ZEFSAII (Michael W. Deem and Ramdas Pophale) SiO2 
 PCOD9348056
Probable space group: P N N 2
;
_chemical_formula_sum "Si O2"
_cell_formula_units_Z 32
_cell_length_a 12.000000
_cell_length_b 9.000000
_cell_length_c 15.000000
_cell_angle_alpha 90.000000
_cell_angle_beta 90.000000
_cell_angle_gamma 90.000000
_cell_volume 1620.000000
_symmetry_space_group_name_H-M "P N N 2"
_symmetry_group_IT_number 34
_symmetry_cell_setting 'orthorhombic'
loop_
_space_group_symop_operation_xyz
x,y,z
-x,-y,z
1/2-x,1/2+y,1/2+z
1/2+x,1/2-y,1/2+z
loop_
_atom_site_type_symbol
_atom_site_label
_atom_site_fract_x
_atom_site_fract_y
_atom_site_fract_z
Si Si1 0.958508 0.331469 0.623350
Si Si2 0.468022 0.174303 0.922240
Si Si3 0.791561 0.282146 0.166532
Si Si4 0.705503 0.298028 0.448896
Si Si5 0.047506 0.254840 0.230119
Si Si6 0.784698 0.945067 0.127007
Si Si7 0.080020 0.141871 0.772843
Si Si8 0.124329 0.462835 0.071993
O O1 0.987995 0.268898 0.524159
O O2 0.825186 0.342599 0.636214
O O3 0.000000 0.500000 0.622698
O O4 0.013635 0.248486 0.705570
O O5 0.333006 0.192038 0.912872
O O6 0.538310 0.237934 0.837971
O O7 0.500000 0.000000 0.922034
O O8 0.701802 0.369081 0.226283
O O9 0.807735 0.385857 0.080995
O O10 0.917422 0.263402 0.203217
O O11 0.753879 0.114217 0.148537
O O12 0.685278 0.427716 0.522383
O O13 0.615376 0.302736 0.370460
O O14 0.684597 0.151005 0.507155
O O15 0.116203 0.114867 0.190520
O O16 0.104907 0.388163 0.171183
O O17 0.000000 0.000000 0.780622
O O18 0.000000 0.500000 0.039424
#
# Coordination Sequence:
#
# PCOD9348056 Si02
#       8
#     4   4   4   4   4   4   4   4
#     4  10  22  44  63  90 135 181 213 270 343 398
#     4  10  20  37  68  94 128 170 222 280 334 389
#     4  11  21  41  64  98 128 167 218 278 336 384
#     4  10  23  43  64  96 130 172 222 272 328 401
#     4  10  20  38  69  96 124 167 220 275 327 385
#     4  10  22  41  73  92 127 175 224 273 333 399
#     4  12  27  40  65  95 139 180 219 272 336 416
#     4   9  21  39  68  94 127 167 211 275 332 387
#
# _framework density 19.753086
#
# number of rings (size 3 to 8) (size 9 to 14) (size 15 to 20)
#    0.000    1.750    2.500    1.500    5.250    3.500 
#    0.000    2.500    5.500    0.000    0.000    0.000 
#    0.000    0.000    0.000    0.000    0.000    0.000 
#
# Total GULP energy -178334.199118 kJ/mol
# GULP energy per Si atom -5572.943722 kJ/mol
# Density = 1.970813 g / cm^3
# Si number density = 19.753086 Si / 1000 Ang^3
#
#
#
# Elastic Constant Matrix: (Units=GPa)
#
#
# Indices 1 2 3 4 5 6 
#
# 1 114.4716 38.3114 58.9819 0.0000 0.0000 0.0000
# 2 38.3114 69.4361 37.3228 0.0000 0.0000 0.0000
# 3 58.9819 37.3228 145.5837 0.0000 0.0000 0.0000
# 4 0.0000 0.0000 0.0000 10.6147 0.0000 0.0000
# 5 0.0000 0.0000 0.0000 0.0000 34.4594 0.0000
# 6 0.0000 0.0000 0.0000 0.0000 0.0000 34.7127
#
#
#
# Elastic Compliance Matrix: (Units=1/GPa)
#
#
# Indices 1 2 3 4 5 6 
#
# 1 0.012256 -0.004747 -0.003748 0.000000 0.000000 0.000000
# 2 -0.004747 0.018542 -0.002830 0.000000 0.000000 0.000000
# 3 -0.003748 -0.002830 0.009113 0.000000 0.000000 0.000000
# 4 0.000000 0.000000 0.000000 0.094209 0.000000 0.000000
# 5 0.000000 0.000000 0.000000 0.000000 0.029020 0.000000
# 6 0.000000 0.000000 0.000000 0.000000 0.000000 0.028808
#
#
# Mechanical properties :
#
#
# Convention : Reuss Voigt Hill
#
# Bulk Modulus (GPa) = 57.93938 66.52484 62.23211
# Shear Modulus (GPa) = 22.69086 28.94906 25.81996
#
# Velocity S-wave (km/s) = 3.39296 3.83240 3.61936
# Velocity P-wave (km/s) = 6.68918 7.30304 7.00284
#
# Compressibility (1/GPa) = 0.01725942
#
# Stress axis : x y z
#
# Youngs Moduli (GPa) = 81.59262 53.93024 109.73244
#
# Poissons Ratio (x) = 0.25603 0.41131
# Poissons Ratio (y) = 0.38736 0.31057
# Poissons Ratio (z) = 0.30583 0.15264
#
# Static dielectric constant tensor:
#      x y z
#    x 1.706890 0.000000 0.000000 
#    y 0.000000 1.721770 0.000000 
#    z 0.000000 0.000000 1.722020 
# 
# From -- ./inp_files/6815.got.cif
#   From: 2010.05.17/outbox.ucp.g08.bks.cvg/sg34_4_cif.got.tgz:6815.got - 2010.06.11 10:35:58.
