data_PCOD9348538
_publ_section_title
;
Structure prediction by ZEFSAII (Michael W. Deem and Ramdas Pophale) SiO2 
 PCOD9348538
Probable space group: C M M 2
;
_chemical_formula_sum "Si O2"
_cell_formula_units_Z 64
_cell_length_a 8.598158
_cell_length_b 18.893110
_cell_length_c 21.098554
_cell_angle_alpha 90.000000
_cell_angle_beta 90.000000
_cell_angle_gamma 90.000000
_cell_volume 3427.374540
_symmetry_space_group_name_H-M "C M M 2"
_symmetry_group_IT_number 35
_symmetry_cell_setting 'orthorhombic'
loop_
_space_group_symop_operation_xyz
x,y,z
-x,-y,z
-x,y,z
x,-y,z
1/2+x,1/2+y,z
1/2-x,1/2-y,z
1/2-x,1/2+y,z
1/2+x,1/2-y,z
loop_
_atom_site_type_symbol
_atom_site_label
_atom_site_fract_x
_atom_site_fract_y
_atom_site_fract_z
Si Si1 0.686793 0.828863 0.137660
Si Si2 0.687688 0.917885 0.260885
Si Si3 0.685368 0.329284 0.000408
Si Si4 0.813056 0.329287 0.514247
Si Si5 0.688092 0.170332 0.759197
Si Si6 0.189717 0.418674 0.636339
Si Si7 0.314959 0.328996 0.377531
Si Si8 0.188114 0.582212 0.883547
O O1 0.500000 0.826442 0.133570
O O2 0.750000 0.750000 0.149953
O O3 0.732421 0.879159 0.195607
O O4 0.752985 0.851667 0.069604
O O5 0.500000 0.913045 0.266206
O O6 0.761274 0.878787 0.320730
O O7 0.731300 0.000000 0.259355
O O8 0.500000 0.326076 0.001341
O O9 0.750000 0.250000 0.988529
O O10 0.743643 0.381310 0.945856
O O11 0.750000 0.250000 0.525595
O O12 0.763626 0.380630 0.571140
O O13 0.751452 0.352703 0.445615
O O14 0.000000 0.326621 0.512351
O O15 0.500000 0.172715 0.758532
O O16 0.750000 0.250000 0.759903
O O17 0.739632 0.127783 0.696583
O O18 0.736013 0.127031 0.821780
O O19 0.241898 0.500000 0.640308
O O20 0.000000 0.419618 0.637211
O O21 0.500000 0.325588 0.381076
O O22 0.250000 0.250000 0.366119
O O23 0.233792 0.500000 0.877963
O O24 0.000000 0.584698 0.887062
#
# Coordination Sequence:
#
# PCOD9348538 Si02
#       8
#     8   8   8   8   8   8   8   8
#     4  10  20  36  59  84 110 144 185 228 273 323
#     4  10  22  39  58  82 113 147 182 223 274 330
#     4  11  22  37  58  83 112 146 185 228 272 322
#     4  10  19  33  55  80 107 141 180 224 272 323
#     4  10  20  35  57  82 108 141 182 227 272 322
#     4   9  18  33  54  80 108 140 180 223 269 324
#     4  11  22  37  58  82 110 145 186 230 274 324
#     4  10  21  37  57  81 111 147 184 225 276 331
#
# _framework density 18.673185
#
# number of rings (size 3 to 8) (size 9 to 14) (size 15 to 20)
#    0.000    1.875    0.000    6.000    0.000    6.500 
#    0.000    3.125    0.000    3.750    0.000    0.000 
#    0.000    0.000    0.000    0.000    0.000    0.000 
#
# Total GULP energy -178799.617372 kJ/mol
# GULP energy per Si atom -5587.488043 kJ/mol
# Density = 1.863068 g / cm^3
# Si number density = 18.673185 Si / 1000 Ang^3
#
#
#
# Elastic Constant Matrix: (Units=GPa)
#
#
# Indices 1 2 3 4 5 6 
#
# 1 52.6831 47.7581 58.0492 0.0000 0.0000 0.0000
# 2 47.7581 153.5061 142.2009 0.0000 0.0000 0.0000
# 3 58.0492 142.2009 205.4482 0.0000 0.0000 0.0000
# 4 0.0000 0.0000 0.0000 183.2162 0.0000 0.0000
# 5 0.0000 0.0000 0.0000 0.0000 -28.7634 0.0000
# 6 0.0000 0.0000 0.0000 0.0000 0.0000 26.9580
#
#
#
# Elastic Compliance Matrix: (Units=1/GPa)
#
#
# Indices 1 2 3 4 5 6 
#
# 1 0.028378 -0.003905 -0.005315 0.000000 0.000000 0.000000
# 2 -0.003905 0.018692 -0.011834 0.000000 0.000000 0.000000
# 3 -0.005315 -0.011834 0.014560 0.000000 0.000000 0.000000
# 4 0.000000 0.000000 0.000000 0.005458 0.000000 0.000000
# 5 0.000000 0.000000 0.000000 0.000000 -0.034766 0.000000
# 6 0.000000 0.000000 0.000000 0.000000 0.000000 0.037095
#
#
# Mechanical properties :
#
#
# Convention : Reuss Voigt Hill
#
# Bulk Modulus (GPa) = 51.22630 100.85043 76.03836
# Shear Modulus (GPa) = 42.36079 47.19077 44.77578
#
# Velocity S-wave (km/s) = 4.76808 5.03257 4.90211
# Velocity P-wave (km/s) = 7.60299 9.37521 8.53522
#
# Compressibility (1/GPa) = 0.01952122
#
# Stress axis : x y z
#
# Youngs Moduli (GPa) = 35.23837 53.49847 68.67910
#
# Poissons Ratio (x) = 0.20891 0.36506
# Poissons Ratio (y) = 0.13760 0.81278
# Poissons Ratio (z) = 0.18731 0.63312
#
# Static dielectric constant tensor:
#      x y z
#    x 1.636340 0.000000 0.000000 
#    y 0.000000 1.608590 0.000000 
#    z 0.000000 0.000000 1.629560 
# 
# From -- ./inp_files/18379.got.cif
#   From: 2010.05.17/outbox.cif.g08.bks.cpg/sg35_10_cif.got.tgz:18379.got - 2010.06.03 17:29:28.
