data_PCOD9348144
_publ_section_title
;
Structure prediction by ZEFSAII (Michael W. Deem and Ramdas Pophale) SiO2 
 PCOD9348144
Probable space group: C M M 2
;
_chemical_formula_sum "Si O2"
_cell_formula_units_Z 64
_cell_length_a 8.661827
_cell_length_b 31.807708
_cell_length_c 12.223797
_cell_angle_alpha 90.000000
_cell_angle_beta 90.000000
_cell_angle_gamma 90.000000
_cell_volume 3367.813320
_symmetry_space_group_name_H-M "C M M 2"
_symmetry_group_IT_number 35
_symmetry_cell_setting 'orthorhombic'
loop_
_space_group_symop_operation_xyz
x,y,z
-x,-y,z
-x,y,z
x,-y,z
1/2+x,1/2+y,z
1/2-x,1/2-y,z
1/2-x,1/2+y,z
1/2+x,1/2-y,z
loop_
_atom_site_type_symbol
_atom_site_label
_atom_site_fract_x
_atom_site_fract_y
_atom_site_fract_z
Si Si1 0.686236 0.205312 0.603480
Si Si2 0.686517 0.124408 0.463841
Si Si3 0.184395 0.047351 0.601852
Si Si4 0.684931 0.922950 0.831254
Si Si5 0.311885 0.046707 0.070835
Si Si6 0.187043 0.373042 0.210928
Si Si7 0.683031 0.704984 0.074696
Si Si8 0.184954 0.322950 0.844673
O O1 0.500000 0.206216 0.601313
O O2 0.750000 0.250000 0.565785
O O3 0.737524 0.165922 0.530011
O O4 0.733497 0.197003 0.729322
O O5 0.500000 0.123609 0.467531
O O6 0.745917 0.082866 0.523825
O O7 0.734358 0.126434 0.337490
O O8 0.234626 0.057814 0.725697
O O9 0.000000 0.048886 0.594575
O O10 0.236621 0.000000 0.573974
O O11 0.500000 0.928620 0.819075
O O12 0.713773 0.872979 0.838433
O O13 0.733502 0.943588 0.945784
O O14 0.500000 0.047086 0.072224
O O15 0.261234 0.084533 0.148940
O O16 0.260993 0.000000 0.103541
O O17 0.249525 0.332688 0.147304
O O18 0.000000 0.371723 0.206367
O O19 0.500000 0.705582 0.083014
O O20 0.750000 0.750000 0.108847
O O21 0.732406 0.696331 0.949346
O O22 0.000000 0.317249 0.857861
#
# Coordination Sequence:
#
# PCOD9348144 Si02
#       8
#     8   8   8   8   8   8   8   8
#     4  10  21  37  57  85 115 146 188 237 293 350
#     4  10  22  41  63  85 112 155 204 247 290 346
#     4  11  24  39  57  86 124 160 196 243 297 352
#     4  10  18  34  61  87 116 153 193 239 292 353
#     4   9  17  31  56  89 118 146 184 235 293 347
#     4  10  21  40  63  86 117 152 197 251 295 342
#     4  12  25  40  61  88 121 157 198 241 293 356
#     4  10  19  36  61  87 118 151 190 241 295 352
#
# _framework density 19.003428
#
# number of rings (size 3 to 8) (size 9 to 14) (size 15 to 20)
#    0.000    1.750    2.500    2.250    0.000    5.500 
#    0.000    2.500    0.000    0.375    0.000    0.000 
#    0.000    0.000    0.000    0.000    0.000    0.000 
#
# Total GULP energy -178807.234032 kJ/mol
# GULP energy per Si atom -5587.726063 kJ/mol
# Density = 1.896018 g / cm^3
# Si number density = 19.003428 Si / 1000 Ang^3
#
#
#
# Elastic Constant Matrix: (Units=GPa)
#
#
# Indices 1 2 3 4 5 6 
#
# 1 16.1808 34.0910 29.6628 0.0000 0.0000 0.0000
# 2 34.0910 188.6552 96.5047 0.0000 0.0000 0.0000
# 3 29.6628 96.5047 154.5587 0.0000 0.0000 0.0000
# 4 0.0000 0.0000 0.0000 -1.8907 0.0000 0.0000
# 5 0.0000 0.0000 0.0000 0.0000 10.0191 0.0000
# 6 0.0000 0.0000 0.0000 0.0000 0.0000 25.1513
#
#
#
# Elastic Compliance Matrix: (Units=1/GPa)
#
#
# Indices 1 2 3 4 5 6 
#
# 1 0.116281 -0.014100 -0.013512 0.000000 0.000000 0.000000
# 2 -0.014100 0.009498 -0.003224 0.000000 0.000000 0.000000
# 3 -0.013512 -0.003224 0.011077 0.000000 0.000000 0.000000
# 4 0.000000 0.000000 0.000000 -0.528915 0.000000 0.000000
# 5 0.000000 0.000000 0.000000 0.000000 0.099809 0.000000
# 6 0.000000 0.000000 0.000000 0.000000 0.000000 0.039759
#
#
# Mechanical properties :
#
#
# Convention : Reuss Voigt Hill
#
# Bulk Modulus (GPa) = 13.30118 75.54576 44.42347
# Shear Modulus (GPa) = -30.16482 19.93170 -5.11656
#
# Velocity S-wave (km/s) = -3.98846 3.24210 -1.64265
# Velocity P-wave (km/s) = 3.76774 7.33860 4.45304
#
# Compressibility (1/GPa) = 0.07518128
#
# Stress axis : x y z
#
# Youngs Moduli (GPa) = 8.59984 105.28431 90.28052
#
# Poissons Ratio (x) = 1.48456 1.21991
# Poissons Ratio (y) = 0.12126 0.29110
# Poissons Ratio (z) = 0.11621 0.33947
#
# Static dielectric constant tensor:
#      x y z
#    x 1.644210 0.000000 0.000000 
#    y 0.000000 1.648740 0.000000 
#    z 0.000000 0.000000 1.636220 
# 
# From -- ./inp_files/11947.got.cif
#   From: 2010.05.17/outbox.cif.g08.bks.cpg/sg35_6_cif.got.tgz:11947.got - 2010.06.03 17:29:28.
