data_PCOD9348151
_publ_section_title
;
Structure prediction by ZEFSAII (Michael W. Deem and Ramdas Pophale) SiO2 
 PCOD9348151
Probable space group: C M M 2
;
_chemical_formula_sum "Si O2"
_cell_formula_units_Z 58
_cell_length_a 31.315091
_cell_length_b 7.878404
_cell_length_c 12.801751
_cell_angle_alpha 90.000000
_cell_angle_beta 90.000000
_cell_angle_gamma 90.000000
_cell_volume 3158.357603
_symmetry_space_group_name_H-M "C M M 2"
_symmetry_group_IT_number 35
_symmetry_cell_setting 'orthorhombic'
loop_
_space_group_symop_operation_xyz
x,y,z
-x,-y,z
-x,y,z
x,-y,z
1/2+x,1/2+y,z
1/2-x,1/2-y,z
1/2-x,1/2+y,z
1/2+x,1/2-y,z
loop_
_atom_site_type_symbol
_atom_site_label
_atom_site_fract_x
_atom_site_fract_y
_atom_site_fract_z
Si Si1 0.047861 0.293260 0.149150
Si Si2 0.798199 0.202105 0.410719
Si Si3 0.000000 0.500000 0.846253
Si Si4 0.938924 0.192224 0.908056
Si Si5 0.798285 0.202859 0.647893
Si Si6 0.202091 0.703592 0.052330
Si Si7 0.362209 0.203387 0.229492
Si Si8 0.654243 0.199959 0.851669
O O1 0.048197 0.500000 0.141683
O O2 0.088689 0.237979 0.217776
O O3 0.000000 0.244550 0.185124
O O4 0.054506 0.224434 0.032025
O O5 0.750000 0.250000 0.375846
O O6 0.804464 0.267941 0.529231
O O7 0.835509 0.258531 0.333354
O O8 0.799194 0.000000 0.414776
O O9 0.963499 0.347633 0.853598
O O10 0.889449 0.207953 0.878781
O O11 0.952824 0.000000 0.883217
O O12 0.750000 0.250000 0.678150
O O13 0.830037 0.272743 0.734464
O O14 0.802256 0.000000 0.646822
O O15 0.199996 0.500000 0.055529
O O16 0.250000 0.750000 0.081844
O O17 0.166631 0.769616 0.133301
O O18 0.189844 0.758924 0.935388
O O19 0.364113 0.000000 0.220008
O O20 0.647299 0.000000 0.869479
#
# Coordination Sequence:
#
# PCOD9348151 Si02
#       8
#     8   8   2   8   8   8   8   8
#     4  10  18  35  56  80 114 150 186 239 289 343
#     4  10  21  37  56  79 110 144 192 245 289 342
#     4  12  22  40  56  82 124 150 202 244 292 342
#     4  12  22  35  59  85 115 157 194 239 296 351
#     4  10  21  37  56  81 109 146 195 245 292 345
#     4  10  21  33  48  72 113 153 183 223 279 341
#     4  10  20  34  54  79 112 147 186 230 290 347
#     4  11  21  37  55  80 117 151 190 241 289 344
#
# _framework density 18.363973999999999
#
# number of rings (size 3 to 8) (size 9 to 14) (size 15 to 20)
#    0.000    1.517    3.448    2.276    0.000    6.069 
#    0.000    0.000    0.000    0.000    1.793    0.000 
#    0.000    0.000    0.000    0.000    0.000    0.000 
#
# Total GULP energy -161577.183669 kJ/mol
# GULP energy per Si atom -5571.627023 kJ/mol
# Density = 1.832218 g / cm^3
# Si number density = 18.363974 Si / 1000 Ang^3
#
#
#
# Elastic Constant Matrix: (Units=GPa)
#
#
# Indices 1 2 3 4 5 6 
#
# 1 170.9040 24.6575 61.2534 0.0000 0.0000 0.0000
# 2 24.6575 69.2932 7.6659 0.0000 0.0000 0.0000
# 3 61.2534 7.6659 67.7361 0.0000 0.0000 0.0000
# 4 0.0000 0.0000 0.0000 16.7899 0.0000 0.0000
# 5 0.0000 0.0000 0.0000 0.0000 30.1402 0.0000
# 6 0.0000 0.0000 0.0000 0.0000 0.0000 17.4089
#
#
#
# Elastic Compliance Matrix: (Units=1/GPa)
#
#
# Indices 1 2 3 4 5 6 
#
# 1 0.009015 -0.002335 -0.007888 0.000000 0.000000 0.000000
# 2 -0.002335 0.015219 0.000389 0.000000 0.000000 0.000000
# 3 -0.007888 0.000389 0.021852 0.000000 0.000000 0.000000
# 4 0.000000 0.000000 0.000000 0.059559 0.000000 0.000000
# 5 0.000000 0.000000 0.000000 0.000000 0.033178 0.000000
# 6 0.000000 0.000000 0.000000 0.000000 0.000000 0.057442
#
#
# Mechanical properties :
#
#
# Convention : Reuss Voigt Hill
#
# Bulk Modulus (GPa) = 37.85184 55.00966 46.43075
# Shear Modulus (GPa) = 22.24777 27.15824 24.70301
#
# Velocity S-wave (km/s) = 3.48442 3.84980 3.67166
# Velocity P-wave (km/s) = 6.07001 7.05560 6.58128
#
# Compressibility (1/GPa) = 0.02641879
#
# Stress axis : x y z
#
# Youngs Moduli (GPa) = 110.92133 65.70571 45.76157
#
# Poissons Ratio (x) = 0.15345 0.36098
# Poissons Ratio (y) = 0.25905 -0.01782
# Poissons Ratio (z) = 0.87498 -0.02559
#
# Static dielectric constant tensor:
#      x y z
#    x 1.642290 0.000000 0.000000 
#    y 0.000000 1.664630 0.000000 
#    z 0.000000 0.000000 1.632240 
# 
# From -- ./inp_files/11789.got.cif
#   From: 2010.05.17/outbox.cif.g08.bks.cpg/sg35_6_cif.got.tgz:11789.got - 2010.06.03 17:29:28.
