data_PCOD9348302
_publ_section_title
;
Structure prediction by ZEFSAII (Michael W. Deem and Ramdas Pophale) SiO2 
 PCOD9348302
Probable space group: C M M 2
;
_chemical_formula_sum "Si O2"
_cell_formula_units_Z 40
_cell_length_a 30.460186
_cell_length_b 13.946517
_cell_length_c 5.240993
_cell_angle_alpha 90.000000
_cell_angle_beta 90.000000
_cell_angle_gamma 90.000000
_cell_volume 2226.444590
_symmetry_space_group_name_H-M "C M M 2"
_symmetry_group_IT_number 35
_symmetry_cell_setting 'orthorhombic'
loop_
_space_group_symop_operation_xyz
x,y,z
-x,-y,z
-x,y,z
x,-y,z
1/2+x,1/2+y,z
1/2-x,1/2-y,z
1/2-x,1/2+y,z
1/2+x,1/2-y,z
loop_
_atom_site_type_symbol
_atom_site_label
_atom_site_fract_x
_atom_site_fract_y
_atom_site_fract_z
Si Si1 0.550556 0.883005 0.032110
Si Si2 0.698553 0.724465 0.194225
Si Si3 0.289381 0.612807 0.693333
Si Si4 0.601045 0.884205 0.527510
Si Si5 0.312814 0.887423 0.825686
O O1 0.500000 0.854647 0.067776
O O2 0.581381 0.848370 0.262300
O O3 0.551454 0.000000 0.032932
O O4 0.569874 0.852784 0.760523
O O5 0.750000 0.750000 0.207918
O O6 0.689852 0.673886 0.463521
O O7 0.692700 0.647782 0.965444
O O8 0.679150 0.821885 0.073113
O O9 0.295697 0.500000 0.651804
O O10 0.236230 0.628879 0.715599
O O11 0.650464 0.863808 0.616674
O O12 0.598758 0.000000 0.514395
O O13 0.316457 0.000000 0.893445
#
# Coordination Sequence:
#
# PCOD9348302 Si02
#       5
#     8   8   8   8   8
#     4   9  16  26  39  56  80 111 148 183 210 248
#     4  10  19  32  46  64  85 112 147 185 229 272
#     4  10  20  33  48  63  83 113 151 192 230 266
#     4   9  17  27  41  60  82 111 146 182 220 253
#     4   9  19  33  48  68  93 119 152 195 230 263
#
# _framework density 17.965862999999999
#
# number of rings (size 3 to 8) (size 9 to 14) (size 15 to 20)
#    0.000    2.600    0.000    3.000    0.000    8.000 
#    0.000   13.000    0.000    0.000    0.000    0.000 
#    0.000    0.000    0.000    0.000    0.000   70.000 
#
# Total GULP energy -111556.909093 kJ/mol
# GULP energy per Si atom -5577.845455 kJ/mol
# Density = 1.792497 g / cm^3
# Si number density = 17.965863 Si / 1000 Ang^3
#
#
#
# Elastic Constant Matrix: (Units=GPa)
#
#
# Indices 1 2 3 4 5 6 
#
# 1 52.4805 17.5447 16.3419 0.0000 0.0000 0.0000
# 2 17.5447 88.4953 41.9591 0.0000 0.0000 0.0000
# 3 16.3419 41.9591 113.8966 0.0000 0.0000 0.0000
# 4 0.0000 0.0000 0.0000 17.4970 0.0000 0.0000
# 5 0.0000 0.0000 0.0000 0.0000 15.9572 0.0000
# 6 0.0000 0.0000 0.0000 0.0000 0.0000 8.0241
#
#
#
# Elastic Compliance Matrix: (Units=1/GPa)
#
#
# Indices 1 2 3 4 5 6 
#
# 1 0.020697 -0.003266 -0.001766 0.000000 0.000000 0.000000
# 2 -0.003266 0.014207 -0.004765 0.000000 0.000000 0.000000
# 3 -0.001766 -0.004765 0.010789 0.000000 0.000000 0.000000
# 4 0.000000 0.000000 0.000000 0.057153 0.000000 0.000000
# 5 0.000000 0.000000 0.000000 0.000000 0.062668 0.000000
# 6 0.000000 0.000000 0.000000 0.000000 0.000000 0.124625
#
#
# Mechanical properties :
#
#
# Convention : Reuss Voigt Hill
#
# Bulk Modulus (GPa) = 38.31781 45.17377 41.74579
# Shear Modulus (GPa) = 15.70197 20.23076 17.96636
#
# Velocity S-wave (km/s) = 2.95954 3.35933 3.16575
# Velocity P-wave (km/s) = 5.74917 6.34394 6.05386
#
# Compressibility (1/GPa) = 0.02609752
#
# Stress axis : x y z
#
# Youngs Moduli (GPa) = 48.31731 70.38868 92.68845
#
# Poissons Ratio (x) = 0.22986 0.16373
# Poissons Ratio (y) = 0.15779 0.44168
# Poissons Ratio (z) = 0.08535 0.33542
#
# Static dielectric constant tensor:
#      x y z
#    x 1.643490 0.000000 0.000000 
#    y 0.000000 1.635260 0.000000 
#    z 0.000000 0.000000 1.668260 
# 
# From -- ./inp_files/1981.got.cif
#   From: 2010.05.17/outbox.cif.g08.bks.cpg/sg35_1_cif.got.tgz:1981.got - 2010.06.03 17:29:28.
