data_PCOD9348353
_publ_section_title
;
Structure prediction by ZEFSAII (Michael W. Deem and Ramdas Pophale) SiO2 
 PCOD9348353
Probable space group: C M M 2
;
_chemical_formula_sum "Si O2"
_cell_formula_units_Z 64
_cell_length_a 7.914789
_cell_length_b 34.713241
_cell_length_c 11.366612
_cell_angle_alpha 90.000000
_cell_angle_beta 90.000000
_cell_angle_gamma 90.000000
_cell_volume 3122.953664
_symmetry_space_group_name_H-M "C M M 2"
_symmetry_group_IT_number 35
_symmetry_cell_setting 'orthorhombic'
loop_
_space_group_symop_operation_xyz
x,y,z
-x,-y,z
-x,y,z
x,-y,z
1/2+x,1/2+y,z
1/2-x,1/2-y,z
1/2-x,1/2+y,z
1/2+x,1/2-y,z
loop_
_atom_site_type_symbol
_atom_site_label
_atom_site_fract_x
_atom_site_fract_y
_atom_site_fract_z
Si Si1 0.197929 0.456872 0.021760
Si Si2 0.296747 0.208058 0.023271
Si Si3 0.307450 0.291315 0.754755
Si Si4 0.202180 0.957558 0.496347
Si Si5 0.306401 0.880988 0.397128
Si Si6 0.192769 0.633479 0.652019
Si Si7 0.792707 0.625045 0.134602
Si Si8 0.305199 0.559461 0.761584
O O1 0.268147 0.500000 0.053540
O O2 0.264607 0.415887 0.075648
O O3 0.000000 0.457805 0.052876
O O4 0.213718 0.452868 0.880015
O O5 0.500000 0.207700 0.011143
O O6 0.250000 0.250000 0.080045
O O7 0.246933 0.166587 0.078571
O O8 0.212842 0.208862 0.895055
O O9 0.500000 0.299202 0.723036
O O10 0.250000 0.250000 0.710289
O O11 0.193744 0.324468 0.703020
O O12 0.297719 0.926575 0.419456
O O13 0.254540 0.955732 0.634030
O O14 0.000000 0.949311 0.495068
O O15 0.229885 0.000000 0.450598
O O16 0.500000 0.866991 0.393465
O O17 0.231066 0.866169 0.520530
O O18 0.232152 0.873263 0.269805
O O19 0.289358 0.605228 0.740235
O O20 0.000000 0.618741 0.643976
O O21 0.000000 0.623650 0.132257
O O22 0.500000 0.548037 0.774992
#
# Coordination Sequence:
#
# PCOD9348353 Si02
#       8
#     8   8   8   8   8   8   8   8
#     4  10  20  33  51  76 106 140 178 219 265 319
#     4  10  19  34  57  82 110 140 174 217 264 315
#     4  11  21  34  54  81 111 138 167 205 254 313
#     4   9  18  32  49  71 101 134 167 211 266 313
#     4   9  19  35  54  74  97 131 176 217 254 305
#     4  10  19  33  53  77 105 135 170 214 262 311
#     4   9  19  36  55  75 103 140 177 218 266 310
#     4  10  19  32  51  74 102 136 173 214 263 319
#
# _framework density 20.493418999999999
#
# number of rings (size 3 to 8) (size 9 to 14) (size 15 to 20)
#    0.000    2.250    0.000    4.125    0.000    3.500 
#    0.000    4.375    0.000    1.500    0.000    0.000 
#    0.000    0.000    0.000    0.000    0.000    0.000 
#
# Total GULP energy -178295.002949 kJ/mol
# GULP energy per Si atom -5571.718842 kJ/mol
# Density = 2.044678 g / cm^3
# Si number density = 20.493419 Si / 1000 Ang^3
#
#
#
# Elastic Constant Matrix: (Units=GPa)
#
#
# Indices 1 2 3 4 5 6 
#
# 1 39.5125 4.5161 -2.4599 0.0000 0.0000 0.0000
# 2 4.5161 154.7147 34.9757 0.0000 0.0000 0.0000
# 3 -2.4599 34.9757 48.1742 0.0000 0.0000 0.0000
# 4 0.0000 0.0000 0.0000 0.2977 0.0000 0.0000
# 5 0.0000 0.0000 0.0000 0.0000 4.3742 0.0000
# 6 0.0000 0.0000 0.0000 0.0000 0.0000 21.5042
#
#
#
# Elastic Compliance Matrix: (Units=1/GPa)
#
#
# Indices 1 2 3 4 5 6 
#
# 1 0.025589 -0.001247 0.002212 0.000000 0.000000 0.000000
# 2 -0.001247 0.007793 -0.005722 0.000000 0.000000 0.000000
# 3 0.002212 -0.005722 0.025025 0.000000 0.000000 0.000000
# 4 0.000000 0.000000 0.000000 3.359284 0.000000 0.000000
# 5 0.000000 0.000000 0.000000 0.000000 0.228615 0.000000
# 6 0.000000 0.000000 0.000000 0.000000 0.000000 0.046502
#
#
# Mechanical properties :
#
#
# Convention : Reuss Voigt Hill
#
# Bulk Modulus (GPa) = 20.45264 35.16281 27.80773
# Shear Modulus (GPa) = 1.34458 18.92652 10.13555
#
# Velocity S-wave (km/s) = 0.81088 3.04228 2.22632
# Velocity P-wave (km/s) = 3.29825 5.43470 4.49524
#
# Compressibility (1/GPa) = 0.04889344
#
# Stress axis : x y z
#
# Youngs Moduli (GPa) = 39.07981 128.31311 39.95972
#
# Poissons Ratio (x) = 0.16000 -0.08839
# Poissons Ratio (y) = 0.04873 0.22865
# Poissons Ratio (z) = -0.08644 0.73420
#
# Static dielectric constant tensor:
#      x y z
#    x 1.770400 0.000000 0.000000 
#    y 0.000000 1.773910 0.000000 
#    z 0.000000 0.000000 1.718170 
# 
# From -- ./inp_files/11994.got.cif
#   From: 2010.05.17/outbox.cif.g08.bks.cpg/sg35_6_cif.got.tgz:11994.got - 2010.06.03 17:29:28.
