data_PCOD9348320
_publ_section_title
;
Structure prediction by ZEFSAII (Michael W. Deem and Ramdas Pophale) SiO2 
 PCOD9348320
Probable space group: C M M 2
;
_chemical_formula_sum "Si O2"
_cell_formula_units_Z 48
_cell_length_a 7.837254
_cell_length_b 17.563750
_cell_length_c 18.144086
_cell_angle_alpha 90.000000
_cell_angle_beta 90.000000
_cell_angle_gamma 90.000000
_cell_volume 2497.561923
_symmetry_space_group_name_H-M "C M M 2"
_symmetry_group_IT_number 35
_symmetry_cell_setting 'orthorhombic'
loop_
_space_group_symop_operation_xyz
x,y,z
-x,-y,z
-x,y,z
x,-y,z
1/2+x,1/2+y,z
1/2-x,1/2-y,z
1/2-x,1/2+y,z
1/2+x,1/2-y,z
loop_
_atom_site_type_symbol
_atom_site_label
_atom_site_fract_x
_atom_site_fract_y
_atom_site_fract_z
Si Si1 0.000000 0.091171 0.984951
Si Si2 0.300048 0.413552 0.558226
Si Si3 0.295520 0.160402 0.247335
Si Si4 0.795937 0.661125 0.405972
Si Si5 0.705900 0.159890 0.084383
Si Si6 0.000000 0.093027 0.815256
Si Si7 0.187566 0.592881 0.714580
O O1 0.000000 0.117423 0.899898
O O2 0.170328 0.120476 0.025912
O O3 0.000000 0.000000 0.986151
O O4 0.500000 0.415769 0.576612
O O5 0.236593 0.500000 0.549181
O O6 0.276698 0.373851 0.480247
O O7 0.211842 0.379278 0.630569
O O8 0.500000 0.154493 0.248697
O O9 0.250000 0.250000 0.247182
O O10 0.233156 0.129255 0.326397
O O11 0.243900 0.130737 0.166966
O O12 0.750000 0.750000 0.406081
O O13 0.000000 0.652313 0.408744
O O14 0.500000 0.150206 0.074029
O O15 0.750000 0.250000 0.082570
O O16 0.165234 0.118327 0.769448
O O17 0.000000 0.000000 0.815401
O O18 0.199311 0.500000 0.710363
O O19 0.000000 0.612868 0.741630
#
# Coordination Sequence:
#
# PCOD9348320 Si02
#       7
#     4   8   8   8   8   4   8
#     4  11  24  38  58  93 126 150 186 247 309 350
#     4  10  19  32  50  75 106 139 181 230 271 317
#     4   8  16  29  50  77 103 135 188 235 266 315
#     4  10  19  32  49  75 106 141 180 228 273 320
#     4  10  19  37  63  88 113 155 202 242 284 352
#     4   9  18  34  52  77 113 142 176 229 280 336
#     4   9  16  29  52  77 101 137 183 225 268 326
#
# _framework density 19.218743
#
# number of rings (size 3 to 8) (size 9 to 14) (size 15 to 20)
#    0.000    2.500    1.667    1.000    1.167    2.667 
#    0.000    2.500    0.000    4.000    0.000    0.000 
#    0.000    0.000    0.000    0.000    0.000    0.000 
#
# Total GULP energy -133705.306006 kJ/mol
# GULP energy per Si atom -5571.054417 kJ/mol
# Density = 1.917500 g / cm^3
# Si number density = 19.218743 Si / 1000 Ang^3
#
#
#
# Elastic Constant Matrix: (Units=GPa)
#
#
# Indices 1 2 3 4 5 6 
#
# 1 111.2479 10.5528 74.4465 0.0000 0.0000 0.0000
# 2 10.5528 15.6473 27.3521 0.0000 0.0000 0.0000
# 3 74.4465 27.3521 191.1866 0.0000 0.0000 0.0000
# 4 0.0000 0.0000 0.0000 27.4795 0.0000 0.0000
# 5 0.0000 0.0000 0.0000 0.0000 59.9429 0.0000
# 6 0.0000 0.0000 0.0000 0.0000 0.0000 14.5918
#
#
#
# Elastic Compliance Matrix: (Units=1/GPa)
#
#
# Indices 1 2 3 4 5 6 
#
# 1 0.012157 0.000101 -0.004748 0.000000 0.000000 0.000000
# 2 0.000101 0.085222 -0.012232 0.000000 0.000000 0.000000
# 3 -0.004748 -0.012232 0.008829 0.000000 0.000000 0.000000
# 4 0.000000 0.000000 0.000000 0.036391 0.000000 0.000000
# 5 0.000000 0.000000 0.000000 0.000000 0.016683 0.000000
# 6 0.000000 0.000000 0.000000 0.000000 0.000000 0.068532
#
#
# Mechanical properties :
#
#
# Convention : Reuss Voigt Hill
#
# Bulk Modulus (GPa) = 13.80239 60.30941 37.05590
# Shear Modulus (GPa) = 17.49956 34.11818 25.80887
#
# Velocity S-wave (km/s) = 3.02080 4.21795 3.66854
# Velocity P-wave (km/s) = 4.40049 7.42766 6.10469
#
# Compressibility (1/GPa) = 0.07245120
#
# Stress axis : x y z
#
# Youngs Moduli (GPa) = 82.25819 11.73401 113.25811
#
# Poissons Ratio (x) = -0.00119 0.53778
# Poissons Ratio (y) = -0.00835 1.38536
# Poissons Ratio (z) = 0.39059 0.14353
#
# Static dielectric constant tensor:
#      x y z
#    x 1.663590 0.000000 0.000000 
#    y 0.000000 1.654790 0.000000 
#    z 0.000000 0.000000 1.703540 
# 
# From -- ./inp_files/15283.got.cif
#   From: 2010.05.17/outbox.cif.g08.bks.cpg/sg35_8_cif.got.tgz:15283.got - 2010.06.03 17:29:28.
