data_PCOD9348150
_publ_section_title
;
Structure prediction by ZEFSAII (Michael W. Deem and Ramdas Pophale) SiO2 
 PCOD9348150
Probable space group: C M M 2
;
_chemical_formula_sum "Si O2"
_cell_formula_units_Z 56
_cell_length_a 15.166196
_cell_length_b 20.476276
_cell_length_c 9.142878
_cell_angle_alpha 90.000000
_cell_angle_beta 90.000000
_cell_angle_gamma 90.000000
_cell_volume 2839.295302
_symmetry_space_group_name_H-M "C M M 2"
_symmetry_group_IT_number 35
_symmetry_cell_setting 'orthorhombic'
loop_
_space_group_symop_operation_xyz
x,y,z
-x,-y,z
-x,y,z
x,-y,z
1/2+x,1/2+y,z
1/2-x,1/2-y,z
1/2-x,1/2+y,z
1/2+x,1/2-y,z
loop_
_atom_site_type_symbol
_atom_site_label
_atom_site_fract_x
_atom_site_fract_y
_atom_site_fract_z
Si Si1 0.851804 0.167160 0.310950
Si Si2 0.192411 0.380046 0.126977
Si Si3 0.814283 0.862952 0.881735
Si Si4 0.500000 0.571823 0.206149
Si Si5 0.744981 0.828943 0.573515
Si Si6 0.105296 0.575385 0.413791
Si Si7 0.399293 0.752843 0.065455
Si Si8 0.000000 0.072951 0.855310
O O1 0.757560 0.159666 0.234432
O O2 0.915053 0.111046 0.254539
O O3 0.832886 0.155366 0.479533
O O4 0.890405 0.232506 0.237454
O O5 0.136957 0.421715 0.243087
O O6 0.130492 0.326816 0.050108
O O7 0.258413 0.405821 0.000006
O O8 0.755615 0.847171 0.741894
O O9 0.906528 0.892867 0.825724
O O10 0.841299 0.797065 0.969981
O O11 0.500000 0.500000 0.268416
O O12 0.500000 0.569524 0.031955
O O13 0.750000 0.750000 0.558789
O O14 0.663692 0.871024 0.504080
O O15 0.120937 0.500000 0.464233
O O16 0.000000 0.588701 0.422704
O O17 0.500000 0.742886 0.022245
O O18 0.000000 0.000000 0.793654
#
# Coordination Sequence:
#
# PCOD9348150 Si02
#       8
#     8   8   8   4   8   8   8   4
#     4  10  18  35  52  82 116 155 202 259 302 365
#     4  10  20  33  63  88 111 156 209 258 309 368
#     4  11  21  41  57  90 130 169 209 255 314 379
#     4  11  20  35  59  87 117 163 212 258 309 368
#     4  11  24  41  64  94 129 171 212 260 320 383
#     4  10  23  46  69  93 127 166 214 270 327 383
#     4  11  18  34  57  83 123 157 204 262 318 362
#     4  11  22  39  61  87 127 173 208 254 313 374
#
# _framework density 19.723205
#
# number of rings (size 3 to 8) (size 9 to 14) (size 15 to 20)
#    0.000    1.429    4.286    4.714    0.000    4.000 
#    2.571    2.143    0.000    1.714    0.000    0.000 
#    0.000    0.000    0.000    0.000    0.000    0.000 
#
# Total GULP energy -155883.883830 kJ/mol
# GULP energy per Si atom -5567.281565 kJ/mol
# Density = 1.967831 g / cm^3
# Si number density = 19.723205 Si / 1000 Ang^3
#
#
#
# Elastic Constant Matrix: (Units=GPa)
#
#
# Indices 1 2 3 4 5 6 
#
# 1 108.1370 47.7486 37.3016 0.0000 0.0000 0.0000
# 2 47.7486 91.1878 16.4113 0.0000 0.0000 0.0000
# 3 37.3016 16.4113 88.0472 0.0000 0.0000 0.0000
# 4 0.0000 0.0000 0.0000 13.4513 0.0000 0.0000
# 5 0.0000 0.0000 0.0000 0.0000 46.5990 0.0000
# 6 0.0000 0.0000 0.0000 0.0000 0.0000 16.1914
#
#
#
# Elastic Compliance Matrix: (Units=1/GPa)
#
#
# Indices 1 2 3 4 5 6 
#
# 1 0.013615 -0.006302 -0.004593 0.000000 0.000000 0.000000
# 2 -0.006302 0.014265 0.000011 0.000000 0.000000 0.000000
# 3 -0.004593 0.000011 0.013301 0.000000 0.000000 0.000000
# 4 0.000000 0.000000 0.000000 0.074342 0.000000 0.000000
# 5 0.000000 0.000000 0.000000 0.000000 0.021460 0.000000
# 6 0.000000 0.000000 0.000000 0.000000 0.000000 0.061761
#
#
# Mechanical properties :
#
#
# Convention : Reuss Voigt Hill
#
# Bulk Modulus (GPa) = 51.51493 54.47723 52.99608
# Shear Modulus (GPa) = 22.02802 27.64236 24.83519
#
# Velocity S-wave (km/s) = 3.34557 3.74774 3.55235
# Velocity P-wave (km/s) = 6.41088 6.81236 6.61467
#
# Compressibility (1/GPa) = 0.01941185
#
# Stress axis : x y z
#
# Youngs Moduli (GPa) = 73.44905 70.10402 75.17999
#
# Poissons Ratio (x) = 0.44183 0.34532
# Poissons Ratio (y) = 0.46291 -0.00085
# Poissons Ratio (z) = 0.33737 -0.00079
#
# Static dielectric constant tensor:
#      x y z
#    x 1.623340 0.000000 0.000000 
#    y 0.000000 1.749500 0.000000 
#    z 0.000000 0.000000 1.723130 
# 
# From -- ./inp_files/7697.got.cif
#   From: 2010.05.17/outbox.cif.g08.bks.cpg/sg35_4_cif.got.tgz:7697.got - 2010.06.03 17:29:28.
