data_PCOD9348504
_publ_section_title
;
Structure prediction by ZEFSAII (Michael W. Deem and Ramdas Pophale) SiO2 
 PCOD9348504
Probable space group: C M M 2
;
_chemical_formula_sum "Si O2"
_cell_formula_units_Z 64
_cell_length_a 8.755229
_cell_length_b 19.194741
_cell_length_c 21.465888
_cell_angle_alpha 90.000000
_cell_angle_beta 90.000000
_cell_angle_gamma 90.000000
_cell_volume 3607.435920
_symmetry_space_group_name_H-M "C M M 2"
_symmetry_group_IT_number 35
_symmetry_cell_setting 'orthorhombic'
loop_
_space_group_symop_operation_xyz
x,y,z
-x,-y,z
-x,y,z
x,-y,z
1/2+x,1/2+y,z
1/2-x,1/2-y,z
1/2-x,1/2+y,z
1/2+x,1/2-y,z
loop_
_atom_site_type_symbol
_atom_site_label
_atom_site_fract_x
_atom_site_fract_y
_atom_site_fract_z
Si Si1 0.683552 0.328159 0.320330
Si Si2 0.684164 0.418924 0.565451
Si Si3 0.315836 0.581076 0.802771
Si Si4 0.315200 0.327444 0.684111
Si Si5 0.183654 0.827933 0.184111
Si Si6 0.682339 0.081696 0.936352
Si Si7 0.683552 0.671841 0.047891
Si Si8 0.682339 0.081696 0.431870
O O1 0.500000 0.324949 0.323670
O O2 0.750000 0.250000 0.324697
O O3 0.728085 0.358046 0.251592
O O4 0.746733 0.374003 0.376312
O O5 0.500000 0.416310 0.560880
O O6 0.726482 0.500000 0.576973
O O7 0.732103 0.370362 0.622642
O O8 0.754498 0.396848 0.499530
O O9 0.500000 0.583691 0.807343
O O10 0.273520 0.500000 0.791249
O O11 0.267898 0.629637 0.745580
O O12 0.245500 0.603152 0.868692
O O13 0.500000 0.324582 0.684111
O O14 0.250000 0.250000 0.684111
O O15 0.250000 0.750000 0.184111
O O16 0.000000 0.824200 0.184111
O O17 0.228085 0.858046 0.116629
O O18 0.500000 0.088580 0.936965
O O19 0.753267 0.125997 0.991909
O O20 0.721876 0.000000 0.944181
O O21 0.500000 0.675051 0.044552
O O22 0.750000 0.750000 0.043524
O O23 0.500000 0.088582 0.431257
O O24 0.721873 0.000000 0.424040
#
# Coordination Sequence:
#
# PCOD9348504 Si02
#       8
#     8   8   8   8   8   8   8   8
#     4  10  19  33  54  78 104 135 172 214 260 309
#     4   9  18  35  57  76  97 132 175 212 249 299
#     4   9  18  35  57  76  97 132 175 212 249 299
#     4  10  21  35  53  79 107 132 162 206 256 304
#     4   8  16  30  49  74 101 131 169 211 255 306
#     4  10  21  36  53  76 106 138 174 215 257 304
#     4  10  19  33  54  78 104 135 172 214 260 309
#     4  10  21  36  53  76 106 138 174 215 257 304
#
# _framework density 17.741132
#
# number of rings (size 3 to 8) (size 9 to 14) (size 15 to 20)
#    0.000    2.500    0.000    1.875    0.000    6.000 
#    0.000    3.125    0.000    7.500    0.000    0.000 
#    0.000    0.000    0.000    0.000    0.000    0.000 
#
# Total GULP energy -178429.417830 kJ/mol
# GULP energy per Si atom -5575.919307 kJ/mol
# Density = 1.770075 g / cm^3
# Si number density = 17.741132 Si / 1000 Ang^3
#
#
#
# Elastic Constant Matrix: (Units=GPa)
#
#
# Indices 1 2 3 4 5 6 
#
# 1 25.8700 31.1615 54.5829 0.0000 0.0000 0.0000
# 2 31.1615 73.9587 103.0787 0.0000 0.0000 0.0000
# 3 54.5829 103.0787 232.1529 0.0000 0.0000 0.0000
# 4 0.0000 0.0000 0.0000 38.1704 0.0000 0.0000
# 5 0.0000 0.0000 0.0000 0.0000 20.3864 0.0000
# 6 0.0000 0.0000 0.0000 0.0000 0.0000 27.7330
#
#
#
# Elastic Compliance Matrix: (Units=1/GPa)
#
#
# Indices 1 2 3 4 5 6 
#
# 1 0.088222 -0.021675 -0.011118 0.000000 0.000000 0.000000
# 2 -0.021675 0.040798 -0.013019 0.000000 0.000000 0.000000
# 3 -0.011118 -0.013019 0.012702 0.000000 0.000000 0.000000
# 4 0.000000 0.000000 0.000000 0.026198 0.000000 0.000000
# 5 0.000000 0.000000 0.000000 0.000000 0.049052 0.000000
# 6 0.000000 0.000000 0.000000 0.000000 0.000000 0.036058
#
#
# Mechanical properties :
#
#
# Convention : Reuss Voigt Hill
#
# Bulk Modulus (GPa) = 19.96089 78.84754 49.40422
# Shear Modulus (GPa) = 13.83678 26.80184 20.31931
#
# Velocity S-wave (km/s) = 2.79575 3.89101 3.38793
# Velocity P-wave (km/s) = 4.65803 8.04528 6.57357
#
# Compressibility (1/GPa) = 0.05009797
#
# Stress axis : x y z
#
# Youngs Moduli (GPa) = 11.33499 24.51084 78.72712
#
# Poissons Ratio (x) = 0.53128 0.87532
# Poissons Ratio (y) = 0.24569 1.02493
# Poissons Ratio (z) = 0.12603 0.31910
#
# Static dielectric constant tensor:
#      x y z
#    x 1.596240 0.000000 0.000000 
#    y 0.000000 1.574110 0.000000 
#    z 0.000000 0.000000 1.618120 
# 
# From -- ./inp_files/18436.got.cif
#   From: 2010.05.17/outbox.cif.g08.bks.cpg/sg35_10_cif.got.tgz:18436.got - 2010.06.03 17:29:28.
