data_PCOD9348820
_publ_section_title
;
Structure prediction by ZEFSAII (Michael W. Deem and Ramdas Pophale) SiO2 
 PCOD9348820
Probable space group: C M M 2
;
_chemical_formula_sum "Si O2"
_cell_formula_units_Z 56
_cell_length_a 8.884981
_cell_length_b 17.946671
_cell_length_c 19.192321
_cell_angle_alpha 90.000000
_cell_angle_beta 90.000000
_cell_angle_gamma 90.000000
_cell_volume 3060.327491
_symmetry_space_group_name_H-M "C M M 2"
_symmetry_group_IT_number 35
_symmetry_cell_setting 'orthorhombic'
loop_
_space_group_symop_operation_xyz
x,y,z
-x,-y,z
-x,y,z
x,-y,z
1/2+x,1/2+y,z
1/2-x,1/2-y,z
1/2-x,1/2+y,z
1/2+x,1/2-y,z
loop_
_atom_site_type_symbol
_atom_site_label
_atom_site_fract_x
_atom_site_fract_y
_atom_site_fract_z
Si Si1 0.824258 0.590851 0.182250
Si Si2 0.172986 0.910088 0.039365
Si Si3 0.319144 0.412848 0.476928
Si Si4 0.680359 0.088697 0.334916
Si Si5 0.678665 0.832462 0.909970
Si Si6 0.680781 0.333493 0.769745
Si Si7 0.318593 0.667893 0.617324
O O1 0.818971 0.500000 0.184057
O O2 0.730196 0.615130 0.115401
O O3 0.770913 0.617379 0.258669
O O4 0.000000 0.610830 0.173509
O O5 0.000000 0.887475 0.028292
O O6 0.180226 0.000000 0.038269
O O7 0.274401 0.877936 0.977968
O O8 0.500000 0.407750 0.473195
O O9 0.278265 0.500000 0.480574
O O10 0.252101 0.380106 0.405410
O O11 0.267658 0.375208 0.548546
O O12 0.500000 0.095746 0.338080
O O13 0.715793 0.000000 0.334940
O O14 0.500000 0.826590 0.903179
O O15 0.750000 0.750000 0.916765
O O16 0.747979 0.867741 0.839247
O O17 0.500000 0.329884 0.777040
O O18 0.750000 0.250000 0.767527
O O19 0.717526 0.366659 0.693471
O O20 0.500000 0.673050 0.614922
O O21 0.250000 0.750000 0.615108
#
# Coordination Sequence:
#
# PCOD9348820 Si02
#       7
#     8   8   8   8   8   8   8
#     4   8  14  26  44  66  93 124 157 193 234 279
#     4  10  20  33  50  74 102 129 160 198 240 286
#     4   9  17  29  45  67  95 123 152 189 234 281
#     4   8  14  25  42  65  92 122 156 192 230 273
#     4  11  21  34  53  74  98 127 161 199 240 287
#     4   9  16  29  48  69  92 119 157 198 234 276
#     4   9  18  31  48  69  92 121 156 193 233 277
#
# _framework density 18.298694999999999
#
# number of rings (size 3 to 8) (size 9 to 14) (size 15 to 20)
#    0.000    2.857    0.000    3.857    0.000    2.571 
#    0.000    3.571    0.000    3.429    0.000    2.000 
#    0.000    0.000    0.000    0.000    0.000    0.000 
#
# Total GULP energy -155925.845174 kJ/mol
# GULP energy per Si atom -5568.780185 kJ/mol
# Density = 1.825705 g / cm^3
# Si number density = 18.298695 Si / 1000 Ang^3
#
#
#
# Elastic Constant Matrix: (Units=GPa)
#
#
# Indices 1 2 3 4 5 6 
#
# 1 65.1817 11.0745 55.2592 0.0000 0.0000 0.0000
# 2 11.0745 6.8271 27.0055 0.0000 0.0000 0.0000
# 3 55.2592 27.0055 198.2108 0.0000 0.0000 0.0000
# 4 0.0000 0.0000 0.0000 31.0917 0.0000 0.0000
# 5 0.0000 0.0000 0.0000 0.0000 33.9354 0.0000
# 6 0.0000 0.0000 0.0000 0.0000 0.0000 14.8033
#
#
#
# Elastic Compliance Matrix: (Units=1/GPa)
#
#
# Indices 1 2 3 4 5 6 
#
# 1 0.021843 -0.024604 -0.002737 0.000000 0.000000 0.000000
# 2 -0.024604 0.345405 -0.040201 0.000000 0.000000 0.000000
# 3 -0.002737 -0.040201 0.011286 0.000000 0.000000 0.000000
# 4 0.000000 0.000000 0.000000 0.032163 0.000000 0.000000
# 5 0.000000 0.000000 0.000000 0.000000 0.029468 0.000000
# 6 0.000000 0.000000 0.000000 0.000000 0.000000 0.067553
#
#
# Mechanical properties :
#
#
# Convention : Reuss Voigt Hill
#
# Bulk Modulus (GPa) = 4.10763 50.76644 27.43703
# Shear Modulus (GPa) = 6.90656 27.75811 17.33233
#
# Velocity S-wave (km/s) = 1.94487 3.89902 3.08098
# Velocity P-wave (km/s) = 2.70056 6.93349 5.26148
#
# Compressibility (1/GPa) = 0.24344940
#
# Stress axis : x y z
#
# Youngs Moduli (GPa) = 45.78225 2.89515 88.60906
#
# Poissons Ratio (x) = 0.07123 0.24255
# Poissons Ratio (y) = 1.12640 3.56218
# Poissons Ratio (z) = 0.12532 0.11639
#
# Static dielectric constant tensor:
#      x y z
#    x 1.615900 0.000000 0.000000 
#    y 0.000000 1.620720 0.000000 
#    z 0.000000 0.000000 1.689380 
# 
# From -- ./inp_files/18460.got.cif
#   From: 2010.05.17/outbox.cif.g08.bks.cpg/sg35_10_cif.got.tgz:18460.got - 2010.06.03 17:29:28.
