data_PCOD9348665
_publ_section_title
;
Structure prediction by ZEFSAII (Michael W. Deem and Ramdas Pophale) SiO2 
 PCOD9348665
Probable space group: C M M 2
;
_chemical_formula_sum "Si O2"
_cell_formula_units_Z 48
_cell_length_a 8.297114
_cell_length_b 15.883493
_cell_length_c 17.918189
_cell_angle_alpha 90.000000
_cell_angle_beta 90.000000
_cell_angle_gamma 90.000000
_cell_volume 2361.387100
_symmetry_space_group_name_H-M "C M M 2"
_symmetry_group_IT_number 35
_symmetry_cell_setting 'orthorhombic'
loop_
_space_group_symop_operation_xyz
x,y,z
-x,-y,z
-x,y,z
x,-y,z
1/2+x,1/2+y,z
1/2-x,1/2-y,z
1/2-x,1/2+y,z
1/2+x,1/2-y,z
loop_
_atom_site_type_symbol
_atom_site_label
_atom_site_fract_x
_atom_site_fract_y
_atom_site_fract_z
Si Si1 0.693293 0.902550 0.701100
Si Si2 0.305584 0.340332 0.221428
Si Si3 0.807149 0.000000 0.953531
Si Si4 0.302857 0.500000 0.124614
Si Si5 0.196437 0.900801 0.380971
Si Si6 0.808663 0.101506 0.542587
Si Si7 0.307452 0.840339 0.859584
O O1 0.500000 0.904855 0.704597
O O2 0.738695 0.866301 0.620337
O O3 0.753743 0.855025 0.774528
O O4 0.751314 0.000000 0.705268
O O5 0.500000 0.342626 0.223203
O O6 0.250000 0.250000 0.193626
O O7 0.250979 0.417152 0.169617
O O8 0.246977 0.354575 0.306582
O O9 0.749505 0.917477 0.909912
O O10 0.000000 0.000000 0.954410
O O11 0.749061 0.000000 0.039089
O O12 0.500000 0.500000 0.124820
O O13 0.253816 0.868135 0.461881
O O14 0.000000 0.897270 0.382453
O O15 0.237230 0.000000 0.374039
O O16 0.000000 0.114611 0.545007
O O17 0.780540 0.000000 0.541695
O O18 0.500000 0.841310 0.857823
O O19 0.250000 0.750000 0.887368
#
# Coordination Sequence:
#
# PCOD9348665 Si02
#       7
#     8   8   4   4   8   8   8
#     4   9  17  32  52  75 109 149 186 230 286 337
#     4  10  19  35  58  83 112 148 186 228 274 328
#     4  11  23  41  65  92 117 148 190 237 293 357
#     4   9  20  39  63  86 111 146 186 223 275 345
#     4   8  13  26  50  75 102 143 189 229 269 322
#     4   8  14  24  44  76 105 136 188 237 271 319
#     4  11  23  41  62  88 119 155 195 239 289 347
#
# _framework density 20.327037000000001
#
# number of rings (size 3 to 8) (size 9 to 14) (size 15 to 20)
#    0.000    2.667    1.667    1.750    0.000    2.000 
#    0.000    5.417    0.000    5.000    0.000    0.000 
#    0.000    0.000    0.000    0.000    0.000    0.000 
#
# Total GULP energy -133885.965766 kJ/mol
# GULP energy per Si atom -5578.581907 kJ/mol
# Density = 2.028077 g / cm^3
# Si number density = 20.327037 Si / 1000 Ang^3
#
#
#
# Elastic Constant Matrix: (Units=GPa)
#
#
# Indices 1 2 3 4 5 6 
#
# 1 8.4045 14.0797 29.1207 0.0000 0.0000 0.0000
# 2 14.0797 131.3950 81.7542 0.0000 0.0000 0.0000
# 3 29.1207 81.7542 169.9441 0.0000 0.0000 0.0000
# 4 0.0000 0.0000 0.0000 -6.6690 0.0000 0.0000
# 5 0.0000 0.0000 0.0000 0.0000 5.6784 0.0000
# 6 0.0000 0.0000 0.0000 0.0000 0.0000 20.0268
#
#
#
# Elastic Compliance Matrix: (Units=1/GPa)
#
#
# Indices 1 2 3 4 5 6 
#
# 1 0.292869 -0.000225 -0.050076 0.000000 0.000000 0.000000
# 2 -0.000225 0.010862 -0.005187 0.000000 0.000000 0.000000
# 3 -0.050076 -0.005187 0.016960 0.000000 0.000000 0.000000
# 4 0.000000 0.000000 0.000000 -0.149947 0.000000 0.000000
# 5 0.000000 0.000000 0.000000 0.000000 0.176106 0.000000
# 6 0.000000 0.000000 0.000000 0.000000 0.000000 0.049933
#
#
# Mechanical properties :
#
#
# Convention : Reuss Voigt Hill
#
# Bulk Modulus (GPa) = 4.76837 62.18364 33.47601
# Shear Modulus (GPa) = 8.65553 16.12649 12.39101
#
# Velocity S-wave (km/s) = 2.06576 2.81971 2.47165
# Velocity P-wave (km/s) = 2.83562 6.42332 4.96486
#
# Compressibility (1/GPa) = 0.20971538
#
# Stress axis : x y z
#
# Youngs Moduli (GPa) = 3.41449 92.06445 58.96129
#
# Poissons Ratio (x) = 0.02072 2.95257
# Poissons Ratio (y) = 0.00077 0.30582
# Poissons Ratio (z) = 0.17099 0.47752
#
# Static dielectric constant tensor:
#      x y z
#    x 1.708170 0.000000 0.000000 
#    y 0.000000 1.711410 0.000000 
#    z 0.000000 0.000000 1.750240 
# 
# From -- ./inp_files/17880.got.cif
#   From: 2010.05.17/outbox.cif.g08.bks.cpg/sg35_9_cif.got.tgz:17880.got - 2010.06.03 17:29:28.
