data_PCOD9348403
_publ_section_title
;
Structure prediction by ZEFSAII (Michael W. Deem and Ramdas Pophale) SiO2 
 PCOD9348403
Probable space group: C M M 2
;
_chemical_formula_sum "Si O2"
_cell_formula_units_Z 64
_cell_length_a 30.218188
_cell_length_b 8.364534
_cell_length_c 12.684512
_cell_angle_alpha 90.000000
_cell_angle_beta 90.000000
_cell_angle_gamma 90.000000
_cell_volume 3206.150711
_symmetry_space_group_name_H-M "C M M 2"
_symmetry_group_IT_number 35
_symmetry_cell_setting 'orthorhombic'
loop_
_space_group_symop_operation_xyz
x,y,z
-x,-y,z
-x,y,z
x,-y,z
1/2+x,1/2+y,z
1/2-x,1/2-y,z
1/2-x,1/2+y,z
1/2+x,1/2-y,z
loop_
_atom_site_type_symbol
_atom_site_label
_atom_site_fract_x
_atom_site_fract_y
_atom_site_fract_z
Si Si1 0.326574 0.310454 0.470430
Si Si2 0.203029 0.190813 0.238079
Si Si3 0.885364 0.188315 0.786293
Si Si4 0.894078 0.809680 0.179320
Si Si5 0.796649 0.688291 0.695555
Si Si6 0.548256 0.807132 0.617718
Si Si7 0.448769 0.695835 0.976924
Si Si8 0.081213 0.685206 0.401179
O O1 0.337229 0.500000 0.467752
O O2 0.299638 0.273672 0.363655
O O3 0.304383 0.270142 0.581264
O O4 0.370923 0.208614 0.455461
O O5 0.250000 0.250000 0.195614
O O6 0.156731 0.253173 0.188092
O O7 0.202387 0.000000 0.227523
O O8 0.838168 0.270540 0.769704
O O9 0.913626 0.220000 0.681152
O O10 0.917016 0.246225 0.880767
O O11 0.877680 0.000000 0.800144
O O12 0.916872 0.777481 0.291731
O O13 0.890378 0.000000 0.165361
O O14 0.924428 0.749871 0.084060
O O15 0.794667 0.500000 0.678431
O O16 0.750000 0.750000 0.738856
O O17 0.500000 0.769808 0.663447
O O18 0.549302 0.761746 0.494775
O O19 0.555007 0.000000 0.622985
O O20 0.500000 0.748526 0.968920
O O21 0.449792 0.500000 0.976007
O O22 0.073023 0.500000 0.377566
#
# Coordination Sequence:
#
# PCOD9348403 Si02
#       8
#     8   8   8   8   8   8   8   8
#     4  10  19  33  53  80 114 153 196 240 284 339
#     4   9  18  30  48  76 110 148 185 225 274 331
#     4  11  22  38  61  87 115 147 194 251 299 352
#     4   9  19  36  56  80 113 147 188 243 297 345
#     4  12  24  38  57  84 118 157 197 238 290 349
#     4  10  21  36  54  80 117 157 191 232 294 359
#     4   9  19  38  64  89 111 144 194 249 301 352
#     4  10  19  32  52  80 117 158 193 233 289 351
#
# _framework density 19.961631000000001
#
# number of rings (size 3 to 8) (size 9 to 14) (size 15 to 20)
#    0.000    2.000    1.250    3.750    0.000    5.250 
#    0.000    1.875    0.000    3.000    0.000    0.000 
#    0.000    0.000    0.000    0.000    0.000    0.000 
#
# Total GULP energy -178538.791849 kJ/mol
# GULP energy per Si atom -5579.337245 kJ/mol
# Density = 1.991620 g / cm^3
# Si number density = 19.961631 Si / 1000 Ang^3
#
#
#
# Elastic Constant Matrix: (Units=GPa)
#
#
# Indices 1 2 3 4 5 6 
#
# 1 140.5648 14.6837 59.0065 0.0000 0.0000 0.0000
# 2 14.6837 13.9555 5.4046 0.0000 0.0000 0.0000
# 3 59.0065 5.4046 91.9003 0.0000 0.0000 0.0000
# 4 0.0000 0.0000 0.0000 24.7822 0.0000 0.0000
# 5 0.0000 0.0000 0.0000 0.0000 16.7496 0.0000
# 6 0.0000 0.0000 0.0000 0.0000 0.0000 11.8281
#
#
#
# Elastic Compliance Matrix: (Units=1/GPa)
#
#
# Indices 1 2 3 4 5 6 
#
# 1 0.010700 -0.008798 -0.006353 0.000000 0.000000 0.000000
# 2 -0.008798 0.080561 0.000911 0.000000 0.000000 0.000000
# 3 -0.006353 0.000911 0.014907 0.000000 0.000000 0.000000
# 4 0.000000 0.000000 0.000000 0.040352 0.000000 0.000000
# 5 0.000000 0.000000 0.000000 0.000000 0.059703 0.000000
# 6 0.000000 0.000000 0.000000 0.000000 0.000000 0.084544
#
#
# Mechanical properties :
#
#
# Convention : Reuss Voigt Hill
#
# Bulk Modulus (GPa) = 12.87196 44.95669 28.91433
# Shear Modulus (GPa) = 14.48681 21.82702 18.15692
#
# Velocity S-wave (km/s) = 2.69687 3.31032 3.01921
# Velocity P-wave (km/s) = 4.01993 6.09766 5.16436
#
# Compressibility (1/GPa) = 0.07768822
#
# Stress axis : x y z
#
# Youngs Moduli (GPa) = 93.45819 12.41300 67.08400
#
# Poissons Ratio (x) = 0.10921 0.42617
# Poissons Ratio (y) = 0.82225 -0.06113
# Poissons Ratio (z) = 0.59372 -0.01131
#
# Static dielectric constant tensor:
#      x y z
#    x 1.732070 0.000000 0.000000 
#    y 0.000000 1.678970 0.000000 
#    z 0.000000 0.000000 1.704780 
# 
# From -- ./inp_files/12008.got.cif
#   From: 2010.05.17/outbox.cif.g08.bks.cpg/sg35_7_cif.got.tgz:12008.got - 2010.06.03 17:29:28.
