data_PCOD9348678
_publ_section_title
;
Structure prediction by ZEFSAII (Michael W. Deem and Ramdas Pophale) SiO2 
 PCOD9348678
Probable space group: C M M 2
;
_chemical_formula_sum "Si O2"
_cell_formula_units_Z 56
_cell_length_a 26.476679
_cell_length_b 20.573643
_cell_length_c 5.291565
_cell_angle_alpha 90.000000
_cell_angle_beta 90.000000
_cell_angle_gamma 90.000000
_cell_volume 2882.430502
_symmetry_space_group_name_H-M "C M M 2"
_symmetry_group_IT_number 35
_symmetry_cell_setting 'orthorhombic'
loop_
_space_group_symop_operation_xyz
x,y,z
-x,-y,z
-x,y,z
x,-y,z
1/2+x,1/2+y,z
1/2-x,1/2-y,z
1/2-x,1/2+y,z
1/2+x,1/2-y,z
loop_
_atom_site_type_symbol
_atom_site_label
_atom_site_fract_x
_atom_site_fract_y
_atom_site_fract_z
Si Si1 0.394364 0.363179 0.322360
Si Si2 0.392147 0.887244 0.729289
Si Si3 0.058141 0.728428 0.472920
Si Si4 0.942541 0.404912 0.231304
Si Si5 0.560272 0.424907 0.823794
Si Si6 0.785093 0.077435 0.305835
Si Si7 0.280070 0.077054 0.809695
O O1 0.409528 0.289941 0.393051
O O2 0.416333 0.405160 0.555535
O O3 0.335451 0.379936 0.301915
O O4 0.419404 0.382508 0.055994
O O5 0.415446 0.815008 0.689662
O O6 0.407016 0.922515 0.467026
O O7 0.332862 0.886370 0.777730
O O8 0.419673 0.921123 0.962924
O O9 0.056090 0.673937 0.253577
O O10 0.000000 0.746430 0.536065
O O11 0.000000 0.426865 0.266251
O O12 0.500000 0.418465 0.808199
O O13 0.572984 0.500000 0.878165
O O14 0.755167 0.087876 0.566516
O O15 0.798074 0.000000 0.289804
O O16 0.749619 0.092902 0.066506
O O17 0.292034 0.000000 0.818182
#
# Coordination Sequence:
#
# PCOD9348678 Si02
#       7
#     8   8   8   8   8   8   8
#     4  12  23  37  60  83 115 155 200 240 290 351
#     4  10  19  35  60  83 115 149 191 237 290 343
#     4   9  21  36  58  86 116 153 192 228 279 351
#     4   9  18  33  56  81 115 153 185 222 280 348
#     4  11  23  37  54  81 115 151 194 248 301 345
#     4  10  21  38  59  83 111 147 195 248 295 340
#     4  10  21  39  63  86 110 148 198 244 293 351
#
# _framework density 19.428048
#
# number of rings (size 3 to 8) (size 9 to 14) (size 15 to 20)
#    0.857    1.000    0.000    5.143    2.000    2.286 
#    0.000    0.714    0.000    4.714    0.000    0.000 
#    0.000    0.000    0.000    0.000    0.000    0.000 
#
# Total GULP energy -156226.552713 kJ/mol
# GULP energy per Si atom -5579.519740 kJ/mol
# Density = 1.938383 g / cm^3
# Si number density = 19.428048 Si / 1000 Ang^3
#
#
#
# Elastic Constant Matrix: (Units=GPa)
#
#
# Indices 1 2 3 4 5 6 
#
# 1 89.7936 32.3335 -0.0568 0.0000 0.0000 0.0000
# 2 32.3335 64.2243 -3.8704 0.0000 0.0000 0.0000
# 3 -0.0568 -3.8704 70.0718 0.0000 0.0000 0.0000
# 4 0.0000 0.0000 0.0000 -20.0215 0.0000 0.0000
# 5 0.0000 0.0000 0.0000 0.0000 32.4400 0.0000
# 6 0.0000 0.0000 0.0000 0.0000 0.0000 -110.5633
#
#
#
# Elastic Compliance Matrix: (Units=1/GPa)
#
#
# Indices 1 2 3 4 5 6 
#
# 1 0.013612 -0.006875 -0.000369 0.000000 0.000000 0.000000
# 2 -0.006875 0.019095 0.001049 0.000000 0.000000 0.000000
# 3 -0.000369 0.001049 0.014329 0.000000 0.000000 0.000000
# 4 0.000000 0.000000 0.000000 -0.049946 0.000000 0.000000
# 5 0.000000 0.000000 0.000000 0.000000 0.030826 0.000000
# 6 0.000000 0.000000 0.000000 0.000000 0.000000 -0.009045
#
#
# Mechanical properties :
#
#
# Convention : Reuss Voigt Hill
#
# Bulk Modulus (GPa) = 28.86316 31.21136 30.03726
# Shear Modulus (GPa) = 116.79716 -6.58340 55.10688
#
# Velocity S-wave (km/s) = 7.76198 -1.84281 5.33162
# Velocity P-wave (km/s) = 9.75806 3.40177 7.30725
#
# Compressibility (1/GPa) = 0.03464624
#
# Stress axis : x y z
#
# Youngs Moduli (GPa) = 73.46424 52.36994 69.78991
#
# Poissons Ratio (x) = 0.36005 0.02573
# Poissons Ratio (y) = 0.50508 -0.07322
# Poissons Ratio (z) = 0.02709 -0.05494
#
# Static dielectric constant tensor:
#      x y z
#    x 1.655670 0.000000 0.000000 
#    y 0.000000 1.692050 0.000000 
#    z 0.000000 0.000000 1.670750 
# 
# From -- ./inp_files/3423.got.cif
#   From: 2010.05.17/outbox.cif.g08.bks.cpg/sg35_2_cif.got.tgz:3423.got - 2010.06.03 17:29:28.
