data_PCOD9348291
_publ_section_title
;
Structure prediction by ZEFSAII (Michael W. Deem and Ramdas Pophale) SiO2 
 PCOD9348291
Probable space group: C M M 2
;
_chemical_formula_sum "Si O2"
_cell_formula_units_Z 64
_cell_length_a 7.800619
_cell_length_b 30.527489
_cell_length_c 12.756244
_cell_angle_alpha 90.000000
_cell_angle_beta 90.000000
_cell_angle_gamma 90.000000
_cell_volume 3037.686616
_symmetry_space_group_name_H-M "C M M 2"
_symmetry_group_IT_number 35
_symmetry_cell_setting 'orthorhombic'
loop_
_space_group_symop_operation_xyz
x,y,z
-x,-y,z
-x,y,z
x,-y,z
1/2+x,1/2+y,z
1/2-x,1/2-y,z
1/2-x,1/2+y,z
1/2+x,1/2-y,z
loop_
_atom_site_type_symbol
_atom_site_label
_atom_site_fract_x
_atom_site_fract_y
_atom_site_fract_z
Si Si1 0.201966 0.594162 0.200410
Si Si2 0.206339 0.202449 0.494200
Si Si3 0.704856 0.893521 0.967416
Si Si4 0.294155 0.949628 0.771344
Si Si5 0.295942 0.297456 0.028512
Si Si6 0.802930 0.187367 0.261230
Si Si7 0.706467 0.452831 0.394183
Si Si8 0.792695 0.110656 0.573552
O O1 0.298234 0.634878 0.253614
O O2 0.230368 0.553819 0.276527
O O3 0.000000 0.604861 0.197376
O O4 0.264985 0.590006 0.081603
O O5 0.250000 0.250000 0.537993
O O6 0.274438 0.200045 0.373549
O O7 0.266586 0.160900 0.562082
O O8 0.000000 0.198708 0.486823
O O9 0.500000 0.898427 0.965189
O O10 0.773670 0.922929 0.872731
O O11 0.739370 0.841195 0.967551
O O12 0.500000 0.952784 0.781073
O O13 0.258765 0.918640 0.672084
O O14 0.229551 0.000000 0.762053
O O15 0.500000 0.300677 0.036488
O O16 0.250000 0.250000 0.982969
O O17 0.223840 0.298914 0.148874
O O18 0.000000 0.202981 0.261485
O O19 0.500000 0.451347 0.392948
O O20 0.760057 0.500000 0.436623
O O21 0.768992 0.414674 0.469842
O O22 0.000000 0.111127 0.572895
#
# Coordination Sequence:
#
# PCOD9348291 Si02
#       8
#     8   8   8   8   8   8   8   8
#     4  10  19  31  52  81 113 147 183 228 274 328
#     4  10  20  34  54  80 112 149 186 225 272 328
#     4   9  20  38  57  80 113 150 187 230 285 339
#     4  10  22  41  64  86 108 140 185 239 293 339
#     4  10  19  31  53  83 116 153 192 233 275 327
#     4   9  17  32  51  74 111 155 190 223 268 328
#     4  10  20  35  55  78 110 150 184 221 279 343
#     4  10  21  39  60  81 111 148 187 231 279 335
#
# _framework density 21.068663000000001
#
# number of rings (size 3 to 8) (size 9 to 14) (size 15 to 20)
#    0.000    2.250    1.250    1.500    0.000    4.500 
#    0.000    1.875    0.000    1.500    0.000    0.000 
#    0.000    0.000    0.000    0.000    0.000    0.000 
#
# Total GULP energy -178484.368582 kJ/mol
# GULP energy per Si atom -5577.636518 kJ/mol
# Density = 2.102071 g / cm^3
# Si number density = 21.068663 Si / 1000 Ang^3
#
#
#
# Elastic Constant Matrix: (Units=GPa)
#
#
# Indices 1 2 3 4 5 6 
#
# 1 29.6161 7.8355 3.7292 0.0000 0.0000 0.0000
# 2 7.8355 183.8617 85.3039 0.0000 0.0000 0.0000
# 3 3.7292 85.3039 111.9502 0.0000 0.0000 0.0000
# 4 0.0000 0.0000 0.0000 16.0265 0.0000 0.0000
# 5 0.0000 0.0000 0.0000 0.0000 17.0576 0.0000
# 6 0.0000 0.0000 0.0000 0.0000 0.0000 19.7494
#
#
#
# Elastic Compliance Matrix: (Units=1/GPa)
#
#
# Indices 1 2 3 4 5 6 
#
# 1 0.034151 -0.001435 -0.000044 0.000000 0.000000 0.000000
# 2 -0.001435 0.008473 -0.006409 0.000000 0.000000 0.000000
# 3 -0.000044 -0.006409 0.013817 0.000000 0.000000 0.000000
# 4 0.000000 0.000000 0.000000 0.062397 0.000000 0.000000
# 5 0.000000 0.000000 0.000000 0.000000 0.058625 0.000000
# 6 0.000000 0.000000 0.000000 0.000000 0.000000 0.050634
#
#
# Mechanical properties :
#
#
# Convention : Reuss Voigt Hill
#
# Bulk Modulus (GPa) = 24.59079 57.68504 41.13791
# Shear Modulus (GPa) = 19.42286 25.80398 22.61342
#
# Velocity S-wave (km/s) = 3.03955 3.50345 3.27971
# Velocity P-wave (km/s) = 4.90057 6.61850 5.82323
#
# Compressibility (1/GPa) = 0.04066564
#
# Stress axis : x y z
#
# Youngs Moduli (GPa) = 29.28202 118.01607 72.37252
#
# Poissons Ratio (x) = 0.16933 0.00321
# Poissons Ratio (y) = 0.04201 0.46382
# Poissons Ratio (z) = 0.00130 0.75634
#
# Static dielectric constant tensor:
#      x y z
#    x 1.782610 0.000000 0.000000 
#    y 0.000000 1.789920 0.000000 
#    z 0.000000 0.000000 1.764130 
# 
# From -- ./inp_files/11829.got.cif
#   From: 2010.05.17/outbox.cif.g08.bks.cpg/sg35_6_cif.got.tgz:11829.got - 2010.06.03 17:29:28.
