data_PCOD9348195
_publ_section_title
;
Structure prediction by ZEFSAII (Michael W. Deem and Ramdas Pophale) SiO2 
 PCOD9348195
Probable space group: C M M 2
;
_chemical_formula_sum "Si O2"
_cell_formula_units_Z 64
_cell_length_a 13.304552
_cell_length_b 28.038940
_cell_length_c 9.059669
_cell_angle_alpha 90.000000
_cell_angle_beta 90.000000
_cell_angle_gamma 90.000000
_cell_volume 3379.669071
_symmetry_space_group_name_H-M "C M M 2"
_symmetry_group_IT_number 35
_symmetry_cell_setting 'orthorhombic'
loop_
_space_group_symop_operation_xyz
x,y,z
-x,-y,z
-x,y,z
x,-y,z
1/2+x,1/2+y,z
1/2-x,1/2-y,z
1/2-x,1/2+y,z
1/2+x,1/2-y,z
loop_
_atom_site_type_symbol
_atom_site_label
_atom_site_fract_x
_atom_site_fract_y
_atom_site_fract_z
Si Si1 0.379766 0.885912 0.886070
Si Si2 0.729241 0.386750 0.125476
Si Si3 0.379725 0.331781 0.870041
Si Si4 0.619370 0.226019 0.829059
Si Si5 0.295475 0.177322 0.382127
Si Si6 0.117422 0.943011 0.383851
Si Si7 0.389017 0.739132 0.496019
Si Si8 0.243109 0.110704 0.627503
O O1 0.500000 0.891059 0.884446
O O2 0.353673 0.828306 0.873148
O O3 0.321443 0.909034 0.747581
O O4 0.323638 0.905530 0.030765
O O5 0.774175 0.344778 0.225608
O O6 0.673586 0.421285 0.240584
O O7 0.652451 0.364923 0.006173
O O8 0.500000 0.331668 0.852731
O O9 0.344752 0.276759 0.896387
O O10 0.329230 0.353869 0.722535
O O11 0.500000 0.226201 0.853496
O O12 0.635488 0.236775 0.654365
O O13 0.381177 0.216667 0.384126
O O14 0.193436 0.202652 0.439676
O O15 0.311150 0.137519 0.505942
O O16 0.173017 0.923683 0.530654
O O17 0.000000 0.928294 0.383901
O O18 0.122000 0.000000 0.379786
O O19 0.500000 0.718367 0.503744
#
# Coordination Sequence:
#
# PCOD9348195 Si02
#       8
#     8   8   8   8   8   8   8   8
#     4  10  21  38  58  83 118 159 201 237 271 317
#     4  10  23  36  54  82 113 152 189 227 286 346
#     4  10  19  32  52  80 115 152 192 236 278 331
#     4   9  17  29  50  76 109 157 199 235 279 316
#     4  10  20  31  47  74 105 142 190 235 274 325
#     4  10  22  43  67  89 115 142 173 226 296 365
#     4  10  19  30  46  72 105 148 196 242 282 315
#     4  10  19  33  59  85 107 141 188 236 284 335
#
# _framework density 18.936765000000001
#
# number of rings (size 3 to 8) (size 9 to 14) (size 15 to 20)
#    0.000    2.125    2.500    0.750    0.000    7.000 
#    0.000    5.625    0.000    9.000    0.000    0.000 
#    0.000    0.000    0.000    0.000    0.000    0.000 
#
# Total GULP energy -178311.297829 kJ/mol
# GULP energy per Si atom -5572.228057 kJ/mol
# Density = 1.889366 g / cm^3
# Si number density = 18.936765 Si / 1000 Ang^3
#
#
#
# Elastic Constant Matrix: (Units=GPa)
#
#
# Indices 1 2 3 4 5 6 
#
# 1 125.3642 22.2451 43.4867 0.0000 0.0000 0.0000
# 2 22.2451 41.7799 28.8408 0.0000 0.0000 0.0000
# 3 43.4867 28.8408 103.8611 0.0000 0.0000 0.0000
# 4 0.0000 0.0000 0.0000 13.8854 0.0000 0.0000
# 5 0.0000 0.0000 0.0000 0.0000 22.6411 0.0000
# 6 0.0000 0.0000 0.0000 0.0000 0.0000 22.9457
#
#
#
# Elastic Compliance Matrix: (Units=1/GPa)
#
#
# Indices 1 2 3 4 5 6 
#
# 1 0.009607 -0.002893 -0.003219 0.000000 0.000000 0.000000
# 2 -0.002893 0.030482 -0.007253 0.000000 0.000000 0.000000
# 3 -0.003219 -0.007253 0.012990 0.000000 0.000000 0.000000
# 4 0.000000 0.000000 0.000000 0.072018 0.000000 0.000000
# 5 0.000000 0.000000 0.000000 0.000000 0.044168 0.000000
# 6 0.000000 0.000000 0.000000 0.000000 0.000000 0.043581
#
#
# Mechanical properties :
#
#
# Convention : Reuss Voigt Hill
#
# Bulk Modulus (GPa) = 37.95240 51.12784 44.54012
# Shear Modulus (GPa) = 20.13218 23.65662 21.89440
#
# Velocity S-wave (km/s) = 3.26410 3.53830 3.40396
# Velocity P-wave (km/s) = 5.85585 6.61442 6.24666
#
# Compressibility (1/GPa) = 0.02634879
#
# Stress axis : x y z
#
# Youngs Moduli (GPa) = 104.09400 32.80610 76.98124
#
# Poissons Ratio (x) = 0.09490 0.24780
# Poissons Ratio (y) = 0.30113 0.55836
# Poissons Ratio (z) = 0.33508 0.23795
#
# Static dielectric constant tensor:
#      x y z
#    x 1.715700 0.000000 0.000000 
#    y 0.000000 1.670610 0.000000 
#    z 0.000000 0.000000 1.675770 
# 
# From -- ./inp_files/8035.got.cif
#   From: 2010.05.17/outbox.cif.g08.bks.cpg/sg35_5_cif.got.tgz:8035.got - 2010.06.03 17:29:28.
