data_PCOD9348427
_publ_section_title
;
Structure prediction by ZEFSAII (Michael W. Deem and Ramdas Pophale) SiO2 
 PCOD9348427
Probable space group: C M M 2
;
_chemical_formula_sum "Si O2"
_cell_formula_units_Z 64
_cell_length_a 7.631875
_cell_length_b 30.339461
_cell_length_c 12.739576
_cell_angle_alpha 90.000000
_cell_angle_beta 90.000000
_cell_angle_gamma 90.000000
_cell_volume 2949.810272
_symmetry_space_group_name_H-M "C M M 2"
_symmetry_group_IT_number 35
_symmetry_cell_setting 'orthorhombic'
loop_
_space_group_symop_operation_xyz
x,y,z
-x,-y,z
-x,y,z
x,-y,z
1/2+x,1/2+y,z
1/2-x,1/2-y,z
1/2-x,1/2+y,z
1/2+x,1/2-y,z
loop_
_atom_site_type_symbol
_atom_site_label
_atom_site_fract_x
_atom_site_fract_y
_atom_site_fract_z
Si Si1 0.287147 0.047830 0.063350
Si Si2 0.210289 0.201758 0.138557
Si Si3 0.797777 0.114461 0.239004
Si Si4 0.712596 0.679972 0.906432
Si Si5 0.794637 0.580922 0.849423
Si Si6 0.707786 0.701996 0.676299
Si Si7 0.293954 0.449912 0.414764
Si Si8 0.707624 0.896885 0.621607
O O1 0.500000 0.052323 0.064439
O O2 0.207986 0.086403 0.132237
O O3 0.242463 0.000000 0.108581
O O4 0.226141 0.050638 0.942688
O O5 0.250000 0.250000 0.180545
O O6 0.280350 0.161869 0.209594
O O7 0.000000 0.196258 0.132960
O O8 0.275764 0.198606 0.017712
O O9 0.715423 0.082746 0.326748
O O10 0.000000 0.122393 0.270772
O O11 0.500000 0.681557 0.906151
O O12 0.773465 0.629740 0.896761
O O13 0.777081 0.701215 0.797120
O O14 0.719244 0.584399 0.732432
O O15 0.000000 0.570194 0.837413
O O16 0.500000 0.698756 0.681280
O O17 0.750000 0.750000 0.629284
O O18 0.765938 0.656253 0.622005
O O19 0.500000 0.454289 0.389541
O O20 0.222133 0.500000 0.418268
O O21 0.280219 0.424095 0.524377
O O22 0.500000 0.903782 0.621014
#
# Coordination Sequence:
#
# PCOD9348427 Si02
#       8
#     8   8   8   8   8   8   8   8
#     4  10  20  33  52  81 114 146 180 223 280 342
#     4  10  20  33  52  80 112 147 185 225 271 328
#     4  10  21  39  60  81 110 146 188 234 281 336
#     4   9  17  30  49  76 111 150 189 229 268 321
#     4   9  18  32  51  77 112 150 182 222 276 334
#     4  10  19  32  53  82 118 156 193 234 279 332
#     4  10  22  41  63  84 107 142 189 240 293 344
#     4  10  21  37  58  84 113 148 191 237 287 340
#
# _framework density 21.696311999999999
#
# number of rings (size 3 to 8) (size 9 to 14) (size 15 to 20)
#    0.000    2.250    1.250    1.500    0.000    4.000 
#    0.000    1.875    0.000    1.500    0.000    0.000 
#    0.000    0.000    0.000    0.000    0.000    0.000 
#
# Total GULP energy -178498.485431 kJ/mol
# GULP energy per Si atom -5578.077670 kJ/mol
# Density = 2.164693 g / cm^3
# Si number density = 21.696312 Si / 1000 Ang^3
#
#
#
# Elastic Constant Matrix: (Units=GPa)
#
#
# Indices 1 2 3 4 5 6 
#
# 1 47.1023 -5.9287 -5.2605 0.0000 0.0000 0.0000
# 2 -5.9287 158.2941 70.4215 0.0000 0.0000 0.0000
# 3 -5.2605 70.4215 104.6829 0.0000 0.0000 0.0000
# 4 0.0000 0.0000 0.0000 11.4329 0.0000 0.0000
# 5 0.0000 0.0000 0.0000 0.0000 5.1629 0.0000
# 6 0.0000 0.0000 0.0000 0.0000 0.0000 4.0994
#
#
#
# Elastic Compliance Matrix: (Units=1/GPa)
#
#
# Indices 1 2 3 4 5 6 
#
# 1 0.021374 0.000461 0.000764 0.000000 0.000000 0.000000
# 2 0.000461 0.009025 -0.006048 0.000000 0.000000 0.000000
# 3 0.000764 -0.006048 0.013660 0.000000 0.000000 0.000000
# 4 0.000000 0.000000 0.000000 0.087467 0.000000 0.000000
# 5 0.000000 0.000000 0.000000 0.000000 0.193691 0.000000
# 6 0.000000 0.000000 0.000000 0.000000 0.000000 0.243941
#
#
# Mechanical properties :
#
#
# Convention : Reuss Voigt Hill
#
# Bulk Modulus (GPa) = 29.05976 47.61600 38.33788
# Shear Modulus (GPa) = 8.47063 20.86216 14.66639
#
# Velocity S-wave (km/s) = 1.97804 3.10426 2.60279
# Velocity P-wave (km/s) = 4.31739 5.90278 5.17120
#
# Compressibility (1/GPa) = 0.03441185
#
# Stress axis : x y z
#
# Youngs Moduli (GPa) = 46.78643 110.79876 73.20717
#
# Poissons Ratio (x) = -0.05102 -0.05595
# Poissons Ratio (y) = -0.02155 0.44278
# Poissons Ratio (z) = -0.03576 0.67015
#
# Static dielectric constant tensor:
#      x y z
#    x 1.796550 0.000000 0.000000 
#    y 0.000000 1.780370 0.000000 
#    z 0.000000 0.000000 1.809480 
# 
# From -- ./inp_files/12007.got.cif
#   From: 2010.05.17/outbox.cif.g08.bks.cpg/sg35_7_cif.got.tgz:12007.got - 2010.06.03 17:29:28.
