data_PCOD9348339
_publ_section_title
;
Structure prediction by ZEFSAII (Michael W. Deem and Ramdas Pophale) SiO2 
 PCOD9348339
Probable space group: C M M 2
;
_chemical_formula_sum "Si O2"
_cell_formula_units_Z 64
_cell_length_a 17.080482
_cell_length_b 22.783065
_cell_length_c 8.117937
_cell_angle_alpha 90.000000
_cell_angle_beta 90.000000
_cell_angle_gamma 90.000000
_cell_volume 3159.060533
_symmetry_space_group_name_H-M "C M M 2"
_symmetry_group_IT_number 35
_symmetry_cell_setting 'orthorhombic'
loop_
_space_group_symop_operation_xyz
x,y,z
-x,-y,z
-x,y,z
x,-y,z
1/2+x,1/2+y,z
1/2-x,1/2-y,z
1/2-x,1/2+y,z
1/2+x,1/2-y,z
loop_
_atom_site_type_symbol
_atom_site_label
_atom_site_fract_x
_atom_site_fract_y
_atom_site_fract_z
Si Si1 0.414813 0.733735 0.335500
Si Si2 0.294362 0.833573 0.266302
Si Si3 0.825543 0.097291 0.473704
Si Si4 0.088771 0.104131 0.164776
Si Si5 0.191485 0.564313 0.699788
Si Si6 0.412132 0.317869 0.692253
Si Si7 0.789227 0.147096 0.929743
Si Si8 0.091797 0.430424 0.393732
O O1 0.500000 0.760661 0.295782
O O2 0.344332 0.775901 0.293887
O O3 0.413835 0.671541 0.237704
O O4 0.412806 0.723631 0.532593
O O5 0.228197 0.848503 0.403246
O O6 0.353703 0.888956 0.282376
O O7 0.253429 0.829310 0.090424
O O8 0.867968 0.071527 0.314655
O O9 0.762535 0.059914 0.569014
O O10 0.889128 0.120673 0.603515
O O11 0.000000 0.085505 0.136359
O O12 0.143515 0.104194 0.005238
O O13 0.178050 0.500000 0.775769
O O14 0.224418 0.612893 0.823653
O O15 0.118235 0.580930 0.583933
O O16 0.500000 0.318482 0.764593
O O17 0.341538 0.308504 0.820305
O O18 0.105700 0.500000 0.364134
O O19 0.000000 0.418680 0.371622
#
# Coordination Sequence:
#
# PCOD9348339 Si02
#       8
#     8   8   8   8   8   8   8   8
#     4   9  18  33  53  73  99 140 176 208 249 294
#     4  10  19  32  50  79 112 132 165 215 260 306
#     4   8  16  29  49  74  96 133 172 203 250 295
#     4   9  17  31  50  71 101 140 175 203 245 309
#     4   9  18  34  53  74 101 132 173 218 259 306
#     4   9  17  32  53  74  98 132 173 206 243 305
#     4  10  20  32  51  78 106 137 165 208 272 313
#     4   9  18  35  58  78 100 137 178 212 248 299
#
# _framework density 20.259187000000001
#
# number of rings (size 3 to 8) (size 9 to 14) (size 15 to 20)
#    0.000    2.875    0.000    1.875    0.000    5.000 
#    0.000   10.625    0.000   17.250    0.000    0.000 
#    0.000    3.000    0.000    0.000    0.000    0.000 
#
# Total GULP energy -178237.988322 kJ/mol
# GULP energy per Si atom -5569.937135 kJ/mol
# Density = 2.021308 g / cm^3
# Si number density = 20.259187 Si / 1000 Ang^3
#
#
#
# Elastic Constant Matrix: (Units=GPa)
#
#
# Indices 1 2 3 4 5 6 
#
# 1 109.3638 21.5023 23.5078 0.0000 0.0000 0.0000
# 2 21.5023 47.0644 17.0146 0.0000 0.0000 0.0000
# 3 23.5078 17.0146 73.2418 0.0000 0.0000 0.0000
# 4 0.0000 0.0000 0.0000 9.2510 0.0000 0.0000
# 5 0.0000 0.0000 0.0000 0.0000 28.6815 0.0000
# 6 0.0000 0.0000 0.0000 0.0000 0.0000 11.7366
#
#
#
# Elastic Compliance Matrix: (Units=1/GPa)
#
#
# Indices 1 2 3 4 5 6 
#
# 1 0.010433 -0.003882 -0.002447 0.000000 0.000000 0.000000
# 2 -0.003882 0.024640 -0.004478 0.000000 0.000000 0.000000
# 3 -0.002447 -0.004478 0.015479 0.000000 0.000000 0.000000
# 4 0.000000 0.000000 0.000000 0.108096 0.000000 0.000000
# 5 0.000000 0.000000 0.000000 0.000000 0.034866 0.000000
# 6 0.000000 0.000000 0.000000 0.000000 0.000000 0.085203
#
#
# Mechanical properties :
#
#
# Convention : Reuss Voigt Hill
#
# Bulk Modulus (GPa) = 34.55629 39.30216 36.92923
# Shear Modulus (GPa) = 16.13025 21.11018 18.62022
#
# Velocity S-wave (km/s) = 2.82475 3.23151 3.03496
# Velocity P-wave (km/s) = 5.26622 5.77628 5.52714
#
# Compressibility (1/GPa) = 0.02893829
#
# Stress axis : x y z
#
# Youngs Moduli (GPa) = 95.84994 40.58455 64.60363
#
# Poissons Ratio (x) = 0.15755 0.15807
# Poissons Ratio (y) = 0.37209 0.28930
# Poissons Ratio (z) = 0.23452 0.18174
#
# Static dielectric constant tensor:
#      x y z
#    x 1.745420 0.000000 0.000000 
#    y 0.000000 1.747930 0.000000 
#    z 0.000000 0.000000 1.729890 
# 
# From -- ./inp_files/8859.got.cif
#   From: 2010.05.17/outbox.cif.g08.bks.cpg/sg35_5_cif.got.tgz:8859.got - 2010.06.03 17:29:28.
