data_PCOD9348191
_publ_section_title
;
Structure prediction by ZEFSAII (Michael W. Deem and Ramdas Pophale) SiO2 
 PCOD9348191
Probable space group: C M M 2
;
_chemical_formula_sum "Si O2"
_cell_formula_units_Z 56
_cell_length_a 9.087533
_cell_length_b 15.214742
_cell_length_c 19.261672
_cell_angle_alpha 90.000000
_cell_angle_beta 90.000000
_cell_angle_gamma 90.000000
_cell_volume 2663.204871
_symmetry_space_group_name_H-M "C M M 2"
_symmetry_group_IT_number 35
_symmetry_cell_setting 'orthorhombic'
loop_
_space_group_symop_operation_xyz
x,y,z
-x,-y,z
-x,y,z
x,-y,z
1/2+x,1/2+y,z
1/2-x,1/2-y,z
1/2-x,1/2+y,z
1/2+x,1/2-y,z
loop_
_atom_site_type_symbol
_atom_site_label
_atom_site_fract_x
_atom_site_fract_y
_atom_site_fract_z
Si Si1 0.177483 0.346218 0.439210
Si Si2 0.822403 0.152026 0.575520
Si Si3 0.833157 0.891901 0.149571
Si Si4 0.323550 0.653726 0.726364
Si Si5 0.335474 0.104132 0.284294
Si Si6 0.323805 0.654257 0.876444
Si Si7 0.337276 0.103717 0.014505
O O1 0.250000 0.250000 0.436820
O O2 0.249478 0.390014 0.507327
O O3 0.213075 0.385227 0.363816
O O4 0.000000 0.343594 0.446817
O O5 0.750000 0.250000 0.578637
O O6 0.788676 0.111561 0.651493
O O7 0.000000 0.157440 0.567294
O O8 0.768049 0.862095 0.223291
O O9 0.738140 0.860983 0.084036
O O10 0.000000 0.862957 0.141353
O O11 0.833731 0.000000 0.149167
O O12 0.500000 0.665356 0.726317
O O13 0.250000 0.750000 0.726389
O O14 0.286349 0.611716 0.801065
O O15 0.500000 0.142540 0.278281
O O16 0.346618 0.000000 0.272348
O O17 0.500000 0.659082 0.881510
O O18 0.250000 0.750000 0.874514
O O19 0.259097 0.612502 0.945586
O O20 0.500000 0.142220 0.003365
O O21 0.352362 0.000000 0.026741
#
# Coordination Sequence:
#
# PCOD9348191 Si02
#       7
#     8   8   8   8   8   8   8
#     4  10  19  30  46  69  96 124 153 189 233 277
#     4   9  15  25  42  64  91 121 155 192 229 272
#     4   9  17  30  50  74  95 118 154 197 237 279
#     4   8  15  26  42  65  91 121 155 192 232 273
#     4   9  18  33  51  69  91 121 156 192 231 277
#     4  10  19  32  50  73 101 129 160 199 243 289
#     4  10  20  34  52  73  98 128 162 199 239 284
#
# _framework density 21.027296
#
# number of rings (size 3 to 8) (size 9 to 14) (size 15 to 20)
#    0.000    2.714    0.000    3.000    0.000    4.857 
#    0.000    0.714    0.000    2.571    0.000    4.000 
#    0.000    0.000    0.000    0.000    0.000    0.000 
#
# Total GULP energy -155992.489606 kJ/mol
# GULP energy per Si atom -5571.160343 kJ/mol
# Density = 2.097944 g / cm^3
# Si number density = 21.027296 Si / 1000 Ang^3
#
#
#
# Elastic Constant Matrix: (Units=GPa)
#
#
# Indices 1 2 3 4 5 6 
#
# 1 108.4164 7.4879 98.7478 0.0000 0.0000 0.0000
# 2 7.4879 25.1079 6.5714 0.0000 0.0000 0.0000
# 3 98.7478 6.5714 224.3746 0.0000 0.0000 0.0000
# 4 0.0000 0.0000 0.0000 13.8871 0.0000 0.0000
# 5 0.0000 0.0000 0.0000 0.0000 45.8287 0.0000
# 6 0.0000 0.0000 0.0000 0.0000 0.0000 8.3597
#
#
#
# Elastic Compliance Matrix: (Units=1/GPa)
#
#
# Indices 1 2 3 4 5 6 
#
# 1 0.015598 -0.002877 -0.006781 0.000000 0.000000 0.000000
# 2 -0.002877 0.040667 0.000075 0.000000 0.000000 0.000000
# 3 -0.006781 0.000075 0.007439 0.000000 0.000000 0.000000
# 4 0.000000 0.000000 0.000000 0.072009 0.000000 0.000000
# 5 0.000000 0.000000 0.000000 0.000000 0.021820 0.000000
# 6 0.000000 0.000000 0.000000 0.000000 0.000000 0.119622
#
#
# Mechanical properties :
#
#
# Convention : Reuss Voigt Hill
#
# Bulk Modulus (GPa) = 22.45247 64.83476 43.64361
# Shear Modulus (GPa) = 16.06858 29.95456 23.01157
#
# Velocity S-wave (km/s) = 2.76737 3.77842 3.31171
# Velocity P-wave (km/s) = 4.57298 7.06653 5.95181
#
# Compressibility (1/GPa) = 0.04453853
#
# Stress axis : x y z
#
# Youngs Moduli (GPa) = 64.10955 24.59025 134.43066
#
# Poissons Ratio (x) = 0.07075 0.91152
# Poissons Ratio (y) = 0.18446 -0.01011
# Poissons Ratio (z) = 0.43470 -0.00185
#
# Static dielectric constant tensor:
#      x y z
#    x 1.730670 0.000000 0.000000 
#    y 0.000000 1.790440 0.000000 
#    z 0.000000 0.000000 1.824500 
# 
# From -- ./inp_files/18230.got.cif
#   From: 2010.05.17/outbox.cif.g08.bks.cpg/sg35_10_cif.got.tgz:18230.got - 2010.06.03 17:29:28.
