data_PCOD9348377
_publ_section_title
;
Structure prediction by ZEFSAII (Michael W. Deem and Ramdas Pophale) SiO2 
 PCOD9348377
Probable space group: C M M 2
;
_chemical_formula_sum "Si O2"
_cell_formula_units_Z 64
_cell_length_a 20.888052
_cell_length_b 17.894851
_cell_length_c 9.452512
_cell_angle_alpha 90.000000
_cell_angle_beta 90.000000
_cell_angle_gamma 90.000000
_cell_volume 3533.241021
_symmetry_space_group_name_H-M "C M M 2"
_symmetry_group_IT_number 35
_symmetry_cell_setting 'orthorhombic'
loop_
_space_group_symop_operation_xyz
x,y,z
-x,-y,z
-x,y,z
x,-y,z
1/2+x,1/2+y,z
1/2-x,1/2-y,z
1/2-x,1/2+y,z
1/2+x,1/2-y,z
loop_
_atom_site_type_symbol
_atom_site_label
_atom_site_fract_x
_atom_site_fract_y
_atom_site_fract_z
Si Si1 0.071688 0.410931 0.606430
Si Si2 0.572014 0.309948 0.517243
Si Si3 0.431606 0.411346 0.265932
Si Si4 0.074033 0.668755 0.315249
Si Si5 0.290720 0.325371 0.597401
Si Si6 0.331236 0.088305 0.113923
Si Si7 0.794854 0.088457 0.300012
Si Si8 0.806359 0.410310 0.785871
O O1 0.070259 0.500000 0.621262
O O2 0.083540 0.389738 0.443808
O O3 0.130800 0.383307 0.699608
O O4 0.000000 0.382687 0.643496
O O5 0.500000 0.295683 0.573427
O O6 0.569712 0.387725 0.431151
O O7 0.585119 0.247791 0.394561
O O8 0.633443 0.310181 0.617805
O O9 0.500000 0.380298 0.210019
O O10 0.434142 0.500000 0.247392
O O11 0.360513 0.387452 0.220120
O O12 0.118085 0.643094 0.187312
O O13 0.000000 0.667298 0.272038
O O14 0.250000 0.250000 0.586661
O O15 0.286135 0.367412 0.446188
O O16 0.256360 0.373555 0.718267
O O17 0.266015 0.097531 0.201277
O O18 0.350945 0.000000 0.124236
O O19 0.317837 0.105237 0.950427
O O20 0.800683 0.000000 0.333289
O O21 0.801591 0.500000 0.769032
#
# Coordination Sequence:
#
# PCOD9348377 Si02
#       8
#     8   8   8   8   8   8   8   8
#     4   9  17  30  49  72  98 131 170 208 250 308
#     4   9  18  31  49  74 102 129 162 213 269 313
#     4   8  14  26  45  69  93 117 152 199 250 305
#     4  10  19  32  52  76 102 132 169 215 263 309
#     4  11  20  32  52  76 100 131 173 216 260 315
#     4  10  20  33  49  72 104 138 171 208 253 309
#     4   9  17  30  50  73  96 125 162 208 262 312
#     4  10  21  35  50  71 104 142 176 214 260 312
#
# _framework density 18.113679999999999
#
# number of rings (size 3 to 8) (size 9 to 14) (size 15 to 20)
#    0.000    2.500    0.000    3.000    0.000    3.750 
#    0.000    4.375    0.000    0.750    0.000    1.750 
#    0.000    0.000    0.000    0.000    0.000    0.000 
#
# Total GULP energy -178169.126863 kJ/mol
# GULP energy per Si atom -5567.785214 kJ/mol
# Density = 1.807245 g / cm^3
# Si number density = 18.113680 Si / 1000 Ang^3
#
#
#
# Elastic Constant Matrix: (Units=GPa)
#
#
# Indices 1 2 3 4 5 6 
#
# 1 140.8245 39.6368 63.9923 0.0000 0.0000 0.0000
# 2 39.6368 29.0737 26.4799 0.0000 0.0000 0.0000
# 3 63.9923 26.4799 71.0085 0.0000 0.0000 0.0000
# 4 0.0000 0.0000 0.0000 12.9065 0.0000 0.0000
# 5 0.0000 0.0000 0.0000 0.0000 4.4622 0.0000
# 6 0.0000 0.0000 0.0000 0.0000 0.0000 23.6411
#
#
#
# Elastic Compliance Matrix: (Units=1/GPa)
#
#
# Indices 1 2 3 4 5 6 
#
# 1 0.014246 -0.011704 -0.008474 0.000000 0.000000 0.000000
# 2 -0.011704 0.061701 -0.012462 0.000000 0.000000 0.000000
# 3 -0.008474 -0.012462 0.026366 0.000000 0.000000 0.000000
# 4 0.000000 0.000000 0.000000 0.077480 0.000000 0.000000
# 5 0.000000 0.000000 0.000000 0.000000 0.224103 0.000000
# 6 0.000000 0.000000 0.000000 0.000000 0.000000 0.042299
#
#
# Mechanical properties :
#
#
# Convention : Reuss Voigt Hill
#
# Bulk Modulus (GPa) = 27.00153 55.68053 41.34103
# Shear Modulus (GPa) = 9.54528 15.58850 12.56689
#
# Velocity S-wave (km/s) = 2.29806 2.93677 2.63683
# Velocity P-wave (km/s) = 4.68834 6.50428 5.66949
#
# Compressibility (1/GPa) = 0.03703494
#
# Stress axis : x y z
#
# Youngs Moduli (GPa) = 70.19632 16.20713 37.92716
#
# Poissons Ratio (x) = 0.18969 0.32138
# Poissons Ratio (y) = 0.82157 0.47264
# Poissons Ratio (z) = 0.59482 0.20197
#
# Static dielectric constant tensor:
#      x y z
#    x 1.689310 0.000000 0.000000 
#    y 0.000000 1.668880 0.000000 
#    z 0.000000 0.000000 1.566410 
# 
# From -- ./inp_files/9417.got.cif
#   From: 2010.05.17/outbox.cif.g08.bks.cpg/sg35_5_cif.got.tgz:9417.got - 2010.06.03 17:29:28.
