data_PCOD9348051
_publ_section_title
;
Structure prediction by ZEFSAII (Michael W. Deem and Ramdas Pophale) SiO2 
 PCOD9348051
Probable space group: P N N 2
;
_chemical_formula_sum "Si O2"
_cell_formula_units_Z 18
_cell_length_a 18.096437
_cell_length_b 6.652525
_cell_length_c 5.461960
_cell_angle_alpha 90.000000
_cell_angle_beta 90.000000
_cell_angle_gamma 90.000000
_cell_volume 657.548976
_symmetry_space_group_name_H-M "P N N 2"
_symmetry_group_IT_number 34
_symmetry_cell_setting 'orthorhombic'
loop_
_space_group_symop_operation_xyz
x,y,z
-x,-y,z
1/2-x,1/2+y,1/2+z
1/2+x,1/2-y,1/2+z
loop_
_atom_site_type_symbol
_atom_site_label
_atom_site_fract_x
_atom_site_fract_y
_atom_site_fract_z
Si Si1 0.914931 0.870251 0.400080
Si Si2 0.000000 0.500000 0.625117
Si Si3 0.619309 0.474411 0.396708
Si Si4 0.785379 0.570517 0.385504
Si Si5 0.353217 0.008187 0.383939
O O1 0.964720 0.672378 0.451127
O O2 0.920778 0.004854 0.640501
O O3 0.831495 0.777850 0.393455
O O4 0.921190 0.999673 0.154291
O O5 0.935161 0.420231 0.806899
O O6 0.697541 0.583998 0.379599
O O7 0.635015 0.234383 0.397157
O O8 0.804896 0.462523 0.640312
O O9 0.817440 0.452127 0.148930
#
# Coordination Sequence:
#
# PCOD9348051 Si02
#       5
#     4   2   4   4   4
#     4   9  18  26  43  62  84 113 133 176 210 253
#     4   8  16  30  40  62  92 108 140 172 224 258
#     4   9  16  27  39  59  86 111 138 165 208 255
#     4   9  16  27  39  59  86 111 138 165 208 255
#     4   9  18  26  43  62  84 113 133 176 210 253
#
# _framework density 27.374386999999999
#
# number of rings (size 3 to 8) (size 9 to 14) (size 15 to 20)
#    0.000    3.556    0.000    1.333    0.000   14.222 
#    0.000    0.000    0.000    0.000    0.000    0.000 
#    0.000  739.556    0.000    0.000    0.000    0.000 
#
# Total GULP energy -100649.145656 kJ/mol
# GULP energy per Si atom -5591.619203 kJ/mol
# Density = 2.731208 g / cm^3
# Si number density = 27.374387 Si / 1000 Ang^3
#
#
#
# Elastic Constant Matrix: (Units=GPa)
#
#
# Indices 1 2 3 4 5 6 
#
# 1 181.4078 -2.6988 62.1590 0.0000 0.0000 0.0000
# 2 -2.6988 88.6851 14.7598 0.0000 0.0000 0.0000
# 3 62.1590 14.7598 288.3818 0.0000 0.0000 0.0000
# 4 0.0000 0.0000 0.0000 -11.5755 0.0000 0.0000
# 5 0.0000 0.0000 0.0000 0.0000 13.1397 0.0000
# 6 0.0000 0.0000 0.0000 0.0000 0.0000 39.8523
#
#
#
# Elastic Compliance Matrix: (Units=1/GPa)
#
#
# Indices 1 2 3 4 5 6 
#
# 1 0.005966 0.000399 -0.001306 0.000000 0.000000 0.000000
# 2 0.000399 0.011399 -0.000669 0.000000 0.000000 0.000000
# 3 -0.001306 -0.000669 0.003783 0.000000 0.000000 0.000000
# 4 0.000000 0.000000 0.000000 -0.086389 0.000000 0.000000
# 5 0.000000 0.000000 0.000000 0.000000 0.076105 0.000000
# 6 0.000000 0.000000 0.000000 0.000000 0.000000 0.025093
#
#
# Mechanical properties :
#
#
# Convention : Reuss Voigt Hill
#
# Bulk Modulus (GPa) = 55.57029 78.54606 67.05817
# Shear Modulus (GPa) = 110.84107 40.56694 75.70400
#
# Velocity S-wave (km/s) = 6.37014 3.85376 5.26451
# Velocity P-wave (km/s) = 8.62839 6.96832 7.84240
#
# Compressibility (1/GPa) = 0.01799523
#
# Stress axis : x y z
#
# Youngs Moduli (GPa) = 167.61656 87.72392 264.30796
#
# Poissons Ratio (x) = -0.03500 0.34528
# Poissons Ratio (y) = -0.06687 0.17694
# Poissons Ratio (z) = 0.21897 0.05873
#
# Static dielectric constant tensor:
#      x y z
#    x 2.085730 0.000000 0.000000 
#    y 0.000000 2.267360 0.000000 
#    z 0.000000 0.000000 2.208720 
# 
# From -- ./inp_files/364.got.cif
#   From: 2010.05.17/outbox.cif.g08.bks.cpg/sg34_1_cif.got.tgz:364.got - 2010.06.03 17:23:11.
