data_PCOD9348653
_publ_section_title
;
Structure prediction by ZEFSAII (Michael W. Deem and Ramdas Pophale) SiO2 
 PCOD9348653
Probable space group: C M M 2
;
_chemical_formula_sum "Si O2"
_cell_formula_units_Z 48
_cell_length_a 8.558296
_cell_length_b 30.903883
_cell_length_c 9.810515
_cell_angle_alpha 90.000000
_cell_angle_beta 90.000000
_cell_angle_gamma 90.000000
_cell_volume 2594.729922
_symmetry_space_group_name_H-M "C M M 2"
_symmetry_group_IT_number 35
_symmetry_cell_setting 'orthorhombic'
loop_
_space_group_symop_operation_xyz
x,y,z
-x,-y,z
-x,y,z
x,-y,z
1/2+x,1/2+y,z
1/2-x,1/2-y,z
1/2-x,1/2+y,z
1/2+x,1/2-y,z
loop_
_atom_site_type_symbol
_atom_site_label
_atom_site_fract_x
_atom_site_fract_y
_atom_site_fract_z
Si Si1 0.809660 0.375093 0.834040
Si Si2 0.312232 0.202115 0.031235
Si Si3 0.686925 0.550267 0.336366
Si Si4 0.811271 0.450173 0.036339
Si Si5 0.187418 0.626322 0.521064
Si Si6 0.186274 0.798032 0.331406
O O1 0.759926 0.417251 0.919182
O O2 0.757876 0.374599 0.677857
O O3 0.000000 0.375492 0.832227
O O4 0.762035 0.332806 0.919246
O O5 0.500000 0.203098 0.036630
O O6 0.250000 0.250000 0.000013
O O7 0.250385 0.190038 0.181299
O O8 0.500000 0.553601 0.344033
O O9 0.731705 0.500000 0.359993
O O10 0.762709 0.582872 0.442967
O O11 0.741477 0.561649 0.183306
O O12 0.768563 0.500000 0.006742
O O13 0.000000 0.447896 0.046988
O O14 0.257400 0.666917 0.439982
O O15 0.000000 0.629845 0.519053
O O16 0.250000 0.750000 0.362708
O O17 0.000000 0.796601 0.326133
#
# Coordination Sequence:
#
# PCOD9348653 Si02
#       6
#     8   8   8   8   8   8
#     4   9  20  35  53  79 110 141 176 222 272 323
#     4  10  19  35  57  81 108 140 180 225 271 319
#     4  10  21  37  56  81 112 145 184 229 274 322
#     4   9  17  33  58  83 105 136 180 226 272 324
#     4  11  22  37  56  81 113 148 184 223 272 326
#     4  11  22  38  59  84 111 143 184 227 272 321
#
# _framework density 18.499034999999999
#
# number of rings (size 3 to 8) (size 9 to 14) (size 15 to 20)
#    0.000    2.000    0.000    5.000    0.000    3.667 
#    0.000    9.167    0.000    2.000    0.000    0.000 
#    0.000    0.000    0.000    0.000    0.000    0.000 
#
# Total GULP energy -134065.795936 kJ/mol
# GULP energy per Si atom -5586.074831 kJ/mol
# Density = 1.845693 g / cm^3
# Si number density = 18.499035 Si / 1000 Ang^3
#
#
#
# Elastic Constant Matrix: (Units=GPa)
#
#
# Indices 1 2 3 4 5 6 
#
# 1 66.2994 39.1812 44.3881 0.0000 0.0000 0.0000
# 2 39.1812 122.7562 125.9367 0.0000 0.0000 0.0000
# 3 44.3881 125.9367 183.9856 0.0000 0.0000 0.0000
# 4 0.0000 0.0000 0.0000 69.2503 0.0000 0.0000
# 5 0.0000 0.0000 0.0000 0.0000 12.8695 0.0000
# 6 0.0000 0.0000 0.0000 0.0000 0.0000 29.9375
#
#
#
# Elastic Compliance Matrix: (Units=1/GPa)
#
#
# Indices 1 2 3 4 5 6 
#
# 1 0.018701 -0.004501 -0.001431 0.000000 0.000000 0.000000
# 2 -0.004501 0.028440 -0.018381 0.000000 0.000000 0.000000
# 3 -0.001431 -0.018381 0.018362 0.000000 0.000000 0.000000
# 4 0.000000 0.000000 0.000000 0.014440 0.000000 0.000000
# 5 0.000000 0.000000 0.000000 0.000000 0.077703 0.000000
# 6 0.000000 0.000000 0.000000 0.000000 0.000000 0.033403
#
#
# Mechanical properties :
#
#
# Convention : Reuss Voigt Hill
#
# Bulk Modulus (GPa) = 59.25117 88.00593 73.62855
# Shear Modulus (GPa) = 20.38300 33.31381 26.84841
#
# Velocity S-wave (km/s) = 3.32300 4.24823 3.81378
# Velocity P-wave (km/s) = 6.84266 8.46994 7.69941
#
# Compressibility (1/GPa) = 0.01687730
#
# Stress axis : x y z
#
# Youngs Moduli (GPa) = 53.47282 35.16113 54.45937
#
# Poissons Ratio (x) = 0.15826 0.07792
# Poissons Ratio (y) = 0.24069 1.00104
# Poissons Ratio (z) = 0.07651 0.64631
#
# Static dielectric constant tensor:
#      x y z
#    x 1.627840 0.000000 0.000000 
#    y 0.000000 1.628380 0.000000 
#    z 0.000000 0.000000 1.609000 
# 
# From -- ./inp_files/5273.got.cif
#   From: 2010.05.17/outbox.cif.g08.bks.cpg/sg35_3_cif.got.tgz:5273.got - 2010.06.03 17:29:28.
