data_PCOD9348766
_publ_section_title
;
Structure prediction by ZEFSAII (Michael W. Deem and Ramdas Pophale) SiO2 
 PCOD9348766
Probable space group: C M M 2
;
_chemical_formula_sum "Si O2"
_cell_formula_units_Z 48
_cell_length_a 33.848531
_cell_length_b 9.061187
_cell_length_c 9.321505
_cell_angle_alpha 90.000000
_cell_angle_beta 90.000000
_cell_angle_gamma 90.000000
_cell_volume 2858.978935
_symmetry_space_group_name_H-M "C M M 2"
_symmetry_group_IT_number 35
_symmetry_cell_setting 'orthorhombic'
loop_
_space_group_symop_operation_xyz
x,y,z
-x,-y,z
-x,y,z
x,-y,z
1/2+x,1/2+y,z
1/2-x,1/2-y,z
1/2-x,1/2+y,z
1/2+x,1/2-y,z
loop_
_atom_site_type_symbol
_atom_site_label
_atom_site_fract_x
_atom_site_fract_y
_atom_site_fract_z
Si Si1 0.955381 0.821783 0.189820
Si Si2 0.291449 0.678101 0.830151
Si Si3 0.618480 0.824567 0.345194
Si Si4 0.413653 0.331154 0.910617
Si Si5 0.334785 0.331528 0.109168
Si Si6 0.633777 0.824107 0.677106
O O1 0.921709 0.749535 0.287168
O O2 0.000000 0.782299 0.230665
O O3 0.951120 0.000000 0.196902
O O4 0.946882 0.781268 0.023128
O O5 0.290937 0.500000 0.820419
O O6 0.250000 0.750000 0.788927
O O7 0.327095 0.742279 0.734837
O O8 0.301518 0.717427 0.996562
O O9 0.654084 0.766647 0.244718
O O10 0.626037 0.789021 0.511130
O O11 0.615159 0.000000 0.329790
O O12 0.421290 0.500000 0.864629
O O13 0.402407 0.231082 0.776409
O O14 0.374304 0.333315 0.010360
O O15 0.327130 0.500000 0.154651
O O16 0.638702 0.000000 0.693025
#
# Coordination Sequence:
#
# PCOD9348766 Si02
#       6
#     8   8   8   8   8   8
#     4   9  18  33  52  73  97 126 163 207 251 294
#     4  10  20  34  53  76  99 126 162 204 248 291
#     4  10  20  32  49  74 102 132 165 201 242 290
#     4   8  15  29  49  71  93 121 160 201 239 284
#     4   8  16  31  50  71  94 123 160 197 235 285
#     4  10  20  33  49  72 102 134 166 199 240 292
#
# _framework density 16.789211000000002
#
# number of rings (size 3 to 8) (size 9 to 14) (size 15 to 20)
#    0.000    2.833    0.000    3.500    0.000    9.667 
#    0.000    1.667    0.000    5.000    0.000    0.000 
#    0.000    0.000    0.000    0.000    0.000    0.000 
#
# Total GULP energy -133677.787152 kJ/mol
# GULP energy per Si atom -5569.907798 kJ/mol
# Density = 1.675100 g / cm^3
# Si number density = 16.789211 Si / 1000 Ang^3
#
#
#
# Elastic Constant Matrix: (Units=GPa)
#
#
# Indices 1 2 3 4 5 6 
#
# 1 79.7303 38.0967 45.8452 0.0000 0.0000 0.0000
# 2 38.0967 62.0123 68.4341 0.0000 0.0000 0.0000
# 3 45.8452 68.4341 126.9321 0.0000 0.0000 0.0000
# 4 0.0000 0.0000 0.0000 29.0388 0.0000 0.0000
# 5 0.0000 0.0000 0.0000 0.0000 16.8235 0.0000
# 6 0.0000 0.0000 0.0000 0.0000 0.0000 -4.6051
#
#
#
# Elastic Compliance Matrix: (Units=1/GPa)
#
#
# Indices 1 2 3 4 5 6 
#
# 1 0.017843 -0.009505 -0.001320 0.000000 0.000000 0.000000
# 2 -0.009505 0.044877 -0.020762 0.000000 0.000000 0.000000
# 3 -0.001320 -0.020762 0.019549 0.000000 0.000000 0.000000
# 4 0.000000 0.000000 0.000000 0.034437 0.000000 0.000000
# 5 0.000000 0.000000 0.000000 0.000000 0.059441 0.000000
# 6 0.000000 0.000000 0.000000 0.000000 0.000000 -0.217151
#
#
# Mechanical properties :
#
#
# Convention : Reuss Voigt Hill
#
# Bulk Modulus (GPa) = 52.37047 63.71408 58.04228
# Shear Modulus (GPa) = 175.22778 16.00470 95.61624
#
# Velocity S-wave (km/s) = 10.22721 3.09086 7.55478
# Velocity P-wave (km/s) = 13.06605 7.12529 10.52358
#
# Compressibility (1/GPa) = 0.01909473
#
# Stress axis : x y z
#
# Youngs Moduli (GPa) = 56.04456 22.28299 51.15446
#
# Poissons Ratio (x) = 0.21180 0.06752
# Poissons Ratio (y) = 0.53270 1.06207
# Poissons Ratio (z) = 0.07398 0.46264
#
# Static dielectric constant tensor:
#      x y z
#    x 1.581440 0.000000 0.000000 
#    y 0.000000 1.568380 0.000000 
#    z 0.000000 0.000000 1.565500 
# 
# From -- ./inp_files/10473.got.cif
#   From: 2010.05.17/outbox.cif.g08.bks.cpg/sg35_6_cif.got.tgz:10473.got - 2010.06.03 17:29:28.
