data_PCOD9348278
_publ_section_title
;
Structure prediction by ZEFSAII (Michael W. Deem and Ramdas Pophale) SiO2 
 PCOD9348278
Probable space group: C M M 2
;
_chemical_formula_sum "Si O2"
_cell_formula_units_Z 64
_cell_length_a 8.732350
_cell_length_b 19.324763
_cell_length_c 21.338116
_cell_angle_alpha 90.000000
_cell_angle_beta 90.000000
_cell_angle_gamma 90.000000
_cell_volume 3600.819754
_symmetry_space_group_name_H-M "C M M 2"
_symmetry_group_IT_number 35
_symmetry_cell_setting 'orthorhombic'
loop_
_space_group_symop_operation_xyz
x,y,z
-x,-y,z
-x,y,z
x,-y,z
1/2+x,1/2+y,z
1/2-x,1/2-y,z
1/2-x,1/2+y,z
1/2+x,1/2-y,z
loop_
_atom_site_type_symbol
_atom_site_label
_atom_site_fract_x
_atom_site_fract_y
_atom_site_fract_z
Si Si1 0.816217 0.918729 0.950540
Si Si2 0.316251 0.327524 0.327557
Si Si3 0.183591 0.672028 0.199089
Si Si4 0.317168 0.172775 0.061044
Si Si5 0.682981 0.080892 0.581695
Si Si6 0.183989 0.172975 0.692718
Si Si7 0.683731 0.419313 0.446667
Si Si8 0.686444 0.420473 0.809121
O O1 0.742109 0.873528 0.004518
O O2 0.766119 0.900221 0.879605
O O3 0.000000 0.910596 0.953433
O O4 0.781960 0.000000 0.959157
O O5 0.500000 0.323846 0.324274
O O6 0.250000 0.250000 0.333680
O O7 0.254047 0.359105 0.262258
O O8 0.271396 0.372516 0.387782
O O9 0.250000 0.750000 0.197721
O O10 0.000000 0.674192 0.204920
O O11 0.223905 0.643060 0.130313
O O12 0.500000 0.177668 0.058807
O O13 0.250000 0.250000 0.055956
O O14 0.500000 0.086027 0.586507
O O15 0.760493 0.129260 0.633039
O O16 0.735982 0.100307 0.511679
O O17 0.726892 0.000000 0.591487
O O18 0.250000 0.250000 0.691533
O O19 0.236202 0.131521 0.754995
O O20 0.000000 0.175920 0.692895
O O21 0.500000 0.413386 0.454894
O O22 0.718883 0.500000 0.434211
O O23 0.500000 0.421216 0.809109
O O24 0.735172 0.500000 0.796962
#
# Coordination Sequence:
#
# PCOD9348278 Si02
#       8
#     8   8   8   8   8   8   8   8
#     4   9  18  34  55  78 105 136 171 212 257 307
#     4  10  19  31  51  76 101 130 166 210 254 302
#     4   9  17  30  48  70  98 132 169 209 252 302
#     4  10  20  33  51  75 103 136 175 217 260 308
#     4  10  21  37  57  80 105 135 173 214 255 305
#     4  11  22  36  55  79 109 140 170 211 259 304
#     4   9  19  36  55  75 101 135 173 209 249 300
#     4   8  16  33  56  78 100 133 175 212 252 307
#
# _framework density 17.77373
#
# number of rings (size 3 to 8) (size 9 to 14) (size 15 to 20)
#    0.000    2.500    0.000    3.750    0.000    5.000 
#    0.000    4.375    0.000    3.750    0.000    0.000 
#    0.000    0.000    0.000    0.000    0.000    0.000 
#
# Total GULP energy -178459.765724 kJ/mol
# GULP energy per Si atom -5576.867679 kJ/mol
# Density = 1.773328 g / cm^3
# Si number density = 17.773730 Si / 1000 Ang^3
#
#
#
# Elastic Constant Matrix: (Units=GPa)
#
#
# Indices 1 2 3 4 5 6 
#
# 1 43.1762 39.5604 59.0593 0.0000 0.0000 0.0000
# 2 39.5604 80.4405 104.3743 0.0000 0.0000 0.0000
# 3 59.0593 104.3743 203.5774 0.0000 0.0000 0.0000
# 4 0.0000 0.0000 0.0000 35.8020 0.0000 0.0000
# 5 0.0000 0.0000 0.0000 0.0000 25.3995 0.0000
# 6 0.0000 0.0000 0.0000 0.0000 0.0000 21.9110
#
#
#
# Elastic Compliance Matrix: (Units=1/GPa)
#
#
# Indices 1 2 3 4 5 6 
#
# 1 0.043775 -0.015087 -0.004964 0.000000 0.000000 0.000000
# 2 -0.015087 0.042336 -0.017329 0.000000 0.000000 0.000000
# 3 -0.004964 -0.017329 0.015237 0.000000 0.000000 0.000000
# 4 0.000000 0.000000 0.000000 0.027931 0.000000 0.000000
# 5 0.000000 0.000000 0.000000 0.000000 0.039371 0.000000
# 6 0.000000 0.000000 0.000000 0.000000 0.000000 0.045639
#
#
# Mechanical properties :
#
#
# Convention : Reuss Voigt Hill
#
# Bulk Modulus (GPa) = 37.61163 81.46468 59.53815
# Shear Modulus (GPa) = 16.78345 24.90250 20.84297
#
# Velocity S-wave (km/s) = 3.07625 3.74717 3.42816
# Velocity P-wave (km/s) = 5.81593 8.04086 7.01714
#
# Compressibility (1/GPa) = 0.02658752
#
# Stress axis : x y z
#
# Youngs Moduli (GPa) = 22.84407 23.62049 65.63026
#
# Poissons Ratio (x) = 0.35636 0.32581
# Poissons Ratio (y) = 0.34465 1.13730
# Poissons Ratio (z) = 0.11341 0.40932
#
# Static dielectric constant tensor:
#      x y z
#    x 1.601610 0.000000 0.000000 
#    y 0.000000 1.581620 0.000000 
#    z 0.000000 0.000000 1.622570 
# 
# From -- ./inp_files/18387.got.cif
#   From: 2010.05.17/outbox.cif.g08.bks.cpg/sg35_10_cif.got.tgz:18387.got - 2010.06.03 17:29:28.
