data_PCOD9348007
_publ_section_title
;
Structure prediction by ZEFSAII (Michael W. Deem and Ramdas Pophale) SiO2 
 PCOD9348007
Probable space group: P N N 2
;
_chemical_formula_sum "Si O2"
_cell_formula_units_Z 26
_cell_length_a 27.359766
_cell_length_b 5.433144
_cell_length_c 6.520705
_cell_angle_alpha 90.000000
_cell_angle_beta 90.000000
_cell_angle_gamma 90.000000
_cell_volume 969.299854
_symmetry_space_group_name_H-M "P N N 2"
_symmetry_group_IT_number 34
_symmetry_cell_setting 'orthorhombic'
loop_
_space_group_symop_operation_xyz
x,y,z
-x,-y,z
1/2-x,1/2+y,1/2+z
1/2+x,1/2-y,1/2+z
loop_
_atom_site_type_symbol
_atom_site_label
_atom_site_fract_x
_atom_site_fract_y
_atom_site_fract_z
Si Si1 0.142727 0.662916 0.027110
Si Si2 0.309910 0.679374 0.983187
Si Si3 0.918950 0.823724 0.626492
Si Si4 0.276346 0.177739 0.212514
Si Si5 0.602694 0.340229 0.618444
Si Si6 0.000000 0.000000 0.072259
Si Si7 0.447612 0.183256 0.230600
O O1 0.126502 0.424580 0.151595
O O2 0.132126 0.908674 0.152287
O O3 0.196048 0.661141 0.931623
O O4 0.106767 0.663635 0.829659
O O5 0.368828 0.686644 0.001610
O O6 0.293402 0.428661 0.101524
O O7 0.291690 0.932042 0.091863
O O8 0.280703 0.679188 0.768382
O O9 0.951884 0.579322 0.620043
O O10 0.945671 0.080741 0.586777
O O11 0.903646 0.838717 0.867403
O O12 0.546602 0.383263 0.685359
O O13 0.019760 0.777552 0.923709
#
# Coordination Sequence:
#
# PCOD9348007 Si02
#       7
#     4   4   4   4   4   2   4
#     4   9  15  28  42  60  89 133 162 191 257 315
#     4  12  22  37  55  78 103 141 193 226 266 318
#     4   9  15  28  42  60  89 133 162 191 257 315
#     4  12  22  37  55  78 103 141 193 226 266 318
#     4   9  15  24  42  57  99 121 171 183 264 311
#     4   8  16  22  36  70  84 138 162 206 228 330
#     4   9  15  24  42  57  99 121 171 183 264 311
#
# _framework density 26.823485000000002
#
# number of rings (size 3 to 8) (size 9 to 14) (size 15 to 20)
#    0.000    2.462    6.154    0.923    0.000    9.846 
#    0.000    0.000    0.000    0.000    0.000    0.000 
#    0.000    0.000    0.000  144.000    3.692    0.000 
#
# Total GULP energy -145441.263010 kJ/mol
# GULP energy per Si atom -5593.894731 kJ/mol
# Density = 2.676243 g / cm^3
# Si number density = 26.823485 Si / 1000 Ang^3
#
#
#
# Elastic Constant Matrix: (Units=GPa)
#
#
# Indices 1 2 3 4 5 6 
#
# 1 136.0817 58.5245 -20.0526 0.0000 0.0000 0.0000
# 2 58.5245 301.1711 27.5154 0.0000 0.0000 0.0000
# 3 -20.0526 27.5154 52.5958 0.0000 0.0000 0.0000
# 4 0.0000 0.0000 0.0000 36.2064 0.0000 0.0000
# 5 0.0000 0.0000 0.0000 0.0000 17.9900 0.0000
# 6 0.0000 0.0000 0.0000 0.0000 0.0000 44.5313
#
#
#
# Elastic Compliance Matrix: (Units=1/GPa)
#
#
# Indices 1 2 3 4 5 6 
#
# 1 0.008942 -0.002152 0.004535 0.000000 0.000000 0.000000
# 2 -0.002152 0.004005 -0.002916 0.000000 0.000000 0.000000
# 3 0.004535 -0.002916 0.022267 0.000000 0.000000 0.000000
# 4 0.000000 0.000000 0.000000 0.027619 0.000000 0.000000
# 5 0.000000 0.000000 0.000000 0.000000 0.055587 0.000000
# 6 0.000000 0.000000 0.000000 0.000000 0.000000 0.022456
#
#
# Mechanical properties :
#
#
# Convention : Reuss Voigt Hill
#
# Bulk Modulus (GPa) = 29.28292 69.09144 49.18718
# Shear Modulus (GPa) = 32.61048 48.00295 40.30671
#
# Velocity S-wave (km/s) = 3.49053 4.23494 3.88063
# Velocity P-wave (km/s) = 5.21399 7.05172 6.20131
#
# Compressibility (1/GPa) = 0.03414960
#
# Stress axis : x y z
#
# Youngs Moduli (GPa) = 111.82745 249.69146 44.90881
#
# Poissons Ratio (x) = 0.53735 -0.20367
# Poissons Ratio (y) = 0.24066 0.13094
# Poissons Ratio (z) = -0.50716 0.72802
#
# Static dielectric constant tensor:
#      x y z
#    x 2.094380 0.000000 0.000000 
#    y 0.000000 2.135700 0.000000 
#    z 0.000000 0.000000 2.222320 
# 
# From -- ./inp_files/4140.got.cif
#   From: 2010.05.17/outbox.cif.g08.bks.cpg/sg34_3_cif.got.tgz:4140.got - 2010.06.03 17:23:11.
