data_PCOD9348958
_publ_section_title
;
Structure prediction by ZEFSAII (Michael W. Deem and Ramdas Pophale) SiO2 
 PCOD9348958
Probable space group: C M M 2
;
_chemical_formula_sum "Si O2"
_cell_formula_units_Z 64
_cell_length_a 10.799725
_cell_length_b 20.417702
_cell_length_c 15.882183
_cell_angle_alpha 90.000000
_cell_angle_beta 90.000000
_cell_angle_gamma 90.000000
_cell_volume 3502.109763
_symmetry_space_group_name_H-M "C M M 2"
_symmetry_group_IT_number 35
_symmetry_cell_setting 'orthorhombic'
loop_
_space_group_symop_operation_xyz
x,y,z
-x,-y,z
-x,y,z
x,-y,z
1/2+x,1/2+y,z
1/2-x,1/2-y,z
1/2-x,1/2+y,z
1/2+x,1/2-y,z
loop_
_atom_site_type_symbol
_atom_site_label
_atom_site_fract_x
_atom_site_fract_y
_atom_site_fract_z
Si Si1 0.357943 0.703189 0.729860
Si Si2 0.864503 0.793492 0.354359
Si Si3 0.260188 0.924571 0.316814
Si Si4 0.363043 0.078868 0.133128
Si Si5 0.141647 0.079530 0.014865
Si Si6 0.149202 0.072855 0.822627
Si Si7 0.635326 0.664788 0.543452
Si Si8 0.136828 0.423203 0.501700
O O1 0.500000 0.716056 0.759246
O O2 0.250000 0.750000 0.762276
O O3 0.321803 0.629605 0.757249
O O4 0.360874 0.705984 0.628550
O O5 0.750000 0.750000 0.324134
O O6 0.842812 0.868602 0.326564
O O7 0.860921 0.795024 0.456498
O O8 0.000000 0.769863 0.327875
O O9 0.335258 0.911821 0.231735
O O10 0.343245 0.918463 0.400671
O O11 0.213785 0.000000 0.313866
O O12 0.500000 0.104331 0.110997
O O13 0.246736 0.103770 0.078745
O O14 0.366049 0.000000 0.120190
O O15 0.000000 0.102747 0.030057
O O16 0.136430 0.000000 0.021304
O O17 0.180242 0.092926 0.918382
O O18 0.000000 0.067695 0.822494
O O19 0.199187 0.000000 0.804499
O O20 0.500000 0.630228 0.543368
O O21 0.750728 0.616152 0.541698
O O22 0.143939 0.500000 0.523116
O O23 0.000000 0.398201 0.523702
#
# Coordination Sequence:
#
# PCOD9348958 Si02
#       8
#     8   8   8   8   8   8   8   8
#     4  10  20  34  53  76 101 129 162 202 247 294
#     4  10  21  35  51  72  98 131 169 208 250 293
#     4   9  18  32  50  73 101 132 167 205 245 291
#     4   9  16  26  44  72 102 129 160 200 245 291
#     4   8  14  26  45  69  96 125 159 200 243 287
#     4   8  15  30  52  75  98 128 166 202 238 288
#     4   9  19  33  48  69  95 127 168 207 244 288
#     4   9  17  29  46  69  98 132 167 204 249 295
#
# _framework density 18.274698000000001
#
# number of rings (size 3 to 8) (size 9 to 14) (size 15 to 20)
#    0.000    3.000    0.000    1.500    0.000    6.000 
#    0.000    5.625    0.000    1.875    0.000    1.750 
#    0.000    0.000    0.000    0.000    0.000    0.000 
#
# Total GULP energy -178144.891220 kJ/mol
# GULP energy per Si atom -5567.027851 kJ/mol
# Density = 1.823310 g / cm^3
# Si number density = 18.274698 Si / 1000 Ang^3
#
#
#
# Elastic Constant Matrix: (Units=GPa)
#
#
# Indices 1 2 3 4 5 6 
#
# 1 139.3819 41.2247 16.4611 0.0000 0.0000 0.0000
# 2 41.2247 43.1001 9.9749 0.0000 0.0000 0.0000
# 3 16.4611 9.9749 29.8297 0.0000 0.0000 0.0000
# 4 0.0000 0.0000 0.0000 2.9244 0.0000 0.0000
# 5 0.0000 0.0000 0.0000 0.0000 9.1299 0.0000
# 6 0.0000 0.0000 0.0000 0.0000 0.0000 21.2515
#
#
#
# Elastic Compliance Matrix: (Units=1/GPa)
#
#
# Indices 1 2 3 4 5 6 
#
# 1 0.010182 -0.009147 -0.002560 0.000000 0.000000 0.000000
# 2 -0.009147 0.033364 -0.006110 0.000000 0.000000 0.000000
# 3 -0.002560 -0.006110 0.036980 0.000000 0.000000 0.000000
# 4 0.000000 0.000000 0.000000 0.341947 0.000000 0.000000
# 5 0.000000 0.000000 0.000000 0.000000 0.109530 0.000000
# 6 0.000000 0.000000 0.000000 0.000000 0.000000 0.047056
#
#
# Mechanical properties :
#
#
# Convention : Reuss Voigt Hill
#
# Bulk Modulus (GPa) = 22.27506 38.62589 30.45047
# Shear Modulus (GPa) = 7.94084 16.30456 12.12270
#
# Velocity S-wave (km/s) = 2.08679 2.99020 2.57837
# Velocity P-wave (km/s) = 4.24520 5.75360 5.05597
#
# Compressibility (1/GPa) = 0.04489327
#
# Stress axis : x y z
#
# Youngs Moduli (GPa) = 98.21098 29.97214 27.04200
#
# Poissons Ratio (x) = 0.27414 0.06924
# Poissons Ratio (y) = 0.89829 0.16521
# Poissons Ratio (z) = 0.25145 0.18311
#
# Static dielectric constant tensor:
#      x y z
#    x 1.661620 0.000000 0.000000 
#    y 0.000000 1.638340 0.000000 
#    z 0.000000 0.000000 1.631860 
# 
# From -- ./inp_files/16509.got.cif
#   From: 2010.05.17/outbox.cif.g08.bks.cpg/sg35_9_cif.got.tgz:16509.got - 2010.06.03 17:29:28.
