data_PCOD9348999
_publ_section_title
;
Structure prediction by ZEFSAII (Michael W. Deem and Ramdas Pophale) SiO2 
 PCOD9348999
Probable space group: C M M 2
;
_chemical_formula_sum "Si O2"
_cell_formula_units_Z 48
_cell_length_a 16.037504
_cell_length_b 8.531440
_cell_length_c 18.116694
_cell_angle_alpha 90.000000
_cell_angle_beta 90.000000
_cell_angle_gamma 90.000000
_cell_volume 2478.780480
_symmetry_space_group_name_H-M "C M M 2"
_symmetry_group_IT_number 35
_symmetry_cell_setting 'orthorhombic'
loop_
_space_group_symop_operation_xyz
x,y,z
-x,-y,z
-x,y,z
x,-y,z
1/2+x,1/2+y,z
1/2-x,1/2-y,z
1/2-x,1/2+y,z
1/2+x,1/2-y,z
loop_
_atom_site_type_symbol
_atom_site_label
_atom_site_fract_x
_atom_site_fract_y
_atom_site_fract_z
Si Si1 0.000000 0.308416 0.383670
Si Si2 0.597633 0.674012 0.968394
Si Si3 0.500000 0.190946 0.553527
Si Si4 0.155323 0.310201 0.283734
Si Si5 0.343126 0.813747 0.119244
Si Si6 0.654468 0.188303 0.655407
Si Si7 0.156463 0.810909 0.811080
O O1 0.000000 0.257627 0.468566
O O2 0.915644 0.258721 0.341150
O O3 0.000000 0.500000 0.382379
O O4 0.500000 0.657533 0.959523
O O5 0.637227 0.500000 0.974450
O O6 0.626582 0.747168 0.891154
O O7 0.612399 0.758828 0.045298
O O8 0.585430 0.238412 0.595181
O O9 0.500000 0.000000 0.554361
O O10 0.159051 0.500000 0.285619
O O11 0.250000 0.250000 0.296357
O O12 0.127090 0.261781 0.200619
O O13 0.250000 0.750000 0.113287
O O14 0.343432 0.000000 0.119855
O O15 0.750000 0.250000 0.643729
O O16 0.619580 0.245785 0.734954
O O17 0.659738 0.000000 0.656302
O O18 0.250000 0.750000 0.806330
O O19 0.149910 0.000000 0.810328
#
# Coordination Sequence:
#
# PCOD9348999 Si02
#       7
#     4   8   4   8   8   8   8
#     4   9  18  36  59  82 111 148 180 219 273 331
#     4  10  22  36  50  75 109 143 179 222 271 318
#     4   9  20  36  57  84 113 144 180 221 273 331
#     4   9  19  35  58  83 111 145 185 226 272 325
#     4  10  20  34  54  78 105 140 183 226 268 320
#     4  10  20  36  57  83 111 143 183 226 272 326
#     4  10  20  35  55  76 103 140 180 220 266 318
#
# _framework density 19.364362
#
# number of rings (size 3 to 8) (size 9 to 14) (size 15 to 20)
#    0.000    2.333    0.000    3.000    2.333    4.333 
#    0.000    1.667    0.000    3.000    0.000    0.000 
#    0.000    0.000    0.000    0.000    0.000    0.000 
#
# Total GULP energy -133706.309254 kJ/mol
# GULP energy per Si atom -5571.096219 kJ/mol
# Density = 1.932029 g / cm^3
# Si number density = 19.364362 Si / 1000 Ang^3
#
#
#
# Elastic Constant Matrix: (Units=GPa)
#
#
# Indices 1 2 3 4 5 6 
#
# 1 86.4602 12.8096 89.5899 0.0000 0.0000 0.0000
# 2 12.8096 26.5877 25.6315 0.0000 0.0000 0.0000
# 3 89.5899 25.6315 196.3378 0.0000 0.0000 0.0000
# 4 0.0000 0.0000 0.0000 21.6704 0.0000 0.0000
# 5 0.0000 0.0000 0.0000 0.0000 44.1971 0.0000
# 6 0.0000 0.0000 0.0000 0.0000 0.0000 15.7341
#
#
#
# Elastic Compliance Matrix: (Units=1/GPa)
#
#
# Indices 1 2 3 4 5 6 
#
# 1 0.021965 -0.001053 -0.009885 0.000000 0.000000 0.000000
# 2 -0.001053 0.043077 -0.005143 0.000000 0.000000 0.000000
# 3 -0.009885 -0.005143 0.010275 0.000000 0.000000 0.000000
# 4 0.000000 0.000000 0.000000 0.046146 0.000000 0.000000
# 5 0.000000 0.000000 0.000000 0.000000 0.022626 0.000000
# 6 0.000000 0.000000 0.000000 0.000000 0.000000 0.063556
#
#
# Mechanical properties :
#
#
# Convention : Reuss Voigt Hill
#
# Bulk Modulus (GPa) = 23.17239 62.82751 42.99995
# Shear Modulus (GPa) = 19.67009 28.41063 24.04036
#
# Velocity S-wave (km/s) = 3.19060 3.83451 3.52728
# Velocity P-wave (km/s) = 5.05626 7.21942 6.23240
#
# Compressibility (1/GPa) = 0.04315481
#
# Stress axis : x y z
#
# Youngs Moduli (GPa) = 45.52650 23.21438 97.31920
#
# Poissons Ratio (x) = 0.02444 0.96204
# Poissons Ratio (y) = 0.04792 0.50054
# Poissons Ratio (z) = 0.45005 0.11940
#
# Static dielectric constant tensor:
#      x y z
#    x 1.644860 0.000000 0.000000 
#    y 0.000000 1.717390 0.000000 
#    z 0.000000 0.000000 1.743830 
# 
# From -- ./inp_files/15177.got.cif
#   From: 2010.05.17/outbox.cif.g08.bks.cpg/sg35_8_cif.got.tgz:15177.got - 2010.06.03 17:29:28.
