data_PCOD9348937
_publ_section_title
;
Structure prediction by ZEFSAII (Michael W. Deem and Ramdas Pophale) SiO2 
 PCOD9348937
Probable space group: C M M 2
;
_chemical_formula_sum "Si O2"
_cell_formula_units_Z 64
_cell_length_a 8.992498
_cell_length_b 34.161661
_cell_length_c 11.499182
_cell_angle_alpha 90.000000
_cell_angle_beta 90.000000
_cell_angle_gamma 90.000000
_cell_volume 3532.533396
_symmetry_space_group_name_H-M "C M M 2"
_symmetry_group_IT_number 35
_symmetry_cell_setting 'orthorhombic'
loop_
_space_group_symop_operation_xyz
x,y,z
-x,-y,z
-x,y,z
x,-y,z
1/2+x,1/2+y,z
1/2-x,1/2-y,z
1/2-x,1/2+y,z
1/2+x,1/2-y,z
loop_
_atom_site_type_symbol
_atom_site_label
_atom_site_fract_x
_atom_site_fract_y
_atom_site_fract_z
Si Si1 0.673349 0.393896 0.068710
Si Si2 0.822728 0.366356 0.288832
Si Si3 0.680947 0.127739 0.557889
Si Si4 0.679130 0.792184 0.695352
Si Si5 0.825570 0.815794 0.935942
Si Si6 0.323358 0.956239 0.653756
Si Si7 0.665123 0.954969 0.931404
Si Si8 0.672894 0.288735 0.194183
O O1 0.500000 0.386580 0.090786
O O2 0.756339 0.395058 0.191670
O O3 0.724164 0.358337 0.984112
O O4 0.708044 0.432429 0.997989
O O5 0.777840 0.371992 0.422153
O O6 0.760056 0.325078 0.245836
O O7 0.000000 0.367302 0.283333
O O8 0.500000 0.127461 0.567068
O O9 0.725668 0.168545 0.622165
O O10 0.735296 0.085617 0.607394
O O11 0.500000 0.788930 0.689262
O O12 0.750000 0.750000 0.659705
O O13 0.730952 0.800576 0.828067
O O14 0.817118 0.790501 0.053712
O O15 0.000000 0.817704 0.900922
O O16 0.500000 0.956998 0.624884
O O17 0.312542 0.953839 0.793158
O O18 0.264691 0.000000 0.618732
O O19 0.500000 0.937886 0.956182
O O20 0.663162 0.000000 0.966404
O O21 0.500000 0.290858 0.224726
O O22 0.750000 0.250000 0.238376
#
# Coordination Sequence:
#
# PCOD9348937 Si02
#       8
#     8   8   8   8   8   8   8   8
#     4  10  20  34  52  75 104 137 172 212 261 314
#     4  10  20  35  53  72  99 135 176 218 256 303
#     4   9  19  34  51  74 103 138 177 217 263 309
#     4  11  22  35  52  75 106 140 175 215 260 313
#     4   9  19  34  51  74 102 131 167 210 259 316
#     4   8  14  28  53  83 110 133 164 211 263 314
#     4   9  17  30  52  82 110 135 166 205 253 313
#     4  10  20  34  52  75 102 131 169 216 264 313
#
# _framework density 18.11731
#
# number of rings (size 3 to 8) (size 9 to 14) (size 15 to 20)
#    0.000    2.500    0.000    4.125    0.000    5.750 
#    0.000    4.375    0.000    3.750    0.000    0.000 
#    0.000    0.000    0.000    0.000    0.000    0.000 
#
# Total GULP energy -178211.062549 kJ/mol
# GULP energy per Si atom -5569.095705 kJ/mol
# Density = 1.807607 g / cm^3
# Si number density = 18.117310 Si / 1000 Ang^3
#
#
#
# Elastic Constant Matrix: (Units=GPa)
#
#
# Indices 1 2 3 4 5 6 
#
# 1 35.5118 25.3321 23.1323 0.0000 0.0000 0.0000
# 2 25.3321 110.7021 44.3075 0.0000 0.0000 0.0000
# 3 23.1323 44.3075 51.2899 0.0000 0.0000 0.0000
# 4 0.0000 0.0000 0.0000 8.1608 0.0000 0.0000
# 5 0.0000 0.0000 0.0000 0.0000 6.2418 0.0000
# 6 0.0000 0.0000 0.0000 0.0000 0.0000 24.0959
#
#
#
# Elastic Compliance Matrix: (Units=1/GPa)
#
#
# Indices 1 2 3 4 5 6 
#
# 1 0.040512 -0.002992 -0.015687 0.000000 0.000000 0.000000
# 2 -0.002992 0.014028 -0.010769 0.000000 0.000000 0.000000
# 3 -0.015687 -0.010769 0.035875 0.000000 0.000000 0.000000
# 4 0.000000 0.000000 0.000000 0.122537 0.000000 0.000000
# 5 0.000000 0.000000 0.000000 0.000000 0.160211 0.000000
# 6 0.000000 0.000000 0.000000 0.000000 0.000000 0.041501
#
#
# Mechanical properties :
#
#
# Convention : Reuss Voigt Hill
#
# Bulk Modulus (GPa) = 31.72616 42.56086 37.14351
# Shear Modulus (GPa) = 10.32917 14.68182 12.50550
#
# Velocity S-wave (km/s) = 2.39032 2.84980 2.63011
# Velocity P-wave (km/s) = 5.01675 5.86270 5.45614
#
# Compressibility (1/GPa) = 0.03151973
#
# Stress axis : x y z
#
# Youngs Moduli (GPa) = 24.68381 71.28565 27.87468
#
# Poissons Ratio (x) = 0.21328 0.43727
# Poissons Ratio (y) = 0.07385 0.30018
# Poissons Ratio (z) = 0.38721 0.76767
#
# Static dielectric constant tensor:
#      x y z
#    x 1.620800 0.000000 0.000000 
#    y 0.000000 1.653810 0.000000 
#    z 0.000000 0.000000 1.605050 
# 
# From -- ./inp_files/11837.got.cif
#   From: 2010.05.17/outbox.cif.g08.bks.cpg/sg35_6_cif.got.tgz:11837.got - 2010.06.03 17:29:28.
