data_PCOD9348693
_publ_section_title
;
Structure prediction by ZEFSAII (Michael W. Deem and Ramdas Pophale) SiO2 
 PCOD9348693
Probable space group: C M M 2
;
_chemical_formula_sum "Si O2"
_cell_formula_units_Z 48
_cell_length_a 18.264005
_cell_length_b 14.746639
_cell_length_c 10.117370
_cell_angle_alpha 90.000000
_cell_angle_beta 90.000000
_cell_angle_gamma 90.000000
_cell_volume 2724.938462
_symmetry_space_group_name_H-M "C M M 2"
_symmetry_group_IT_number 35
_symmetry_cell_setting 'orthorhombic'
loop_
_space_group_symop_operation_xyz
x,y,z
-x,-y,z
-x,y,z
x,-y,z
1/2+x,1/2+y,z
1/2-x,1/2-y,z
1/2-x,1/2+y,z
1/2+x,1/2-y,z
loop_
_atom_site_type_symbol
_atom_site_label
_atom_site_fract_x
_atom_site_fract_y
_atom_site_fract_z
Si Si1 0.357760 0.500000 0.746230
Si Si2 0.325846 0.198756 0.933593
Si Si3 0.415193 0.329616 0.416105
Si Si4 0.916722 0.800430 0.717053
Si Si5 0.268212 0.000000 0.954039
Si Si6 0.413690 0.823815 0.196494
Si Si7 0.183628 0.500000 0.248166
Si Si8 0.812184 0.000000 0.450228
O O1 0.404135 0.407837 0.740482
O O2 0.308197 0.500000 0.876753
O O3 0.309735 0.500000 0.610524
O O4 0.250000 0.250000 0.965363
O O5 0.360655 0.244773 0.805462
O O6 0.309255 0.092424 0.914284
O O7 0.381204 0.207022 0.056040
O O8 0.500000 0.362158 0.410769
O O9 0.405573 0.285607 0.560974
O O10 0.404165 0.256141 0.302500
O O11 0.358980 0.412163 0.407954
O O12 0.000000 0.776372 0.751545
O O13 0.266842 0.000000 0.114031
O O14 0.500000 0.844762 0.186309
O O15 0.367489 0.911552 0.240106
O O16 0.235293 0.500000 0.375576
#
# Coordination Sequence:
#
# PCOD9348693 Si02
#       8
#     4   8   8   8   4   8   4   4
#     4  10  19  36  56  84 118 147 184 234 287 340
#     4  11  22  37  59  85 114 149 186 239 282 343
#     4   9  20  37  58  83 116 150 187 232 283 342
#     4  10  20  37  59  85 114 151 190 231 286 342
#     4  10  22  38  53  80 119 143 183 228 289 328
#     4  10  22  40  59  81 111 151 192 233 282 337
#     4  10  23  37  57  81 110 153 189 238 274 336
#     4  10  21  33  56  87 116 147 186 230 287 336
#
# _framework density 17.615076999999999
#
# number of rings (size 3 to 8) (size 9 to 14) (size 15 to 20)
#    0.000    2.000    1.667    1.250    4.667    3.333 
#    0.000    1.250    0.000    5.000    0.000    1.167 
#    0.000    0.000    0.000    0.000    0.000    0.000 
#
# Total GULP energy -133948.743630 kJ/mol
# GULP energy per Si atom -5581.197651 kJ/mol
# Density = 1.757498 g / cm^3
# Si number density = 17.615077 Si / 1000 Ang^3
#
#
#
# Elastic Constant Matrix: (Units=GPa)
#
#
# Indices 1 2 3 4 5 6 
#
# 1 92.0738 24.9158 48.5996 0.0000 0.0000 0.0000
# 2 24.9158 73.8394 28.2514 0.0000 0.0000 0.0000
# 3 48.5996 28.2514 53.2308 0.0000 0.0000 0.0000
# 4 0.0000 0.0000 0.0000 22.8927 0.0000 0.0000
# 5 0.0000 0.0000 0.0000 0.0000 33.4967 0.0000
# 6 0.0000 0.0000 0.0000 0.0000 0.0000 -1.7338
#
#
#
# Elastic Compliance Matrix: (Units=1/GPa)
#
#
# Indices 1 2 3 4 5 6 
#
# 1 0.020969 0.000313 -0.019311 0.000000 0.000000 0.000000
# 2 0.000313 0.016998 -0.009307 0.000000 0.000000 0.000000
# 3 -0.019311 -0.009307 0.041356 0.000000 0.000000 0.000000
# 4 0.000000 0.000000 0.000000 0.043682 0.000000 0.000000
# 5 0.000000 0.000000 0.000000 0.000000 0.029854 0.000000
# 6 0.000000 0.000000 0.000000 0.000000 0.000000 -0.576757
#
#
# Mechanical properties :
#
#
# Convention : Reuss Voigt Hill
#
# Bulk Modulus (GPa) = 44.02648 46.96415 45.49532
# Shear Modulus (GPa) = -13.89982 18.75626 2.42822
#
# Velocity S-wave (km/s) = -2.81212 3.26664 1.17536
# Velocity P-wave (km/s) = 3.80840 6.39900 5.26550
#
# Compressibility (1/GPa) = 0.02271360
#
# Stress axis : x y z
#
# Youngs Moduli (GPa) = 47.68942 58.82929 24.18014
#
# Poissons Ratio (x) = -0.01840 0.46693
# Poissons Ratio (y) = -0.01491 0.22505
# Poissons Ratio (z) = 0.92091 0.54753
#
# Static dielectric constant tensor:
#      x y z
#    x 1.582460 0.000000 0.000000 
#    y 0.000000 1.580740 0.000000 
#    z 0.000000 0.000000 1.583920 
# 
# From -- ./inp_files/7367.got.cif
#   From: 2010.05.17/outbox.cif.g08.bks.cpg/sg35_4_cif.got.tgz:7367.got - 2010.06.03 17:29:28.
