data_PCOD9348584
_publ_section_title
;
Structure prediction by ZEFSAII (Michael W. Deem and Ramdas Pophale) SiO2 
 PCOD9348584
Probable space group: C M M 2
;
_chemical_formula_sum "Si O2"
_cell_formula_units_Z 48
_cell_length_a 9.056887
_cell_length_b 30.960036
_cell_length_c 9.476338
_cell_angle_alpha 90.000000
_cell_angle_beta 90.000000
_cell_angle_gamma 90.000000
_cell_volume 2657.179840
_symmetry_space_group_name_H-M "C M M 2"
_symmetry_group_IT_number 35
_symmetry_cell_setting 'orthorhombic'
loop_
_space_group_symop_operation_xyz
x,y,z
-x,-y,z
-x,y,z
x,-y,z
1/2+x,1/2+y,z
1/2-x,1/2-y,z
1/2-x,1/2+y,z
1/2+x,1/2-y,z
loop_
_atom_site_type_symbol
_atom_site_label
_atom_site_fract_x
_atom_site_fract_y
_atom_site_fract_z
Si Si1 0.327584 0.500000 0.823761
Si Si2 0.824653 0.869168 0.113635
Si Si3 0.665114 0.075371 0.329081
Si Si4 0.675800 0.296071 0.347702
Si Si5 0.177913 0.593970 0.845794
Si Si6 0.829877 0.000000 0.485360
Si Si7 0.165388 0.647639 0.566488
O O1 0.500000 0.500000 0.870176
O O2 0.249586 0.545902 0.862539
O O3 0.324735 0.500000 0.653530
O O4 0.769882 0.910407 0.202808
O O5 0.790282 0.828234 0.215308
O O6 0.000000 0.869967 0.089283
O O7 0.736400 0.874437 0.968635
O O8 0.500000 0.063123 0.280973
O O9 0.743578 0.039819 0.421470
O O10 0.651484 0.115243 0.435199
O O11 0.500000 0.292291 0.353743
O O12 0.750000 0.250000 0.324220
O O13 0.732850 0.315742 0.496995
O O14 0.217402 0.618395 0.698479
O O15 0.000000 0.589389 0.849237
O O16 0.000000 0.000000 0.441240
O O17 0.000000 0.664230 0.600866
#
# Coordination Sequence:
#
# PCOD9348584 Si02
#       7
#     4   8   8   8   8   4   8
#     4  11  23  36  55  82 117 158 196 240 287 336
#     4  10  22  39  57  83 116 151 189 234 289 344
#     4  10  19  34  55  78 106 144 189 235 281 332
#     4  10  21  38  63  89 115 146 186 234 287 347
#     4  11  22  38  59  85 117 156 197 238 285 340
#     4  11  21  32  51  80 111 146 190 240 287 334
#     4   9  19  35  57  83 112 144 184 231 281 336
#
# _framework density 18.064264000000001
#
# number of rings (size 3 to 8) (size 9 to 14) (size 15 to 20)
#    0.000    1.833    1.667    2.500    0.000    5.333 
#    0.000    4.167    0.000    2.000    0.000    0.000 
#    0.000    0.000    0.000    0.000    0.000    0.000 
#
# Total GULP energy -133708.659501 kJ/mol
# GULP energy per Si atom -5571.194146 kJ/mol
# Density = 1.802315 g / cm^3
# Si number density = 18.064264 Si / 1000 Ang^3
#
#
#
# Elastic Constant Matrix: (Units=GPa)
#
#
# Indices 1 2 3 4 5 6 
#
# 1 88.6016 70.8663 31.9409 0.0000 0.0000 0.0000
# 2 70.8663 93.1181 29.2102 0.0000 0.0000 0.0000
# 3 31.9409 29.2102 82.2466 0.0000 0.0000 0.0000
# 4 0.0000 0.0000 0.0000 33.1051 0.0000 0.0000
# 5 0.0000 0.0000 0.0000 0.0000 27.4069 0.0000
# 6 0.0000 0.0000 0.0000 0.0000 0.0000 31.7120
#
#
#
# Elastic Compliance Matrix: (Units=1/GPa)
#
#
# Indices 1 2 3 4 5 6 
#
# 1 0.029958 -0.021551 -0.003981 0.000000 0.000000 0.000000
# 2 -0.021551 0.027588 -0.001429 0.000000 0.000000 0.000000
# 3 -0.003981 -0.001429 0.014212 0.000000 0.000000 0.000000
# 4 0.000000 0.000000 0.000000 0.030207 0.000000 0.000000
# 5 0.000000 0.000000 0.000000 0.000000 0.036487 0.000000
# 6 0.000000 0.000000 0.000000 0.000000 0.000000 0.031534
#
#
# Mechanical properties :
#
#
# Convention : Reuss Voigt Hill
#
# Bulk Modulus (GPa) = 56.05947 58.66678 57.36312
# Shear Modulus (GPa) = 21.75307 27.24141 24.49724
#
# Velocity S-wave (km/s) = 3.47393 3.88755 3.68654
# Velocity P-wave (km/s) = 6.86962 7.25933 7.06716
#
# Compressibility (1/GPa) = 0.01783820
#
# Stress axis : x y z
#
# Youngs Moduli (GPa) = 33.37951 36.24744 70.36374
#
# Poissons Ratio (x) = 0.78116 0.28009
# Poissons Ratio (y) = 0.71936 0.10053
# Poissons Ratio (z) = 0.13287 0.05179
#
# Static dielectric constant tensor:
#      x y z
#    x 1.634600 0.000000 0.000000 
#    y 0.000000 1.588800 0.000000 
#    z 0.000000 0.000000 1.621080 
# 
# From -- ./inp_files/5375.got.cif
#   From: 2010.05.17/outbox.cif.g08.bks.cpg/sg35_3_cif.got.tgz:5375.got - 2010.06.03 17:29:28.
