data_PCOD9348241
_publ_section_title
;
Structure prediction by ZEFSAII (Michael W. Deem and Ramdas Pophale) SiO2 
 PCOD9348241
Probable space group: C M M 2
;
_chemical_formula_sum "Si O2"
_cell_formula_units_Z 56
_cell_length_a 17.874500
_cell_length_b 15.938325
_cell_length_c 11.470559
_cell_angle_alpha 90.000000
_cell_angle_beta 90.000000
_cell_angle_gamma 90.000000
_cell_volume 3267.842853
_symmetry_space_group_name_H-M "C M M 2"
_symmetry_group_IT_number 35
_symmetry_cell_setting 'orthorhombic'
loop_
_space_group_symop_operation_xyz
x,y,z
-x,-y,z
-x,y,z
x,-y,z
1/2+x,1/2+y,z
1/2-x,1/2-y,z
1/2-x,1/2+y,z
1/2+x,1/2-y,z
loop_
_atom_site_type_symbol
_atom_site_label
_atom_site_fract_x
_atom_site_fract_y
_atom_site_fract_z
Si Si1 0.237081 0.595173 0.964250
Si Si2 0.585910 0.239321 0.738678
Si Si3 0.795809 0.402557 0.699545
Si Si4 0.585038 0.599898 0.342933
Si Si5 0.821636 0.799036 0.158461
Si Si6 0.137982 0.902313 0.605927
Si Si7 0.085960 0.680467 0.002156
O O1 0.259346 0.500000 0.985017
O O2 0.242062 0.612992 0.826617
O O3 0.149205 0.609011 0.992578
O O4 0.286241 0.653750 0.046339
O O5 0.500000 0.221060 0.707427
O O6 0.640897 0.167778 0.687319
O O7 0.606490 0.331418 0.692158
O O8 0.591683 0.230495 0.879082
O O9 0.823056 0.500000 0.700617
O O10 0.728112 0.395455 0.609011
O O11 0.500000 0.629172 0.322663
O O12 0.586989 0.500000 0.325639
O O13 0.641774 0.642034 0.253844
O O14 0.606867 0.614832 0.477293
O O15 0.750000 0.750000 0.209054
O O16 0.885331 0.738316 0.107059
O O17 0.119930 0.000000 0.637423
O O18 0.000000 0.653346 0.015212
#
# Coordination Sequence:
#
# PCOD9348241 Si02
#       7
#     8   8   8   8   8   8   8
#     4   9  17  30  49  72  97 125 157 192 231 277
#     4  10  19  31  50  74 101 131 159 195 241 284
#     4   9  18  32  51  74  99 129 162 197 236 281
#     4  10  21  36  52  69  92 123 159 200 241 282
#     4  10  19  31  49  72  96 123 156 194 236 281
#     4  10  20  34  51  70  94 126 164 202 241 288
#     4   9  18  31  47  70  99 128 157 190 231 281
#
# _framework density 17.136686999999998
#
# number of rings (size 3 to 8) (size 9 to 14) (size 15 to 20)
#    0.000    2.429    0.000    2.571    0.000    4.857 
#    0.000    3.571    0.000    1.714    0.000    0.000 
#    0.000    6.857    0.000    0.000    0.000    0.000 
#
# Total GULP energy -156048.946118 kJ/mol
# GULP energy per Si atom -5573.176647 kJ/mol
# Density = 1.709768 g / cm^3
# Si number density = 17.136687 Si / 1000 Ang^3
#
#
#
# Elastic Constant Matrix: (Units=GPa)
#
#
# Indices 1 2 3 4 5 6 
#
# 1 93.4643 28.1176 25.5266 0.0000 0.0000 0.0000
# 2 28.1176 57.0595 24.3789 0.0000 0.0000 0.0000
# 3 25.5266 24.3789 29.4117 0.0000 0.0000 0.0000
# 4 0.0000 0.0000 0.0000 25.4588 0.0000 0.0000
# 5 0.0000 0.0000 0.0000 0.0000 21.8307 0.0000
# 6 0.0000 0.0000 0.0000 0.0000 0.0000 20.1099
#
#
#
# Elastic Compliance Matrix: (Units=1/GPa)
#
#
# Indices 1 2 3 4 5 6 
#
# 1 0.014287 -0.002698 -0.010163 0.000000 0.000000 0.000000
# 2 -0.002698 0.027645 -0.020573 0.000000 0.000000 0.000000
# 3 -0.010163 -0.020573 0.059873 0.000000 0.000000 0.000000
# 4 0.000000 0.000000 0.000000 0.039279 0.000000 0.000000
# 5 0.000000 0.000000 0.000000 0.000000 0.045807 0.000000
# 6 0.000000 0.000000 0.000000 0.000000 0.000000 0.049727
#
#
# Mechanical properties :
#
#
# Convention : Reuss Voigt Hill
#
# Bulk Modulus (GPa) = 28.62304 37.33129 32.97716
# Shear Modulus (GPa) = 15.86638 20.27403 18.07020
#
# Velocity S-wave (km/s) = 3.04612 3.44332 3.25079
# Velocity P-wave (km/s) = 5.39544 6.13517 5.77716
#
# Compressibility (1/GPa) = 0.03493689
#
# Stress axis : x y z
#
# Youngs Moduli (GPa) = 69.99549 36.17308 16.70188
#
# Poissons Ratio (x) = 0.09759 0.16975
# Poissons Ratio (y) = 0.18884 0.34361
# Poissons Ratio (z) = 0.71138 0.74419
#
# Static dielectric constant tensor:
#      x y z
#    x 1.584470 0.000000 0.000000 
#    y 0.000000 1.580090 0.000000 
#    z 0.000000 0.000000 1.568180 
# 
# From -- ./inp_files/13636.got.cif
#   From: 2010.05.17/outbox.cif.g08.bks.cpg/sg35_7_cif.got.tgz:13636.got - 2010.06.03 17:29:28.
