data_PCOD9348468
_publ_section_title
;
Structure prediction by ZEFSAII (Michael W. Deem and Ramdas Pophale) SiO2 
 PCOD9348468
Probable space group: C M M 2
;
_chemical_formula_sum "Si O2"
_cell_formula_units_Z 48
_cell_length_a 8.264380
_cell_length_b 14.636229
_cell_length_c 17.381612
_cell_angle_alpha 90.000000
_cell_angle_beta 90.000000
_cell_angle_gamma 90.000000
_cell_volume 2102.468632
_symmetry_space_group_name_H-M "C M M 2"
_symmetry_group_IT_number 35
_symmetry_cell_setting 'orthorhombic'
loop_
_space_group_symop_operation_xyz
x,y,z
-x,-y,z
-x,y,z
x,-y,z
1/2+x,1/2+y,z
1/2-x,1/2-y,z
1/2-x,1/2+y,z
1/2+x,1/2-y,z
loop_
_atom_site_type_symbol
_atom_site_label
_atom_site_fract_x
_atom_site_fract_y
_atom_site_fract_z
Si Si1 0.000000 0.112404 0.859421
Si Si2 0.322901 0.105255 0.777923
Si Si3 0.191975 0.645577 0.452588
Si Si4 0.691653 0.355201 0.614765
Si Si5 0.000000 0.888514 0.037891
Si Si6 0.180095 0.106747 0.285038
Si Si7 0.177522 0.388171 0.127600
O O1 0.164288 0.145468 0.818432
O O2 0.000000 0.137149 0.948733
O O3 0.000000 0.000000 0.853251
O O4 0.500000 0.147283 0.791907
O O5 0.285900 0.104183 0.686950
O O6 0.331838 0.000000 0.804274
O O7 0.250000 0.750000 0.451097
O O8 0.268043 0.605564 0.530562
O O9 0.248197 0.609986 0.370206
O O10 0.000000 0.639269 0.459213
O O11 0.500000 0.361395 0.628097
O O12 0.750000 0.250000 0.613093
O O13 0.835112 0.858624 0.080009
O O14 0.000000 0.000000 0.041442
O O15 0.292153 0.141312 0.216127
O O16 0.000000 0.148871 0.284541
O O17 0.161673 0.000000 0.266677
O O18 0.174014 0.500000 0.123840
O O19 0.000000 0.356884 0.101069
#
# Coordination Sequence:
#
# PCOD9348468 Si02
#       7
#     4   8   8   8   4   8   8
#     4   9  18  32  50  75 107 141 172 213 268 317
#     4  10  20  35  54  78 110 142 176 218 265 319
#     4  11  22  36  52  74 105 138 178 222 263 310
#     4  11  21  36  56  77 104 137 179 223 263 312
#     4   9  16  28  46  71 105 137 169 213 262 313
#     4  10  19  33  52  75 106 140 176 220 265 309
#     4   9  16  27  45  71 103 138 174 214 259 307
#
# _framework density 22.830306
#
# number of rings (size 3 to 8) (size 9 to 14) (size 15 to 20)
#    0.000    2.000    1.667    4.500    0.000    2.333 
#    0.000    3.333    0.000    0.000    0.000    1.167 
#    0.000    0.000    0.000    0.000    0.000    0.000 
#
# Total GULP energy -134070.425481 kJ/mol
# GULP energy per Si atom -5586.267728 kJ/mol
# Density = 2.277834 g / cm^3
# Si number density = 22.830306 Si / 1000 Ang^3
#
#
#
# Elastic Constant Matrix: (Units=GPa)
#
#
# Indices 1 2 3 4 5 6 
#
# 1 238.6268 10.5367 84.3627 0.0000 0.0000 0.0000
# 2 10.5367 48.3033 -4.2744 0.0000 0.0000 0.0000
# 3 84.3627 -4.2744 142.2576 0.0000 0.0000 0.0000
# 4 0.0000 0.0000 0.0000 56.3149 0.0000 0.0000
# 5 0.0000 0.0000 0.0000 0.0000 8.5823 0.0000
# 6 0.0000 0.0000 0.0000 0.0000 0.0000 16.5975
#
#
#
# Elastic Compliance Matrix: (Units=1/GPa)
#
#
# Indices 1 2 3 4 5 6 
#
# 1 0.005404 -0.001466 -0.003249 0.000000 0.000000 0.000000
# 2 -0.001466 0.021156 0.001505 0.000000 0.000000 0.000000
# 3 -0.003249 0.001505 0.009001 0.000000 0.000000 0.000000
# 4 0.000000 0.000000 0.000000 0.017757 0.000000 0.000000
# 5 0.000000 0.000000 0.000000 0.000000 0.116519 0.000000
# 6 0.000000 0.000000 0.000000 0.000000 0.000000 0.060250
#
#
# Mechanical properties :
#
#
# Convention : Reuss Voigt Hill
#
# Bulk Modulus (GPa) = 34.31567 67.82642 51.07105
# Shear Modulus (GPa) = 20.30697 38.86977 29.58837
#
# Velocity S-wave (km/s) = 2.98564 4.13067 3.60392
# Velocity P-wave (km/s) = 5.19122 7.24730 6.30366
#
# Compressibility (1/GPa) = 0.02914121
#
# Stress axis : x y z
#
# Youngs Moduli (GPa) = 185.05053 47.26886 111.09477
#
# Poissons Ratio (x) = 0.06931 0.36092
# Poissons Ratio (y) = 0.27134 -0.16722
# Poissons Ratio (z) = 0.60118 -0.07115
#
# Static dielectric constant tensor:
#      x y z
#    x 1.834990 0.000000 0.000000 
#    y 0.000000 1.854090 0.000000 
#    z 0.000000 0.000000 1.822190 
# 
# From -- ./inp_files/15251.got.cif
#   From: 2010.05.17/outbox.cif.g08.bks.cpg/sg35_8_cif.got.tgz:15251.got - 2010.06.03 17:29:28.
