data_PCOD9348849
_publ_section_title
;
Structure prediction by ZEFSAII (Michael W. Deem and Ramdas Pophale) SiO2 
 PCOD9348849
Probable space group: C M M 2
;
_chemical_formula_sum "Si O2"
_cell_formula_units_Z 40
_cell_length_a 8.248119
_cell_length_b 14.748311
_cell_length_c 14.647562
_cell_angle_alpha 90.000000
_cell_angle_beta 90.000000
_cell_angle_gamma 90.000000
_cell_volume 1781.814752
_symmetry_space_group_name_H-M "C M M 2"
_symmetry_group_IT_number 35
_symmetry_cell_setting 'orthorhombic'
loop_
_space_group_symop_operation_xyz
x,y,z
-x,-y,z
-x,y,z
x,-y,z
1/2+x,1/2+y,z
1/2-x,1/2-y,z
1/2-x,1/2+y,z
1/2+x,1/2-y,z
loop_
_atom_site_type_symbol
_atom_site_label
_atom_site_fract_x
_atom_site_fract_y
_atom_site_fract_z
Si Si1 0.500000 0.888911 0.286801
Si Si2 0.681609 0.395264 0.387412
Si Si3 0.190521 0.645838 0.785585
Si Si4 0.691589 0.353343 0.594651
Si Si5 0.500000 0.111146 0.073647
Si Si6 0.323323 0.395237 0.977803
O O1 0.335343 0.855096 0.334946
O O2 0.500000 0.867131 0.180213
O O3 0.500000 0.000000 0.295347
O O4 0.500000 0.355173 0.375366
O O5 0.670240 0.500000 0.357507
O O6 0.719231 0.395486 0.495598
O O7 0.250000 0.750000 0.781608
O O8 0.223799 0.607562 0.684667
O O9 0.288388 0.604858 0.869643
O O10 0.000000 0.640247 0.805388
O O11 0.500000 0.355631 0.612757
O O12 0.750000 0.250000 0.585183
O O13 0.500000 0.000000 0.064195
O O14 0.335378 0.144896 0.025804
O O15 0.500000 0.353429 0.995964
O O16 0.331611 0.500000 0.008048
#
# Coordination Sequence:
#
# PCOD9348849 Si02
#       6
#     4   8   8   8   4   8
#     4   9  18  32  55  79 105 135 171 220 266 312
#     4   9  19  34  52  78 106 136 175 216 262 309
#     4  11  21  34  53  78 108 142 182 217 258 320
#     4  10  20  33  51  76 105 140 178 212 255 313
#     4   9  18  34  53  81 107 133 175 218 268 320
#     4  10  20  35  55  80 109 140 176 219 267 313
#
# _framework density 22.449021999999999
#
# number of rings (size 3 to 8) (size 9 to 14) (size 15 to 20)
#    0.000    2.200    1.000    3.600    2.800    1.600 
#    0.000    6.000    0.000    1.200    0.000    0.000 
#    0.000    0.000    0.000    0.000    0.000    0.000 
#
# Total GULP energy -111677.906606 kJ/mol
# GULP energy per Si atom -5583.895330 kJ/mol
# Density = 2.239793 g / cm^3
# Si number density = 22.449022 Si / 1000 Ang^3
#
#
#
# Elastic Constant Matrix: (Units=GPa)
#
#
# Indices 1 2 3 4 5 6 
#
# 1 210.0523 14.5152 103.4450 0.0000 0.0000 0.0000
# 2 14.5152 47.2026 -2.2257 0.0000 0.0000 0.0000
# 3 103.4450 -2.2257 110.8623 0.0000 0.0000 0.0000
# 4 0.0000 0.0000 0.0000 83.4456 0.0000 0.0000
# 5 0.0000 0.0000 0.0000 0.0000 19.1910 0.0000
# 6 0.0000 0.0000 0.0000 0.0000 0.0000 16.7597
#
#
#
# Elastic Compliance Matrix: (Units=1/GPa)
#
#
# Indices 1 2 3 4 5 6 
#
# 1 0.009286 -0.003267 -0.008730 0.000000 0.000000 0.000000
# 2 -0.003267 0.022355 0.003497 0.000000 0.000000 0.000000
# 3 -0.008730 0.003497 0.017236 0.000000 0.000000 0.000000
# 4 0.000000 0.000000 0.000000 0.011984 0.000000 0.000000
# 5 0.000000 0.000000 0.000000 0.000000 0.052108 0.000000
# 6 0.000000 0.000000 0.000000 0.000000 0.000000 0.059667
#
#
# Mechanical properties :
#
#
# Convention : Reuss Voigt Hill
#
# Bulk Modulus (GPa) = 31.37033 66.62068 48.99550
# Shear Modulus (GPa) = 24.96739 40.70478 32.83608
#
# Velocity S-wave (km/s) = 3.33856 4.26280 3.82867
# Velocity P-wave (km/s) = 5.37268 7.34639 6.43565
#
# Compressibility (1/GPa) = 0.03187725
#
# Stress axis : x y z
#
# Youngs Moduli (GPa) = 107.69076 44.73307 58.01648
#
# Poissons Ratio (x) = 0.14615 0.50649
# Poissons Ratio (y) = 0.35184 -0.20290
# Poissons Ratio (z) = 0.94016 -0.15645
#
# Static dielectric constant tensor:
#      x y z
#    x 1.835250 0.000000 0.000000 
#    y 0.000000 1.777060 0.000000 
#    z 0.000000 0.000000 1.789920 
# 
# From -- ./inp_files/11237.got.cif
#   From: 2010.05.17/outbox.cif.g08.bks.cpg/sg35_6_cif.got.tgz:11237.got - 2010.06.03 17:29:28.
