data_PCOD9348284
_publ_section_title
;
Structure prediction by ZEFSAII (Michael W. Deem and Ramdas Pophale) SiO2 
 PCOD9348284
Probable space group: C M M 2
;
_chemical_formula_sum "Si O2"
_cell_formula_units_Z 40
_cell_length_a 18.344792
_cell_length_b 7.923144
_cell_length_c 14.996242
_cell_angle_alpha 90.000000
_cell_angle_beta 90.000000
_cell_angle_gamma 90.000000
_cell_volume 2179.680211
_symmetry_space_group_name_H-M "C M M 2"
_symmetry_group_IT_number 35
_symmetry_cell_setting 'orthorhombic'
loop_
_space_group_symop_operation_xyz
x,y,z
-x,-y,z
-x,y,z
x,-y,z
1/2+x,1/2+y,z
1/2-x,1/2-y,z
1/2-x,1/2+y,z
1/2+x,1/2-y,z
loop_
_atom_site_type_symbol
_atom_site_label
_atom_site_fract_x
_atom_site_fract_y
_atom_site_fract_z
Si Si1 0.087802 0.500000 0.523490
Si Si2 0.582907 0.803314 0.009436
Si Si3 0.411239 0.000000 0.316064
Si Si4 0.335925 0.702883 0.631818
Si Si5 0.088943 0.814442 0.198038
Si Si6 0.834227 0.199813 0.835444
O O1 0.109345 0.500000 0.419306
O O2 0.119913 0.668864 0.569458
O O3 0.000000 0.500000 0.530241
O O4 0.500000 0.743212 0.995742
O O5 0.614428 0.710385 0.096072
O O6 0.580774 0.000000 0.034570
O O7 0.624132 0.783561 0.916956
O O8 0.386385 0.165431 0.262505
O O9 0.500000 0.000000 0.313867
O O10 0.344733 0.500000 0.615731
O O11 0.250000 0.750000 0.624645
O O12 0.358754 0.739797 0.734633
O O13 0.000000 0.804990 0.194103
O O14 0.108976 0.000000 0.230738
O O15 0.750000 0.250000 0.840602
O O16 0.841240 0.000000 0.846663
#
# Coordination Sequence:
#
# PCOD9348284 Si02
#       6
#     4   8   4   8   8   8
#     4  11  24  38  61  95 124 148 195 266 311 337
#     4  10  19  31  51  81 114 148 186 229 277 330
#     4   9  18  34  51  79 115 146 185 236 294 347
#     4  10  21  40  64  86 114 161 208 238 290 372
#     4   9  16  29  51  76 107 148 188 224 276 347
#     4  10  21  35  54  80 109 147 194 230 272 341
#
# _framework density 18.351317000000002
#
# number of rings (size 3 to 8) (size 9 to 14) (size 15 to 20)
#    0.000    2.200    2.000    1.200    2.800    3.200 
#    0.000    4.000    0.000    1.200    0.000    0.000 
#    0.000    0.000    0.000    0.000    0.000    0.000 
#
# Total GULP energy -111521.088284 kJ/mol
# GULP energy per Si atom -5576.054414 kJ/mol
# Density = 1.830955 g / cm^3
# Si number density = 18.351317 Si / 1000 Ang^3
#
#
#
# Elastic Constant Matrix: (Units=GPa)
#
#
# Indices 1 2 3 4 5 6 
#
# 1 27.3687 23.0690 39.1089 0.0000 0.0000 0.0000
# 2 23.0690 135.4817 84.0361 0.0000 0.0000 0.0000
# 3 39.1089 84.0361 144.3223 0.0000 0.0000 0.0000
# 4 0.0000 0.0000 0.0000 14.7237 0.0000 0.0000
# 5 0.0000 0.0000 0.0000 0.0000 -82.7365 0.0000
# 6 0.0000 0.0000 0.0000 0.0000 0.0000 18.9706
#
#
#
# Elastic Compliance Matrix: (Units=1/GPa)
#
#
# Indices 1 2 3 4 5 6 
#
# 1 0.059631 -0.000204 -0.016040 0.000000 0.000000 0.000000
# 2 -0.000204 0.011555 -0.006673 0.000000 0.000000 0.000000
# 3 -0.016040 -0.006673 0.015161 0.000000 0.000000 0.000000
# 4 0.000000 0.000000 0.000000 0.067918 0.000000 0.000000
# 5 0.000000 0.000000 0.000000 0.000000 -0.012087 0.000000
# 6 0.000000 0.000000 0.000000 0.000000 0.000000 0.052713
#
#
# Mechanical properties :
#
#
# Convention : Reuss Voigt Hill
#
# Bulk Modulus (GPa) = 24.68375 66.62231 45.65303
# Shear Modulus (GPa) = 19.66728 0.92215 10.29472
#
# Velocity S-wave (km/s) = 3.27725 0.70964 2.37107
# Velocity P-wave (km/s) = 5.27260 6.08721 5.69449
#
# Compressibility (1/GPa) = 0.04051249
#
# Stress axis : x y z
#
# Youngs Moduli (GPa) = 16.76980 86.54378 65.95891
#
# Poissons Ratio (x) = 0.01769 1.05798
# Poissons Ratio (y) = 0.00343 0.44013
# Poissons Ratio (z) = 0.26899 0.57749
#
# Static dielectric constant tensor:
#      x y z
#    x 1.622800 0.000000 0.000000 
#    y 0.000000 1.643500 0.000000 
#    z 0.000000 0.000000 1.626370 
# 
# From -- ./inp_files/11223.got.cif
#   From: 2010.05.17/outbox.cif.g08.bks.cpg/sg35_6_cif.got.tgz:11223.got - 2010.06.03 17:29:28.
