data_PCOD9348550
_publ_section_title
;
Structure prediction by ZEFSAII (Michael W. Deem and Ramdas Pophale) SiO2 
 PCOD9348550
Probable space group: C M M 2
;
_chemical_formula_sum "Si O2"
_cell_formula_units_Z 56
_cell_length_a 10.910091
_cell_length_b 18.975299
_cell_length_c 13.370725
_cell_angle_alpha 90.000000
_cell_angle_beta 90.000000
_cell_angle_gamma 90.000000
_cell_volume 2768.037424
_symmetry_space_group_name_H-M "C M M 2"
_symmetry_group_IT_number 35
_symmetry_cell_setting 'orthorhombic'
loop_
_space_group_symop_operation_xyz
x,y,z
-x,-y,z
-x,y,z
x,-y,z
1/2+x,1/2+y,z
1/2-x,1/2-y,z
1/2-x,1/2+y,z
1/2+x,1/2-y,z
loop_
_atom_site_type_symbol
_atom_site_label
_atom_site_fract_x
_atom_site_fract_y
_atom_site_fract_z
Si Si1 0.364049 0.702579 0.113310
Si Si2 0.000000 0.414352 0.257391
Si Si3 0.134858 0.585245 0.629400
Si Si4 0.727437 0.584246 0.979660
Si Si5 0.133372 0.205389 0.354259
Si Si6 0.000000 0.414476 0.028353
Si Si7 0.363691 0.414204 0.759456
Si Si8 0.283994 0.916430 0.404111
O O1 0.500000 0.725382 0.079538
O O2 0.250000 0.750000 0.078868
O O3 0.364550 0.703864 0.233585
O O4 0.336355 0.625480 0.069681
O O5 0.879027 0.392523 0.317650
O O6 0.000000 0.500000 0.257528
O O7 0.000000 0.389136 0.143731
O O8 0.132664 0.500000 0.642415
O O9 0.251222 0.611756 0.691730
O O10 0.156439 0.597300 0.511914
O O11 0.000000 0.611543 0.659939
O O12 0.719449 0.500000 0.993912
O O13 0.664348 0.602643 0.874899
O O14 0.871634 0.604340 0.977685
O O15 0.250000 0.250000 0.389741
O O16 0.160294 0.126808 0.391915
O O17 0.000000 0.231476 0.386457
O O18 0.000000 0.500000 0.032652
O O19 0.500000 0.389902 0.730479
O O20 0.364092 0.500000 0.752642
O O21 0.266297 0.000000 0.394681
#
# Coordination Sequence:
#
# PCOD9348550 Si02
#       8
#     8   4   8   8   8   4   8   8
#     4  10  22  39  57  79 111 150 189 229 278 338
#     4   9  16  28  47  77 113 143 175 217 276 327
#     4   9  17  30  50  78 110 145 184 226 277 335
#     4  10  20  34  55  83 112 146 189 235 284 330
#     4  10  23  39  56  80 111 151 189 228 280 336
#     4   9  18  28  45  79 113 141 175 225 274 321
#     4   9  18  31  49  75 109 145 181 230 288 336
#     4  10  19  33  56  84 112 145 186 232 281 334
#
# _framework density 20.230941000000001
#
# number of rings (size 3 to 8) (size 9 to 14) (size 15 to 20)
#    0.000    2.429    0.714    1.286    3.000    3.429 
#    0.000    2.857    0.000    0.857    0.000    2.000 
#    0.000    0.000    0.000    0.000    0.000    0.000 
#
# Total GULP energy -156257.781247 kJ/mol
# GULP energy per Si atom -5580.635045 kJ/mol
# Density = 2.018489 g / cm^3
# Si number density = 20.230941 Si / 1000 Ang^3
#
#
#
# Elastic Constant Matrix: (Units=GPa)
#
#
# Indices 1 2 3 4 5 6 
#
# 1 187.2912 32.2904 38.0840 0.0000 0.0000 0.0000
# 2 32.2904 36.5940 6.8874 0.0000 0.0000 0.0000
# 3 38.0840 6.8874 24.5085 0.0000 0.0000 0.0000
# 4 0.0000 0.0000 0.0000 7.6794 0.0000 0.0000
# 5 0.0000 0.0000 0.0000 0.0000 23.9948 0.0000
# 6 0.0000 0.0000 0.0000 0.0000 0.0000 19.6762
#
#
#
# Elastic Compliance Matrix: (Units=1/GPa)
#
#
# Indices 1 2 3 4 5 6 
#
# 1 0.008721 -0.005432 -0.012025 0.000000 0.000000 0.000000
# 2 -0.005432 0.032236 -0.000618 0.000000 0.000000 0.000000
# 3 -0.012025 -0.000618 0.059662 0.000000 0.000000 0.000000
# 4 0.000000 0.000000 0.000000 0.130218 0.000000 0.000000
# 5 0.000000 0.000000 0.000000 0.000000 0.041676 0.000000
# 6 0.000000 0.000000 0.000000 0.000000 0.000000 0.050823
#
#
# Mechanical properties :
#
#
# Convention : Reuss Voigt Hill
#
# Bulk Modulus (GPa) = 15.51141 44.76859 30.14000
# Shear Modulus (GPa) = 13.12418 21.67887 17.40153
#
# Velocity S-wave (km/s) = 2.54976 3.27704 2.93600
# Velocity P-wave (km/s) = 4.04378 6.04114 5.14041
#
# Compressibility (1/GPa) = 0.06446866
#
# Stress axis : x y z
#
# Youngs Moduli (GPa) = 114.66548 31.02077 16.76110
#
# Poissons Ratio (x) = 0.16851 0.20155
# Poissons Ratio (y) = 0.62288 0.01036
# Poissons Ratio (z) = 1.37887 0.01917
#
# Static dielectric constant tensor:
#      x y z
#    x 1.752190 0.000000 0.000000 
#    y 0.000000 1.732410 0.000000 
#    z 0.000000 0.000000 1.682280 
# 
# From -- ./inp_files/15776.got.cif
#   From: 2010.05.17/outbox.cif.g08.bks.cpg/sg35_8_cif.got.tgz:15776.got - 2010.06.03 17:29:28.
