data_PCOD9348827
_publ_section_title
;
Structure prediction by ZEFSAII (Michael W. Deem and Ramdas Pophale) SiO2 
 PCOD9348827
Probable space group: C M M 2
;
_chemical_formula_sum "Si O2"
_cell_formula_units_Z 64
_cell_length_a 7.802999
_cell_length_b 18.864699
_cell_length_c 21.446522
_cell_angle_alpha 90.000000
_cell_angle_beta 90.000000
_cell_angle_gamma 90.000000
_cell_volume 3156.954363
_symmetry_space_group_name_H-M "C M M 2"
_symmetry_group_IT_number 35
_symmetry_cell_setting 'orthorhombic'
loop_
_space_group_symop_operation_xyz
x,y,z
-x,-y,z
-x,y,z
x,-y,z
1/2+x,1/2+y,z
1/2-x,1/2-y,z
1/2-x,1/2+y,z
1/2+x,1/2-y,z
loop_
_atom_site_type_symbol
_atom_site_label
_atom_site_fract_x
_atom_site_fract_y
_atom_site_fract_z
Si Si1 0.295821 0.167378 0.146850
Si Si2 0.708862 0.582419 0.644371
Si Si3 0.709233 0.417467 0.782721
Si Si4 0.295538 0.332553 0.386825
Si Si5 0.205455 0.919302 0.023320
Si Si6 0.706460 0.667740 0.525093
Si Si7 0.206667 0.832538 0.903283
Si Si8 0.204579 0.419763 0.265335
O O1 0.500000 0.163914 0.149104
O O2 0.250000 0.250000 0.144506
O O3 0.240055 0.124919 0.085604
O O4 0.226119 0.128392 0.208783
O O5 0.500000 0.586319 0.644152
O O6 0.754412 0.500000 0.638316
O O7 0.764775 0.606267 0.713465
O O8 0.772770 0.625152 0.584685
O O9 0.500000 0.416643 0.782892
O O10 0.758622 0.500000 0.791720
O O11 0.769115 0.368481 0.839194
O O12 0.500000 0.337349 0.387891
O O13 0.250000 0.250000 0.376185
O O14 0.230242 0.353465 0.455975
O O15 0.233088 0.381427 0.331016
O O16 0.000000 0.923881 0.016645
O O17 0.271938 0.000000 0.027012
O O18 0.271031 0.876634 0.963011
O O19 0.500000 0.660029 0.524326
O O20 0.750000 0.750000 0.532653
O O21 0.250000 0.750000 0.907622
O O22 0.000000 0.837940 0.903078
O O23 0.273694 0.500000 0.264218
O O24 0.000000 0.424502 0.256631
#
# Coordination Sequence:
#
# PCOD9348827 Si02
#       8
#     8   8   8   8   8   8   8   8
#     4  11  23  39  59  82 108 138 172 210 253 302
#     4   8  14  26  46  71  97 127 166 210 252 295
#     4   8  14  27  48  71  95 128 170 211 250 295
#     4  10  20  34  53  76 103 137 175 214 257 306
#     4  10  21  37  57  80 106 137 173 214 258 304
#     4   9  18  31  48  72 101 131 165 207 252 299
#     4  10  20  33  50  75 105 134 168 210 254 301
#     4  10  22  39  57  79 107 136 168 210 258 306
#
# _framework density 20.272701999999999
#
# number of rings (size 3 to 8) (size 9 to 14) (size 15 to 20)
#    0.000    2.500    0.000    3.000    0.000    7.500 
#    0.000    1.250    0.000    1.500    0.000    1.750 
#    0.000    0.000    0.000    0.000    0.000    0.000 
#
# Total GULP energy -178606.278550 kJ/mol
# GULP energy per Si atom -5581.446205 kJ/mol
# Density = 2.022656 g / cm^3
# Si number density = 20.272702 Si / 1000 Ang^3
#
#
#
# Elastic Constant Matrix: (Units=GPa)
#
#
# Indices 1 2 3 4 5 6 
#
# 1 27.6962 5.0859 7.0581 0.0000 0.0000 0.0000
# 2 5.0859 162.0391 138.9678 0.0000 0.0000 0.0000
# 3 7.0581 138.9678 235.2702 0.0000 0.0000 0.0000
# 4 0.0000 0.0000 0.0000 81.9822 0.0000 0.0000
# 5 0.0000 0.0000 0.0000 0.0000 -17.0569 0.0000
# 6 0.0000 0.0000 0.0000 0.0000 0.0000 16.9397
#
#
#
# Elastic Compliance Matrix: (Units=1/GPa)
#
#
# Indices 1 2 3 4 5 6 
#
# 1 0.036398 -0.000417 -0.000845 0.000000 0.000000 0.000000
# 2 -0.000417 0.012512 -0.007378 0.000000 0.000000 0.000000
# 3 -0.000845 -0.007378 0.008634 0.000000 0.000000 0.000000
# 4 0.000000 0.000000 0.000000 0.012198 0.000000 0.000000
# 5 0.000000 0.000000 0.000000 0.000000 -0.058627 0.000000
# 6 0.000000 0.000000 0.000000 0.000000 0.000000 0.059033
#
#
# Mechanical properties :
#
#
# Convention : Reuss Voigt Hill
#
# Bulk Modulus (GPa) = 24.83708 80.80324 52.82016
# Shear Modulus (GPa) = 49.57889 34.63257 42.10573
#
# Velocity S-wave (km/s) = 4.95066 4.13769 4.56232
# Velocity P-wave (km/s) = 6.70499 7.92287 7.33924
#
# Compressibility (1/GPa) = 0.04026238
#
# Stress axis : x y z
#
# Youngs Moduli (GPa) = 27.47390 79.92399 115.82476
#
# Poissons Ratio (x) = 0.03336 0.09792
# Poissons Ratio (y) = 0.01147 0.85455
# Poissons Ratio (z) = 0.02323 0.58967
#
# Static dielectric constant tensor:
#      x y z
#    x 1.748150 0.000000 0.000000 
#    y 0.000000 1.630590 0.000000 
#    z 0.000000 0.000000 1.730270 
# 
# From -- ./inp_files/18444.got.cif
#   From: 2010.05.17/outbox.cif.g08.bks.cpg/sg35_10_cif.got.tgz:18444.got - 2010.06.03 17:29:28.
