data_PCOD9348099
_publ_section_title
;
Structure prediction by ZEFSAII (Michael W. Deem and Ramdas Pophale) SiO2 
 PCOD9348099
Probable space group: C M M 2
;
_chemical_formula_sum "Si O2"
_cell_formula_units_Z 48
_cell_length_a 18.458729
_cell_length_b 14.251055
_cell_length_c 9.994957
_cell_angle_alpha 90.000000
_cell_angle_beta 90.000000
_cell_angle_gamma 90.000000
_cell_volume 2629.237029
_symmetry_space_group_name_H-M "C M M 2"
_symmetry_group_IT_number 35
_symmetry_cell_setting 'orthorhombic'
loop_
_space_group_symop_operation_xyz
x,y,z
-x,-y,z
-x,y,z
x,-y,z
1/2+x,1/2+y,z
1/2-x,1/2-y,z
1/2-x,1/2+y,z
1/2+x,1/2-y,z
loop_
_atom_site_type_symbol
_atom_site_label
_atom_site_fract_x
_atom_site_fract_y
_atom_site_fract_z
Si Si1 0.913474 0.112054 0.534140
Si Si2 0.418106 0.106155 0.849563
Si Si3 0.369792 0.105702 0.139529
Si Si4 0.796114 0.109182 0.036969
Si Si5 0.172997 0.782470 0.760329
Si Si6 0.665790 0.277693 0.296991
O O1 0.873821 0.149954 0.666824
O O2 0.874057 0.166750 0.413590
O O3 0.000000 0.130559 0.537234
O O4 0.903492 0.000000 0.520517
O O5 0.500000 0.110238 0.798789
O O6 0.370811 0.187211 0.786396
O O7 0.389257 0.000000 0.828486
O O8 0.418770 0.121143 0.009795
O O9 0.288805 0.113257 0.076181
O O10 0.374553 0.182221 0.254532
O O11 0.380017 0.000000 0.189397
O O12 0.833906 0.158894 0.162718
O O13 0.816290 0.000000 0.023039
O O14 0.810826 0.165646 0.901212
O O15 0.250000 0.750000 0.700481
O O16 0.750000 0.250000 0.327526
#
# Coordination Sequence:
#
# PCOD9348099 Si02
#       6
#     8   8   8   8   8   8
#     4  11  26  44  58  79 119 163 199 241 295 348
#     4  10  20  34  54  84 121 154 183 228 294 354
#     4   9  17  32  56  89 120 144 180 233 290 344
#     4  10  18  32  59  92 121 144 188 247 292 342
#     4  12  21  38  61  90 114 152 200 245 293 339
#     4  10  19  38  60  88 113 153 196 240 292 343
#
# _framework density 18.256246999999998
#
# number of rings (size 3 to 8) (size 9 to 14) (size 15 to 20)
#    0.000    1.667    3.333    2.500    0.000    2.000 
#    0.000    0.833    0.000    4.000    0.000    0.000 
#    0.000    0.000    0.000    0.000    0.000    0.000 
#
# Total GULP energy -133950.589155 kJ/mol
# GULP energy per Si atom -5581.274548 kJ/mol
# Density = 1.821469 g / cm^3
# Si number density = 18.256247 Si / 1000 Ang^3
#
#
#
# Elastic Constant Matrix: (Units=GPa)
#
#
# Indices 1 2 3 4 5 6 
#
# 1 77.7526 60.3957 37.8492 0.0000 0.0000 0.0000
# 2 60.3957 142.6053 51.0203 0.0000 0.0000 0.0000
# 3 37.8492 51.0203 85.0839 0.0000 0.0000 0.0000
# 4 0.0000 0.0000 0.0000 33.3140 0.0000 0.0000
# 5 0.0000 0.0000 0.0000 0.0000 9.7393 0.0000
# 6 0.0000 0.0000 0.0000 0.0000 0.0000 25.4494
#
#
#
# Elastic Compliance Matrix: (Units=1/GPa)
#
#
# Indices 1 2 3 4 5 6 
#
# 1 0.020735 -0.006979 -0.005039 0.000000 0.000000 0.000000
# 2 -0.006979 0.011277 -0.003657 0.000000 0.000000 0.000000
# 3 -0.005039 -0.003657 0.016188 0.000000 0.000000 0.000000
# 4 0.000000 0.000000 0.000000 0.030017 0.000000 0.000000
# 5 0.000000 0.000000 0.000000 0.000000 0.102677 0.000000
# 6 0.000000 0.000000 0.000000 0.000000 0.000000 0.039294
#
#
# Mechanical properties :
#
#
# Convention : Reuss Voigt Hill
#
# Bulk Modulus (GPa) = 59.35118 67.10802 63.22960
# Shear Modulus (GPa) = 19.44356 24.11233 21.77795
#
# Velocity S-wave (km/s) = 3.26703 3.63818 3.45759
# Velocity P-wave (km/s) = 6.84193 7.38155 7.11685
#
# Compressibility (1/GPa) = 0.01684887
#
# Stress axis : x y z
#
# Youngs Moduli (GPa) = 48.22707 88.67954 61.77447
#
# Poissons Ratio (x) = 0.61888 0.31129
# Poissons Ratio (y) = 0.33657 0.22594
# Poissons Ratio (z) = 0.24302 0.32434
#
# Static dielectric constant tensor:
#      x y z
#    x 1.646500 0.000000 0.000000 
#    y 0.000000 1.635250 0.000000 
#    z 0.000000 0.000000 1.609080 
# 
# From -- ./inp_files/7315.got.cif
#   From: 2010.05.17/outbox.cif.g08.bks.cpg/sg35_4_cif.got.tgz:7315.got - 2010.06.03 17:29:28.
