data_PCOD9348084
_publ_section_title
;
Structure prediction by ZEFSAII (Michael W. Deem and Ramdas Pophale) SiO2 
 PCOD9348084
Probable space group: C M M 2
;
_chemical_formula_sum "Si O2"
_cell_formula_units_Z 34
_cell_length_a 20.553302
_cell_length_b 8.900302
_cell_length_c 9.983186
_cell_angle_alpha 90.000000
_cell_angle_beta 90.000000
_cell_angle_gamma 90.000000
_cell_volume 1826.230154
_symmetry_space_group_name_H-M "C M M 2"
_symmetry_group_IT_number 35
_symmetry_cell_setting 'orthorhombic'
loop_
_space_group_symop_operation_xyz
x,y,z
-x,-y,z
-x,y,z
x,-y,z
1/2+x,1/2+y,z
1/2-x,1/2-y,z
1/2-x,1/2+y,z
1/2+x,1/2-y,z
loop_
_atom_site_type_symbol
_atom_site_label
_atom_site_fract_x
_atom_site_fract_y
_atom_site_fract_z
Si Si1 0.500000 0.500000 0.286011
Si Si2 0.423824 0.679602 0.664105
Si Si3 0.577204 0.822183 0.954660
Si Si4 0.317704 0.821643 0.470716
Si Si5 0.129428 0.166269 0.214718
O O1 0.558098 0.627838 0.275960
O O2 0.500000 0.709603 0.633156
O O3 0.414811 0.500000 0.655972
O O4 0.375956 0.761301 0.562934
O O5 0.411134 0.739050 0.814037
O O6 0.500000 0.801971 0.984426
O O7 0.617489 0.747955 0.074280
O O8 0.589607 0.000000 0.942388
O O9 0.250000 0.750000 0.517784
O O10 0.331594 0.763341 0.320917
O O11 0.314321 0.000000 0.475203
O O12 0.159890 0.000000 0.195451
#
# Coordination Sequence:
#
# PCOD9348084 Si02
#       5
#     2   8   8   8   8
#     4   8  20  32  62  90 124 152 192 234 300 340
#     4  10  22  38  62  89 121 157 196 239 293 350
#     4  10  18  32  55  90 124 153 191 242 290 341
#     4  12  26  43  60  84 117 157 200 246 296 349
#     4  10  19  36  59  87 120 155 192 235 290 348
#
# _framework density 18.617588000000001
#
# number of rings (size 3 to 8) (size 9 to 14) (size 15 to 20)
#    0.706    0.941    1.176    4.235    1.647    2.353 
#    0.000    1.176    0.000    0.000    0.000    0.000 
#    0.000    0.000    0.000    0.000    0.000    0.000 
#
# Total GULP energy -94636.992064 kJ/mol
# GULP energy per Si atom -5566.881886 kJ/mol
# Density = 1.857521 g / cm^3
# Si number density = 18.617588 Si / 1000 Ang^3
#
#
#
# Elastic Constant Matrix: (Units=GPa)
#
#
# Indices 1 2 3 4 5 6 
#
# 1 71.6351 64.3097 52.2896 0.0000 0.0000 0.0000
# 2 64.3097 160.0947 75.3940 0.0000 0.0000 0.0000
# 3 52.2896 75.3940 99.0554 0.0000 0.0000 0.0000
# 4 0.0000 0.0000 0.0000 32.6926 0.0000 0.0000
# 5 0.0000 0.0000 0.0000 0.0000 3.7457 0.0000
# 6 0.0000 0.0000 0.0000 0.0000 0.0000 28.5643
#
#
#
# Elastic Compliance Matrix: (Units=1/GPa)
#
#
# Indices 1 2 3 4 5 6 
#
# 1 0.026190 -0.006250 -0.009068 0.000000 0.000000 0.000000
# 2 -0.006250 0.011228 -0.005246 0.000000 0.000000 0.000000
# 3 -0.009068 -0.005246 0.018875 0.000000 0.000000 0.000000
# 4 0.000000 0.000000 0.000000 0.030588 0.000000 0.000000
# 5 0.000000 0.000000 0.000000 0.000000 0.266975 0.000000
# 6 0.000000 0.000000 0.000000 0.000000 0.000000 0.035009
#
#
# Mechanical properties :
#
#
# Convention : Reuss Voigt Hill
#
# Bulk Modulus (GPa) = 65.94623 79.41909 72.68266
# Shear Modulus (GPa) = 11.49300 22.25329 16.87315
#
# Velocity S-wave (km/s) = 2.48729 3.46104 3.01375
# Velocity P-wave (km/s) = 6.61416 7.66306 7.15785
#
# Compressibility (1/GPa) = 0.01516387
#
# Stress axis : x y z
#
# Youngs Moduli (GPa) = 38.18322 89.06636 52.97882
#
# Poissons Ratio (x) = 0.55665 0.48041
# Poissons Ratio (y) = 0.23864 0.27795
# Poissons Ratio (z) = 0.34625 0.46728
#
# Static dielectric constant tensor:
#      x y z
#    x 1.630640 0.000000 0.000000 
#    y 0.000000 1.621520 0.000000 
#    z 0.000000 0.000000 1.640140 
# 
# From -- ./inp_files/4652.got.cif
#   From: 2010.05.17/outbox.cif.g08.bks.cpg/sg35_3_cif.got.tgz:4652.got - 2010.06.03 17:29:28.
