data_PCOD9348470
_publ_section_title
;
Structure prediction by ZEFSAII (Michael W. Deem and Ramdas Pophale) SiO2 
 PCOD9348470
Probable space group: C M M 2
;
_chemical_formula_sum "Si O2"
_cell_formula_units_Z 64
_cell_length_a 20.977990
_cell_length_b 19.017676
_cell_length_c 9.281552
_cell_angle_alpha 90.000000
_cell_angle_beta 90.000000
_cell_angle_gamma 90.000000
_cell_volume 3702.899460
_symmetry_space_group_name_H-M "C M M 2"
_symmetry_group_IT_number 35
_symmetry_cell_setting 'orthorhombic'
loop_
_space_group_symop_operation_xyz
x,y,z
-x,-y,z
-x,y,z
x,-y,z
1/2+x,1/2+y,z
1/2-x,1/2-y,z
1/2-x,1/2+y,z
1/2+x,1/2-y,z
loop_
_atom_site_type_symbol
_atom_site_label
_atom_site_fract_x
_atom_site_fract_y
_atom_site_fract_z
Si Si1 0.231451 0.579707 0.659180
Si Si2 0.186958 0.701250 0.144944
Si Si3 0.372487 0.417889 0.790239
Si Si4 0.880258 0.819675 0.315111
Si Si5 0.180518 0.711425 0.809947
Si Si6 0.428040 0.295503 0.637103
Si Si7 0.071293 0.081424 0.081338
Si Si8 0.746601 0.416846 0.320730
O O1 0.214561 0.500000 0.698592
O O2 0.303082 0.592422 0.720207
O O3 0.187698 0.637434 0.730746
O O4 0.230630 0.585851 0.486583
O O5 0.250000 0.750000 0.148644
O O6 0.137772 0.746260 0.239377
O O7 0.206390 0.626502 0.215056
O O8 0.167179 0.698978 0.978386
O O9 0.387147 0.500000 0.785314
O O10 0.422783 0.373491 0.701884
O O11 0.377665 0.397481 0.958809
O O12 0.906977 0.802150 0.471675
O O13 0.925550 0.865374 0.212973
O O14 0.818622 0.871504 0.322583
O O15 0.250000 0.750000 0.796911
O O16 0.124949 0.754100 0.729993
O O17 0.500000 0.268133 0.650385
O O18 0.000000 0.083925 0.017430
O O19 0.082979 0.000000 0.124680
O O20 0.738347 0.500000 0.282832
#
# Coordination Sequence:
#
# PCOD9348470 Si02
#       8
#     8   8   8   8   8   8   8   8
#     4  10  20  34  57  84 109 144 185 229 284 342
#     4   9  21  33  53  80 108 146 188 234 290 339
#     4  10  20  35  52  77 111 151 192 229 280 339
#     4  11  20  35  51  73 110 152 192 233 281 341
#     4  11  20  38  59  82 112 149 191 243 293 344
#     4  12  24  36  57  84 114 154 200 243 288 344
#     4  10  21  34  48  70 107 153 195 235 277 332
#     4  10  19  33  52  80 112 144 184 233 285 341
#
# _framework density 17.283752
#
# number of rings (size 3 to 8) (size 9 to 14) (size 15 to 20)
#    0.000    1.625    2.500    2.625    3.500    2.750 
#    0.000    0.625    0.000    0.375    0.000    0.000 
#    0.000    3.500    0.000    0.000    0.000    0.000 
#
# Total GULP energy -178493.630794 kJ/mol
# GULP energy per Si atom -5577.925962 kJ/mol
# Density = 1.724441 g / cm^3
# Si number density = 17.283752 Si / 1000 Ang^3
#
#
#
# Elastic Constant Matrix: (Units=GPa)
#
#
# Indices 1 2 3 4 5 6 
#
# 1 70.6595 38.0984 52.2833 0.0000 0.0000 0.0000
# 2 38.0984 93.0091 52.4675 0.0000 0.0000 0.0000
# 3 52.2833 52.4675 124.6804 0.0000 0.0000 0.0000
# 4 0.0000 0.0000 0.0000 32.0003 0.0000 0.0000
# 5 0.0000 0.0000 0.0000 0.0000 14.0773 0.0000
# 6 0.0000 0.0000 0.0000 0.0000 0.0000 18.2580
#
#
#
# Elastic Compliance Matrix: (Units=1/GPa)
#
#
# Indices 1 2 3 4 5 6 
#
# 1 0.022182 -0.005034 -0.007183 0.000000 0.000000 0.000000
# 2 -0.005034 0.015241 -0.004303 0.000000 0.000000 0.000000
# 3 -0.007183 -0.004303 0.012843 0.000000 0.000000 0.000000
# 4 0.000000 0.000000 0.000000 0.031250 0.000000 0.000000
# 5 0.000000 0.000000 0.000000 0.000000 0.071036 0.000000
# 6 0.000000 0.000000 0.000000 0.000000 0.000000 0.054771
#
#
# Mechanical properties :
#
#
# Convention : Reuss Voigt Hill
#
# Bulk Modulus (GPa) = 58.05121 63.78303 60.91712
# Shear Modulus (GPa) = 20.31660 22.56712 21.44186
#
# Velocity S-wave (km/s) = 3.43224 3.61735 3.52601
# Velocity P-wave (km/s) = 7.02617 7.37770 7.20408
#
# Compressibility (1/GPa) = 0.01722617
#
# Stress axis : x y z
#
# Youngs Moduli (GPa) = 45.08213 65.61342 77.86109
#
# Poissons Ratio (x) = 0.33029 0.55930
# Poissons Ratio (y) = 0.22694 0.33501
# Poissons Ratio (z) = 0.32384 0.28231
#
# Static dielectric constant tensor:
#      x y z
#    x 1.594360 0.000000 0.000000 
#    y 0.000000 1.589580 0.000000 
#    z 0.000000 0.000000 1.603540 
# 
# From -- ./inp_files/8737.got.cif
#   From: 2010.05.17/outbox.cif.g08.bks.cpg/sg35_5_cif.got.tgz:8737.got - 2010.06.03 17:29:28.
