data_PCOD9348041
_publ_section_title
;
Structure prediction by ZEFSAII (Michael W. Deem and Ramdas Pophale) SiO2 
 PCOD9348041
Probable space group: P N N 2
;
_chemical_formula_sum "Si O2"
_cell_formula_units_Z 18
_cell_length_a 10.587729
_cell_length_b 6.884294
_cell_length_c 9.157315
_cell_angle_alpha 90.000000
_cell_angle_beta 90.000000
_cell_angle_gamma 90.000000
_cell_volume 667.467892
_symmetry_space_group_name_H-M "P N N 2"
_symmetry_group_IT_number 34
_symmetry_cell_setting 'orthorhombic'
loop_
_space_group_symop_operation_xyz
x,y,z
-x,-y,z
1/2-x,1/2+y,1/2+z
1/2+x,1/2-y,1/2+z
loop_
_atom_site_type_symbol
_atom_site_label
_atom_site_fract_x
_atom_site_fract_y
_atom_site_fract_z
Si Si1 0.131238 0.733077 0.509790
Si Si2 0.948665 0.780543 0.255950
Si Si3 0.500000 0.500000 0.244783
Si Si4 0.224832 0.880720 0.948834
Si Si5 0.372759 0.985149 0.489542
O O1 0.199969 0.532104 0.548435
O O2 0.239619 0.882909 0.458448
O O3 0.050796 0.694302 0.366462
O O4 0.041559 0.828843 0.632199
O O5 0.816751 0.736877 0.339805
O O6 0.924480 0.659545 0.111978
O O7 0.000000 0.000000 0.231101
O O8 0.378600 0.499765 0.352854
O O9 0.163487 0.703594 0.035263
O O10 0.500000 0.000000 0.388402
#
# Coordination Sequence:
#
# PCOD9348041 Si02
#       5
#     4   4   2   4   4
#     4  12  26  53  82 125 173 226 294 362 446 529
#     4  12  26  52  85 121 175 230 284 354 445 529
#     4  12  26  54  86 126 176 230 296 380 436 528
#     4  12  27  52  82 125 173 226 297 355 447 528
#     4  12  27  49  81 124 172 229 287 363 431 531
#
# _framework density 26.967590999999999
#
# number of rings (size 3 to 8) (size 9 to 14) (size 15 to 20)
#    0.000    0.000    5.556    3.333    3.111    0.000 
#    4.000    4.444    0.000    0.000    0.000    0.000 
#    0.000    0.000    0.000    0.000    0.000    0.000 
#
# Total GULP energy -100645.833194 kJ/mol
# GULP energy per Si atom -5591.435177 kJ/mol
# Density = 2.690621 g / cm^3
# Si number density = 26.967591 Si / 1000 Ang^3
#
#
#
# Elastic Constant Matrix: (Units=GPa)
#
#
# Indices 1 2 3 4 5 6 
#
# 1 185.4942 88.8555 57.1584 0.0000 0.0000 0.0000
# 2 88.8555 236.4604 48.9791 0.0000 0.0000 0.0000
# 3 57.1584 48.9791 77.8004 0.0000 0.0000 0.0000
# 4 0.0000 0.0000 0.0000 19.9417 0.0000 0.0000
# 5 0.0000 0.0000 0.0000 0.0000 36.1699 0.0000
# 6 0.0000 0.0000 0.0000 0.0000 0.0000 69.9930
#
#
#
# Elastic Compliance Matrix: (Units=1/GPa)
#
#
# Indices 1 2 3 4 5 6 
#
# 1 0.007698 -0.001979 -0.004409 0.000000 0.000000 0.000000
# 2 -0.001979 0.005372 -0.001928 0.000000 0.000000 0.000000
# 3 -0.004409 -0.001928 0.017307 0.000000 0.000000 0.000000
# 4 0.000000 0.000000 0.000000 0.050146 0.000000 0.000000
# 5 0.000000 0.000000 0.000000 0.000000 0.027647 0.000000
# 6 0.000000 0.000000 0.000000 0.000000 0.000000 0.014287
#
#
# Mechanical properties :
#
#
# Convention : Reuss Voigt Hill
#
# Bulk Modulus (GPa) = 72.76194 98.86012 85.81103
# Shear Modulus (GPa) = 34.80165 45.53840 40.17003
#
# Velocity S-wave (km/s) = 3.59625 4.11376 3.86368
# Velocity P-wave (km/s) = 6.65461 7.70081 7.19675
#
# Compressibility (1/GPa) = 0.01374345
#
# Stress axis : x y z
#
# Youngs Moduli (GPa) = 129.90651 186.14572 57.78155
#
# Poissons Ratio (x) = 0.36844 0.25478
# Poissons Ratio (y) = 0.25713 0.11139
# Poissons Ratio (z) = 0.57281 0.35886
#
# Static dielectric constant tensor:
#      x y z
#    x 2.719360 0.000000 0.000000 
#    y 0.000000 2.139440 0.000000 
#    z 0.000000 0.000000 2.068060 
# 
# From -- ./inp_files/5261.got.cif
#   From: 2010.05.17/outbox.cif.g08.bks.cpg/sg34_3_cif.got.tgz:5261.got - 2010.06.03 17:23:11.
