data_PCOD9348050
_publ_section_title
;
Structure prediction by ZEFSAII (Michael W. Deem and Ramdas Pophale) SiO2 
 PCOD9348050
Probable space group: P N N 2
;
_chemical_formula_sum "Si O2"
_cell_formula_units_Z 14
_cell_length_a 8.618273
_cell_length_b 14.403168
_cell_length_c 3.423356
_cell_angle_alpha 90.000000
_cell_angle_beta 90.000000
_cell_angle_gamma 90.000000
_cell_volume 424.942666
_symmetry_space_group_name_H-M "P N N 2"
_symmetry_group_IT_number 34
_symmetry_cell_setting 'orthorhombic'
loop_
_space_group_symop_operation_xyz
x,y,z
-x,-y,z
1/2-x,1/2+y,1/2+z
1/2+x,1/2-y,1/2+z
loop_
_atom_site_type_symbol
_atom_site_label
_atom_site_fract_x
_atom_site_fract_y
_atom_site_fract_z
Si Si1 0.000000 0.000000 0.337880
Si Si2 0.750195 0.631442 0.401231
Si Si3 0.923742 0.307809 0.631857
Si Si4 0.309415 0.063063 0.630894
O O1 0.878793 0.935714 0.581387
O O2 0.117968 0.929600 0.120301
O O3 0.890116 0.687000 0.607649
O O4 0.657534 0.707882 0.156786
O O5 0.844049 0.548367 0.168116
O O6 0.890748 0.328799 0.132823
O O7 0.844416 0.418249 0.631594
#
# Coordination Sequence:
#
# PCOD9348050 Si02
#       4
#     2   4   4   4
#     4  12  30  58  92 132 182 244 294 390 444 538
#     4  12  32  58  92 135 183 241 307 379 452 553
#     4  12  33  55  93 131 182 243 308 364 470 535
#     4  12  30  56  87 132 182 238 295 385 442 545
#
# _framework density 32.945618000000003
#
# number of rings (size 3 to 8) (size 9 to 14) (size 15 to 20)
#    0.000    0.000    2.857    1.714   20.000    0.000 
#    0.000    2.857    0.000    0.000    0.000    0.000 
#    0.000    0.000    0.000    0.000    0.000    0.000 
#
# Total GULP energy -78396.450116 kJ/mol
# GULP energy per Si atom -5599.746437 kJ/mol
# Density = 3.287063 g / cm^3
# Si number density = 32.945618 Si / 1000 Ang^3
#
#
#
# Elastic Constant Matrix: (Units=GPa)
#
#
# Indices 1 2 3 4 5 6 
#
# 1 274.7703 186.8610 89.7761 0.0000 0.0000 0.0000
# 2 186.8610 285.4572 157.8708 0.0000 0.0000 0.0000
# 3 89.7761 157.8708 261.6009 0.0000 0.0000 0.0000
# 4 0.0000 0.0000 0.0000 131.3394 0.0000 0.0000
# 5 0.0000 0.0000 0.0000 0.0000 118.0456 0.0000
# 6 0.0000 0.0000 0.0000 0.0000 0.0000 75.3969
#
#
#
# Elastic Compliance Matrix: (Units=1/GPa)
#
#
# Indices 1 2 3 4 5 6 
#
# 1 0.006605 -0.004608 0.000514 0.000000 0.000000 0.000000
# 2 -0.004608 0.008473 -0.003532 0.000000 0.000000 0.000000
# 3 0.000514 -0.003532 0.005778 0.000000 0.000000 0.000000
# 4 0.000000 0.000000 0.000000 0.007614 0.000000 0.000000
# 5 0.000000 0.000000 0.000000 0.000000 0.008471 0.000000
# 6 0.000000 0.000000 0.000000 0.000000 0.000000 0.013263
#
#
# Mechanical properties :
#
#
# Convention : Reuss Voigt Hill
#
# Bulk Modulus (GPa) = 178.44176 187.87157 183.15666
# Shear Modulus (GPa) = 74.26805 90.77773 82.52289
#
# Velocity S-wave (km/s) = 4.75306 5.25487 5.01025
# Velocity P-wave (km/s) = 9.18707 9.69364 9.44375
#
# Compressibility (1/GPa) = 0.00560407
#
# Stress axis : x y z
#
# Youngs Moduli (GPa) = 151.39462 118.02314 173.08391
#
# Poissons Ratio (x) = 0.54387 -0.08899
# Poissons Ratio (y) = 0.69765 0.61130
# Poissons Ratio (z) = -0.07784 0.41683
#
# Static dielectric constant tensor:
#      x y z
#    x 2.256980 0.000000 0.000000 
#    y 0.000000 2.303690 0.000000 
#    z 0.000000 0.000000 3.733380 
# 
# From -- ./inp_files/1120.got.cif
#   From: 2010.05.17/outbox.cif.g08.bks.cpg/sg34_1_cif.got.tgz:1120.got - 2010.06.03 17:23:11.
