data_PCOD9348297
_publ_section_title
;
Structure prediction by ZEFSAII (Michael W. Deem and Ramdas Pophale) SiO2 
 PCOD9348297
Probable space group: C M M 2
;
_chemical_formula_sum "Si O2"
_cell_formula_units_Z 64
_cell_length_a 14.724344
_cell_length_b 18.350319
_cell_length_c 12.299979
_cell_angle_alpha 90.000000
_cell_angle_beta 90.000000
_cell_angle_gamma 90.000000
_cell_volume 3323.410162
_symmetry_space_group_name_H-M "C M M 2"
_symmetry_group_IT_number 35
_symmetry_cell_setting 'orthorhombic'
loop_
_space_group_symop_operation_xyz
x,y,z
-x,-y,z
-x,y,z
x,-y,z
1/2+x,1/2+y,z
1/2-x,1/2-y,z
1/2-x,1/2+y,z
1/2+x,1/2-y,z
loop_
_atom_site_type_symbol
_atom_site_label
_atom_site_fract_x
_atom_site_fract_y
_atom_site_fract_z
Si Si1 0.107452 0.642195 0.641330
Si Si2 0.895917 0.191707 0.650859
Si Si3 0.262036 0.584347 0.776967
Si Si4 0.807020 0.417616 0.429353
Si Si5 0.397625 0.620075 0.427951
Si Si6 0.761186 0.588384 0.023916
Si Si7 0.896364 0.411319 0.203489
Si Si8 0.602451 0.586018 0.188895
O O1 0.126596 0.725145 0.676962
O O2 0.164653 0.589952 0.718905
O O3 0.146147 0.630744 0.520577
O O4 0.000000 0.629773 0.643461
O O5 0.830010 0.134531 0.708019
O O6 0.893261 0.182168 0.519599
O O7 0.000000 0.177053 0.683866
O O8 0.292649 0.500000 0.777106
O O9 0.251462 0.612139 0.900382
O O10 0.842274 0.500000 0.442464
O O11 0.698470 0.419708 0.446093
O O12 0.835167 0.392624 0.308457
O O13 0.500000 0.586544 0.443383
O O14 0.393485 0.633404 0.298675
O O15 0.766065 0.500000 0.019033
O O16 0.848749 0.613786 0.092147
O O17 0.675075 0.606538 0.099066
O O18 0.897410 0.500000 0.200053
O O19 0.000000 0.386388 0.215809
O O20 0.500000 0.589319 0.146035
O O21 0.619322 0.500000 0.220412
#
# Coordination Sequence:
#
# PCOD9348297 Si02
#       8
#     8   8   8   8   8   8   8   8
#     4  11  24  41  60  81 113 157 198 237 284 343
#     4  10  23  42  61  82 114 156 194 234 289 350
#     4  11  23  37  59  88 116 148 192 247 291 333
#     4  11  20  32  56  89 120 149 185 235 289 344
#     4  10  19  31  54  85 115 148 185 226 282 348
#     4   9  18  32  49  76 112 147 184 226 280 337
#     4   9  17  30  49  76 114 153 185 226 283 343
#     4   9  16  28  49  78 114 149 176 215 277 346
#
# _framework density 19.257328000000001
#
# number of rings (size 3 to 8) (size 9 to 14) (size 15 to 20)
#    0.000    2.000    2.500    1.500    0.000    4.000 
#    0.000    5.000    0.000    3.000    0.000    3.500 
#    0.000    0.000    0.000    0.000    0.000    0.000 
#
# Total GULP energy -178306.242767 kJ/mol
# GULP energy per Si atom -5572.070086 kJ/mol
# Density = 1.921350 g / cm^3
# Si number density = 19.257328 Si / 1000 Ang^3
#
#
#
# Elastic Constant Matrix: (Units=GPa)
#
#
# Indices 1 2 3 4 5 6 
#
# 1 108.0831 29.9956 38.3007 0.0000 0.0000 0.0000
# 2 29.9956 31.6124 19.0646 0.0000 0.0000 0.0000
# 3 38.3007 19.0646 111.1080 0.0000 0.0000 0.0000
# 4 0.0000 0.0000 0.0000 -13.5993 0.0000 0.0000
# 5 0.0000 0.0000 0.0000 0.0000 9.1711 0.0000
# 6 0.0000 0.0000 0.0000 0.0000 0.0000 13.5016
#
#
#
# Elastic Compliance Matrix: (Units=1/GPa)
#
#
# Indices 1 2 3 4 5 6 
#
# 1 0.013241 -0.010944 -0.002687 0.000000 0.000000 0.000000
# 2 -0.010944 0.044329 -0.003834 0.000000 0.000000 0.000000
# 3 -0.002687 -0.003834 0.010584 0.000000 0.000000 0.000000
# 4 0.000000 0.000000 0.000000 -0.073533 0.000000 0.000000
# 5 0.000000 0.000000 0.000000 0.000000 0.109038 0.000000
# 6 0.000000 0.000000 0.000000 0.000000 0.000000 0.074065
#
#
# Mechanical properties :
#
#
# Convention : Reuss Voigt Hill
#
# Bulk Modulus (GPa) = 30.09663 47.28058 38.68860
# Shear Modulus (GPa) = 22.34848 12.71087 17.52967
#
# Velocity S-wave (km/s) = 3.41033 2.57194 3.02037
# Velocity P-wave (km/s) = 5.58299 5.78145 5.68308
#
# Compressibility (1/GPa) = 0.03322631
#
# Stress axis : x y z
#
# Youngs Moduli (GPa) = 75.52065 22.55835 94.48023
#
# Poissons Ratio (x) = 0.24688 0.25384
# Poissons Ratio (y) = 0.82649 0.36221
# Poissons Ratio (z) = 0.20290 0.08648
#
# Static dielectric constant tensor:
#      x y z
#    x 1.686480 0.000000 0.000000 
#    y 0.000000 1.665970 0.000000 
#    z 0.000000 0.000000 1.664800 
# 
# From -- ./inp_files/13180.got.cif
#   From: 2010.05.17/outbox.cif.g08.bks.cpg/sg35_7_cif.got.tgz:13180.got - 2010.06.03 17:29:28.
