data_PCOD9348508
_publ_section_title
;
Structure prediction by ZEFSAII (Michael W. Deem and Ramdas Pophale) SiO2 
 PCOD9348508
Probable space group: C M M 2
;
_chemical_formula_sum "Si O2"
_cell_formula_units_Z 64
_cell_length_a 17.320329
_cell_length_b 32.950622
_cell_length_c 6.591889
_cell_angle_alpha 90.000000
_cell_angle_beta 90.000000
_cell_angle_gamma 90.000000
_cell_volume 3762.093977
_symmetry_space_group_name_H-M "C M M 2"
_symmetry_group_IT_number 35
_symmetry_cell_setting 'orthorhombic'
loop_
_space_group_symop_operation_xyz
x,y,z
-x,-y,z
-x,y,z
x,-y,z
1/2+x,1/2+y,z
1/2-x,1/2-y,z
1/2-x,1/2+y,z
1/2+x,1/2-y,z
loop_
_atom_site_type_symbol
_atom_site_label
_atom_site_fract_x
_atom_site_fract_y
_atom_site_fract_z
Si Si1 0.292116 0.384190 0.975300
Si Si2 0.091038 0.181851 0.023521
Si Si3 0.802846 0.669657 0.663085
Si Si4 0.687868 0.100670 0.357158
Si Si5 0.090263 0.257621 0.717883
Si Si6 0.273683 0.047281 0.738168
Si Si7 0.590210 0.047310 0.056727
Si Si8 0.813023 0.780707 0.379314
O O1 0.233565 0.357482 0.839033
O O2 0.287995 0.428461 0.874527
O O3 0.373021 0.360966 0.955078
O O4 0.255534 0.387071 0.199613
O O5 0.143121 0.192931 0.216185
O O6 0.000000 0.179212 0.065563
O O7 0.102640 0.219227 0.866722
O O8 0.837449 0.639646 0.490847
O O9 0.860494 0.702164 0.761470
O O10 0.735255 0.693971 0.545404
O O11 0.719112 0.068613 0.521459
O O12 0.622406 0.078402 0.224539
O O13 0.122018 0.244220 0.499108
O O14 0.000000 0.266564 0.716527
O O15 0.355013 0.051925 0.860050
O O16 0.256778 0.000000 0.720769
O O17 0.500000 0.054166 0.013553
O O18 0.598874 0.000000 0.124222
O O19 0.750000 0.750000 0.284790
#
# Coordination Sequence:
#
# PCOD9348508 Si02
#       8
#     8   8   8   8   8   8   8   8
#     4  10  20  35  55  80 107 137 181 220 271 324
#     4  11  22  35  55  81 109 140 177 228 275 319
#     4  10  20  34  54  78 107 146 182 226 265 321
#     4  10  19  33  54  79 106 141 184 222 267 317
#     4  10  22  36  51  76 108 144 185 226 266 310
#     4   9  19  35  55  80 108 139 179 222 267 324
#     4   9  18  32  51  78 111 146 183 222 264 315
#     4  10  20  33  55  76 102 144 185 221 263 316
#
# _framework density 17.011803
#
# number of rings (size 3 to 8) (size 9 to 14) (size 15 to 20)
#    0.000    2.125    2.500    0.750    1.750    1.500 
#    0.000    6.250    0.000    0.375    0.000    0.000 
#    0.000    0.000    0.000    0.000    0.000    0.000 
#
# Total GULP energy -178342.816715 kJ/mol
# GULP energy per Si atom -5573.213022 kJ/mol
# Density = 1.697308 g / cm^3
# Si number density = 17.011803 Si / 1000 Ang^3
#
#
#
# Elastic Constant Matrix: (Units=GPa)
#
#
# Indices 1 2 3 4 5 6 
#
# 1 94.1053 53.9558 38.6293 0.0000 0.0000 0.0000
# 2 53.9558 97.1529 27.8234 0.0000 0.0000 0.0000
# 3 38.6293 27.8234 59.4920 0.0000 0.0000 0.0000
# 4 0.0000 0.0000 0.0000 25.8542 0.0000 0.0000
# 5 0.0000 0.0000 0.0000 0.0000 12.7340 0.0000
# 6 0.0000 0.0000 0.0000 0.0000 0.0000 25.5158
#
#
#
# Elastic Compliance Matrix: (Units=1/GPa)
#
#
# Indices 1 2 3 4 5 6 
#
# 1 0.018617 -0.007941 -0.008375 0.000000 0.000000 0.000000
# 2 -0.007941 0.015272 -0.001986 0.000000 0.000000 0.000000
# 3 -0.008375 -0.001986 0.023176 0.000000 0.000000 0.000000
# 4 0.000000 0.000000 0.000000 0.038678 0.000000 0.000000
# 5 0.000000 0.000000 0.000000 0.000000 0.078530 0.000000
# 6 0.000000 0.000000 0.000000 0.000000 0.000000 0.039191
#
#
# Mechanical properties :
#
#
# Convention : Reuss Voigt Hill
#
# Bulk Modulus (GPa) = 48.87292 54.61858 51.74575
# Shear Modulus (GPa) = 19.46371 21.51026 20.48698
#
# Velocity S-wave (km/s) = 3.38617 3.55974 3.47404
# Velocity P-wave (km/s) = 6.63923 7.00512 6.82463
#
# Compressibility (1/GPa) = 0.02046123
#
# Stress axis : x y z
#
# Youngs Moduli (GPa) = 53.71412 65.47895 43.14868
#
# Poissons Ratio (x) = 0.51997 0.36135
# Poissons Ratio (y) = 0.42654 0.08570
# Poissons Ratio (z) = 0.44983 0.13006
#
# Static dielectric constant tensor:
#      x y z
#    x 1.550670 0.000000 0.000000 
#    y 0.000000 1.621010 0.000000 
#    z 0.000000 0.000000 1.579480 
# 
# From -- ./inp_files/2728.got.cif
#   From: 2010.05.17/outbox.cif.g08.bks.cpg/sg35_2_cif.got.tgz:2728.got - 2010.06.03 17:29:28.
