data_PCOD9348640
_publ_section_title
;
Structure prediction by ZEFSAII (Michael W. Deem and Ramdas Pophale) SiO2 
 PCOD9348640
Probable space group: C M M 2
;
_chemical_formula_sum "Si O2"
_cell_formula_units_Z 56
_cell_length_a 7.806011
_cell_length_b 22.708872
_cell_length_c 14.901099
_cell_angle_alpha 90.000000
_cell_angle_beta 90.000000
_cell_angle_gamma 90.000000
_cell_volume 2641.453814
_symmetry_space_group_name_H-M "C M M 2"
_symmetry_group_IT_number 35
_symmetry_cell_setting 'orthorhombic'
loop_
_space_group_symop_operation_xyz
x,y,z
-x,-y,z
-x,y,z
x,-y,z
1/2+x,1/2+y,z
1/2-x,1/2-y,z
1/2-x,1/2+y,z
1/2+x,1/2-y,z
loop_
_atom_site_type_symbol
_atom_site_label
_atom_site_fract_x
_atom_site_fract_y
_atom_site_fract_z
Si Si1 0.295244 0.000000 0.799441
Si Si2 0.703098 0.616860 0.481580
Si Si3 0.702526 0.628573 0.827853
Si Si4 0.706728 0.000000 0.590980
Si Si5 0.804885 0.316653 0.006199
Si Si6 0.294245 0.316334 0.646529
Si Si7 0.298907 0.933851 0.095038
Si Si8 0.293697 0.432111 0.299711
O O1 0.234666 0.059899 0.845662
O O2 0.235170 0.000000 0.695067
O O3 0.500000 0.000000 0.799683
O O4 0.500000 0.626769 0.470142
O O5 0.727449 0.556965 0.538136
O O6 0.775208 0.665865 0.548878
O O7 0.772119 0.607961 0.381335
O O8 0.500000 0.640314 0.831296
O O9 0.767758 0.642428 0.727501
O O10 0.789395 0.670364 0.900423
O O11 0.500000 0.000000 0.589976
O O12 0.750000 0.250000 0.025976
O O13 0.720070 0.375383 0.049536
O O14 0.000000 0.318709 0.036145
O O15 0.500000 0.322951 0.642895
O O16 0.250000 0.250000 0.669297
O O17 0.500000 0.937086 0.069157
O O18 0.285396 0.923926 0.202022
O O19 0.226439 0.000000 0.077017
O O20 0.500000 0.425436 0.290700
O O21 0.261987 0.500000 0.326781
#
# Coordination Sequence:
#
# PCOD9348640 Si02
#       8
#     4   8   8   4   8   8   8   8
#     4  11  23  37  55  86 123 156 191 241 296 346
#     4  10  19  35  55  78 113 153 187 228 280 337
#     4  11  23  39  61  87 115 154 197 241 294 352
#     4  11  21  31  51  84 113 146 185 229 276 322
#     4  11  24  42  64  88 118 157 199 246 302 360
#     4  10  22  37  55  76 108 152 195 236 281 333
#     4   9  20  39  61  86 118 152 187 239 304 358
#     4   9  17  31  56  85 112 147 187 231 285 344
#
# _framework density 21.200448000000002
#
# number of rings (size 3 to 8) (size 9 to 14) (size 15 to 20)
#    0.000    1.857    2.143    1.714    1.000    5.143 
#    0.000    0.714    0.000    3.429    0.000    0.000 
#    0.000    0.000    0.000    0.000    0.000    0.000 
#
# Total GULP energy -156263.764006 kJ/mol
# GULP energy per Si atom -5580.848714 kJ/mol
# Density = 2.115220 g / cm^3
# Si number density = 21.200448 Si / 1000 Ang^3
#
#
#
# Elastic Constant Matrix: (Units=GPa)
#
#
# Indices 1 2 3 4 5 6 
#
# 1 19.4411 5.8404 3.4903 0.0000 0.0000 0.0000
# 2 5.8404 138.4605 41.4863 0.0000 0.0000 0.0000
# 3 3.4903 41.4863 63.4469 0.0000 0.0000 0.0000
# 4 0.0000 0.0000 0.0000 44.2913 0.0000 0.0000
# 5 0.0000 0.0000 0.0000 0.0000 19.7478 0.0000
# 6 0.0000 0.0000 0.0000 0.0000 0.0000 19.1303
#
#
#
# Elastic Compliance Matrix: (Units=1/GPa)
#
#
# Indices 1 2 3 4 5 6 
#
# 1 0.052259 -0.001670 -0.001783 0.000000 0.000000 0.000000
# 2 -0.001670 0.009035 -0.005816 0.000000 0.000000 0.000000
# 3 -0.001783 -0.005816 0.019662 0.000000 0.000000 0.000000
# 4 0.000000 0.000000 0.000000 0.022578 0.000000 0.000000
# 5 0.000000 0.000000 0.000000 0.000000 0.050639 0.000000
# 6 0.000000 0.000000 0.000000 0.000000 0.000000 0.052273
#
#
# Mechanical properties :
#
#
# Convention : Reuss Voigt Hill
#
# Bulk Modulus (GPa) = 16.02080 35.88693 25.95387
# Shear Modulus (GPa) = 20.34249 28.00263 24.17256
#
# Velocity S-wave (km/s) = 3.10099 3.63829 3.38033
# Velocity P-wave (km/s) = 4.51605 5.88335 5.24445
#
# Compressibility (1/GPa) = 0.06241884
#
# Stress axis : x y z
#
# Youngs Moduli (GPa) = 19.13536 110.67599 50.85881
#
# Poissons Ratio (x) = 0.18485 0.09067
# Poissons Ratio (y) = 0.03196 0.29580
# Poissons Ratio (z) = 0.03411 0.64370
#
# Static dielectric constant tensor:
#      x y z
#    x 1.776810 0.000000 0.000000 
#    y 0.000000 1.775150 0.000000 
#    z 0.000000 0.000000 1.776710 
# 
# From -- ./inp_files/15738.got.cif
#   From: 2010.05.17/outbox.cif.g08.bks.cpg/sg35_8_cif.got.tgz:15738.got - 2010.06.03 17:29:28.
