data_PCOD9348843
_publ_section_title
;
Structure prediction by ZEFSAII (Michael W. Deem and Ramdas Pophale) SiO2 
 PCOD9348843
Probable space group: C M M 2
;
_chemical_formula_sum "Si O2"
_cell_formula_units_Z 48
_cell_length_a 14.930199
_cell_length_b 9.640327
_cell_length_c 15.854179
_cell_angle_alpha 90.000000
_cell_angle_beta 90.000000
_cell_angle_gamma 90.000000
_cell_volume 2281.923700
_symmetry_space_group_name_H-M "C M M 2"
_symmetry_group_IT_number 35
_symmetry_cell_setting 'orthorhombic'
loop_
_space_group_symop_operation_xyz
x,y,z
-x,-y,z
-x,y,z
x,-y,z
1/2+x,1/2+y,z
1/2-x,1/2-y,z
1/2-x,1/2+y,z
1/2+x,1/2-y,z
loop_
_atom_site_type_symbol
_atom_site_label
_atom_site_fract_x
_atom_site_fract_y
_atom_site_fract_z
Si Si1 0.394762 0.152820 0.634050
Si Si2 0.658606 0.166056 0.444658
Si Si3 0.890386 0.659910 0.131596
Si Si4 0.390811 0.158877 0.941174
Si Si5 0.894288 0.843835 0.285103
Si Si6 0.109996 0.156987 0.783928
O O1 0.500000 0.142310 0.653619
O O2 0.388160 0.185475 0.535116
O O3 0.359578 0.266133 0.698842
O O4 0.353824 0.000000 0.647353
O O5 0.750000 0.250000 0.454063
O O6 0.615144 0.242345 0.364934
O O7 0.666808 0.000000 0.430677
O O8 0.863582 0.500000 0.148323
O O9 0.857617 0.765710 0.202655
O O10 0.000000 0.660346 0.133394
O O11 0.863612 0.698380 0.036224
O O12 0.500000 0.159732 0.940658
O O13 0.361479 0.258692 0.866542
O O14 0.363253 0.000000 0.925515
O O15 0.000000 0.859203 0.271129
O O16 0.857053 0.000000 0.298692
O O17 0.000000 0.154075 0.784282
O O18 0.141506 0.000000 0.786471
#
# Coordination Sequence:
#
# PCOD9348843 Si02
#       6
#     8   8   8   8   8   8
#     4   9  18  33  52  72  95 127 165 201 240 291
#     4  11  23  38  55  74  98 129 166 208 254 303
#     4   8  14  25  42  65  94 129 166 201 239 285
#     4   8  13  22  37  59  91 129 163 195 234 282
#     4  10  20  33  51  76 104 133 166 206 250 296
#     4   9  16  24  38  64  96 127 158 196 241 285
#
# _framework density 21.034884999999999
#
# number of rings (size 3 to 8) (size 9 to 14) (size 15 to 20)
#    0.000    2.833    0.000    3.000    0.000    5.667 
#    0.000    5.000    0.000    0.000    0.000    1.167 
#    0.000    5.333    0.000    0.000    0.000    0.000 
#
# Total GULP energy -133872.859594 kJ/mol
# GULP energy per Si atom -5578.035816 kJ/mol
# Density = 2.098701 g / cm^3
# Si number density = 21.034885 Si / 1000 Ang^3
#
#
#
# Elastic Constant Matrix: (Units=GPa)
#
#
# Indices 1 2 3 4 5 6 
#
# 1 29.4168 11.0866 -2.2573 0.0000 0.0000 0.0000
# 2 11.0866 186.7264 149.3864 0.0000 0.0000 0.0000
# 3 -2.2573 149.3864 188.4534 0.0000 0.0000 0.0000
# 4 0.0000 0.0000 0.0000 -0.2932 0.0000 0.0000
# 5 0.0000 0.0000 0.0000 0.0000 -34.4620 0.0000
# 6 0.0000 0.0000 0.0000 0.0000 0.0000 20.9656
#
#
#
# Elastic Compliance Matrix: (Units=1/GPa)
#
#
# Indices 1 2 3 4 5 6 
#
# 1 0.037088 -0.006991 0.005986 0.000000 0.000000 0.000000
# 2 -0.006991 0.015957 -0.012733 0.000000 0.000000 0.000000
# 3 0.005986 -0.012733 0.015471 0.000000 0.000000 0.000000
# 4 0.000000 0.000000 0.000000 -3.410954 0.000000 0.000000
# 5 0.000000 0.000000 0.000000 0.000000 -0.029017 0.000000
# 6 0.000000 0.000000 0.000000 0.000000 0.000000 0.047697
#
#
# Mechanical properties :
#
#
# Convention : Reuss Voigt Hill
#
# Bulk Modulus (GPa) = 24.36594 80.11422 52.24008
# Shear Modulus (GPa) = -1.52318 13.66747 6.07214
#
# Velocity S-wave (km/s) = -0.85188 2.55179 1.70087
# Velocity P-wave (km/s) = 3.26208 6.84479 5.36155
#
# Compressibility (1/GPa) = 0.04104089
#
# Stress axis : x y z
#
# Youngs Moduli (GPa) = 26.96274 62.66727 64.63503
#
# Poissons Ratio (x) = 0.43811 -0.38690
# Poissons Ratio (y) = 0.18850 0.82300
# Poissons Ratio (z) = -0.16140 0.79794
#
# Static dielectric constant tensor:
#      x y z
#    x 1.822050 0.000000 0.000000 
#    y 0.000000 1.737860 0.000000 
#    z 0.000000 0.000000 1.788000 
# 
# From -- ./inp_files/15121.got.cif
#   From: 2010.05.17/outbox.cif.g08.bks.cpg/sg35_8_cif.got.tgz:15121.got - 2010.06.03 17:29:28.
