data_PCOD9348765
_publ_section_title
;
Structure prediction by ZEFSAII (Michael W. Deem and Ramdas Pophale) SiO2 
 PCOD9348765
Probable space group: C M M 2
;
_chemical_formula_sum "Si O2"
_cell_formula_units_Z 64
_cell_length_a 29.143129
_cell_length_b 8.747468
_cell_length_c 16.005752
_cell_angle_alpha 90.000000
_cell_angle_beta 90.000000
_cell_angle_gamma 90.000000
_cell_volume 4080.323763
_symmetry_space_group_name_H-M "C M M 2"
_symmetry_group_IT_number 35
_symmetry_cell_setting 'orthorhombic'
loop_
_space_group_symop_operation_xyz
x,y,z
-x,-y,z
-x,y,z
x,-y,z
1/2+x,1/2+y,z
1/2-x,1/2-y,z
1/2-x,1/2+y,z
1/2+x,1/2-y,z
loop_
_atom_site_type_symbol
_atom_site_label
_atom_site_fract_x
_atom_site_fract_y
_atom_site_fract_z
Si Si1 0.801461 0.317254 0.110530
Si Si2 0.353200 0.316648 0.767003
Si Si3 0.198904 0.682914 0.606035
Si Si4 0.052378 0.682341 0.505175
Si Si5 0.698681 0.317256 0.281229
Si Si6 0.301569 0.816721 0.924793
Si Si7 0.948355 0.816961 0.690049
Si Si8 0.144101 0.182512 0.449030
O O1 0.799677 0.500000 0.118703
O O2 0.750000 0.250000 0.109126
O O3 0.822160 0.246930 0.194700
O O4 0.820057 0.279846 0.018214
O O5 0.348311 0.500000 0.766414
O O6 0.325143 0.248181 0.689025
O O7 0.332845 0.250609 0.852119
O O8 0.406673 0.278000 0.751231
O O9 0.200417 0.500000 0.609663
O O10 0.250000 0.750000 0.599994
O O11 0.170167 0.736817 0.525621
O O12 0.057732 0.500000 0.499825
O O13 0.058557 0.734000 0.601500
O O14 0.091512 0.764589 0.452356
O O15 0.000000 0.722363 0.481748
O O16 0.702291 0.500000 0.275168
O O17 0.750000 0.250000 0.291401
O O18 0.668699 0.277805 0.362078
O O19 0.250000 0.750000 0.916901
O O20 0.298761 0.000000 0.917484
O O21 0.000000 0.781318 0.720043
O O22 0.946077 0.000000 0.674782
O O23 0.146989 0.000000 0.460939
#
# Coordination Sequence:
#
# PCOD9348765 Si02
#       8
#     8   8   8   8   8   8   8   8
#     4   9  17  30  49  70  94 125 160 201 245 288
#     4  11  21  33  50  72  98 129 165 201 243 293
#     4  12  24  36  49  66  96 134 169 204 238 284
#     4  10  20  33  51  74  97 125 163 206 250 291
#     4  10  20  32  49  72  99 129 163 201 241 289
#     4  10  20  33  49  71  99 130 165 202 242 287
#     4   9  18  33  52  71  94 125 161 203 247 291
#     4  11  22  35  50  72  99 131 167 201 244 293
#
# _framework density 15.685029
#
# number of rings (size 3 to 8) (size 9 to 14) (size 15 to 20)
#    0.000    1.750    1.250    4.875    0.000    5.750 
#    0.000    0.000    0.000    0.000    0.000    0.875 
#    0.000    3.000    0.000    0.000    0.000    0.000 
#
# Total GULP energy -178574.170182 kJ/mol
# GULP energy per Si atom -5580.442818 kJ/mol
# Density = 1.564933 g / cm^3
# Si number density = 15.685029 Si / 1000 Ang^3
#
#
#
# Elastic Constant Matrix: (Units=GPa)
#
#
# Indices 1 2 3 4 5 6 
#
# 1 100.5606 43.0396 64.5830 0.0000 0.0000 0.0000
# 2 43.0396 70.0599 57.5413 0.0000 0.0000 0.0000
# 3 64.5830 57.5413 142.9812 0.0000 0.0000 0.0000
# 4 0.0000 0.0000 0.0000 21.3054 0.0000 0.0000
# 5 0.0000 0.0000 0.0000 0.0000 6.4958 0.0000
# 6 0.0000 0.0000 0.0000 0.0000 0.0000 18.7824
#
#
#
# Elastic Compliance Matrix: (Units=1/GPa)
#
#
# Indices 1 2 3 4 5 6 
#
# 1 0.015339 -0.005576 -0.004685 0.000000 0.000000 0.000000
# 2 -0.005576 0.023347 -0.006877 0.000000 0.000000 0.000000
# 3 -0.004685 -0.006877 0.011878 0.000000 0.000000 0.000000
# 4 0.000000 0.000000 0.000000 0.046936 0.000000 0.000000
# 5 0.000000 0.000000 0.000000 0.000000 0.153947 0.000000
# 6 0.000000 0.000000 0.000000 0.000000 0.000000 0.053241
#
#
# Mechanical properties :
#
#
# Convention : Reuss Voigt Hill
#
# Bulk Modulus (GPa) = 61.39228 71.54771 66.46999
# Shear Modulus (GPa) = 14.51826 19.21256 16.86541
#
# Velocity S-wave (km/s) = 3.04569 3.50365 3.28267
# Velocity P-wave (km/s) = 7.18289 7.87920 7.53909
#
# Compressibility (1/GPa) = 0.01628869
#
# Stress axis : x y z
#
# Youngs Moduli (GPa) = 65.19209 42.83145 84.19144
#
# Poissons Ratio (x) = 0.23882 0.39441
# Poissons Ratio (y) = 0.36349 0.57902
# Poissons Ratio (z) = 0.30541 0.29457
#
# Static dielectric constant tensor:
#      x y z
#    x 1.514660 0.000000 0.000000 
#    y 0.000000 1.524900 0.000000 
#    z 0.000000 0.000000 1.525210 
# 
# From -- ./inp_files/17771.got.cif
#   From: 2010.05.17/outbox.cif.g08.bks.cpg/sg35_9_cif.got.tgz:17771.got - 2010.06.03 17:29:28.
