data_PCOD9348998
_publ_section_title
;
Structure prediction by ZEFSAII (Michael W. Deem and Ramdas Pophale) SiO2 
 PCOD9348998
Probable space group: C M M 2
;
_chemical_formula_sum "Si O2"
_cell_formula_units_Z 56
_cell_length_a 15.033790
_cell_length_b 13.996080
_cell_length_c 13.031547
_cell_angle_alpha 90.000000
_cell_angle_beta 90.000000
_cell_angle_gamma 90.000000
_cell_volume 2742.021593
_symmetry_space_group_name_H-M "C M M 2"
_symmetry_group_IT_number 35
_symmetry_cell_setting 'orthorhombic'
loop_
_space_group_symop_operation_xyz
x,y,z
-x,-y,z
-x,y,z
x,-y,z
1/2+x,1/2+y,z
1/2-x,1/2-y,z
1/2-x,1/2+y,z
1/2+x,1/2-y,z
loop_
_atom_site_type_symbol
_atom_site_label
_atom_site_fract_x
_atom_site_fract_y
_atom_site_fract_z
Si Si1 0.794189 0.614276 0.317100
Si Si2 0.102814 0.383047 0.113352
Si Si3 0.597612 0.612995 0.380331
Si Si4 0.097762 0.697828 0.737985
Si Si5 0.287565 0.886072 0.916107
Si Si6 0.349425 0.776723 0.519883
Si Si7 0.900994 0.110592 0.845366
O O1 0.801560 0.500000 0.321573
O O2 0.845710 0.647290 0.216045
O O3 0.688246 0.636827 0.318339
O O4 0.837558 0.657671 0.419572
O O5 0.103067 0.500000 0.112995
O O6 0.000000 0.352655 0.112183
O O7 0.156604 0.350430 0.013095
O O8 0.500000 0.629371 0.331533
O O9 0.602969 0.500000 0.404952
O O10 0.603897 0.680539 0.479766
O O11 0.171855 0.653253 0.810706
O O12 0.106462 0.676345 0.618319
O O13 0.103539 0.812370 0.754427
O O14 0.000000 0.666987 0.775583
O O15 0.182151 0.866674 0.918562
O O16 0.297639 0.000000 0.914530
O O17 0.250000 0.750000 0.553979
O O18 0.000000 0.120407 0.891928
O O19 0.891630 0.000000 0.812125
#
# Coordination Sequence:
#
# PCOD9348998 Si02
#       7
#     8   8   8   8   8   8   8
#     4   9  19  36  57  82 110 141 180 224 271 322
#     4   9  18  34  56  80 108 145 185 221 261 317
#     4   9  18  34  55  78 108 145 182 221 266 319
#     4  11  22  35  54  81 113 146 180 221 269 323
#     4  10  20  36  58  82 110 142 179 224 271 322
#     4  10  20  34  53  79 112 146 180 222 270 321
#     4   9  19  36  56  78 107 144 183 222 266 318
#
# _framework density 20.422889000000001
#
# number of rings (size 3 to 8) (size 9 to 14) (size 15 to 20)
#    0.000    2.429    0.000    2.143    0.000    3.143 
#    0.000    9.286    0.000    6.000    0.000    0.000 
#    0.000    0.000    0.000    0.000    0.000    0.000 
#
# Total GULP energy -156140.830943 kJ/mol
# GULP energy per Si atom -5576.458248 kJ/mol
# Density = 2.037641 g / cm^3
# Si number density = 20.422889 Si / 1000 Ang^3
#
#
#
# Elastic Constant Matrix: (Units=GPa)
#
#
# Indices 1 2 3 4 5 6 
#
# 1 169.8846 33.5967 80.6072 0.0000 0.0000 0.0000
# 2 33.5967 44.2992 26.0066 0.0000 0.0000 0.0000
# 3 80.6072 26.0066 118.7081 0.0000 0.0000 0.0000
# 4 0.0000 0.0000 0.0000 21.8557 0.0000 0.0000
# 5 0.0000 0.0000 0.0000 0.0000 19.5457 0.0000
# 6 0.0000 0.0000 0.0000 0.0000 0.0000 21.4285
#
#
#
# Elastic Compliance Matrix: (Units=1/GPa)
#
#
# Indices 1 2 3 4 5 6 
#
# 1 0.009211 -0.003803 -0.005421 0.000000 0.000000 0.000000
# 2 -0.003803 0.027476 -0.003437 0.000000 0.000000 0.000000
# 3 -0.005421 -0.003437 0.012858 0.000000 0.000000 0.000000
# 4 0.000000 0.000000 0.000000 0.045755 0.000000 0.000000
# 5 0.000000 0.000000 0.000000 0.000000 0.051162 0.000000
# 6 0.000000 0.000000 0.000000 0.000000 0.000000 0.046667
#
#
# Mechanical properties :
#
#
# Convention : Reuss Voigt Hill
#
# Bulk Modulus (GPa) = 41.28445 68.14589 54.71517
# Shear Modulus (GPa) = 22.07264 25.41141 23.74202
#
# Velocity S-wave (km/s) = 3.29109 3.53124 3.41327
# Velocity P-wave (km/s) = 5.89070 7.07573 6.51024
#
# Compressibility (1/GPa) = 0.02422220
#
# Stress axis : x y z
#
# Youngs Moduli (GPa) = 108.56948 36.39590 77.77085
#
# Poissons Ratio (x) = 0.13841 0.42162
# Poissons Ratio (y) = 0.41286 0.26731
# Poissons Ratio (z) = 0.58859 0.12510
#
# Static dielectric constant tensor:
#      x y z
#    x 1.761420 0.000000 0.000000 
#    y 0.000000 1.736120 0.000000 
#    z 0.000000 0.000000 1.675080 
# 
# From -- ./inp_files/12988.got.cif
#   From: 2010.05.17/outbox.cif.g08.bks.cpg/sg35_7_cif.got.tgz:12988.got - 2010.06.03 17:29:28.
