data_PCOD9348544
_publ_section_title
;
Structure prediction by ZEFSAII (Michael W. Deem and Ramdas Pophale) SiO2 
 PCOD9348544
Probable space group: C M M 2
;
_chemical_formula_sum "Si O2"
_cell_formula_units_Z 48
_cell_length_a 15.763066
_cell_length_b 8.379037
_cell_length_c 18.210321
_cell_angle_alpha 90.000000
_cell_angle_beta 90.000000
_cell_angle_gamma 90.000000
_cell_volume 2405.206692
_symmetry_space_group_name_H-M "C M M 2"
_symmetry_group_IT_number 35
_symmetry_cell_setting 'orthorhombic'
loop_
_space_group_symop_operation_xyz
x,y,z
-x,-y,z
-x,y,z
x,-y,z
1/2+x,1/2+y,z
1/2-x,1/2-y,z
1/2-x,1/2+y,z
1/2+x,1/2-y,z
loop_
_atom_site_type_symbol
_atom_site_label
_atom_site_fract_x
_atom_site_fract_y
_atom_site_fract_z
Si Si1 0.346105 0.692984 0.450930
Si Si2 0.000000 0.810743 0.020950
Si Si3 0.846048 0.191898 0.765292
Si Si4 0.152437 0.689419 0.921459
Si Si5 0.347904 0.307709 0.288815
Si Si6 0.599844 0.319811 0.607889
Si Si7 0.500000 0.810038 0.187041
O O1 0.354637 0.500000 0.453058
O O2 0.250000 0.750000 0.448586
O O3 0.379976 0.742314 0.370885
O O4 0.379032 0.756032 0.529225
O O5 0.000000 0.763142 0.105983
O O6 0.914835 0.745399 0.981978
O O7 0.000000 0.000000 0.013063
O O8 0.750000 0.250000 0.769381
O O9 0.882947 0.253132 0.842014
O O10 0.876835 0.254873 0.686155
O O11 0.854176 0.000000 0.765296
O O12 0.156974 0.500000 0.920660
O O13 0.250000 0.750000 0.932076
O O14 0.346616 0.500000 0.286363
O O15 0.250000 0.250000 0.278727
O O16 0.415468 0.244566 0.230466
O O17 0.500000 0.336169 0.608858
O O18 0.638867 0.500000 0.607886
O O19 0.500000 0.000000 0.181710
#
# Coordination Sequence:
#
# PCOD9348544 Si02
#       7
#     8   4   8   8   8   8   4
#     4   9  18  33  56  80 111 152 199 248 298 353
#     4  12  26  46  70  97 126 159 200 249 308 373
#     4  10  19  33  55  81 112 156 203 250 300 355
#     4  11  23  42  66  95 128 165 207 253 306 366
#     4  10  21  39  64  94 125 165 209 255 309 368
#     4   9  18  30  48  78 112 152 201 248 295 350
#     4  12  26  44  66  95 128 161 200 251 306 369
#
# _framework density 19.956703999999998
#
# number of rings (size 3 to 8) (size 9 to 14) (size 15 to 20)
#    0.000    1.833    0.000    5.500    2.333    1.333 
#    0.000    4.167    0.000    2.000    0.000    0.000 
#    0.000    0.000    0.000    0.000    0.000    0.000 
#
# Total GULP energy -133783.967366 kJ/mol
# GULP energy per Si atom -5574.331974 kJ/mol
# Density = 1.991128 g / cm^3
# Si number density = 19.956704 Si / 1000 Ang^3
#
#
#
# Elastic Constant Matrix: (Units=GPa)
#
#
# Indices 1 2 3 4 5 6 
#
# 1 74.1588 15.2740 63.9779 0.0000 0.0000 0.0000
# 2 15.2740 80.9748 25.6154 0.0000 0.0000 0.0000
# 3 63.9779 25.6154 185.4438 0.0000 0.0000 0.0000
# 4 0.0000 0.0000 0.0000 31.3659 0.0000 0.0000
# 5 0.0000 0.0000 0.0000 0.0000 43.8410 0.0000
# 6 0.0000 0.0000 0.0000 0.0000 0.0000 27.8091
#
#
#
# Elastic Compliance Matrix: (Units=1/GPa)
#
#
# Indices 1 2 3 4 5 6 
#
# 1 0.019398 -0.001612 -0.006470 0.000000 0.000000 0.000000
# 2 -0.001612 0.013048 -0.001246 0.000000 0.000000 0.000000
# 3 -0.006470 -0.001246 0.007797 0.000000 0.000000 0.000000
# 4 0.000000 0.000000 0.000000 0.031882 0.000000 0.000000
# 5 0.000000 0.000000 0.000000 0.000000 0.022810 0.000000
# 6 0.000000 0.000000 0.000000 0.000000 0.000000 0.035959
#
#
# Mechanical properties :
#
#
# Convention : Reuss Voigt Hill
#
# Bulk Modulus (GPa) = 46.32537 61.14579 53.73558
# Shear Modulus (GPa) = 31.89897 36.31722 34.10810
#
# Velocity S-wave (km/s) = 4.00235 4.27054 4.13862
# Velocity P-wave (km/s) = 6.67995 7.41771 7.05847
#
# Compressibility (1/GPa) = 0.02158644
#
# Stress axis : x y z
#
# Youngs Moduli (GPa) = 51.55146 76.64112 128.26125
#
# Poissons Ratio (x) = 0.12358 0.82980
# Poissons Ratio (y) = 0.08312 0.15982
# Poissons Ratio (z) = 0.33352 0.09550
#
# Static dielectric constant tensor:
#      x y z
#    x 1.696440 0.000000 0.000000 
#    y 0.000000 1.712870 0.000000 
#    z 0.000000 0.000000 1.790680 
# 
# From -- ./inp_files/17107.got.cif
#   From: 2010.05.17/outbox.cif.g08.bks.cpg/sg35_9_cif.got.tgz:17107.got - 2010.06.03 17:29:28.
