data_PCOD9348925
_publ_section_title
;
Structure prediction by ZEFSAII (Michael W. Deem and Ramdas Pophale) SiO2 
 PCOD9348925
Probable space group: C M M 2
;
_chemical_formula_sum "Si O2"
_cell_formula_units_Z 48
_cell_length_a 15.904862
_cell_length_b 8.446645
_cell_length_c 18.041554
_cell_angle_alpha 90.000000
_cell_angle_beta 90.000000
_cell_angle_gamma 90.000000
_cell_volume 2423.751493
_symmetry_space_group_name_H-M "C M M 2"
_symmetry_group_IT_number 35
_symmetry_cell_setting 'orthorhombic'
loop_
_space_group_symop_operation_xyz
x,y,z
-x,-y,z
-x,y,z
x,-y,z
1/2+x,1/2+y,z
1/2-x,1/2-y,z
1/2-x,1/2+y,z
1/2+x,1/2-y,z
loop_
_atom_site_type_symbol
_atom_site_label
_atom_site_fract_x
_atom_site_fract_y
_atom_site_fract_z
Si Si1 0.500000 0.806671 0.228060
Si Si2 0.500000 0.193399 0.398386
Si Si3 0.902196 0.310217 0.651315
Si Si4 0.653678 0.810383 0.124703
Si Si5 0.100698 0.819419 0.806699
Si Si6 0.839454 0.308825 0.493787
Si Si7 0.654810 0.690701 0.966727
O O1 0.500000 0.754628 0.313310
O O2 0.585178 0.757288 0.185385
O O3 0.500000 0.000000 0.227318
O O4 0.582919 0.243572 0.443010
O O5 0.500000 0.000000 0.398633
O O6 0.902705 0.500000 0.649096
O O7 0.867745 0.260864 0.731556
O O8 0.854292 0.252001 0.578438
O O9 0.000000 0.258073 0.644918
O O10 0.750000 0.750000 0.135383
O O11 0.658019 0.000000 0.125179
O O12 0.619849 0.755895 0.044009
O O13 0.119839 0.750983 0.887785
O O14 0.000000 0.820526 0.801096
O O15 0.131921 0.000000 0.806438
O O16 0.839751 0.500000 0.494655
O O17 0.750000 0.250000 0.466159
O O18 0.648552 0.500000 0.968657
O O19 0.750000 0.750000 0.967471
#
# Coordination Sequence:
#
# PCOD9348925 Si02
#       7
#     4   4   8   8   8   8   8
#     4   9  20  36  59  86 109 142 182 219 269 329
#     4   9  18  38  61  80 111 148 178 217 269 329
#     4   9  17  32  52  74 102 140 184 224 263 314
#     4  10  20  36  56  82 112 142 181 225 270 322
#     4   9  19  33  49  73 103 138 178 220 267 312
#     4  10  20  35  58  84 110 144 184 222 268 323
#     4  10  20  34  52  73 103 141 179 220 268 318
#
# _framework density 19.804010000000002
#
# number of rings (size 3 to 8) (size 9 to 14) (size 15 to 20)
#    0.000    2.500    0.833    2.000    1.167    3.333 
#    0.000    5.000    0.000    3.000    0.000    0.000 
#    0.000    0.000    0.000    0.000    0.000    0.000 
#
# Total GULP energy -133798.236244 kJ/mol
# GULP energy per Si atom -5574.926510 kJ/mol
# Density = 1.975893 g / cm^3
# Si number density = 19.804010 Si / 1000 Ang^3
#
#
#
# Elastic Constant Matrix: (Units=GPa)
#
#
# Indices 1 2 3 4 5 6 
#
# 1 105.1556 16.6900 83.4268 0.0000 0.0000 0.0000
# 2 16.6900 19.5502 24.5313 0.0000 0.0000 0.0000
# 3 83.4268 24.5313 192.1665 0.0000 0.0000 0.0000
# 4 0.0000 0.0000 0.0000 15.8367 0.0000 0.0000
# 5 0.0000 0.0000 0.0000 0.0000 -9.2056 0.0000
# 6 0.0000 0.0000 0.0000 0.0000 0.0000 17.9767
#
#
#
# Elastic Compliance Matrix: (Units=1/GPa)
#
#
# Indices 1 2 3 4 5 6 
#
# 1 0.014989 -0.005514 -0.005803 0.000000 0.000000 0.000000
# 2 -0.005514 0.062935 -0.005640 0.000000 0.000000 0.000000
# 3 -0.005803 -0.005640 0.008443 0.000000 0.000000 0.000000
# 4 0.000000 0.000000 0.000000 0.063144 0.000000 0.000000
# 5 0.000000 0.000000 0.000000 0.000000 -0.108629 0.000000
# 6 0.000000 0.000000 0.000000 0.000000 0.000000 0.055628
#
#
# Mechanical properties :
#
#
# Convention : Reuss Voigt Hill
#
# Bulk Modulus (GPa) = 19.06505 62.90761 40.98633
# Shear Modulus (GPa) = 33.80438 17.73650 25.77044
#
# Velocity S-wave (km/s) = 4.13600 2.99591 3.61123
# Velocity P-wave (km/s) = 5.69706 6.61826 6.17486
#
# Compressibility (1/GPa) = 0.05245200
#
# Stress axis : x y z
#
# Youngs Moduli (GPa) = 66.71488 15.88938 118.43690
#
# Poissons Ratio (x) = 0.08762 0.68734
# Poissons Ratio (y) = 0.36788 0.66800
# Poissons Ratio (z) = 0.38718 0.08962
#
# Static dielectric constant tensor:
#      x y z
#    x 1.693240 0.000000 0.000000 
#    y 0.000000 1.702030 0.000000 
#    z 0.000000 0.000000 1.730220 
# 
# From -- ./inp_files/18798.got.cif
#   From: 2010.05.17/outbox.cif.g08.bks.cpg/sg35_10_cif.got.tgz:18798.got - 2010.06.03 17:29:28.
