data_PCOD9348641
_publ_section_title
;
Structure prediction by ZEFSAII (Michael W. Deem and Ramdas Pophale) SiO2 
 PCOD9348641
Probable space group: C M M 2
;
_chemical_formula_sum "Si O2"
_cell_formula_units_Z 48
_cell_length_a 30.796712
_cell_length_b 9.422304
_cell_length_c 9.410759
_cell_angle_alpha 90.000000
_cell_angle_beta 90.000000
_cell_angle_gamma 90.000000
_cell_volume 2730.776240
_symmetry_space_group_name_H-M "C M M 2"
_symmetry_group_IT_number 35
_symmetry_cell_setting 'orthorhombic'
loop_
_space_group_symop_operation_xyz
x,y,z
-x,-y,z
-x,y,z
x,-y,z
1/2+x,1/2+y,z
1/2-x,1/2-y,z
1/2-x,1/2+y,z
1/2+x,1/2-y,z
loop_
_atom_site_type_symbol
_atom_site_label
_atom_site_fract_x
_atom_site_fract_y
_atom_site_fract_z
Si Si1 0.925380 0.157039 0.037190
Si Si2 0.400827 0.831573 0.551904
Si Si3 0.500000 0.162524 0.560223
Si Si4 0.851276 0.162088 0.800138
Si Si5 0.205540 0.669033 0.016249
Si Si6 0.500000 0.838736 0.901392
Si Si7 0.372263 0.837176 0.238161
O O1 0.907328 0.228409 0.178153
O O2 0.943022 0.000000 0.061351
O O3 0.885767 0.148429 0.927451
O O4 0.959130 0.258560 0.962731
O O5 0.451167 0.782112 0.523910
O O6 0.376439 0.741061 0.672393
O O7 0.372816 0.823141 0.407534
O O8 0.403644 0.000000 0.593623
O O9 0.500000 0.164878 0.731432
O O10 0.500000 0.000000 0.506286
O O11 0.837461 0.000000 0.762622
O O12 0.814339 0.258978 0.873568
O O13 0.211638 0.500000 0.996103
O O14 0.250000 0.750000 0.048906
O O15 0.171856 0.686821 0.148492
O O16 0.500000 0.000000 0.948460
O O17 0.385490 0.000000 0.205789
#
# Coordination Sequence:
#
# PCOD9348641 Si02
#       7
#     8   8   4   8   8   4   8
#     4  10  20  33  50  74 106 140 180 227 275 323
#     4  10  19  35  55  80 113 150 191 232 274 322
#     4   9  18  30  51  78 106 144 189 233 272 313
#     4  10  20  34  54  80 108 142 180 223 274 328
#     4  10  20  37  60  85 109 139 179 227 280 336
#     4  11  19  30  51  76 102 140 189 235 276 319
#     4   9  20  36  56  80 109 145 184 226 277 332
#
# _framework density 17.577418999999999
#
# number of rings (size 3 to 8) (size 9 to 14) (size 15 to 20)
#    0.000    2.167    1.667    1.750    0.000    3.333 
#    0.000    2.917    0.000    2.000    0.000    0.000 
#    0.000    0.000    0.000    0.000    0.000    0.000 
#
# Total GULP energy -133643.628825 kJ/mol
# GULP energy per Si atom -5568.484534 kJ/mol
# Density = 1.753741 g / cm^3
# Si number density = 17.577419 Si / 1000 Ang^3
#
#
#
# Elastic Constant Matrix: (Units=GPa)
#
#
# Indices 1 2 3 4 5 6 
#
# 1 70.5504 46.5820 22.9259 0.0000 0.0000 0.0000
# 2 46.5820 115.3433 41.9328 0.0000 0.0000 0.0000
# 3 22.9259 41.9328 74.9507 0.0000 0.0000 0.0000
# 4 0.0000 0.0000 0.0000 21.0939 0.0000 0.0000
# 5 0.0000 0.0000 0.0000 0.0000 135.0146 0.0000
# 6 0.0000 0.0000 0.0000 0.0000 0.0000 26.4209
#
#
#
# Elastic Compliance Matrix: (Units=1/GPa)
#
#
# Indices 1 2 3 4 5 6 
#
# 1 0.019555 -0.007184 -0.001962 0.000000 0.000000 0.000000
# 2 -0.007184 0.013523 -0.005368 0.000000 0.000000 0.000000
# 3 -0.001962 -0.005368 0.016946 0.000000 0.000000 0.000000
# 4 0.000000 0.000000 0.000000 0.047407 0.000000 0.000000
# 5 0.000000 0.000000 0.000000 0.000000 0.007407 0.000000
# 6 0.000000 0.000000 0.000000 0.000000 0.000000 0.037849
#
#
# Mechanical properties :
#
#
# Convention : Reuss Voigt Hill
#
# Bulk Modulus (GPa) = 47.63115 53.74733 50.68924
# Shear Modulus (GPa) = 27.97774 46.46611 37.22192
#
# Velocity S-wave (km/s) = 3.99392 5.14709 4.60673
# Velocity P-wave (km/s) = 6.95883 8.12202 7.56282
#
# Compressibility (1/GPa) = 0.02099467
#
# Stress axis : x y z
#
# Youngs Moduli (GPa) = 51.13686 73.94978 59.01230
#
# Poissons Ratio (x) = 0.53127 0.11580
# Poissons Ratio (y) = 0.36738 0.31678
# Poissons Ratio (z) = 0.10034 0.39697
#
# Static dielectric constant tensor:
#      x y z
#    x 1.598180 0.000000 0.000000 
#    y 0.000000 1.620040 0.000000 
#    z 0.000000 0.000000 1.572390 
# 
# From -- ./inp_files/5355.got.cif
#   From: 2010.05.17/outbox.cif.g08.bks.cpg/sg35_3_cif.got.tgz:5355.got - 2010.06.03 17:29:28.
