data_PCOD9348648
_publ_section_title
;
Structure prediction by ZEFSAII (Michael W. Deem and Ramdas Pophale) SiO2 
 PCOD9348648
Probable space group: C M M 2
;
_chemical_formula_sum "Si O2"
_cell_formula_units_Z 48
_cell_length_a 8.528600
_cell_length_b 15.570604
_cell_length_c 19.457453
_cell_angle_alpha 90.000000
_cell_angle_beta 90.000000
_cell_angle_gamma 90.000000
_cell_volume 2583.861291
_symmetry_space_group_name_H-M "C M M 2"
_symmetry_group_IT_number 35
_symmetry_cell_setting 'orthorhombic'
loop_
_space_group_symop_operation_xyz
x,y,z
-x,-y,z
-x,y,z
x,-y,z
1/2+x,1/2+y,z
1/2-x,1/2-y,z
1/2-x,1/2+y,z
1/2+x,1/2-y,z
loop_
_atom_site_type_symbol
_atom_site_label
_atom_site_fract_x
_atom_site_fract_y
_atom_site_fract_z
Si Si1 0.688448 0.154885 0.628920
Si Si2 0.311552 0.654885 0.781028
Si Si3 0.687528 0.655023 0.281622
Si Si4 0.311138 0.500000 0.036734
Si Si5 0.190924 0.000000 0.878378
Si Si6 0.311138 0.000000 0.373214
Si Si7 0.812472 0.344977 0.128326
Si Si8 0.309077 0.000000 0.531569
O O1 0.500000 0.156770 0.631092
O O2 0.750000 0.250000 0.612428
O O3 0.750000 0.132234 0.704974
O O4 0.740428 0.084314 0.573689
O O5 0.500000 0.656770 0.778856
O O6 0.250000 0.750000 0.797519
O O7 0.259573 0.584314 0.836259
O O8 0.500000 0.655924 0.280196
O O9 0.750000 0.750000 0.299429
O O10 0.748768 0.583687 0.333864
O O11 0.750001 0.635006 0.204974
O O12 0.500000 0.500000 0.038929
O O13 0.248769 0.583687 0.076084
O O14 0.258775 0.500000 0.957344
O O15 0.000000 0.000000 0.878460
O O16 0.500000 0.000000 0.371018
O O17 0.258778 0.000000 0.452604
O O18 0.750000 0.250000 0.110519
O O19 0.000000 0.344076 0.129751
O O20 0.500000 0.000000 0.531488
#
# Coordination Sequence:
#
# PCOD9348648 Si02
#       8
#     8   8   8   4   4   4   8   4
#     4  10  19  35  56  81 107 140 181 226 272 322
#     4  10  19  35  56  81 107 140 181 226 272 322
#     4  11  22  39  61  87 113 146 188 233 279 331
#     4  11  22  39  58  82 116 153 186 229 280 334
#     4   9  21  37  55  78 111 147 182 221 272 326
#     4  11  22  39  58  82 116 153 186 229 280 334
#     4  11  22  39  61  87 113 146 188 233 279 331
#     4   9  21  37  55  78 111 147 182 221 272 326
#
# _framework density 18.576848999999999
#
# number of rings (size 3 to 8) (size 9 to 14) (size 15 to 20)
#    0.000    1.667    0.000    7.500    0.000    1.333 
#    0.000   12.500    0.000    0.000    0.000    0.000 
#    0.000    0.000    0.000    0.000    0.000    0.000 
#
# Total GULP energy -134137.755071 kJ/mol
# GULP energy per Si atom -5589.073128 kJ/mol
# Density = 1.853457 g / cm^3
# Si number density = 18.576849 Si / 1000 Ang^3
#
#
#
# Elastic Constant Matrix: (Units=GPa)
#
#
# Indices 1 2 3 4 5 6 
#
# 1 117.0208 52.7795 56.4827 0.0000 0.0000 0.0000
# 2 52.7795 161.1737 154.2852 0.0000 0.0000 0.0000
# 3 56.4827 154.2852 180.9911 0.0000 0.0000 0.0000
# 4 0.0000 0.0000 0.0000 -248.1598 0.0000 0.0000
# 5 0.0000 0.0000 0.0000 0.0000 22.5749 0.0000
# 6 0.0000 0.0000 0.0000 0.0000 0.0000 4.5724
#
#
#
# Elastic Compliance Matrix: (Units=1/GPa)
#
#
# Indices 1 2 3 4 5 6 
#
# 1 0.010135 -0.001583 -0.001814 0.000000 0.000000 0.000000
# 2 -0.001583 0.033970 -0.028463 0.000000 0.000000 0.000000
# 3 -0.001814 -0.028463 0.030355 0.000000 0.000000 0.000000
# 4 0.000000 0.000000 0.000000 -0.004030 0.000000 0.000000
# 5 0.000000 0.000000 0.000000 0.000000 0.044297 0.000000
# 6 0.000000 0.000000 0.000000 0.000000 0.000000 0.218703
#
#
# Mechanical properties :
#
#
# Convention : Reuss Voigt Hill
#
# Bulk Modulus (GPa) = 93.11353 109.58673 101.35013
# Shear Modulus (GPa) = 12.47727 -31.15996 -9.34134
#
# Velocity S-wave (km/s) = 2.59445 -4.09999 -2.24486
# Velocity P-wave (km/s) = 7.69462 6.05853 6.92506
#
# Compressibility (1/GPa) = 0.01073958
#
# Stress axis : x y z
#
# Youngs Moduli (GPa) = 98.67074 29.43810 32.94397
#
# Poissons Ratio (x) = 0.04659 0.05975
# Poissons Ratio (y) = 0.15617 0.93769
# Poissons Ratio (z) = 0.17895 0.83791
#
# Static dielectric constant tensor:
#      x y z
#    x 1.627890 0.000000 0.000000 
#    y 0.000000 1.622340 0.000000 
#    z 0.000000 0.000000 1.615560 
# 
# From -- ./inp_files/17957.got.cif
#   From: 2010.05.17/outbox.cif.g08.bks.cpg/sg35_9_cif.got.tgz:17957.got - 2010.06.03 17:29:28.
