data_PCOD9348073
_publ_section_title
;
Structure prediction by ZEFSAII (Michael W. Deem and Ramdas Pophale) SiO2 
 PCOD9348073
Probable space group: C M M 2
;
_chemical_formula_sum "Si O2"
_cell_formula_units_Z 64
_cell_length_a 17.186862
_cell_length_b 18.025748
_cell_length_c 10.911707
_cell_angle_alpha 90.000000
_cell_angle_beta 90.000000
_cell_angle_gamma 90.000000
_cell_volume 3380.512772
_symmetry_space_group_name_H-M "C M M 2"
_symmetry_group_IT_number 35
_symmetry_cell_setting 'orthorhombic'
loop_
_space_group_symop_operation_xyz
x,y,z
-x,-y,z
-x,y,z
x,-y,z
1/2+x,1/2+y,z
1/2-x,1/2-y,z
1/2-x,1/2+y,z
1/2+x,1/2-y,z
loop_
_atom_site_type_symbol
_atom_site_label
_atom_site_fract_x
_atom_site_fract_y
_atom_site_fract_z
Si Si1 0.756216 0.584172 0.774740
Si Si2 0.912182 0.146930 0.816968
Si Si3 0.382309 0.646729 0.097853
Si Si4 0.588259 0.582957 0.353191
Si Si5 0.158042 0.762319 0.427806
Si Si6 0.215884 0.586938 0.066894
Si Si7 0.589373 0.811166 0.189813
Si Si8 0.661373 0.778655 0.701778
O O1 0.761806 0.500000 0.734825
O O2 0.665247 0.609043 0.758425
O O3 0.821657 0.634674 0.712023
O O4 0.776785 0.590063 0.919434
O O5 0.893727 0.234496 0.795374
O O6 0.000000 0.129527 0.772659
O O7 0.907639 0.126840 0.960755
O O8 0.416023 0.597269 0.206956
O O9 0.290384 0.633417 0.110631
O O10 0.402539 0.732347 0.119881
O O11 0.500000 0.588369 0.401436
O O12 0.618269 0.500000 0.377375
O O13 0.637048 0.651862 0.403651
O O14 0.250000 0.750000 0.417159
O O15 0.117265 0.711040 0.326360
O O16 0.135170 0.742555 0.566002
O O17 0.221014 0.500000 0.101749
O O18 0.141892 0.627526 0.123996
O O19 0.500000 0.833747 0.191320
O O20 0.750000 0.750000 0.724860
#
# Coordination Sequence:
#
# PCOD9348073 Si02
#       8
#     8   8   8   8   8   8   8   8
#     4   9  19  36  56  78 106 141 180 220 264 318
#     4  10  19  31  53  84 113 141 173 215 267 315
#     4  10  18  32  52  80 111 140 177 210 251 318
#     4  10  20  34  54  80 111 142 170 211 267 322
#     4  10  20  36  55  76 104 143 189 225 258 311
#     4  10  20  34  54  78 107 143 177 217 268 320
#     4  11  21  33  53  79 107 138 174 223 275 318
#     4   9  19  36  55  74 102 144 188 223 257 309
#
# _framework density 18.932039
#
# number of rings (size 3 to 8) (size 9 to 14) (size 15 to 20)
#    0.000    2.125    0.000    5.250    0.000    4.000 
#    0.000    6.250    0.000    1.125    0.000    0.000 
#    0.000    0.000    0.000    0.000    0.000    0.000 
#
# Total GULP energy -178407.976842 kJ/mol
# GULP energy per Si atom -5575.249276 kJ/mol
# Density = 1.888895 g / cm^3
# Si number density = 18.932039 Si / 1000 Ang^3
#
#
#
# Elastic Constant Matrix: (Units=GPa)
#
#
# Indices 1 2 3 4 5 6 
#
# 1 99.3549 43.9650 25.6669 0.0000 0.0000 0.0000
# 2 43.9650 107.3110 27.3510 0.0000 0.0000 0.0000
# 3 25.6669 27.3510 40.1135 0.0000 0.0000 0.0000
# 4 0.0000 0.0000 0.0000 15.3254 0.0000 0.0000
# 5 0.0000 0.0000 0.0000 0.0000 5.9984 0.0000
# 6 0.0000 0.0000 0.0000 0.0000 0.0000 26.4895
#
#
#
# Elastic Compliance Matrix: (Units=1/GPa)
#
#
# Indices 1 2 3 4 5 6 
#
# 1 0.013328 -0.003978 -0.005815 0.000000 0.000000 0.000000
# 2 -0.003978 0.012466 -0.005955 0.000000 0.000000 0.000000
# 3 -0.005815 -0.005955 0.032710 0.000000 0.000000 0.000000
# 4 0.000000 0.000000 0.000000 0.065251 0.000000 0.000000
# 5 0.000000 0.000000 0.000000 0.000000 0.166710 0.000000
# 6 0.000000 0.000000 0.000000 0.000000 0.000000 0.037751
#
#
# Mechanical properties :
#
#
# Convention : Reuss Voigt Hill
#
# Bulk Modulus (GPa) = 37.02586 48.97170 42.99878
# Shear Modulus (GPa) = 13.56063 19.54911 16.55487
#
# Velocity S-wave (km/s) = 2.67924 3.21689 2.96030
# Velocity P-wave (km/s) = 5.40100 6.30247 5.86907
#
# Compressibility (1/GPa) = 0.02700815
#
# Stress axis : x y z
#
# Youngs Moduli (GPa) = 75.03263 80.21700 30.57144
#
# Poissons Ratio (x) = 0.31911 0.17778
# Poissons Ratio (y) = 0.29849 0.18204
# Poissons Ratio (z) = 0.43634 0.47766
#
# Static dielectric constant tensor:
#      x y z
#    x 1.577090 0.000000 0.000000 
#    y 0.000000 1.671310 0.000000 
#    z 0.000000 0.000000 1.681290 
# 
# From -- ./inp_files/13186.got.cif
#   From: 2010.05.17/outbox.cif.g08.bks.cpg/sg35_7_cif.got.tgz:13186.got - 2010.06.03 17:29:28.
