data_PCOD9348065
_publ_section_title
;
Structure prediction by ZEFSAII (Michael W. Deem and Ramdas Pophale) SiO2 
 PCOD9348065
Probable space group: C M M 2
;
_chemical_formula_sum "Si O2"
_cell_formula_units_Z 64
_cell_length_a 8.648412
_cell_length_b 29.142259
_cell_length_c 15.983877
_cell_angle_alpha 90.000000
_cell_angle_beta 90.000000
_cell_angle_gamma 90.000000
_cell_volume 4028.484651
_symmetry_space_group_name_H-M "C M M 2"
_symmetry_group_IT_number 35
_symmetry_cell_setting 'orthorhombic'
loop_
_space_group_symop_operation_xyz
x,y,z
-x,-y,z
-x,y,z
x,-y,z
1/2+x,1/2+y,z
1/2-x,1/2-y,z
1/2-x,1/2+y,z
1/2+x,1/2-y,z
loop_
_atom_site_type_symbol
_atom_site_label
_atom_site_fract_x
_atom_site_fract_y
_atom_site_fract_z
Si Si1 0.815864 0.301711 0.709220
Si Si2 0.313852 0.698790 0.381397
Si Si3 0.186753 0.854531 0.550766
Si Si4 0.684762 0.301968 0.883519
Si Si5 0.815592 0.301764 0.058011
Si Si6 0.815358 0.552503 0.283172
Si Si7 0.314797 0.643538 0.214852
Si Si8 0.814215 0.948103 0.469560
O O1 0.750000 0.250000 0.697398
O O2 0.765327 0.332285 0.630976
O O3 0.746866 0.321403 0.796023
O O4 0.000000 0.298643 0.715964
O O5 0.500000 0.700341 0.380724
O O6 0.250000 0.750000 0.378680
O O7 0.268051 0.673406 0.467010
O O8 0.265484 0.670348 0.299492
O O9 0.227970 0.907499 0.532694
O O10 0.000000 0.851248 0.559870
O O11 0.500000 0.301416 0.884107
O O12 0.750000 0.250000 0.883217
O O13 0.748712 0.321373 0.970628
O O14 0.750000 0.250000 0.069137
O O15 0.762466 0.332358 0.135632
O O16 0.000000 0.298996 0.052823
O O17 0.772723 0.500000 0.261281
O O18 0.735308 0.591063 0.227393
O O19 0.763117 0.559620 0.379389
O O20 0.000000 0.557010 0.277698
O O21 0.500000 0.646855 0.207709
O O22 0.000000 0.945205 0.456914
O O23 0.776958 0.000000 0.497204
#
# Coordination Sequence:
#
# PCOD9348065 Si02
#       8
#     8   8   8   8   8   8   8   8
#     4  11  21  33  49  72  99 132 167 205 248 294
#     4  10  21  33  45  64  94 132 168 203 237 282
#     4  10  19  33  48  70  98 129 167 205 244 293
#     4  10  18  32  52  73  97 129 164 206 249 292
#     4  11  21  34  51  75 104 135 168 207 248 296
#     4  10  20  33  50  73  99 127 163 209 258 302
#     4  11  21  35  51  71  97 133 174 209 248 296
#     4   9  17  32  53  72  94 127 165 207 252 296
#
# _framework density 15.886865999999999
#
# number of rings (size 3 to 8) (size 9 to 14) (size 15 to 20)
#    0.000    1.750    1.250    6.375    0.000    4.750 
#    0.000    0.000    0.000    0.000    0.000    0.875 
#    0.000    5.000    0.000    0.000    0.000    0.000 
#
# Total GULP energy -178606.383918 kJ/mol
# GULP energy per Si atom -5581.449497 kJ/mol
# Density = 1.585071 g / cm^3
# Si number density = 15.886866 Si / 1000 Ang^3
#
#
#
# Elastic Constant Matrix: (Units=GPa)
#
#
# Indices 1 2 3 4 5 6 
#
# 1 93.5244 41.3074 58.6783 0.0000 0.0000 0.0000
# 2 41.3074 94.8383 60.9962 0.0000 0.0000 0.0000
# 3 58.6783 60.9962 143.9637 0.0000 0.0000 0.0000
# 4 0.0000 0.0000 0.0000 7.4658 0.0000 0.0000
# 5 0.0000 0.0000 0.0000 0.0000 28.2570 0.0000
# 6 0.0000 0.0000 0.0000 0.0000 0.0000 19.8459
#
#
#
# Elastic Compliance Matrix: (Units=1/GPa)
#
#
# Indices 1 2 3 4 5 6 
#
# 1 0.015224 -0.003629 -0.004668 0.000000 0.000000 0.000000
# 2 -0.003629 0.015359 -0.005028 0.000000 0.000000 0.000000
# 3 -0.004668 -0.005028 0.010979 0.000000 0.000000 0.000000
# 4 0.000000 0.000000 0.000000 0.133945 0.000000 0.000000
# 5 0.000000 0.000000 0.000000 0.000000 0.035389 0.000000
# 6 0.000000 0.000000 0.000000 0.000000 0.000000 0.050388
#
#
# Mechanical properties :
#
#
# Convention : Reuss Voigt Hill
#
# Bulk Modulus (GPa) = 67.05897 72.69890 69.87893
# Shear Modulus (GPa) = 17.07045 22.53672 19.80359
#
# Velocity S-wave (km/s) = 3.28151 3.77048 3.53447
# Velocity P-wave (km/s) = 7.52727 8.05078 7.79342
#
# Compressibility (1/GPa) = 0.01491225
#
# Stress axis : x y z
#
# Youngs Moduli (GPa) = 65.68757 65.10917 91.08213
#
# Poissons Ratio (x) = 0.23627 0.42513
# Poissons Ratio (y) = 0.23836 0.45799
# Poissons Ratio (z) = 0.30660 0.32739
#
# Static dielectric constant tensor:
#      x y z
#    x 1.533560 0.000000 0.000000 
#    y 0.000000 1.536530 0.000000 
#    z 0.000000 0.000000 1.535310 
# 
# From -- ./inp_files/16174.got.cif
#   From: 2010.05.17/outbox.cif.g08.bks.cpg/sg35_9_cif.got.tgz:16174.got - 2010.06.03 17:29:28.
