data_PCOD9348326
_publ_section_title
;
Structure prediction by ZEFSAII (Michael W. Deem and Ramdas Pophale) SiO2 
 PCOD9348326
Probable space group: C M M 2
;
_chemical_formula_sum "Si O2"
_cell_formula_units_Z 64
_cell_length_a 20.791136
_cell_length_b 20.334098
_cell_length_c 7.264205
_cell_angle_alpha 90.000000
_cell_angle_beta 90.000000
_cell_angle_gamma 90.000000
_cell_volume 3071.080662
_symmetry_space_group_name_H-M "C M M 2"
_symmetry_group_IT_number 35
_symmetry_cell_setting 'orthorhombic'
loop_
_space_group_symop_operation_xyz
x,y,z
-x,-y,z
-x,y,z
x,-y,z
1/2+x,1/2+y,z
1/2-x,1/2-y,z
1/2-x,1/2+y,z
1/2+x,1/2-y,z
loop_
_atom_site_type_symbol
_atom_site_label
_atom_site_fract_x
_atom_site_fract_y
_atom_site_fract_z
Si Si1 0.688895 0.209447 0.418740
Si Si2 0.890546 0.925805 0.443880
Si Si3 0.246022 0.427424 0.339355
Si Si4 0.570619 0.238551 0.936674
Si Si5 0.289950 0.571657 0.913385
Si Si6 0.296439 0.805905 0.851596
Si Si7 0.930295 0.782933 0.511627
Si Si8 0.926791 0.890514 0.025614
O O1 0.750000 0.250000 0.347215
O O2 0.698688 0.133777 0.364818
O O3 0.691767 0.212513 0.640274
O O4 0.623035 0.248072 0.385455
O O5 0.812874 0.918609 0.450420
O O6 0.918188 0.860610 0.536384
O O7 0.907511 0.000000 0.504285
O O8 0.914004 0.917963 0.231115
O O9 0.218972 0.500000 0.380632
O O10 0.270845 0.428272 0.129326
O O11 0.500000 0.211276 0.988558
O O12 0.635497 0.195502 0.957897
O O13 0.568140 0.252679 0.716041
O O14 0.578055 0.311267 0.022508
O O15 0.275792 0.500000 0.835302
O O16 0.244400 0.627998 0.838674
O O17 0.366316 0.584564 0.905998
O O18 0.250000 0.750000 0.932784
O O19 0.000000 0.774155 0.425135
O O20 0.000000 0.907744 0.968846
#
# Coordination Sequence:
#
# PCOD9348326 Si02
#       8
#     8   8   8   8   8   8   8   8
#     4  10  19  33  54  76 100 131 169 209 252 297
#     4  10  20  33  49  71 102 139 173 204 239 289
#     4   9  19  34  51  75 103 132 168 207 249 296
#     4   9  19  35  53  73 100 133 169 209 251 297
#     4  10  21  34  50  75 104 134 169 208 249 296
#     4  10  19  33  53  76 101 129 168 212 253 294
#     4  10  20  34  52  75 103 133 168 208 250 298
#     4  10  19  32  50  71 101 139 172 201 239 289
#
# _framework density 20.839570999999999
#
# number of rings (size 3 to 8) (size 9 to 14) (size 15 to 20)
#    0.000    2.250    2.500    1.500    0.000    3.750 
#    0.000    2.500    0.000    5.250    0.000    5.250 
#    0.000    0.000    0.000    0.000    0.000    0.000 
#
# Total GULP energy -178677.917061 kJ/mol
# GULP energy per Si atom -5583.684908 kJ/mol
# Density = 2.079214 g / cm^3
# Si number density = 20.839571 Si / 1000 Ang^3
#
#
#
# Elastic Constant Matrix: (Units=GPa)
#
#
# Indices 1 2 3 4 5 6 
#
# 1 162.8540 94.2038 17.4215 0.0000 0.0000 0.0000
# 2 94.2038 117.2634 -0.8803 0.0000 0.0000 0.0000
# 3 17.4215 -0.8803 36.1022 0.0000 0.0000 0.0000
# 4 0.0000 0.0000 0.0000 22.8864 0.0000 0.0000
# 5 0.0000 0.0000 0.0000 0.0000 8.5930 0.0000
# 6 0.0000 0.0000 0.0000 0.0000 0.0000 20.9714
#
#
#
# Elastic Compliance Matrix: (Units=1/GPa)
#
#
# Indices 1 2 3 4 5 6 
#
# 1 0.012809 -0.010338 -0.006433 0.000000 0.000000 0.000000
# 2 -0.010338 0.016874 0.005400 0.000000 0.000000 0.000000
# 3 -0.006433 0.005400 0.030935 0.000000 0.000000 0.000000
# 4 0.000000 0.000000 0.000000 0.043694 0.000000 0.000000
# 5 0.000000 0.000000 0.000000 0.000000 0.116373 0.000000
# 6 0.000000 0.000000 0.000000 0.000000 0.000000 0.047684
#
#
# Mechanical properties :
#
#
# Convention : Reuss Voigt Hill
#
# Bulk Modulus (GPa) = 26.40237 59.74551 43.07394
# Shear Modulus (GPa) = 16.46161 24.18847 20.32504
#
# Velocity S-wave (km/s) = 2.81360 3.41060 3.12638
# Velocity P-wave (km/s) = 4.82203 6.65140 5.80918
#
# Compressibility (1/GPa) = 0.03787539
#
# Stress axis : x y z
#
# Youngs Moduli (GPa) = 78.07020 59.26366 32.32564
#
# Poissons Ratio (x) = 0.61269 0.20796
# Poissons Ratio (y) = 0.80712 -0.17457
# Poissons Ratio (z) = 0.50224 -0.32004
#
# Static dielectric constant tensor:
#      x y z
#    x 1.788210 0.000000 0.000000 
#    y 0.000000 1.715500 0.000000 
#    z 0.000000 0.000000 1.841090 
# 
# From -- ./inp_files/8729.got.cif
#   From: 2010.05.17/outbox.cif.g08.bks.cpg/sg35_5_cif.got.tgz:8729.got - 2010.06.03 17:29:28.
