data_PCOD9348569
_publ_section_title
;
Structure prediction by ZEFSAII (Michael W. Deem and Ramdas Pophale) SiO2 
 PCOD9348569
Probable space group: C M M 2
;
_chemical_formula_sum "Si O2"
_cell_formula_units_Z 64
_cell_length_a 29.936924
_cell_length_b 8.956706
_cell_length_c 12.284343
_cell_angle_alpha 90.000000
_cell_angle_beta 90.000000
_cell_angle_gamma 90.000000
_cell_volume 3293.877381
_symmetry_space_group_name_H-M "C M M 2"
_symmetry_group_IT_number 35
_symmetry_cell_setting 'orthorhombic'
loop_
_space_group_symop_operation_xyz
x,y,z
-x,-y,z
-x,y,z
x,-y,z
1/2+x,1/2+y,z
1/2-x,1/2-y,z
1/2-x,1/2+y,z
1/2+x,1/2-y,z
loop_
_atom_site_type_symbol
_atom_site_label
_atom_site_fract_x
_atom_site_fract_y
_atom_site_fract_z
Si Si1 0.449511 0.273567 0.875000
Si Si2 0.048036 0.672467 0.115055
Si Si3 0.130554 0.680176 0.497800
Si Si4 0.050652 0.178584 0.633578
Si Si5 0.797546 0.676430 0.070890
Si Si6 0.633704 0.181934 0.244273
Si Si7 0.152708 0.836573 0.885291
Si Si8 0.298805 0.321870 0.656074
O O1 0.500000 0.342514 0.881958
O O2 0.447985 0.230101 0.747651
O O3 0.400771 0.346693 0.884792
O O4 0.448442 0.174004 0.983839
O O5 0.046366 0.500000 0.148908
O O6 0.090664 0.738354 0.176372
O O7 0.000000 0.743448 0.142852
O O8 0.128079 0.500000 0.507665
O O9 0.087801 0.756969 0.554211
O O10 0.131972 0.721059 0.370465
O O11 0.173973 0.742181 0.559916
O O12 0.000000 0.190257 0.590558
O O13 0.058562 0.000000 0.656864
O O14 0.792067 0.500000 0.076694
O O15 0.750000 0.750000 0.053640
O O16 0.822154 0.731535 0.180312
O O17 0.830020 0.717613 0.971372
O O18 0.633687 0.000000 0.238395
O O19 0.172020 0.801422 0.766072
O O20 0.170867 0.000000 0.916866
O O21 0.295253 0.500000 0.637281
O O22 0.250000 0.250000 0.669556
#
# Coordination Sequence:
#
# PCOD9348569 Si02
#       8
#     8   8   8   8   8   8   8   8
#     4  10  19  33  59  91 122 158 195 233 286 354
#     4   9  17  32  56  87 122 157 193 239 295 352
#     4  11  23  39  62  90 120 156 204 253 298 353
#     4  10  21  39  61  86 123 166 202 243 299 356
#     4  11  23  41  63  88 119 153 194 244 301 357
#     4   9  20  38  58  84 117 156 198 244 297 350
#     4  11  22  38  62  92 123 157 195 236 292 355
#     4  11  24  43  64  89 121 157 198 246 303 360
#
# _framework density 19.429988999999999
#
# number of rings (size 3 to 8) (size 9 to 14) (size 15 to 20)
#    0.000    1.750    2.500    1.875    0.000    4.500 
#    0.000    6.250    0.000    0.000    0.000    0.000 
#    0.000    0.000    0.000    0.000    0.000    0.000 
#
# Total GULP energy -178234.850070 kJ/mol
# GULP energy per Si atom -5569.839065 kJ/mol
# Density = 1.938577 g / cm^3
# Si number density = 19.429989 Si / 1000 Ang^3
#
#
#
# Elastic Constant Matrix: (Units=GPa)
#
#
# Indices 1 2 3 4 5 6 
#
# 1 157.2493 39.2455 51.6179 0.0000 0.0000 0.0000
# 2 39.2455 41.4179 30.4966 0.0000 0.0000 0.0000
# 3 51.6179 30.4966 96.4683 0.0000 0.0000 0.0000
# 4 0.0000 0.0000 0.0000 16.3253 0.0000 0.0000
# 5 0.0000 0.0000 0.0000 0.0000 13.1700 0.0000
# 6 0.0000 0.0000 0.0000 0.0000 0.0000 -4.9325
#
#
#
# Elastic Compliance Matrix: (Units=1/GPa)
#
#
# Indices 1 2 3 4 5 6 
#
# 1 0.008843 -0.006380 -0.002715 0.000000 0.000000 0.000000
# 2 -0.006380 0.036073 -0.007990 0.000000 0.000000 0.000000
# 3 -0.002715 -0.007990 0.014344 0.000000 0.000000 0.000000
# 4 0.000000 0.000000 0.000000 0.061255 0.000000 0.000000
# 5 0.000000 0.000000 0.000000 0.000000 0.075930 0.000000
# 6 0.000000 0.000000 0.000000 0.000000 0.000000 -0.202736
#
#
# Mechanical properties :
#
#
# Convention : Reuss Voigt Hill
#
# Bulk Modulus (GPa) = 39.85528 59.76172 49.80850
# Shear Modulus (GPa) = 137.96417 16.49759 77.23088
#
# Velocity S-wave (km/s) = 8.43563 2.91706 6.31146
# Velocity P-wave (km/s) = 10.74415 6.49383 8.87712
#
# Compressibility (1/GPa) = 0.02509078
#
# Stress axis : x y z
#
# Youngs Moduli (GPa) = 113.08733 27.72180 69.71343
#
# Poissons Ratio (x) = 0.17687 0.18924
# Poissons Ratio (y) = 0.72151 0.55700
# Poissons Ratio (z) = 0.30698 0.22149
#
# Static dielectric constant tensor:
#      x y z
#    x 1.688800 0.000000 0.000000 
#    y 0.000000 1.686210 0.000000 
#    z 0.000000 0.000000 1.659480 
# 
# From -- ./inp_files/12029.got.cif
#   From: 2010.05.17/outbox.cif.g08.bks.cpg/sg35_7_cif.got.tgz:12029.got - 2010.06.03 17:29:28.
