data_PCOD9348095
_publ_section_title
;
Structure prediction by ZEFSAII (Michael W. Deem and Ramdas Pophale) SiO2 
 PCOD9348095
Probable space group: C M M 2
;
_chemical_formula_sum "Si O2"
_cell_formula_units_Z 64
_cell_length_a 32.217750
_cell_length_b 7.799043
_cell_length_c 12.221079
_cell_angle_alpha 90.000000
_cell_angle_beta 90.000000
_cell_angle_gamma 90.000000
_cell_volume 3070.761405
_symmetry_space_group_name_H-M "C M M 2"
_symmetry_group_IT_number 35
_symmetry_cell_setting 'orthorhombic'
loop_
_space_group_symop_operation_xyz
x,y,z
-x,-y,z
-x,y,z
x,-y,z
1/2+x,1/2+y,z
1/2-x,1/2-y,z
1/2-x,1/2+y,z
1/2+x,1/2-y,z
loop_
_atom_site_type_symbol
_atom_site_label
_atom_site_fract_x
_atom_site_fract_y
_atom_site_fract_z
Si Si1 0.078860 0.292385 0.274160
Si Si2 0.796248 0.293710 0.513846
Si Si3 0.795845 0.796842 0.041292
Si Si4 0.046493 0.709616 0.511603
Si Si5 0.325650 0.205495 0.279166
Si Si6 0.624943 0.206747 0.652909
Si Si7 0.045588 0.204387 0.038217
Si Si8 0.874753 0.793327 0.907242
O O1 0.078983 0.500000 0.272930
O O2 0.057650 0.238591 0.387518
O O3 0.126744 0.232257 0.271911
O O4 0.055757 0.232801 0.165583
O O5 0.798976 0.500000 0.511633
O O6 0.750000 0.250000 0.551127
O O7 0.804082 0.229285 0.389800
O O8 0.833715 0.230858 0.590428
O O9 0.750000 0.750000 0.002328
O O10 0.802231 0.744896 0.167306
O O11 0.798847 0.000000 0.037745
O O12 0.833695 0.725706 0.968844
O O13 0.046662 0.500000 0.513031
O O14 0.083278 0.767932 0.591560
O O15 0.000000 0.765566 0.541287
O O16 0.327787 0.000000 0.288750
O O17 0.625458 0.252923 0.779645
O O18 0.624866 0.000000 0.644276
O O19 0.000000 0.275446 0.011856
O O20 0.044219 0.000000 0.019676
O O21 0.083818 0.273731 0.966993
O O22 0.874806 0.000000 0.918837
#
# Coordination Sequence:
#
# PCOD9348095 Si02
#       8
#     8   8   8   8   8   8   8   8
#     4  10  18  32  58  88 116 146 182 225 274 330
#     4  10  21  37  56  82 114 145 180 222 274 328
#     4  11  23  39  59  83 113 146 185 229 278 333
#     4   9  17  32  56  85 115 145 177 220 277 330
#     4  10  19  34  58  86 117 148 180 223 276 332
#     4  10  21  38  58  80 108 144 186 232 274 318
#     4  10  21  38  58  81 114 151 184 225 279 333
#     4  10  23  41  57  78 109 147 188 230 278 329
#
# _framework density 20.841736999999998
#
# number of rings (size 3 to 8) (size 9 to 14) (size 15 to 20)
#    0.000    2.000    2.500    1.125    0.000    5.250 
#    0.000    3.125    0.000    0.750    0.000    0.000 
#    0.000    0.000    0.000    0.000    0.000    0.000 
#
# Total GULP energy -178769.243187 kJ/mol
# GULP energy per Si atom -5586.538850 kJ/mol
# Density = 2.079430 g / cm^3
# Si number density = 20.841737 Si / 1000 Ang^3
#
#
#
# Elastic Constant Matrix: (Units=GPa)
#
#
# Indices 1 2 3 4 5 6 
#
# 1 225.8846 10.1343 101.9935 0.0000 0.0000 0.0000
# 2 10.1343 25.3504 -1.4922 0.0000 0.0000 0.0000
# 3 101.9935 -1.4922 157.9789 0.0000 0.0000 0.0000
# 4 0.0000 0.0000 0.0000 30.8218 0.0000 0.0000
# 5 0.0000 0.0000 0.0000 0.0000 4.8432 0.0000
# 6 0.0000 0.0000 0.0000 0.0000 0.0000 14.4372
#
#
#
# Elastic Compliance Matrix: (Units=1/GPa)
#
#
# Indices 1 2 3 4 5 6 
#
# 1 0.006444 -0.002823 -0.004187 0.000000 0.000000 0.000000
# 2 -0.002823 0.040705 0.002207 0.000000 0.000000 0.000000
# 3 -0.004187 0.002207 0.009054 0.000000 0.000000 0.000000
# 4 0.000000 0.000000 0.000000 0.032445 0.000000 0.000000
# 5 0.000000 0.000000 0.000000 0.000000 0.206475 0.000000
# 6 0.000000 0.000000 0.000000 0.000000 0.000000 0.069265
#
#
# Mechanical properties :
#
#
# Convention : Reuss Voigt Hill
#
# Bulk Modulus (GPa) = 21.46025 70.05389 45.75707
# Shear Modulus (GPa) = 12.83608 29.92568 21.38088
#
# Velocity S-wave (km/s) = 2.48439 3.79338 3.20639
# Velocity P-wave (km/s) = 4.30682 7.27128 5.97580
#
# Compressibility (1/GPa) = 0.04659778
#
# Stress axis : x y z
#
# Youngs Moduli (GPa) = 155.17524 24.56675 110.44683
#
# Poissons Ratio (x) = 0.06934 0.46246
# Poissons Ratio (y) = 0.43801 -0.24374
# Poissons Ratio (z) = 0.64975 -0.05422
#
# Static dielectric constant tensor:
#      x y z
#    x 1.762530 0.000000 0.000000 
#    y 0.000000 1.771370 0.000000 
#    z 0.000000 0.000000 1.699450 
# 
# From -- ./inp_files/11967.got.cif
#   From: 2010.05.17/outbox.cif.g08.bks.cpg/sg35_6_cif.got.tgz:11967.got - 2010.06.03 17:29:28.
