data_PCOD9348102
_publ_section_title
;
Structure prediction by ZEFSAII (Michael W. Deem and Ramdas Pophale) SiO2 
 PCOD9348102
Probable space group: C M M 2
;
_chemical_formula_sum "Si O2"
_cell_formula_units_Z 58
_cell_length_a 8.814703
_cell_length_b 30.714206
_cell_length_c 12.832351
_cell_angle_alpha 90.000000
_cell_angle_beta 90.000000
_cell_angle_gamma 90.000000
_cell_volume 3474.187128
_symmetry_space_group_name_H-M "C M M 2"
_symmetry_group_IT_number 35
_symmetry_cell_setting 'orthorhombic'
loop_
_space_group_symop_operation_xyz
x,y,z
-x,-y,z
-x,y,z
x,-y,z
1/2+x,1/2+y,z
1/2-x,1/2-y,z
1/2-x,1/2+y,z
1/2+x,1/2-y,z
loop_
_atom_site_type_symbol
_atom_site_label
_atom_site_fract_x
_atom_site_fract_y
_atom_site_fract_z
Si Si1 0.682661 0.201769 0.267110
Si Si2 0.817809 0.702549 0.505081
Si Si3 0.181803 0.137471 0.096256
Si Si4 0.668714 0.576384 0.805026
Si Si5 0.681952 0.950479 0.021681
Si Si6 0.819304 0.795192 0.915039
Si Si7 0.500000 0.500000 0.709433
Si Si8 0.818773 0.661713 0.718476
O O1 0.500000 0.203520 0.257524
O O2 0.750000 0.250000 0.246328
O O3 0.723939 0.190029 0.386960
O O4 0.750414 0.166307 0.189227
O O5 0.750000 0.750000 0.524941
O O6 0.770441 0.671867 0.600215
O O7 0.000000 0.705507 0.507200
O O8 0.250448 0.089113 0.089042
O O9 0.000000 0.135339 0.104624
O O10 0.220551 0.164491 0.990743
O O11 0.500000 0.593379 0.838610
O O12 0.629599 0.538259 0.724429
O O13 0.763296 0.614654 0.754721
O O14 0.748906 0.556886 0.906585
O O15 0.500000 0.946793 0.018403
O O16 0.720737 0.000000 0.055380
O O17 0.750000 0.750000 0.955590
O O18 0.753794 0.804964 0.800908
O O19 0.000000 0.791280 0.911601
O O20 0.000000 0.664962 0.725464
#
# Coordination Sequence:
#
# PCOD9348102 Si02
#       8
#     8   8   8   8   8   8   2   8
#     4  10  20  37  58  79 107 141 183 229 270 318
#     4   9  20  36  54  78 107 140 181 227 268 310
#     4  11  23  36  54  79 109 143 181 222 268 321
#     4  10  18  33  50  74 105 141 175 216 264 316
#     4  11  21  34  54  81 108 140 179 222 270 322
#     4  11  23  35  48  72 109 149 179 213 261 318
#     4   8  20  32  54  72 108 142 182 220 272 316
#     4  11  21  33  52  79 109 142 181 221 267 323
#
# _framework density 16.694552999999999
#
# number of rings (size 3 to 8) (size 9 to 14) (size 15 to 20)
#    0.414    1.241    2.069    3.310    0.000    6.345 
#    0.000    0.000    0.000    0.000    1.793    0.000 
#    0.000    0.000    0.000    0.000    0.000    0.000 
#
# Total GULP energy -161496.922411 kJ/mol
# GULP energy per Si atom -5568.859393 kJ/mol
# Density = 1.665656 g / cm^3
# Si number density = 16.694553 Si / 1000 Ang^3
#
#
#
# Elastic Constant Matrix: (Units=GPa)
#
#
# Indices 1 2 3 4 5 6 
#
# 1 57.8005 41.6702 36.9948 0.0000 0.0000 0.0000
# 2 41.6702 121.1280 56.9440 0.0000 0.0000 0.0000
# 3 36.9948 56.9440 86.3620 0.0000 0.0000 0.0000
# 4 0.0000 0.0000 0.0000 17.9725 0.0000 0.0000
# 5 0.0000 0.0000 0.0000 0.0000 16.4026 0.0000
# 6 0.0000 0.0000 0.0000 0.0000 0.0000 29.1328
#
#
#
# Elastic Compliance Matrix: (Units=1/GPa)
#
#
# Indices 1 2 3 4 5 6 
#
# 1 0.026054 -0.005386 -0.007610 0.000000 0.000000 0.000000
# 2 -0.005386 0.013078 -0.006316 0.000000 0.000000 0.000000
# 3 -0.007610 -0.006316 0.019003 0.000000 0.000000 0.000000
# 4 0.000000 0.000000 0.000000 0.055641 0.000000 0.000000
# 5 0.000000 0.000000 0.000000 0.000000 0.060966 0.000000
# 6 0.000000 0.000000 0.000000 0.000000 0.000000 0.034326
#
#
# Mechanical properties :
#
#
# Convention : Reuss Voigt Hill
#
# Bulk Modulus (GPa) = 51.24863 59.61206 55.43034
# Shear Modulus (GPa) = 19.67003 21.34702 20.50853
#
# Velocity S-wave (km/s) = 3.43626 3.57975 3.50874
# Velocity P-wave (km/s) = 6.81970 7.27125 7.04909
#
# Compressibility (1/GPa) = 0.01951272
#
# Stress axis : x y z
#
# Youngs Moduli (GPa) = 38.38166 76.46616 52.62217
#
# Poissons Ratio (x) = 0.41182 0.40044
# Poissons Ratio (y) = 0.20671 0.33236
# Poissons Ratio (z) = 0.29207 0.48295
#
# Static dielectric constant tensor:
#      x y z
#    x 1.564680 0.000000 0.000000 
#    y 0.000000 1.558670 0.000000 
#    z 0.000000 0.000000 1.569300 
# 
# From -- ./inp_files/11784.got.cif
#   From: 2010.05.17/outbox.cif.g08.bks.cpg/sg35_6_cif.got.tgz:11784.got - 2010.06.03 17:29:28.
