data_PCOD9348673
_publ_section_title
;
Structure prediction by ZEFSAII (Michael W. Deem and Ramdas Pophale) SiO2 
 PCOD9348673
Probable space group: C M M 2
;
_chemical_formula_sum "Si O2"
_cell_formula_units_Z 48
_cell_length_a 8.621493
_cell_length_b 15.918385
_cell_length_c 17.923785
_cell_angle_alpha 90.000000
_cell_angle_beta 90.000000
_cell_angle_gamma 90.000000
_cell_volume 2459.864642
_symmetry_space_group_name_H-M "C M M 2"
_symmetry_group_IT_number 35
_symmetry_cell_setting 'orthorhombic'
loop_
_space_group_symop_operation_xyz
x,y,z
-x,-y,z
-x,y,z
x,-y,z
1/2+x,1/2+y,z
1/2-x,1/2-y,z
1/2-x,1/2+y,z
1/2+x,1/2-y,z
loop_
_atom_site_type_symbol
_atom_site_label
_atom_site_fract_x
_atom_site_fract_y
_atom_site_fract_z
Si Si1 0.312888 0.154554 0.974020
Si Si2 0.326065 0.400388 0.292478
Si Si3 0.812649 0.161585 0.611339
Si Si4 0.189375 0.901960 0.451971
Si Si5 0.184119 0.656827 0.141027
Si Si6 0.811057 0.000000 0.705718
Si Si7 0.313238 0.500000 0.878385
O O1 0.500000 0.157213 0.969657
O O2 0.250000 0.250000 0.962302
O O3 0.248795 0.084238 0.918353
O O4 0.266636 0.126545 0.058634
O O5 0.500000 0.365045 0.283052
O O6 0.338752 0.500000 0.305165
O O7 0.256145 0.368717 0.371044
O O8 0.238718 0.388883 0.215347
O O9 0.750000 0.250000 0.639213
O O10 0.760610 0.146653 0.525743
O O11 0.761000 0.083216 0.661566
O O12 0.000000 0.162567 0.611451
O O13 0.000000 0.899935 0.448852
O O14 0.233219 0.000000 0.461917
O O15 0.250000 0.750000 0.147413
O O16 0.000000 0.658234 0.140599
O O17 0.764092 0.000000 0.791770
O O18 0.000000 0.000000 0.704061
O O19 0.500000 0.500000 0.881958
#
# Coordination Sequence:
#
# PCOD9348673 Si02
#       7
#     8   8   8   8   8   4   4
#     4  10  22  41  62  87 118 154 195 241 290 346
#     4   9  18  31  50  79 110 144 188 229 270 324
#     4  10  19  35  59  84 111 148 189 229 276 331
#     4   8  14  29  53  76 104 147 191 228 268 324
#     4  10  21  36  54  75 106 145 186 230 280 330
#     4   9  20  39  61  84 113 148 186 225 275 345
#     4  11  23  39  63  92 117 150 192 235 293 357
#
# _framework density 19.513269000000001
#
# number of rings (size 3 to 8) (size 9 to 14) (size 15 to 20)
#    0.000    2.500    0.833    2.250    1.167    3.667 
#    0.000    6.250    0.000    1.000    0.000    0.000 
#    0.000    0.000    0.000    0.000    0.000    0.000 
#
# Total GULP energy -133798.730587 kJ/mol
# GULP energy per Si atom -5574.947108 kJ/mol
# Density = 1.946886 g / cm^3
# Si number density = 19.513269 Si / 1000 Ang^3
#
#
#
# Elastic Constant Matrix: (Units=GPa)
#
#
# Indices 1 2 3 4 5 6 
#
# 1 29.0268 21.9621 36.6854 0.0000 0.0000 0.0000
# 2 21.9621 109.6594 85.8670 0.0000 0.0000 0.0000
# 3 36.6854 85.8670 179.1245 0.0000 0.0000 0.0000
# 4 0.0000 0.0000 0.0000 -13.3925 0.0000 0.0000
# 5 0.0000 0.0000 0.0000 0.0000 -17.6962 0.0000
# 6 0.0000 0.0000 0.0000 0.0000 0.0000 27.0257
#
#
#
# Elastic Compliance Matrix: (Units=1/GPa)
#
#
# Indices 1 2 3 4 5 6 
#
# 1 0.047095 -0.003009 -0.008203 0.000000 0.000000 0.000000
# 2 -0.003009 0.014791 -0.006474 0.000000 0.000000 0.000000
# 3 -0.008203 -0.006474 0.010366 0.000000 0.000000 0.000000
# 4 0.000000 0.000000 0.000000 -0.074669 0.000000 0.000000
# 5 0.000000 0.000000 0.000000 0.000000 -0.056509 0.000000
# 6 0.000000 0.000000 0.000000 0.000000 0.000000 0.037002
#
#
# Mechanical properties :
#
#
# Convention : Reuss Voigt Hill
#
# Bulk Modulus (GPa) = 27.11477 67.42665 47.27071
# Shear Modulus (GPa) = 194.24070 10.74048 102.49059
#
# Velocity S-wave (km/s) = 9.98794 2.34865 7.25517
# Velocity P-wave (km/s) = 12.12179 6.47952 9.71910
#
# Compressibility (1/GPa) = 0.03688027
#
# Stress axis : x y z
#
# Youngs Moduli (GPa) = 21.23390 67.60711 96.46664
#
# Poissons Ratio (x) = 0.20342 0.79130
# Poissons Ratio (y) = 0.06389 0.62456
# Poissons Ratio (z) = 0.17418 0.43771
#
# Static dielectric constant tensor:
#      x y z
#    x 1.685230 0.000000 0.000000 
#    y 0.000000 1.669870 0.000000 
#    z 0.000000 0.000000 1.727120 
# 
# From -- ./inp_files/17832.got.cif
#   From: 2010.05.17/outbox.cif.g08.bks.cpg/sg35_9_cif.got.tgz:17832.got - 2010.06.03 17:29:28.
