data_PCOD9348286
_publ_section_title
;
Structure prediction by ZEFSAII (Michael W. Deem and Ramdas Pophale) SiO2 
 PCOD9348286
Probable space group: C M M 2
;
_chemical_formula_sum "Si O2"
_cell_formula_units_Z 64
_cell_length_a 8.810922
_cell_length_b 29.612864
_cell_length_c 12.580076
_cell_angle_alpha 90.000000
_cell_angle_beta 90.000000
_cell_angle_gamma 90.000000
_cell_volume 3282.351097
_symmetry_space_group_name_H-M "C M M 2"
_symmetry_group_IT_number 35
_symmetry_cell_setting 'orthorhombic'
loop_
_space_group_symop_operation_xyz
x,y,z
-x,-y,z
-x,y,z
x,-y,z
1/2+x,1/2+y,z
1/2-x,1/2-y,z
1/2-x,1/2+y,z
1/2+x,1/2-y,z
loop_
_atom_site_type_symbol
_atom_site_label
_atom_site_fract_x
_atom_site_fract_y
_atom_site_fract_z
Si Si1 0.174736 0.930405 0.017220
Si Si2 0.826664 0.175188 0.076310
Si Si3 0.819321 0.138739 0.702573
Si Si4 0.680123 0.948288 0.787631
Si Si5 0.678600 0.203752 0.869685
Si Si6 0.317581 0.149694 0.294864
Si Si7 0.682688 0.951112 0.242128
Si Si8 0.681762 0.199743 0.516133
O O1 0.173576 0.876657 0.036392
O O2 0.259436 0.949185 0.120770
O O3 0.000000 0.945616 0.014019
O O4 0.255370 0.942097 0.906972
O O5 0.764364 0.173398 0.195606
O O6 0.000000 0.192180 0.070721
O O7 0.718545 0.200331 0.993888
O O8 0.758777 0.087835 0.710985
O O9 0.760128 0.163156 0.809129
O O10 0.750407 0.167724 0.606844
O O11 0.000000 0.139498 0.699195
O O12 0.500000 0.939738 0.789764
O O13 0.706505 0.000000 0.755119
O O14 0.500000 0.202285 0.851758
O O15 0.750000 0.250000 0.826969
O O16 0.500000 0.150696 0.277518
O O17 0.269754 0.096493 0.295698
O O18 0.284765 0.175935 0.403226
O O19 0.500000 0.950767 0.242331
O O20 0.732326 0.000000 0.287861
O O21 0.500000 0.202316 0.529258
O O22 0.750000 0.250000 0.520994
#
# Coordination Sequence:
#
# PCOD9348286 Si02
#       8
#     8   8   8   8   8   8   8   8
#     4  10  19  31  51  81 121 164 204 247 295 351
#     4  10  20  35  56  86 124 163 202 247 302 361
#     4  12  25  43  65  90 122 157 200 253 310 366
#     4  11  23  38  59  88 122 163 207 249 298 359
#     4  12  24  39  61  88 122 160 200 247 304 371
#     4   9  20  38  60  86 119 158 202 252 307 362
#     4   9  17  31  53  82 117 158 203 246 293 355
#     4  11  24  44  68  92 117 153 204 259 314 372
#
# _framework density 19.498218000000001
#
# number of rings (size 3 to 8) (size 9 to 14) (size 15 to 20)
#    0.000    1.500    1.250    4.500    0.000    5.250 
#    0.000    1.875    0.000    2.250    0.000    0.000 
#    0.000    0.000    0.000    0.000    0.000    0.000 
#
# Total GULP energy -178798.364817 kJ/mol
# GULP energy per Si atom -5587.448901 kJ/mol
# Density = 1.945384 g / cm^3
# Si number density = 19.498218 Si / 1000 Ang^3
#
#
#
# Elastic Constant Matrix: (Units=GPa)
#
#
# Indices 1 2 3 4 5 6 
#
# 1 94.8935 57.4348 52.7192 0.0000 0.0000 0.0000
# 2 57.4348 112.6300 54.0973 0.0000 0.0000 0.0000
# 3 52.7192 54.0973 102.3249 0.0000 0.0000 0.0000
# 4 0.0000 0.0000 0.0000 13.9174 0.0000 0.0000
# 5 0.0000 0.0000 0.0000 0.0000 21.5286 0.0000
# 6 0.0000 0.0000 0.0000 0.0000 0.0000 23.2824
#
#
#
# Elastic Compliance Matrix: (Units=1/GPa)
#
#
# Indices 1 2 3 4 5 6 
#
# 1 0.017443 -0.006137 -0.005742 0.000000 0.000000 0.000000
# 2 -0.006137 0.014060 -0.004271 0.000000 0.000000 0.000000
# 3 -0.005742 -0.004271 0.014989 0.000000 0.000000 0.000000
# 4 0.000000 0.000000 0.000000 0.071853 0.000000 0.000000
# 5 0.000000 0.000000 0.000000 0.000000 0.046450 0.000000
# 6 0.000000 0.000000 0.000000 0.000000 0.000000 0.042951
#
#
# Mechanical properties :
#
#
# Convention : Reuss Voigt Hill
#
# Bulk Modulus (GPa) = 70.46714 70.92789 70.69752
# Shear Modulus (GPa) = 20.42685 21.45215 20.93950
#
# Velocity S-wave (km/s) = 3.24022 3.32054 3.28062
# Velocity P-wave (km/s) = 7.08643 7.15240 7.11949
#
# Compressibility (1/GPa) = 0.01419101
#
# Stress axis : x y z
#
# Youngs Moduli (GPa) = 57.33099 71.12616 66.71337
#
# Poissons Ratio (x) = 0.43647 0.38309
# Poissons Ratio (y) = 0.35182 0.28496
# Poissons Ratio (z) = 0.32921 0.30380
#
# Static dielectric constant tensor:
#      x y z
#    x 1.652570 0.000000 0.000000 
#    y 0.000000 1.722530 0.000000 
#    z 0.000000 0.000000 1.654410 
# 
# From -- ./inp_files/11962.got.cif
#   From: 2010.05.17/outbox.cif.g08.bks.cpg/sg35_6_cif.got.tgz:11962.got - 2010.06.03 17:29:28.
