data_PCOD9348971
_publ_section_title
;
Structure prediction by ZEFSAII (Michael W. Deem and Ramdas Pophale) SiO2 
 PCOD9348971
Probable space group: C M M 2
;
_chemical_formula_sum "Si O2"
_cell_formula_units_Z 48
_cell_length_a 9.292128
_cell_length_b 15.562557
_cell_length_c 16.208041
_cell_angle_alpha 90.000000
_cell_angle_beta 90.000000
_cell_angle_gamma 90.000000
_cell_volume 2343.833004
_symmetry_space_group_name_H-M "C M M 2"
_symmetry_group_IT_number 35
_symmetry_cell_setting 'orthorhombic'
loop_
_space_group_symop_operation_xyz
x,y,z
-x,-y,z
-x,y,z
x,-y,z
1/2+x,1/2+y,z
1/2-x,1/2-y,z
1/2-x,1/2+y,z
1/2+x,1/2-y,z
loop_
_atom_site_type_symbol
_atom_site_label
_atom_site_fract_x
_atom_site_fract_y
_atom_site_fract_z
Si Si1 0.334659 0.896664 0.524290
Si Si2 0.671795 0.659631 0.685817
Si Si3 0.832358 0.894735 0.998728
Si Si4 0.339166 0.898957 0.841529
Si Si5 0.668800 0.895692 0.341890
Si Si6 0.168161 0.895418 0.180866
O O1 0.500000 0.866167 0.539955
O O2 0.228954 0.873426 0.597881
O O3 0.285622 0.866124 0.433440
O O4 0.342303 0.000000 0.520844
O O5 0.500000 0.663131 0.688090
O O6 0.750000 0.750000 0.696615
O O7 0.736548 0.607656 0.762541
O O8 0.779982 0.867880 0.089981
O O9 0.000000 0.870218 0.988762
O O10 0.830845 0.000000 0.997922
O O11 0.736613 0.862227 0.923154
O O12 0.500000 0.863109 0.826054
O O13 0.355420 0.000000 0.857443
O O14 0.500000 0.877185 0.334378
O O15 0.750900 0.862653 0.261693
O O16 0.684225 0.000000 0.341826
O O17 0.000000 0.874294 0.186720
O O18 0.178968 0.000000 0.181633
#
# Coordination Sequence:
#
# PCOD9348971 Si02
#       6
#     8   8   8   8   8   8
#     4   9  18  34  54  76 104 135 167 206 250 295
#     4  12  25  39  55  74  98 129 166 208 254 304
#     4   8  14  25  41  64  96 132 167 202 242 287
#     4  10  20  34  53  77 104 133 166 206 250 296
#     4   8  14  24  40  64  95 130 163 196 238 287
#     4   8  13  21  35  59  94 131 163 199 240 280
#
# _framework density 20.479272999999999
#
# number of rings (size 3 to 8) (size 9 to 14) (size 15 to 20)
#    0.000    2.833    0.000    4.500    0.000    4.667 
#    0.000    5.000    0.000    0.000    0.000    1.167 
#    0.000    2.667    0.000    0.000    0.000    0.000 
#
# Total GULP energy -133794.331818 kJ/mol
# GULP energy per Si atom -5574.763826 kJ/mol
# Density = 2.043266 g / cm^3
# Si number density = 20.479273 Si / 1000 Ang^3
#
#
#
# Elastic Constant Matrix: (Units=GPa)
#
#
# Indices 1 2 3 4 5 6 
#
# 1 128.5569 7.7077 109.9152 0.0000 0.0000 0.0000
# 2 7.7077 17.2562 3.2229 0.0000 0.0000 0.0000
# 3 109.9152 3.2229 195.6408 0.0000 0.0000 0.0000
# 4 0.0000 0.0000 0.0000 -37.7347 0.0000 0.0000
# 5 0.0000 0.0000 0.0000 0.0000 42.3628 0.0000
# 6 0.0000 0.0000 0.0000 0.0000 0.0000 14.1629
#
#
#
# Elastic Compliance Matrix: (Units=1/GPa)
#
#
# Indices 1 2 3 4 5 6 
#
# 1 0.015436 -0.005291 -0.008585 0.000000 0.000000 0.000000
# 2 -0.005291 0.059943 0.001985 0.000000 0.000000 0.000000
# 3 -0.008585 0.001985 0.009902 0.000000 0.000000 0.000000
# 4 0.000000 0.000000 0.000000 -0.026501 0.000000 0.000000
# 5 0.000000 0.000000 0.000000 0.000000 0.023606 0.000000
# 6 0.000000 0.000000 0.000000 0.000000 0.000000 0.070607
#
#
# Mechanical properties :
#
#
# Convention : Reuss Voigt Hill
#
# Bulk Modulus (GPa) = 16.26056 64.79395 40.52725
# Shear Modulus (GPa) = 25.34538 18.46541 21.90540
#
# Velocity S-wave (km/s) = 3.52179 3.00603 3.27408
# Velocity P-wave (km/s) = 4.94920 6.61481 5.84167
#
# Compressibility (1/GPa) = 0.06149848
#
# Stress axis : x y z
#
# Youngs Moduli (GPa) = 64.78287 16.68261 100.98914
#
# Poissons Ratio (x) = 0.08827 0.86701
# Poissons Ratio (y) = 0.34278 -0.20049
# Poissons Ratio (z) = 0.55617 -0.03312
#
# Static dielectric constant tensor:
#      x y z
#    x 1.708370 0.000000 0.000000 
#    y 0.000000 1.816200 0.000000 
#    z 0.000000 0.000000 1.794250 
# 
# From -- ./inp_files/17829.got.cif
#   From: 2010.05.17/outbox.cif.g08.bks.cpg/sg35_9_cif.got.tgz:17829.got - 2010.06.03 17:29:28.
