data_PCOD9348756
_publ_section_title
;
Structure prediction by ZEFSAII (Michael W. Deem and Ramdas Pophale) SiO2 
 PCOD9348756
Probable space group: C M M 2
;
_chemical_formula_sum "Si O2"
_cell_formula_units_Z 64
_cell_length_a 9.307787
_cell_length_b 14.801439
_cell_length_c 21.494384
_cell_angle_alpha 90.000000
_cell_angle_beta 90.000000
_cell_angle_gamma 90.000000
_cell_volume 2961.252084
_symmetry_space_group_name_H-M "C M M 2"
_symmetry_group_IT_number 35
_symmetry_cell_setting 'orthorhombic'
loop_
_space_group_symop_operation_xyz
x,y,z
-x,-y,z
-x,y,z
x,-y,z
1/2+x,1/2+y,z
1/2-x,1/2-y,z
1/2-x,1/2+y,z
1/2+x,1/2-y,z
loop_
_atom_site_type_symbol
_atom_site_label
_atom_site_fract_x
_atom_site_fract_y
_atom_site_fract_z
Si Si1 0.335664 0.389158 0.289160
Si Si2 0.671426 0.346198 0.666842
Si Si3 0.339455 0.894406 0.408106
Si Si4 0.334036 0.610519 0.905931
Si Si5 0.827995 0.153343 0.530252
Si Si6 0.840746 0.394067 0.788324
Si Si7 0.336124 0.110545 0.166160
Si Si8 0.166171 0.110191 0.044788
O O1 0.500000 0.358400 0.291490
O O2 0.338513 0.500000 0.289978
O O3 0.246878 0.357167 0.349187
O O4 0.257842 0.362365 0.225492
O O5 0.500000 0.338133 0.674117
O O6 0.750000 0.250000 0.664009
O O7 0.696763 0.389780 0.598642
O O8 0.742021 0.388891 0.727453
O O9 0.500000 0.854818 0.416290
O O10 0.245975 0.890085 0.470620
O O11 0.357136 0.000000 0.394261
O O12 0.500000 0.637772 0.897218
O O13 0.333672 0.500000 0.904978
O O14 0.236510 0.643863 0.849461
O O15 0.286424 0.637444 0.975375
O O16 0.750000 0.250000 0.532770
O O17 0.000000 0.160572 0.522171
O O18 0.857602 0.500000 0.800840
O O19 0.000000 0.354659 0.777345
O O20 0.500000 0.141087 0.171986
O O21 0.265039 0.140158 0.101458
O O22 0.337368 0.000000 0.165804
O O23 0.000000 0.137493 0.053774
O O24 0.166916 0.000000 0.045545
#
# Coordination Sequence:
#
# PCOD9348756 Si02
#       8
#     8   8   8   8   8   8   8   8
#     4   9  16  26  40  58  84 119 157 196 237 282
#     4  10  21  37  56  75  97 126 160 199 242 289
#     4  10  20  33  50  73 101 131 162 199 243 289
#     4   8  14  25  40  58  84 119 157 196 238 283
#     4  10  21  37  56  76  98 126 160 198 241 289
#     4  10  20  32  48  72 101 131 163 200 242 289
#     4   9  15  21  31  50  78 113 152 192 234 281
#     4   8  13  21  33  50  75 111 153 192 231 278
#
# _framework density 21.612479
#
# number of rings (size 3 to 8) (size 9 to 14) (size 15 to 20)
#    0.000    2.750    0.000    3.000    0.000    7.000 
#    0.000    5.000    0.000    0.000    0.000    0.000 
#    0.000    1.000    0.000    5.500    0.000   11.375 
#
# Total GULP energy -178565.385714 kJ/mol
# GULP energy per Si atom -5580.168304 kJ/mol
# Density = 2.156329 g / cm^3
# Si number density = 21.612479 Si / 1000 Ang^3
#
#
#
# Elastic Constant Matrix: (Units=GPa)
#
#
# Indices 1 2 3 4 5 6 
#
# 1 184.0012 9.2268 135.6345 0.0000 0.0000 0.0000
# 2 9.2268 39.5031 7.3729 0.0000 0.0000 0.0000
# 3 135.6345 7.3729 218.3496 0.0000 0.0000 0.0000
# 4 0.0000 0.0000 0.0000 1.6797 0.0000 0.0000
# 5 0.0000 0.0000 0.0000 0.0000 39.4052 0.0000
# 6 0.0000 0.0000 0.0000 0.0000 0.0000 11.8371
#
#
#
# Elastic Compliance Matrix: (Units=1/GPa)
#
#
# Indices 1 2 3 4 5 6 
#
# 1 0.010081 -0.001193 -0.006222 0.000000 0.000000 0.000000
# 2 -0.001193 0.025616 -0.000124 0.000000 0.000000 0.000000
# 3 -0.006222 -0.000124 0.008449 0.000000 0.000000 0.000000
# 4 0.000000 0.000000 0.000000 0.595332 0.000000 0.000000
# 5 0.000000 0.000000 0.000000 0.000000 0.025377 0.000000
# 6 0.000000 0.000000 0.000000 0.000000 0.000000 0.084480
#
#
# Mechanical properties :
#
#
# Convention : Reuss Voigt Hill
#
# Bulk Modulus (GPa) = 34.40165 82.92471 58.66318
# Shear Modulus (GPa) = 6.45910 29.89239 18.17574
#
# Velocity S-wave (km/s) = 1.73063 3.72305 2.90312
# Velocity P-wave (km/s) = 4.46604 7.54544 6.19997
#
# Compressibility (1/GPa) = 0.02906837
#
# Stress axis : x y z
#
# Youngs Moduli (GPa) = 99.19768 39.03771 118.35978
#
# Poissons Ratio (x) = 0.04659 0.73640
# Poissons Ratio (y) = 0.11838 0.01464
# Poissons Ratio (z) = 0.61718 0.00483
#
# Static dielectric constant tensor:
#      x y z
#    x 1.765110 0.000000 0.000000 
#    y 0.000000 1.889660 0.000000 
#    z 0.000000 0.000000 1.780250 
# 
# From -- ./inp_files/18339.got.cif
#   From: 2010.05.17/outbox.cif.g08.bks.cpg/sg35_10_cif.got.tgz:18339.got - 2010.06.03 17:29:28.
