data_PCOD9348964
_publ_section_title
;
Structure prediction by ZEFSAII (Michael W. Deem and Ramdas Pophale) SiO2 
 PCOD9348964
Probable space group: C M M 2
;
_chemical_formula_sum "Si O2"
_cell_formula_units_Z 64
_cell_length_a 9.219274
_cell_length_b 19.133775
_cell_length_c 21.044310
_cell_angle_alpha 90.000000
_cell_angle_beta 90.000000
_cell_angle_gamma 90.000000
_cell_volume 3712.206064
_symmetry_space_group_name_H-M "C M M 2"
_symmetry_group_IT_number 35
_symmetry_cell_setting 'orthorhombic'
loop_
_space_group_symop_operation_xyz
x,y,z
-x,-y,z
-x,y,z
x,-y,z
1/2+x,1/2+y,z
1/2-x,1/2-y,z
1/2-x,1/2+y,z
1/2+x,1/2-y,z
loop_
_atom_site_type_symbol
_atom_site_label
_atom_site_fract_x
_atom_site_fract_y
_atom_site_fract_z
Si Si1 0.330287 0.583309 0.208440
Si Si2 0.672905 0.824814 0.105162
Si Si3 0.173373 0.917469 0.355963
Si Si4 0.826148 0.675558 0.961606
Si Si5 0.166870 0.085038 0.714365
Si Si6 0.325893 0.174728 0.462082
Si Si7 0.673509 0.917662 0.842163
Si Si8 0.826806 0.581609 0.585505
O O1 0.500000 0.600886 0.198342
O O2 0.314952 0.500000 0.200697
O O3 0.233218 0.623990 0.158535
O O4 0.295213 0.599202 0.282095
O O5 0.500000 0.816906 0.110608
O O6 0.750000 0.750000 0.112358
O O7 0.706373 0.850302 0.033177
O O8 0.263264 0.869301 0.403133
O O9 0.000000 0.907992 0.365630
O O10 0.204613 0.000000 0.366215
O O11 0.750000 0.750000 0.953562
O O12 0.782373 0.623876 0.905183
O O13 0.000000 0.684607 0.958040
O O14 0.247330 0.108018 0.778482
O O15 0.246938 0.105505 0.649529
O O16 0.000000 0.107267 0.714126
O O17 0.170825 0.000000 0.715102
O O18 0.500000 0.181994 0.457209
O O19 0.250000 0.250000 0.464561
O O20 0.292499 0.130069 0.525595
O O21 0.500000 0.910690 0.833777
O O22 0.704849 0.000000 0.850213
O O23 0.787955 0.500000 0.572728
O O24 0.000000 0.583625 0.596011
#
# Coordination Sequence:
#
# PCOD9348964 Si02
#       8
#     8   8   8   8   8   8   8   8
#     4   9  19  36  56  79 107 136 168 210 259 308
#     4  10  20  34  53  76 103 137 176 216 257 306
#     4   9  19  37  59  80 104 136 172 210 255 308
#     4   9  19  34  51  72  99 133 171 209 251 300
#     4   9  17  29  48  76 104 128 161 206 251 297
#     4  11  23  37  54  78 108 139 173 214 257 303
#     4   9  17  31  51  73  99 131 165 204 251 300
#     4   9  18  34  55  76  99 131 169 207 251 304
#
# _framework density 17.240421000000001
#
# number of rings (size 3 to 8) (size 9 to 14) (size 15 to 20)
#    0.000    2.625    0.000    2.250    0.000    6.000 
#    0.000    4.375    0.000    1.500    0.000    0.000 
#    0.000    0.000    0.000    0.000    0.000    0.000 
#
# Total GULP energy -178468.513866 kJ/mol
# GULP energy per Si atom -5577.141058 kJ/mol
# Density = 1.720118 g / cm^3
# Si number density = 17.240421 Si / 1000 Ang^3
#
#
#
# Elastic Constant Matrix: (Units=GPa)
#
#
# Indices 1 2 3 4 5 6 
#
# 1 65.7848 54.8792 90.2027 0.0000 0.0000 0.0000
# 2 54.8792 70.8344 88.6390 0.0000 0.0000 0.0000
# 3 90.2027 88.6390 175.5153 0.0000 0.0000 0.0000
# 4 0.0000 0.0000 0.0000 -35.2263 0.0000 0.0000
# 5 0.0000 0.0000 0.0000 0.0000 27.2172 0.0000
# 6 0.0000 0.0000 0.0000 0.0000 0.0000 23.9330
#
#
#
# Elastic Compliance Matrix: (Units=1/GPa)
#
#
# Indices 1 2 3 4 5 6 
#
# 1 0.062145 -0.022228 -0.020712 0.000000 0.000000 0.000000
# 2 -0.022228 0.046309 -0.011963 0.000000 0.000000 0.000000
# 3 -0.020712 -0.011963 0.022384 0.000000 0.000000 0.000000
# 4 0.000000 0.000000 0.000000 -0.028388 0.000000 0.000000
# 5 0.000000 0.000000 0.000000 0.000000 0.036741 0.000000
# 6 0.000000 0.000000 0.000000 0.000000 0.000000 0.041783
#
#
# Mechanical properties :
#
#
# Convention : Reuss Voigt Hill
#
# Bulk Modulus (GPa) = 47.55118 86.61959 67.08539
# Shear Modulus (GPa) = 16.79017 8.41236 12.60126
#
# Velocity S-wave (km/s) = 3.12410 2.21134 2.70647
# Velocity P-wave (km/s) = 6.37608 7.54130 6.98304
#
# Compressibility (1/GPa) = 0.02102997
#
# Stress axis : x y z
#
# Youngs Moduli (GPa) = 16.09144 21.59389 44.67486
#
# Poissons Ratio (x) = 0.48000 0.92532
# Poissons Ratio (y) = 0.35769 0.53446
# Poissons Ratio (z) = 0.33329 0.25834
#
# Static dielectric constant tensor:
#      x y z
#    x 1.573260 0.000000 0.000000 
#    y 0.000000 1.560490 0.000000 
#    z 0.000000 0.000000 1.575130 
# 
# From -- ./inp_files/18294.got.cif
#   From: 2010.05.17/outbox.cif.g08.bks.cpg/sg35_10_cif.got.tgz:18294.got - 2010.06.03 17:29:28.
