data_PCOD9348330
_publ_section_title
;
Structure prediction by ZEFSAII (Michael W. Deem and Ramdas Pophale) SiO2 
 PCOD9348330
Probable space group: C M M 2
;
_chemical_formula_sum "Si O2"
_cell_formula_units_Z 56
_cell_length_a 7.955933
_cell_length_b 29.663043
_cell_length_c 13.326088
_cell_angle_alpha 90.000000
_cell_angle_beta 90.000000
_cell_angle_gamma 90.000000
_cell_volume 3144.919224
_symmetry_space_group_name_H-M "C M M 2"
_symmetry_group_IT_number 35
_symmetry_cell_setting 'orthorhombic'
loop_
_space_group_symop_operation_xyz
x,y,z
-x,-y,z
-x,y,z
x,-y,z
1/2+x,1/2+y,z
1/2-x,1/2-y,z
1/2-x,1/2+y,z
1/2+x,1/2-y,z
loop_
_atom_site_type_symbol
_atom_site_label
_atom_site_fract_x
_atom_site_fract_y
_atom_site_fract_z
Si Si1 0.201801 0.607660 0.562800
Si Si2 0.702365 0.051593 0.751475
Si Si3 0.797406 0.700224 0.474245
Si Si4 0.296326 0.552085 0.365541
Si Si5 0.797054 0.948155 0.975227
Si Si6 0.700147 0.799678 0.243830
Si Si7 0.298799 0.605474 0.168320
O O1 0.267319 0.583748 0.663257
O O2 0.265551 0.657950 0.538561
O O3 0.238602 0.576784 0.466306
O O4 0.000000 0.610835 0.572846
O O5 0.500000 0.050029 0.743637
O O6 0.764887 0.000000 0.738956
O O7 0.745703 0.066689 0.863901
O O8 0.750000 0.750000 0.510655
O O9 0.734699 0.695701 0.358929
O O10 0.000000 0.697901 0.470975
O O11 0.500000 0.552510 0.364652
O O12 0.241712 0.500000 0.362795
O O13 0.235459 0.579308 0.267497
O O14 0.734636 0.917164 0.066096
O O15 0.000000 0.948616 0.978280
O O16 0.739307 0.000000 0.988869
O O17 0.500000 0.801913 0.247832
O O18 0.750000 0.750000 0.207408
O O19 0.761918 0.841849 0.180080
O O20 0.500000 0.599794 0.168209
#
# Coordination Sequence:
#
# PCOD9348330 Si02
#       7
#     8   8   8   8   8   8   8
#     4  10  19  33  50  71  99 131 164 201 246 295
#     4   9  18  32  50  71  96 128 166 207 248 290
#     4   9  18  31  48  70  97 127 161 198 240 291
#     4  10  20  31  45  70 102 132 161 195 240 295
#     4   9  18  33  52  72  97 131 170 209 246 287
#     4  10  19  32  50  73 100 130 165 203 245 294
#     4  10  19  32  50  72 100 132 164 202 248 293
#
# _framework density 17.8065
#
# number of rings (size 3 to 8) (size 9 to 14) (size 15 to 20)
#    0.000    2.429    1.429    1.286    0.000    4.857 
#    0.000    1.429    0.000    3.429    0.000    4.000 
#    0.000    0.000    0.000    0.000    0.000    0.000 
#
# Total GULP energy -156195.062053 kJ/mol
# GULP energy per Si atom -5578.395073 kJ/mol
# Density = 1.776597 g / cm^3
# Si number density = 17.806500 Si / 1000 Ang^3
#
#
#
# Elastic Constant Matrix: (Units=GPa)
#
#
# Indices 1 2 3 4 5 6 
#
# 1 9.7087 0.1076 4.2143 0.0000 0.0000 0.0000
# 2 0.1076 150.3095 100.0542 0.0000 0.0000 0.0000
# 3 4.2143 100.0542 150.3854 0.0000 0.0000 0.0000
# 4 0.0000 0.0000 0.0000 18.7024 0.0000 0.0000
# 5 0.0000 0.0000 0.0000 0.0000 15.2224 0.0000
# 6 0.0000 0.0000 0.0000 0.0000 0.0000 18.1545
#
#
#
# Elastic Compliance Matrix: (Units=1/GPa)
#
#
# Indices 1 2 3 4 5 6 
#
# 1 0.105221 0.003388 -0.005203 0.000000 0.000000 0.000000
# 2 0.003388 0.012051 -0.008112 0.000000 0.000000 0.000000
# 3 -0.005203 -0.008112 0.012193 0.000000 0.000000 0.000000
# 4 0.000000 0.000000 0.000000 0.053469 0.000000 0.000000
# 5 0.000000 0.000000 0.000000 0.000000 0.065693 0.000000
# 6 0.000000 0.000000 0.000000 0.000000 0.000000 0.055083
#
#
# Mechanical properties :
#
#
# Convention : Reuss Voigt Hill
#
# Bulk Modulus (GPa) = 9.12329 57.68398 33.40363
# Shear Modulus (GPa) = 13.88504 24.15101 19.01803
#
# Velocity S-wave (km/s) = 2.79547 3.68680 3.27163
# Velocity P-wave (km/s) = 3.94389 7.11256 5.75077
#
# Compressibility (1/GPa) = 0.10960961
#
# Stress axis : x y z
#
# Youngs Moduli (GPa) = 9.50383 82.98366 82.01624
#
# Poissons Ratio (x) = -0.28113 0.42670
# Poissons Ratio (y) = -0.03220 0.66535
# Poissons Ratio (z) = 0.04944 0.67320
#
# Static dielectric constant tensor:
#      x y z
#    x 1.643960 0.000000 0.000000 
#    y 0.000000 1.618530 0.000000 
#    z 0.000000 0.000000 1.595370 
# 
# From -- ./inp_files/16065.got.cif
#   From: 2010.05.17/outbox.cif.g08.bks.cpg/sg35_9_cif.got.tgz:16065.got - 2010.06.03 17:29:28.
