data_PCOD9348177
_publ_section_title
;
Structure prediction by ZEFSAII (Michael W. Deem and Ramdas Pophale) SiO2 
 PCOD9348177
Probable space group: C M M 2
;
_chemical_formula_sum "Si O2"
_cell_formula_units_Z 64
_cell_length_a 8.070260
_cell_length_b 29.655720
_cell_length_c 16.233829
_cell_angle_alpha 90.000000
_cell_angle_beta 90.000000
_cell_angle_gamma 90.000000
_cell_volume 3885.232082
_symmetry_space_group_name_H-M "C M M 2"
_symmetry_group_IT_number 35
_symmetry_cell_setting 'orthorhombic'
loop_
_space_group_symop_operation_xyz
x,y,z
-x,-y,z
-x,y,z
x,-y,z
1/2+x,1/2+y,z
1/2-x,1/2-y,z
1/2-x,1/2+y,z
1/2+x,1/2-y,z
loop_
_atom_site_type_symbol
_atom_site_label
_atom_site_fract_x
_atom_site_fract_y
_atom_site_fract_z
Si Si1 0.300049 0.550042 0.226810
Si Si2 0.299630 0.697645 0.001500
Si Si3 0.303273 0.802302 0.643667
Si Si4 0.198480 0.197961 0.325995
Si Si5 0.302314 0.302436 0.821340
Si Si6 0.698932 0.856906 0.487301
Si Si7 0.797110 0.144520 0.162150
Si Si8 0.299604 0.050249 0.417043
O O1 0.500000 0.549519 0.222906
O O2 0.239762 0.500000 0.202644
O O3 0.242330 0.592898 0.174497
O O4 0.251809 0.557389 0.322102
O O5 0.500000 0.696275 0.001521
O O6 0.250000 0.750000 0.011332
O O7 0.242960 0.680783 0.910925
O O8 0.239886 0.668234 0.078376
O O9 0.500000 0.801959 0.637258
O O10 0.250000 0.750000 0.636950
O O11 0.259582 0.820994 0.734288
O O12 0.234264 0.831917 0.568448
O O13 0.250000 0.250000 0.325273
O O14 0.265475 0.172776 0.406520
O O15 0.255066 0.172979 0.242496
O O16 0.000000 0.195240 0.328545
O O17 0.500000 0.305035 0.819963
O O18 0.250000 0.250000 0.820510
O O19 0.500000 0.860009 0.496009
O O20 0.762000 0.907528 0.470214
O O21 0.000000 0.144833 0.161267
O O22 0.500000 0.050268 0.419669
O O23 0.242325 0.000000 0.441570
#
# Coordination Sequence:
#
# PCOD9348177 Si02
#       8
#     8   8   8   8   8   8   8   8
#     4   9  16  28  46  65  85 111 145 182 218 256
#     4   9  17  29  44  62  87 114 143 176 212 254
#     4  10  19  30  44  62  86 114 143 178 214 255
#     4  11  21  31  43  60  87 122 152 179 210 248
#     4   9  16  27  44  63  82 109 141 178 218 254
#     4  10  20  32  45  64  88 116 148 179 216 260
#     4   9  17  29  43  63  88 115 145 177 213 252
#     4   9  17  30  47  65  86 111 142 183 224 258
#
# _framework density 16.472632000000001
#
# number of rings (size 3 to 8) (size 9 to 14) (size 15 to 20)
#    0.000    2.500    1.250    2.625    0.000    2.500 
#    0.000    1.250    0.000    0.000    0.000    0.875 
#    0.000    1.000    0.000    0.000    0.000    0.000 
#
# Total GULP energy -178316.915387 kJ/mol
# GULP energy per Si atom -5572.403606 kJ/mol
# Density = 1.643514 g / cm^3
# Si number density = 16.472632 Si / 1000 Ang^3
#
#
#
# Elastic Constant Matrix: (Units=GPa)
#
#
# Indices 1 2 3 4 5 6 
#
# 1 11.6744 6.1715 6.7087 0.0000 0.0000 0.0000
# 2 6.1715 127.3233 82.9418 0.0000 0.0000 0.0000
# 3 6.7087 82.9418 156.2907 0.0000 0.0000 0.0000
# 4 0.0000 0.0000 0.0000 13.3624 0.0000 0.0000
# 5 0.0000 0.0000 0.0000 0.0000 -3.9788 0.0000
# 6 0.0000 0.0000 0.0000 0.0000 0.0000 4.1114
#
#
#
# Elastic Compliance Matrix: (Units=1/GPa)
#
#
# Indices 1 2 3 4 5 6 
#
# 1 0.088460 -0.002773 -0.002326 0.000000 0.000000 0.000000
# 2 -0.002773 0.012091 -0.006297 0.000000 0.000000 0.000000
# 3 -0.002326 -0.006297 0.009840 0.000000 0.000000 0.000000
# 4 0.000000 0.000000 0.000000 0.074837 0.000000 0.000000
# 5 0.000000 0.000000 0.000000 0.000000 -0.251331 0.000000
# 6 0.000000 0.000000 0.000000 0.000000 0.000000 0.243224
#
#
# Mechanical properties :
#
#
# Convention : Reuss Voigt Hill
#
# Bulk Modulus (GPa) = 11.41562 54.10360 32.75961
# Shear Modulus (GPa) = 21.82329 15.99674 18.91001
#
# Velocity S-wave (km/s) = 3.64376 3.11964 3.39184
# Velocity P-wave (km/s) = 4.96465 6.77437 5.93885
#
# Compressibility (1/GPa) = 0.08759925
#
# Stress axis : x y z
#
# Youngs Moduli (GPa) = 11.30454 82.70803 101.62474
#
# Poissons Ratio (x) = 0.22934 0.23634
# Poissons Ratio (y) = 0.03135 0.63997
# Poissons Ratio (z) = 0.02629 0.52085
#
# Static dielectric constant tensor:
#      x y z
#    x 1.582690 0.000000 0.000000 
#    y 0.000000 1.558110 0.000000 
#    z 0.000000 0.000000 1.572380 
# 
# From -- ./inp_files/16219.got.cif
#   From: 2010.05.17/outbox.cif.g08.bks.cpg/sg35_9_cif.got.tgz:16219.got - 2010.06.03 17:29:28.
