data_PCOD9348181
_publ_section_title
;
Structure prediction by ZEFSAII (Michael W. Deem and Ramdas Pophale) SiO2 
 PCOD9348181
Probable space group: C M M 2
;
_chemical_formula_sum "Si O2"
_cell_formula_units_Z 48
_cell_length_a 8.580898
_cell_length_b 26.886701
_cell_length_c 11.949733
_cell_angle_alpha 90.000000
_cell_angle_beta 90.000000
_cell_angle_gamma 90.000000
_cell_volume 2756.947264
_symmetry_space_group_name_H-M "C M M 2"
_symmetry_group_IT_number 35
_symmetry_cell_setting 'orthorhombic'
loop_
_space_group_symop_operation_xyz
x,y,z
-x,-y,z
-x,y,z
x,-y,z
1/2+x,1/2+y,z
1/2-x,1/2-y,z
1/2-x,1/2+y,z
1/2+x,1/2-y,z
loop_
_atom_site_type_symbol
_atom_site_label
_atom_site_fract_x
_atom_site_fract_y
_atom_site_fract_z
Si Si1 0.185169 0.609492 0.923250
Si Si2 0.321891 0.870456 0.276974
Si Si3 0.814580 0.194671 0.086162
Si Si4 0.813108 0.056526 0.456850
Si Si5 0.175036 0.942976 0.115905
Si Si6 0.812817 0.943117 0.720779
O O1 0.232076 0.599039 0.795585
O O2 0.000000 0.605819 0.936032
O O3 0.243268 0.658774 0.989252
O O4 0.278051 0.566137 0.988775
O O5 0.500000 0.855934 0.293988
O O6 0.233455 0.827043 0.208705
O O7 0.253716 0.897341 0.386567
O O8 0.302983 0.914914 0.187437
O O9 0.750000 0.250000 0.074040
O O10 0.000000 0.194384 0.075654
O O11 0.780235 0.062567 0.588580
O O12 0.000000 0.056593 0.441154
O O13 0.759396 0.000000 0.424271
O O14 0.000000 0.922533 0.137033
O O15 0.171939 0.000000 0.144700
O O16 0.000000 0.940004 0.735102
O O17 0.764652 0.000000 0.750900
#
# Coordination Sequence:
#
# PCOD9348181 Si02
#       6
#     8   8   8   8   8   8
#     4  11  21  32  49  75 104 133 168 209 256 307
#     4  11  21  32  49  75 104 133 168 209 256 307
#     4  11  22  39  60  79 101 129 166 212 263 315
#     4   9  18  33  52  74 104 144 184 216 250 297
#     4  10  19  30  45  66  96 134 171 206 249 301
#     4   9  18  33  52  74 104 144 184 216 250 297
#
# _framework density 17.410561000000001
#
# number of rings (size 3 to 8) (size 9 to 14) (size 15 to 20)
#    0.000    1.833    0.000    9.000    0.000    6.667 
#    0.000    1.667    0.000    1.000    0.000    0.000 
#    0.000    0.000    0.000    0.000    0.000    0.000 
#
# Total GULP energy -133738.389937 kJ/mol
# GULP energy per Si atom -5572.432914 kJ/mol
# Density = 1.737093 g / cm^3
# Si number density = 17.410561 Si / 1000 Ang^3
#
#
#
# Elastic Constant Matrix: (Units=GPa)
#
#
# Indices 1 2 3 4 5 6 
#
# 1 74.7538 31.3378 32.9849 0.0000 0.0000 0.0000
# 2 31.3378 91.6330 42.8030 0.0000 0.0000 0.0000
# 3 32.9849 42.8030 88.9399 0.0000 0.0000 0.0000
# 4 0.0000 0.0000 0.0000 22.6999 0.0000 0.0000
# 5 0.0000 0.0000 0.0000 0.0000 21.9932 0.0000
# 6 0.0000 0.0000 0.0000 0.0000 0.0000 23.1480
#
#
#
# Elastic Compliance Matrix: (Units=1/GPa)
#
#
# Indices 1 2 3 4 5 6 
#
# 1 0.016905 -0.003680 -0.004498 0.000000 0.000000 0.000000
# 2 -0.003680 0.014879 -0.005796 0.000000 0.000000 0.000000
# 3 -0.004498 -0.005796 0.015701 0.000000 0.000000 0.000000
# 4 0.000000 0.000000 0.000000 0.044053 0.000000 0.000000
# 5 0.000000 0.000000 0.000000 0.000000 0.045469 0.000000
# 6 0.000000 0.000000 0.000000 0.000000 0.000000 0.043200
#
#
# Mechanical properties :
#
#
# Convention : Reuss Voigt Hill
#
# Bulk Modulus (GPa) = 51.18644 52.17535 51.68090
# Shear Modulus (GPa) = 23.29180 23.44827 23.37004
#
# Velocity S-wave (km/s) = 3.66156 3.67384 3.66770
# Velocity P-wave (km/s) = 6.88037 6.93028 6.90537
#
# Compressibility (1/GPa) = 0.01953642
#
# Stress axis : x y z
#
# Youngs Moduli (GPa) = 59.15445 67.20905 63.68968
#
# Poissons Ratio (x) = 0.24733 0.28650
# Poissons Ratio (y) = 0.21769 0.36913
# Poissons Ratio (z) = 0.26610 0.38953
#
# Static dielectric constant tensor:
#      x y z
#    x 1.598750 0.000000 0.000000 
#    y 0.000000 1.600510 0.000000 
#    z 0.000000 0.000000 1.633540 
# 
# From -- ./inp_files/11630.got.cif
#   From: 2010.05.17/outbox.cif.g08.bks.cpg/sg35_6_cif.got.tgz:11630.got - 2010.06.03 17:29:28.
