data_PCOD9348182
_publ_section_title
;
Structure prediction by ZEFSAII (Michael W. Deem and Ramdas Pophale) SiO2 
 PCOD9348182
Probable space group: C M M 2
;
_chemical_formula_sum "Si O2"
_cell_formula_units_Z 64
_cell_length_a 27.686978
_cell_length_b 14.858303
_cell_length_c 9.536813
_cell_angle_alpha 90.000000
_cell_angle_beta 90.000000
_cell_angle_gamma 90.000000
_cell_volume 3923.268516
_symmetry_space_group_name_H-M "C M M 2"
_symmetry_group_IT_number 35
_symmetry_cell_setting 'orthorhombic'
loop_
_space_group_symop_operation_xyz
x,y,z
-x,-y,z
-x,y,z
x,-y,z
1/2+x,1/2+y,z
1/2-x,1/2-y,z
1/2-x,1/2+y,z
1/2+x,1/2-y,z
loop_
_atom_site_type_symbol
_atom_site_label
_atom_site_fract_x
_atom_site_fract_y
_atom_site_fract_z
Si Si1 0.365605 0.301201 0.575920
Si Si2 0.442443 0.605210 0.079099
Si Si3 0.182340 0.398054 0.902356
Si Si4 0.557690 0.603098 0.408905
Si Si5 0.786984 0.333211 0.608608
Si Si6 0.863399 0.793254 0.903407
Si Si7 0.779441 0.892489 0.069936
Si Si8 0.714370 0.604747 0.386694
O O1 0.416206 0.323688 0.504723
O O2 0.340036 0.203949 0.571087
O O3 0.366566 0.322291 0.740824
O O4 0.328248 0.358852 0.483607
O O5 0.500000 0.620000 0.061945
O O6 0.432713 0.500000 0.043925
O O7 0.430513 0.616108 0.244346
O O8 0.409654 0.670393 0.986968
O O9 0.163348 0.500000 0.920078
O O10 0.207500 0.390530 0.748938
O O11 0.145282 0.314574 0.910412
O O12 0.225032 0.382213 0.014262
O O13 0.500000 0.607913 0.421970
O O14 0.572240 0.500000 0.446843
O O15 0.750000 0.250000 0.642548
O O16 0.763014 0.377813 0.473851
O O17 0.816628 0.839825 0.972156
O O18 0.784377 0.857788 0.229412
O O19 0.790343 0.000000 0.063794
O O20 0.707239 0.500000 0.370193
#
# Coordination Sequence:
#
# PCOD9348182 Si02
#       8
#     8   8   8   8   8   8   8   8
#     4  10  20  30  43  68  94 122 158 193 231 276
#     4   9  19  35  53  74 100 128 156 188 232 287
#     4  10  20  34  49  66  94 129 166 205 242 278
#     4   9  18  33  51  71  97 126 153 183 225 280
#     4   9  18  31  46  66  92 125 162 198 238 280
#     4  11  21  32  49  72  98 127 163 199 239 285
#     4  10  20  31  46  71 100 132 164 195 235 283
#     4  10  19  30  45  67  96 127 160 193 230 281
#
# _framework density 16.312927999999999
#
# number of rings (size 3 to 8) (size 9 to 14) (size 15 to 20)
#    0.000    2.250    0.000    5.250    0.000    9.500 
#    0.000    1.250    0.000    0.375    0.000    0.000 
#    0.000    6.500    0.000    0.000    0.000    0.000 
#
# Total GULP energy -178347.192138 kJ/mol
# GULP energy per Si atom -5573.349754 kJ/mol
# Density = 1.627580 g / cm^3
# Si number density = 16.312928 Si / 1000 Ang^3
#
#
#
# Elastic Constant Matrix: (Units=GPa)
#
#
# Indices 1 2 3 4 5 6 
#
# 1 49.2738 30.2482 40.6151 0.0000 0.0000 0.0000
# 2 30.2482 68.4339 39.5286 0.0000 0.0000 0.0000
# 3 40.6151 39.5286 103.9628 0.0000 0.0000 0.0000
# 4 0.0000 0.0000 0.0000 21.1563 0.0000 0.0000
# 5 0.0000 0.0000 0.0000 0.0000 31.5647 0.0000
# 6 0.0000 0.0000 0.0000 0.0000 0.0000 20.0264
#
#
#
# Elastic Compliance Matrix: (Units=1/GPa)
#
#
# Indices 1 2 3 4 5 6 
#
# 1 0.034127 -0.009461 -0.009735 0.000000 0.000000 0.000000
# 2 -0.009461 0.021348 -0.004421 0.000000 0.000000 0.000000
# 3 -0.009735 -0.004421 0.015103 0.000000 0.000000 0.000000
# 4 0.000000 0.000000 0.000000 0.047267 0.000000 0.000000
# 5 0.000000 0.000000 0.000000 0.000000 0.031681 0.000000
# 6 0.000000 0.000000 0.000000 0.000000 0.000000 0.049934
#
#
# Mechanical properties :
#
#
# Convention : Reuss Voigt Hill
#
# Bulk Modulus (GPa) = 42.83756 49.16157 45.99956
# Shear Modulus (GPa) = 19.64819 21.96803 20.80811
#
# Velocity S-wave (km/s) = 3.47429 3.67367 3.57537
# Velocity P-wave (km/s) = 6.51239 6.94237 6.73081
#
# Compressibility (1/GPa) = 0.02334400
#
# Stress axis : x y z
#
# Youngs Moduli (GPa) = 29.30204 46.84267 66.21252
#
# Poissons Ratio (x) = 0.44319 0.64459
# Poissons Ratio (y) = 0.27724 0.29270
# Poissons Ratio (z) = 0.28526 0.20708
#
# Static dielectric constant tensor:
#      x y z
#    x 1.550880 0.000000 0.000000 
#    y 0.000000 1.520130 0.000000 
#    z 0.000000 0.000000 1.571710 
# 
# From -- ./inp_files/10683.got.cif
#   From: 2010.05.17/outbox.cif.g08.bks.cpg/sg35_6_cif.got.tgz:10683.got - 2010.06.03 17:29:28.
