data_PCOD9348112
_publ_section_title
;
Structure prediction by ZEFSAII (Michael W. Deem and Ramdas Pophale) SiO2 
 PCOD9348112
Probable space group: C M M 2
;
_chemical_formula_sum "Si O2"
_cell_formula_units_Z 64
_cell_length_a 25.865830
_cell_length_b 15.644948
_cell_length_c 8.842191
_cell_angle_alpha 90.000000
_cell_angle_beta 90.000000
_cell_angle_gamma 90.000000
_cell_volume 3578.165589
_symmetry_space_group_name_H-M "C M M 2"
_symmetry_group_IT_number 35
_symmetry_cell_setting 'orthorhombic'
loop_
_space_group_symop_operation_xyz
x,y,z
-x,-y,z
-x,y,z
x,-y,z
1/2+x,1/2+y,z
1/2-x,1/2-y,z
1/2-x,1/2+y,z
1/2+x,1/2-y,z
loop_
_atom_site_type_symbol
_atom_site_label
_atom_site_fract_x
_atom_site_fract_y
_atom_site_fract_z
Si Si1 0.253446 0.146735 0.611660
Si Si2 0.941051 0.759103 0.035122
Si Si3 0.613852 0.739144 0.735376
Si Si4 0.863468 0.902666 0.148008
Si Si5 0.866790 0.598167 0.537071
Si Si6 0.561102 0.099144 0.244440
Si Si7 0.141590 0.904398 0.507582
Si Si8 0.285521 0.674946 0.925002
O O1 0.250000 0.250000 0.591995
O O2 0.304775 0.112403 0.531538
O O3 0.201862 0.105704 0.546936
O O4 0.249067 0.131016 0.793349
O O5 0.904819 0.833531 0.096179
O O6 0.927993 0.668466 0.114075
O O7 0.000000 0.777694 0.072235
O O8 0.931602 0.758684 0.856182
O O9 0.617227 0.830841 0.657882
O O10 0.612060 0.667169 0.605060
O O11 0.666101 0.716184 0.830984
O O12 0.860690 0.893826 0.328081
O O13 0.878344 0.000000 0.111470
O O14 0.810985 0.881580 0.055455
O O15 0.876722 0.500000 0.581317
O O16 0.899423 0.613620 0.383633
O O17 0.500000 0.108996 0.289042
O O18 0.567302 0.000000 0.195853
O O19 0.123926 0.000000 0.548502
O O20 0.250000 0.750000 0.990863
#
# Coordination Sequence:
#
# PCOD9348112 Si02
#       8
#     8   8   8   8   8   8   8   8
#     4  10  18  33  54  80 114 153 186 230 274 323
#     4  10  22  39  62  83 107 148 190 238 295 348
#     4  10  20  36  54  81 113 139 188 236 282 332
#     4  10  22  37  57  86 117 152 192 235 284 338
#     4  11  20  33  56  84 114 150 190 233 280 336
#     4   9  20  39  60  83 113 149 189 236 293 348
#     4  10  20  36  56  79 112 152 188 225 278 337
#     4   9  17  35  53  76 112 158 192 224 269 324
#
# _framework density 17.88626
#
# number of rings (size 3 to 8) (size 9 to 14) (size 15 to 20)
#    0.000    2.125    3.750    1.125    0.000    6.750 
#    2.250    0.625    0.000    0.750    0.000    0.000 
#    0.000    0.000    0.000    0.000    0.000    0.000 
#
# Total GULP energy -178283.471672 kJ/mol
# GULP energy per Si atom -5571.358490 kJ/mol
# Density = 1.784555 g / cm^3
# Si number density = 17.886260 Si / 1000 Ang^3
#
#
#
# Elastic Constant Matrix: (Units=GPa)
#
#
# Indices 1 2 3 4 5 6 
#
# 1 56.1134 32.9173 30.0984 0.0000 0.0000 0.0000
# 2 32.9173 122.9532 67.1619 0.0000 0.0000 0.0000
# 3 30.0984 67.1619 76.9669 0.0000 0.0000 0.0000
# 4 0.0000 0.0000 0.0000 -328.9439 0.0000 0.0000
# 5 0.0000 0.0000 0.0000 0.0000 26.2305 0.0000
# 6 0.0000 0.0000 0.0000 0.0000 0.0000 21.0012
#
#
#
# Elastic Compliance Matrix: (Units=1/GPa)
#
#
# Indices 1 2 3 4 5 6 
#
# 1 0.022907 -0.002368 -0.006891 0.000000 0.000000 0.000000
# 2 -0.002368 0.015786 -0.012848 0.000000 0.000000 0.000000
# 3 -0.006891 -0.012848 0.026899 0.000000 0.000000 0.000000
# 4 0.000000 0.000000 0.000000 -0.003040 0.000000 0.000000
# 5 0.000000 0.000000 0.000000 0.000000 0.038124 0.000000
# 6 0.000000 0.000000 0.000000 0.000000 0.000000 0.047616
#
#
# Mechanical properties :
#
#
# Convention : Reuss Voigt Hill
#
# Bulk Modulus (GPa) = 46.78273 57.37653 52.07963
# Shear Modulus (GPa) = 25.04604 -47.95205 -11.45300
#
# Velocity S-wave (km/s) = 3.74611 -5.18340 -2.53321
# Velocity P-wave (km/s) = 6.70251 1.91711 4.54138
#
# Compressibility (1/GPa) = 0.02137541
#
# Stress axis : x y z
#
# Youngs Moduli (GPa) = 43.65530 63.34895 37.17606
#
# Poissons Ratio (x) = 0.15004 0.25618
# Poissons Ratio (y) = 0.10340 0.47765
# Poissons Ratio (z) = 0.30083 0.81393
#
# Static dielectric constant tensor:
#      x y z
#    x 1.617900 0.000000 0.000000 
#    y 0.000000 1.665600 0.000000 
#    z 0.000000 0.000000 1.617430 
# 
# From -- ./inp_files/9885.got.cif
#   From: 2010.05.17/outbox.cif.g08.bks.cpg/sg35_5_cif.got.tgz:9885.got - 2010.06.03 17:29:28.
