data_PCOD9348518
_publ_section_title
;
Structure prediction by ZEFSAII (Michael W. Deem and Ramdas Pophale) SiO2 
 PCOD9348518
Probable space group: C M M 2
;
_chemical_formula_sum "Si O2"
_cell_formula_units_Z 48
_cell_length_a 8.591771
_cell_length_b 18.863019
_cell_length_c 15.913373
_cell_angle_alpha 90.000000
_cell_angle_beta 90.000000
_cell_angle_gamma 90.000000
_cell_volume 2579.028478
_symmetry_space_group_name_H-M "C M M 2"
_symmetry_group_IT_number 35
_symmetry_cell_setting 'orthorhombic'
loop_
_space_group_symop_operation_xyz
x,y,z
-x,-y,z
-x,y,z
x,-y,z
1/2+x,1/2+y,z
1/2-x,1/2-y,z
1/2-x,1/2+y,z
1/2+x,1/2-y,z
loop_
_atom_site_type_symbol
_atom_site_label
_atom_site_fract_x
_atom_site_fract_y
_atom_site_fract_z
Si Si1 0.189422 0.581348 0.575800
Si Si2 0.312530 0.829513 0.414977
Si Si3 0.186883 0.417308 0.078879
Si Si4 0.685777 0.669855 0.235862
Si Si5 0.314984 0.670262 0.920921
Si Si6 0.312510 0.915821 0.764426
O O1 0.238853 0.500000 0.565467
O O2 0.240330 0.627067 0.496566
O O3 0.235781 0.605065 0.669476
O O4 0.000000 0.581874 0.575925
O O5 0.500000 0.829387 0.411643
O O6 0.250000 0.750000 0.423041
O O7 0.248513 0.856815 0.325936
O O8 0.232674 0.500000 0.074065
O O9 0.256218 0.379609 0.160898
O O10 0.000000 0.413760 0.082576
O O11 0.244397 0.374870 0.997476
O O12 0.500000 0.673095 0.237467
O O13 0.750000 0.750000 0.223881
O O14 0.500000 0.672538 0.929488
O O15 0.250000 0.750000 0.922236
O O16 0.267572 0.630975 0.835001
O O17 0.500000 0.907933 0.771443
O O18 0.279325 0.000000 0.775012
#
# Coordination Sequence:
#
# PCOD9348518 Si02
#       6
#     8   8   8   8   8   8
#     4   8  16  32  55  81 109 145 187 229 274 327
#     4  10  19  33  54  80 111 147 188 231 278 330
#     4  11  24  42  63  86 113 146 183 224 275 334
#     4  11  22  38  59  83 114 149 188 232 279 330
#     4  12  25  40  59  84 115 148 186 230 277 330
#     4   9  18  36  60  84 113 149 188 230 279 333
#
# _framework density 18.611659
#
# number of rings (size 3 to 8) (size 9 to 14) (size 15 to 20)
#    0.000    1.833    0.000    7.000    0.000    5.000 
#    0.000    5.000    0.000    3.500    0.000    0.000 
#    0.000    0.000    0.000    0.000    0.000    0.000 
#
# Total GULP energy -134070.605396 kJ/mol
# GULP energy per Si atom -5586.275225 kJ/mol
# Density = 1.856930 g / cm^3
# Si number density = 18.611659 Si / 1000 Ang^3
#
#
#
# Elastic Constant Matrix: (Units=GPa)
#
#
# Indices 1 2 3 4 5 6 
#
# 1 88.2765 46.6450 53.6025 0.0000 0.0000 0.0000
# 2 46.6450 102.3858 101.3406 0.0000 0.0000 0.0000
# 3 53.6025 101.3406 200.5542 0.0000 0.0000 0.0000
# 4 0.0000 0.0000 0.0000 43.1003 0.0000 0.0000
# 5 0.0000 0.0000 0.0000 0.0000 -11.7379 0.0000
# 6 0.0000 0.0000 0.0000 0.0000 0.0000 25.5656
#
#
#
# Elastic Compliance Matrix: (Units=1/GPa)
#
#
# Indices 1 2 3 4 5 6 
#
# 1 0.015043 -0.005749 -0.001115 0.000000 0.000000 0.000000
# 2 -0.005749 0.021737 -0.009447 0.000000 0.000000 0.000000
# 3 -0.001115 -0.009447 0.010058 0.000000 0.000000 0.000000
# 4 0.000000 0.000000 0.000000 0.023202 0.000000 0.000000
# 5 0.000000 0.000000 0.000000 0.000000 -0.085194 0.000000
# 6 0.000000 0.000000 0.000000 0.000000 0.000000 0.039115
#
#
# Mechanical properties :
#
#
# Convention : Reuss Voigt Hill
#
# Bulk Modulus (GPa) = 70.35145 88.26584 79.30864
# Shear Modulus (GPa) = 81.53592 24.02751 52.78171
#
# Velocity S-wave (km/s) = 6.62602 3.59694 5.33114
# Velocity P-wave (km/s) = 9.81940 8.04851 8.97773
#
# Compressibility (1/GPa) = 0.01421435
#
# Stress axis : x y z
#
# Youngs Moduli (GPa) = 66.47468 46.00465 99.42371
#
# Poissons Ratio (x) = 0.26450 0.11091
# Poissons Ratio (y) = 0.38219 0.93926
# Poissons Ratio (z) = 0.07415 0.43461
#
# Static dielectric constant tensor:
#      x y z
#    x 1.629190 0.000000 0.000000 
#    y 0.000000 1.605050 0.000000 
#    z 0.000000 0.000000 1.639340 
# 
# From -- ./inp_files/17830.got.cif
#   From: 2010.05.17/outbox.cif.g08.bks.cpg/sg35_9_cif.got.tgz:17830.got - 2010.06.03 17:29:28.
