data_PCOD9348634
_publ_section_title
;
Structure prediction by ZEFSAII (Michael W. Deem and Ramdas Pophale) SiO2 
 PCOD9348634
Probable space group: C M M 2
;
_chemical_formula_sum "Si O2"
_cell_formula_units_Z 56
_cell_length_a 21.270150
_cell_length_b 13.722685
_cell_length_c 9.635409
_cell_angle_alpha 90.000000
_cell_angle_beta 90.000000
_cell_angle_gamma 90.000000
_cell_volume 2812.417561
_symmetry_space_group_name_H-M "C M M 2"
_symmetry_group_IT_number 35
_symmetry_cell_setting 'orthorhombic'
loop_
_space_group_symop_operation_xyz
x,y,z
-x,-y,z
-x,y,z
x,-y,z
1/2+x,1/2+y,z
1/2-x,1/2-y,z
1/2-x,1/2+y,z
1/2+x,1/2-y,z
loop_
_atom_site_type_symbol
_atom_site_label
_atom_site_fract_x
_atom_site_fract_y
_atom_site_fract_z
Si Si1 0.571664 0.115612 0.111980
Si Si2 0.931322 0.813233 0.557206
Si Si3 0.323641 0.267595 0.040839
Si Si4 0.819326 0.883350 0.754496
Si Si5 0.402981 0.113501 0.440013
Si Si6 0.741710 0.115862 0.499122
Si Si7 0.144353 0.883873 0.307824
O O1 0.500000 0.145720 0.071867
O O2 0.629579 0.174274 0.043308
O O3 0.577165 0.126916 0.279786
O O4 0.577979 0.000000 0.083807
O O5 0.878960 0.854298 0.660251
O O6 0.930617 0.696113 0.539426
O O7 0.913382 0.852623 0.404428
O O8 0.000000 0.846262 0.600162
O O9 0.250000 0.250000 0.076406
O O10 0.353420 0.336014 0.158632
O O11 0.322116 0.322606 0.894471
O O12 0.759687 0.857382 0.656261
O O13 0.818839 0.000000 0.780410
O O14 0.328523 0.133023 0.451594
O O15 0.415541 0.000000 0.476772
O O16 0.794152 0.152802 0.392933
O O17 0.750081 0.000000 0.496636
O O18 0.146161 0.000000 0.296205
#
# Coordination Sequence:
#
# PCOD9348634 Si02
#       7
#     8   8   8   8   8   8   8
#     4  10  22  42  65  94 134 173 212 266 332 391
#     4  11  23  39  63  92 122 164 215 260 316 383
#     4  12  25  39  65  98 128 172 214 269 320 384
#     4  10  24  43  62  88 128 171 209 259 319 379
#     4  10  19  34  64  96 123 157 204 264 319 377
#     4   8  17  35  60  88 120 157 198 251 317 377
#     4  10  21  37  60  91 124 157 204 262 314 374
#
# _framework density 19.911694000000001
#
# number of rings (size 3 to 8) (size 9 to 14) (size 15 to 20)
#    0.000    1.857    1.429    3.000    2.000    6.000 
#    0.000    0.714    0.000    2.571    0.000    0.000 
#    0.000    0.000    0.000    0.000    0.000    0.000 
#
# Total GULP energy -156304.645056 kJ/mol
# GULP energy per Si atom -5582.308752 kJ/mol
# Density = 1.986637 g / cm^3
# Si number density = 19.911694 Si / 1000 Ang^3
#
#
#
# Elastic Constant Matrix: (Units=GPa)
#
#
# Indices 1 2 3 4 5 6 
#
# 1 85.1283 23.2730 -0.6611 0.0000 0.0000 0.0000
# 2 23.2730 114.6947 20.8365 0.0000 0.0000 0.0000
# 3 -0.6611 20.8365 61.7863 0.0000 0.0000 0.0000
# 4 0.0000 0.0000 0.0000 23.4354 0.0000 0.0000
# 5 0.0000 0.0000 0.0000 0.0000 12.5443 0.0000
# 6 0.0000 0.0000 0.0000 0.0000 0.0000 22.8529
#
#
#
# Elastic Compliance Matrix: (Units=1/GPa)
#
#
# Indices 1 2 3 4 5 6 
#
# 1 0.012501 -0.002728 0.001054 0.000000 0.000000 0.000000
# 2 -0.002728 0.009883 -0.003362 0.000000 0.000000 0.000000
# 3 0.001054 -0.003362 0.017330 0.000000 0.000000 0.000000
# 4 0.000000 0.000000 0.000000 0.042671 0.000000 0.000000
# 5 0.000000 0.000000 0.000000 0.000000 0.079717 0.000000
# 6 0.000000 0.000000 0.000000 0.000000 0.000000 0.043758
#
#
# Mechanical properties :
#
#
# Convention : Reuss Voigt Hill
#
# Bulk Modulus (GPa) = 33.73683 38.72289 36.22986
# Shear Modulus (GPa) = 22.14219 26.31058 24.22638
#
# Velocity S-wave (km/s) = 3.33831 3.63900 3.49189
# Velocity P-wave (km/s) = 5.64262 6.09475 5.87303
#
# Compressibility (1/GPa) = 0.02964119
#
# Stress axis : x y z
#
# Youngs Moduli (GPa) = 79.99379 101.18232 57.70372
#
# Poissons Ratio (x) = 0.27603 -0.06081
# Poissons Ratio (y) = 0.21823 0.19401
# Poissons Ratio (z) = -0.08429 0.34019
#
# Static dielectric constant tensor:
#      x y z
#    x 1.719500 0.000000 0.000000 
#    y 0.000000 1.744340 0.000000 
#    z 0.000000 0.000000 1.669970 
# 
# From -- ./inp_files/7608.got.cif
#   From: 2010.05.17/outbox.cif.g08.bks.cpg/sg35_4_cif.got.tgz:7608.got - 2010.06.03 17:29:28.
