data_PCOD9348271
_publ_section_title
;
Structure prediction by ZEFSAII (Michael W. Deem and Ramdas Pophale) SiO2 
 PCOD9348271
Probable space group: C M M 2
;
_chemical_formula_sum "Si O2"
_cell_formula_units_Z 48
_cell_length_a 15.723370
_cell_length_b 8.830746
_cell_length_c 17.658435
_cell_angle_alpha 90.000000
_cell_angle_beta 90.000000
_cell_angle_gamma 90.000000
_cell_volume 2451.857573
_symmetry_space_group_name_H-M "C M M 2"
_symmetry_group_IT_number 35
_symmetry_cell_setting 'orthorhombic'
loop_
_space_group_symop_operation_xyz
x,y,z
-x,-y,z
-x,y,z
x,-y,z
1/2+x,1/2+y,z
1/2-x,1/2-y,z
1/2-x,1/2+y,z
1/2+x,1/2-y,z
loop_
_atom_site_type_symbol
_atom_site_label
_atom_site_fract_x
_atom_site_fract_y
_atom_site_fract_z
Si Si1 0.654218 0.182066 0.252570
Si Si2 0.663149 0.179372 0.890723
Si Si3 0.000000 0.316197 0.989219
Si Si4 0.500000 0.681398 0.156540
Si Si5 0.099521 0.823844 0.741503
Si Si6 0.655159 0.318312 0.574719
Si Si7 0.155101 0.680443 0.423562
O O1 0.750000 0.250000 0.244019
O O2 0.584709 0.253285 0.197020
O O3 0.622272 0.211677 0.339085
O O4 0.658921 0.000000 0.242854
O O5 0.750000 0.250000 0.919967
O O6 0.648862 0.229857 0.804118
O O7 0.668539 0.000000 0.893515
O O8 0.582808 0.227701 0.940806
O O9 0.000000 0.238496 0.070341
O O10 0.000000 0.500000 0.997799
O O11 0.500000 0.500000 0.160855
O O12 0.112522 0.777204 0.654431
O O13 0.000000 0.813100 0.759268
O O14 0.125879 0.000000 0.747349
O O15 0.658220 0.500000 0.568711
O O16 0.750000 0.250000 0.578873
O O17 0.613527 0.252766 0.498131
O O18 0.159270 0.500000 0.433480
O O19 0.250000 0.750000 0.422028
#
# Coordination Sequence:
#
# PCOD9348271 Si02
#       7
#     8   8   4   4   8   8   8
#     4  10  21  40  65  92 127 165 207 257 309 366
#     4  11  23  41  66  94 121 158 201 245 300 360
#     4  10  24  46  66  89 126 159 194 249 304 361
#     4  12  26  42  66  97 126 163 204 245 308 373
#     4  10  21  37  56  81 118 160 202 251 302 352
#     4  10  19  31  50  77 112 153 200 249 298 350
#     4   9  17  31  54  81 112 153 199 248 300 351
#
# _framework density 19.576993999999999
#
# number of rings (size 3 to 8) (size 9 to 14) (size 15 to 20)
#    0.000    1.833    0.833    4.250    0.000    6.667 
#    1.500    1.667    0.000    0.000    0.000    0.000 
#    0.000    0.000    0.000    0.000    0.000    0.000 
#
# Total GULP energy -133997.569435 kJ/mol
# GULP energy per Si atom -5583.232060 kJ/mol
# Density = 1.953244 g / cm^3
# Si number density = 19.576994 Si / 1000 Ang^3
#
#
#
# Elastic Constant Matrix: (Units=GPa)
#
#
# Indices 1 2 3 4 5 6 
#
# 1 109.8477 51.2621 73.7066 0.0000 0.0000 0.0000
# 2 51.2621 75.5788 65.7723 0.0000 0.0000 0.0000
# 3 73.7066 65.7723 156.3903 0.0000 0.0000 0.0000
# 4 0.0000 0.0000 0.0000 -87.6406 0.0000 0.0000
# 5 0.0000 0.0000 0.0000 0.0000 -32.6280 0.0000
# 6 0.0000 0.0000 0.0000 0.0000 0.0000 24.7514
#
#
#
# Elastic Compliance Matrix: (Units=1/GPa)
#
#
# Indices 1 2 3 4 5 6 
#
# 1 0.015028 -0.006355 -0.004410 0.000000 0.000000 0.000000
# 2 -0.006355 0.023557 -0.006912 0.000000 0.000000 0.000000
# 3 -0.004410 -0.006912 0.011380 0.000000 0.000000 0.000000
# 4 0.000000 0.000000 0.000000 -0.011410 0.000000 0.000000
# 5 0.000000 0.000000 0.000000 0.000000 -0.030648 0.000000
# 6 0.000000 0.000000 0.000000 0.000000 0.000000 0.040402
#
#
# Mechanical properties :
#
#
# Convention : Reuss Voigt Hill
#
# Bulk Modulus (GPa) = 68.44491 80.36652 74.40572
# Shear Modulus (GPa) = 56.47634 -9.03171 23.72232
#
# Velocity S-wave (km/s) = 5.37689 -2.15022 3.48479
# Velocity P-wave (km/s) = 8.57821 5.91405 7.36756
#
# Compressibility (1/GPa) = 0.01461029
#
# Stress axis : x y z
#
# Youngs Moduli (GPa) = 66.54064 42.45042 87.87633
#
# Poissons Ratio (x) = 0.26979 0.38754
# Poissons Ratio (y) = 0.42289 0.60740
# Poissons Ratio (z) = 0.29345 0.29341
#
# Static dielectric constant tensor:
#      x y z
#    x 1.683560 0.000000 0.000000 
#    y 0.000000 1.658240 0.000000 
#    z 0.000000 0.000000 1.705540 
# 
# From -- ./inp_files/18807.got.cif
#   From: 2010.05.17/outbox.cif.g08.bks.cpg/sg35_10_cif.got.tgz:18807.got - 2010.06.03 17:29:28.
