data_PCOD9348450
_publ_section_title
;
Structure prediction by ZEFSAII (Michael W. Deem and Ramdas Pophale) SiO2 
 PCOD9348450
Probable space group: C M M 2
;
_chemical_formula_sum "Si O2"
_cell_formula_units_Z 56
_cell_length_a 14.826576
_cell_length_b 20.443805
_cell_length_c 9.768251
_cell_angle_alpha 90.000000
_cell_angle_beta 90.000000
_cell_angle_gamma 90.000000
_cell_volume 2960.870469
_symmetry_space_group_name_H-M "C M M 2"
_symmetry_group_IT_number 35
_symmetry_cell_setting 'orthorhombic'
loop_
_space_group_symop_operation_xyz
x,y,z
-x,-y,z
-x,y,z
x,-y,z
1/2+x,1/2+y,z
1/2-x,1/2-y,z
1/2-x,1/2+y,z
1/2+x,1/2-y,z
loop_
_atom_site_type_symbol
_atom_site_label
_atom_site_fract_x
_atom_site_fract_y
_atom_site_fract_z
Si Si1 0.897324 0.662297 0.816590
Si Si2 0.389941 0.729572 0.266287
Si Si3 0.848705 0.928285 0.847434
Si Si4 0.104040 0.787388 0.950159
Si Si5 0.673405 0.073600 0.043449
Si Si6 0.782228 0.575209 0.613805
Si Si7 0.774864 0.643052 0.325784
O O1 0.855278 0.733332 0.849051
O O2 0.843910 0.622961 0.702738
O O3 0.000000 0.667504 0.770350
O O4 0.891102 0.622387 0.959928
O O5 0.500000 0.724870 0.281677
O O6 0.326400 0.673340 0.330484
O O7 0.347795 0.797503 0.321344
O O8 0.363681 0.722019 0.105111
O O9 0.892949 0.861160 0.896328
O O10 0.814354 0.921881 0.691380
O O11 0.893190 0.000000 0.863671
O O12 0.760009 0.930426 0.943648
O O13 0.000000 0.767712 0.958369
O O14 0.705533 0.102641 0.187479
O O15 0.636738 0.000000 0.058611
O O16 0.812794 0.500000 0.627013
O O17 0.783835 0.598275 0.458685
#
# Coordination Sequence:
#
# PCOD9348450 Si02
#       7
#     8   8   8   8   8   8   8
#     4  10  21  37  58  85 117 154 196 250 306 357
#     4  10  22  38  58  91 123 151 197 258 309 352
#     4   9  19  36  56  81 112 148 190 239 291 352
#     4  10  19  34  59  87 116 147 193 253 300 350
#     4  10  19  32  55  82 109 148 201 244 288 353
#     4  10  23  39  56  82 119 158 200 245 297 362
#     4  11  21  37  62  84 117 164 196 246 303 354
#
# _framework density 18.913357000000001
#
# number of rings (size 3 to 8) (size 9 to 14) (size 15 to 20)
#    0.000    2.000    2.857    1.714    0.000    6.571 
#    0.000    2.143    0.000    5.143    0.000    0.000 
#    0.000    0.000    0.000    0.000    0.000    0.000 
#
# Total GULP energy -155961.235653 kJ/mol
# GULP energy per Si atom -5570.044130 kJ/mol
# Density = 1.887031 g / cm^3
# Si number density = 18.913357 Si / 1000 Ang^3
#
#
#
# Elastic Constant Matrix: (Units=GPa)
#
#
# Indices 1 2 3 4 5 6 
#
# 1 67.7059 14.6977 2.9589 0.0000 0.0000 0.0000
# 2 14.6977 104.3225 10.9379 0.0000 0.0000 0.0000
# 3 2.9589 10.9379 80.5096 0.0000 0.0000 0.0000
# 4 0.0000 0.0000 0.0000 35.8783 0.0000 0.0000
# 5 0.0000 0.0000 0.0000 0.0000 14.1486 0.0000
# 6 0.0000 0.0000 0.0000 0.0000 0.0000 33.1777
#
#
#
# Elastic Compliance Matrix: (Units=1/GPa)
#
#
# Indices 1 2 3 4 5 6 
#
# 1 0.015242 -0.002119 -0.000272 0.000000 0.000000 0.000000
# 2 -0.002119 0.010019 -0.001283 0.000000 0.000000 0.000000
# 3 -0.000272 -0.001283 0.012605 0.000000 0.000000 0.000000
# 4 0.000000 0.000000 0.000000 0.027872 0.000000 0.000000
# 5 0.000000 0.000000 0.000000 0.000000 0.070679 0.000000
# 6 0.000000 0.000000 0.000000 0.000000 0.000000 0.030141
#
#
# Mechanical properties :
#
#
# Convention : Reuss Voigt Hill
#
# Bulk Modulus (GPa) = 32.76880 34.41412 33.59146
# Shear Modulus (GPa) = 27.16243 31.57049 29.36646
#
# Velocity S-wave (km/s) = 3.79377 4.09004 3.94469
# Velocity P-wave (km/s) = 6.04596 6.36708 6.20860
#
# Compressibility (1/GPa) = 0.03051684
#
# Stress axis : x y z
#
# Youngs Moduli (GPa) = 65.60986 99.81321 79.33221
#
# Poissons Ratio (x) = 0.21148 0.02160
# Poissons Ratio (y) = 0.13901 0.10180
# Poissons Ratio (z) = 0.01787 0.12809
#
# Static dielectric constant tensor:
#      x y z
#    x 1.686550 0.000000 0.000000 
#    y 0.000000 1.706570 0.000000 
#    z 0.000000 0.000000 1.645470 
# 
# From -- ./inp_files/7656.got.cif
#   From: 2010.05.17/outbox.cif.g08.bks.cpg/sg35_4_cif.got.tgz:7656.got - 2010.06.03 17:29:28.
