data_PCOD9348645
_publ_section_title
;
Structure prediction by ZEFSAII (Michael W. Deem and Ramdas Pophale) SiO2 
 PCOD9348645
Probable space group: C M M 2
;
_chemical_formula_sum "Si O2"
_cell_formula_units_Z 60
_cell_length_a 14.096035
_cell_length_b 13.456417
_cell_length_c 16.320762
_cell_angle_alpha 90.000000
_cell_angle_beta 90.000000
_cell_angle_gamma 90.000000
_cell_volume 3095.756818
_symmetry_space_group_name_H-M "C M M 2"
_symmetry_group_IT_number 35
_symmetry_cell_setting 'orthorhombic'
loop_
_space_group_symop_operation_xyz
x,y,z
-x,-y,z
-x,y,z
x,-y,z
1/2+x,1/2+y,z
1/2-x,1/2-y,z
1/2-x,1/2+y,z
1/2+x,1/2-y,z
loop_
_atom_site_type_symbol
_atom_site_label
_atom_site_fract_x
_atom_site_fract_y
_atom_site_fract_z
Si Si1 0.608193 0.120762 0.440480
Si Si2 0.390683 0.618016 0.016159
Si Si3 0.702086 0.116009 0.269462
Si Si4 0.892926 0.301828 0.779784
Si Si5 0.305515 0.119283 0.611559
Si Si6 0.250000 0.250000 0.908789
Si Si7 0.609131 0.303617 0.202224
Si Si8 0.895428 0.883156 0.678424
O O1 0.500000 0.155232 0.429846
O O2 0.670290 0.145217 0.361147
O O3 0.650347 0.156090 0.526732
O O4 0.605981 0.000000 0.443687
O O5 0.500000 0.634053 0.988727
O O6 0.371701 0.500000 0.013376
O O7 0.317867 0.681124 0.962832
O O8 0.384415 0.655815 0.109871
O O9 0.643729 0.189372 0.209878
O O10 0.813050 0.136653 0.254745
O O11 0.680809 0.000000 0.256447
O O12 0.861060 0.348350 0.693235
O O13 0.817040 0.317025 0.850400
O O14 0.891067 0.183798 0.759406
O O15 0.000000 0.331875 0.800042
O O16 0.194860 0.145368 0.623872
O O17 0.310164 0.000000 0.608803
O O18 0.500000 0.313255 0.229285
O O19 0.000000 0.864406 0.641249
O O20 0.888484 0.000000 0.696564
#
# Coordination Sequence:
#
# PCOD9348645 Si02
#       8
#     8   8   8   8   8   4   8   8
#     4   9  18  33  54  80 113 156 204 244 283 344
#     4  10  23  43  66  89 118 158 196 233 292 371
#     4  10  20  36  60  91 122 157 197 244 297 350
#     4  11  22  36  55  83 115 149 190 243 294 340
#     4  10  19  35  56  79 111 156 201 241 286 340
#     4  12  22  38  60  90 118 144 196 248 298 344
#     4  10  21  39  61  90 121 153 194 241 293 360
#     4   9  18  34  54  76 105 146 197 246 290 340
#
# _framework density 19.381367000000001
#
# number of rings (size 3 to 8) (size 9 to 14) (size 15 to 20)
#    0.000    2.000    1.333    2.400    0.000    3.467 
#    4.800    2.000    0.000    4.400    0.000    0.000 
#    0.000    0.000    0.000    0.000    0.000    0.000 
#
# Total GULP energy -167426.176337 kJ/mol
# GULP energy per Si atom -5580.872545 kJ/mol
# Density = 1.933725 g / cm^3
# Si number density = 19.381367 Si / 1000 Ang^3
#
#
#
# Elastic Constant Matrix: (Units=GPa)
#
#
# Indices 1 2 3 4 5 6 
#
# 1 171.8448 27.9569 79.9595 0.0000 0.0000 0.0000
# 2 27.9569 65.9246 32.2006 0.0000 0.0000 0.0000
# 3 79.9595 32.2006 94.7818 0.0000 0.0000 0.0000
# 4 0.0000 0.0000 0.0000 20.6957 0.0000 0.0000
# 5 0.0000 0.0000 0.0000 0.0000 32.7747 0.0000
# 6 0.0000 0.0000 0.0000 0.0000 0.0000 26.0693
#
#
#
# Elastic Compliance Matrix: (Units=1/GPa)
#
#
# Indices 1 2 3 4 5 6 
#
# 1 0.009581 -0.000138 -0.008035 0.000000 0.000000 0.000000
# 2 -0.000138 0.018189 -0.006063 0.000000 0.000000 0.000000
# 3 -0.008035 -0.006063 0.019389 0.000000 0.000000 0.000000
# 4 0.000000 0.000000 0.000000 0.048319 0.000000 0.000000
# 5 0.000000 0.000000 0.000000 0.000000 0.030511 0.000000
# 6 0.000000 0.000000 0.000000 0.000000 0.000000 0.038359
#
#
# Mechanical properties :
#
#
# Convention : Reuss Voigt Hill
#
# Bulk Modulus (GPa) = 53.51666 68.08724 60.80195
# Shear Modulus (GPa) = 25.11938 28.73689 26.92814
#
# Velocity S-wave (km/s) = 3.60399 3.85477 3.73149
# Velocity P-wave (km/s) = 6.70751 7.41747 7.07140
#
# Compressibility (1/GPa) = 0.01868577
#
# Stress axis : x y z
#
# Youngs Moduli (GPa) = 104.37822 54.97901 51.57527
#
# Poissons Ratio (x) = 0.00759 0.41443
# Poissons Ratio (y) = 0.01440 0.31270
# Poissons Ratio (z) = 0.83872 0.33333
#
# Static dielectric constant tensor:
#      x y z
#    x 1.697730 0.000000 0.000000 
#    y 0.000000 1.703240 0.000000 
#    z 0.000000 0.000000 1.659260 
# 
# From -- ./inp_files/16850.got.cif
#   From: 2010.05.17/outbox.cif.g08.bks.cpg/sg35_9_cif.got.tgz:16850.got - 2010.06.03 17:29:28.
