data_PCOD9348810
_publ_section_title
;
Structure prediction by ZEFSAII (Michael W. Deem and Ramdas Pophale) SiO2 
 PCOD9348810
Probable space group: C M M 2
;
_chemical_formula_sum "Si O2"
_cell_formula_units_Z 48
_cell_length_a 26.621471
_cell_length_b 9.044189
_cell_length_c 11.592433
_cell_angle_alpha 90.000000
_cell_angle_beta 90.000000
_cell_angle_gamma 90.000000
_cell_volume 2791.105632
_symmetry_space_group_name_H-M "C M M 2"
_symmetry_group_IT_number 35
_symmetry_cell_setting 'orthorhombic'
loop_
_space_group_symop_operation_xyz
x,y,z
-x,-y,z
-x,y,z
x,-y,z
1/2+x,1/2+y,z
1/2-x,1/2-y,z
1/2-x,1/2+y,z
1/2+x,1/2-y,z
loop_
_atom_site_type_symbol
_atom_site_label
_atom_site_fract_x
_atom_site_fract_y
_atom_site_fract_z
Si Si1 0.303796 0.172858 0.348410
Si Si2 0.382271 0.332927 0.187378
Si Si3 0.634651 0.679537 0.810788
Si Si4 0.205867 0.839307 0.002837
Si Si5 0.196274 0.326774 0.625118
Si Si6 0.440373 0.174185 0.990756
O O1 0.250000 0.250000 0.321702
O O2 0.351914 0.249062 0.287913
O O3 0.309693 0.182283 0.486715
O O4 0.301188 0.000000 0.314500
O O5 0.398255 0.500000 0.220477
O O6 0.339552 0.348680 0.089969
O O7 0.424048 0.244013 0.114439
O O8 0.631538 0.500000 0.809816
O O9 0.649550 0.746012 0.687745
O O10 0.588294 0.745065 0.884370
O O11 0.683078 0.726603 0.887226
O O12 0.250000 0.750000 0.057196
O O13 0.225779 0.000000 0.974299
O O14 0.197875 0.500000 0.657423
O O15 0.250000 0.250000 0.652282
O O16 0.500000 0.189038 0.976546
O O17 0.426900 0.000000 0.989967
#
# Coordination Sequence:
#
# PCOD9348810 Si02
#       6
#     8   8   8   8   8   8
#     4  10  20  33  50  74 106 143 179 212 248 295
#     4  10  20  33  50  73 101 133 169 209 254 303
#     4  10  20  33  50  73 101 133 169 209 254 303
#     4   9  18  28  40  64  95 126 158 194 239 290
#     4  10  20  33  50  74 106 143 179 212 248 295
#     4  10  21  37  57  79 102 130 165 208 261 315
#
# _framework density 17.197486999999999
#
# number of rings (size 3 to 8) (size 9 to 14) (size 15 to 20)
#    0.000    2.167    0.000    4.500    0.000   10.000 
#    0.000    0.000    0.000    1.000    0.000    7.000 
#    0.000    0.000    0.000    0.000    0.000    0.000 
#
# Total GULP energy -133642.185390 kJ/mol
# GULP energy per Si atom -5568.424391 kJ/mol
# Density = 1.715835 g / cm^3
# Si number density = 17.197487 Si / 1000 Ang^3
#
#
#
# Elastic Constant Matrix: (Units=GPa)
#
#
# Indices 1 2 3 4 5 6 
#
# 1 68.1517 54.4485 30.6253 0.0000 0.0000 0.0000
# 2 54.4485 121.7213 43.7114 0.0000 0.0000 0.0000
# 3 30.6253 43.7114 64.6237 0.0000 0.0000 0.0000
# 4 0.0000 0.0000 0.0000 30.6486 0.0000 0.0000
# 5 0.0000 0.0000 0.0000 0.0000 26.1485 0.0000
# 6 0.0000 0.0000 0.0000 0.0000 0.0000 24.7019
#
#
#
# Elastic Compliance Matrix: (Units=1/GPa)
#
#
# Indices 1 2 3 4 5 6 
#
# 1 0.024219 -0.008865 -0.005481 0.000000 0.000000 0.000000
# 2 -0.008865 0.014096 -0.005334 0.000000 0.000000 0.000000
# 3 -0.005481 -0.005334 0.021679 0.000000 0.000000 0.000000
# 4 0.000000 0.000000 0.000000 0.032628 0.000000 0.000000
# 5 0.000000 0.000000 0.000000 0.000000 0.038243 0.000000
# 6 0.000000 0.000000 0.000000 0.000000 0.000000 0.040483
#
#
# Mechanical properties :
#
#
# Convention : Reuss Voigt Hill
#
# Bulk Modulus (GPa) = 48.46124 56.89635 52.67879
# Shear Modulus (GPa) = 22.97940 24.68057 23.82999
#
# Velocity S-wave (km/s) = 3.65938 3.79242 3.72649
# Velocity P-wave (km/s) = 6.78934 7.23412 7.01526
#
# Compressibility (1/GPa) = 0.02063505
#
# Stress axis : x y z
#
# Youngs Moduli (GPa) = 41.29005 70.93962 46.12719
#
# Poissons Ratio (x) = 0.62891 0.25282
# Poissons Ratio (y) = 0.36605 0.24602
# Poissons Ratio (z) = 0.22630 0.37836
#
# Static dielectric constant tensor:
#      x y z
#    x 1.693880 0.000000 0.000000 
#    y 0.000000 1.630860 0.000000 
#    z 0.000000 0.000000 1.611020 
# 
# From -- ./inp_files/11461.got.cif
#   From: 2010.05.17/outbox.cif.g08.bks.cpg/sg35_6_cif.got.tgz:11461.got - 2010.06.03 17:29:28.
