data_PCOD9348441
_publ_section_title
;
Structure prediction by ZEFSAII (Michael W. Deem and Ramdas Pophale) SiO2 
 PCOD9348441
Probable space group: C M M 2
;
_chemical_formula_sum "Si O2"
_cell_formula_units_Z 48
_cell_length_a 28.930934
_cell_length_b 8.638177
_cell_length_c 10.556524
_cell_angle_alpha 90.000000
_cell_angle_beta 90.000000
_cell_angle_gamma 90.000000
_cell_volume 2638.186494
_symmetry_space_group_name_H-M "C M M 2"
_symmetry_group_IT_number 35
_symmetry_cell_setting 'orthorhombic'
loop_
_space_group_symop_operation_xyz
x,y,z
-x,-y,z
-x,y,z
x,-y,z
1/2+x,1/2+y,z
1/2-x,1/2-y,z
1/2-x,1/2+y,z
1/2+x,1/2-y,z
loop_
_atom_site_type_symbol
_atom_site_label
_atom_site_fract_x
_atom_site_fract_y
_atom_site_fract_z
Si Si1 0.102804 0.687084 0.153770
Si Si2 0.799470 0.314526 0.050223
Si Si3 0.891659 0.685078 0.663216
Si Si4 0.700367 0.315742 0.766497
Si Si5 0.554778 0.316482 0.903381
Si Si6 0.053355 0.311192 0.412706
O O1 0.099484 0.500000 0.146485
O O2 0.156829 0.727597 0.136949
O O3 0.079817 0.737430 0.285333
O O4 0.075729 0.757178 0.034964
O O5 0.796734 0.500000 0.041235
O O6 0.750000 0.250000 0.093466
O O7 0.808035 0.249101 0.908777
O O8 0.886517 0.500000 0.658993
O O9 0.841453 0.760308 0.679127
O O10 0.920785 0.731305 0.786955
O O11 0.919165 0.737200 0.538234
O O12 0.702217 0.500000 0.772866
O O13 0.750000 0.250000 0.725492
O O14 0.500000 0.288438 0.900748
O O15 0.563215 0.500000 0.891297
O O16 0.052714 0.500000 0.413089
O O17 0.000000 0.259432 0.413615
#
# Coordination Sequence:
#
# PCOD9348441 Si02
#       6
#     8   8   8   8   8   8
#     4  10  20  36  59  84 111 146 191 235 284 342
#     4  10  19  32  54  84 114 147 185 229 282 339
#     4  11  21  36  58  84 113 149 193 237 285 340
#     4  11  21  35  57  84 116 149 186 234 285 341
#     4  11  23  36  53  81 114 146 187 239 290 340
#     4   9  19  36  58  83 112 150 194 238 283 336
#
# _framework density 18.194316000000001
#
# number of rings (size 3 to 8) (size 9 to 14) (size 15 to 20)
#    0.000    1.667    1.667    5.000    0.000    3.333 
#    0.000    2.500    0.000    6.000    0.000    0.000 
#    0.000    0.000    0.000    0.000    0.000    0.000 
#
# Total GULP energy -134075.990155 kJ/mol
# GULP energy per Si atom -5586.499590 kJ/mol
# Density = 1.815290 g / cm^3
# Si number density = 18.194316 Si / 1000 Ang^3
#
#
#
# Elastic Constant Matrix: (Units=GPa)
#
#
# Indices 1 2 3 4 5 6 
#
# 1 168.1426 56.6435 87.6484 0.0000 0.0000 0.0000
# 2 56.6435 59.9109 31.7152 0.0000 0.0000 0.0000
# 3 87.6484 31.7152 134.6702 0.0000 0.0000 0.0000
# 4 0.0000 0.0000 0.0000 -6.4680 0.0000 0.0000
# 5 0.0000 0.0000 0.0000 0.0000 32.0560 0.0000
# 6 0.0000 0.0000 0.0000 0.0000 0.0000 30.9843
#
#
#
# Elastic Compliance Matrix: (Units=1/GPa)
#
#
# Indices 1 2 3 4 5 6 
#
# 1 0.011577 -0.007947 -0.005663 0.000000 0.000000 0.000000
# 2 -0.007947 0.024525 -0.000603 0.000000 0.000000 0.000000
# 3 -0.005663 -0.000603 0.011253 0.000000 0.000000 0.000000
# 4 0.000000 0.000000 0.000000 -0.154608 0.000000 0.000000
# 5 0.000000 0.000000 0.000000 0.000000 0.031195 0.000000
# 6 0.000000 0.000000 0.000000 0.000000 0.000000 0.032274
#
#
# Mechanical properties :
#
#
# Convention : Reuss Voigt Hill
#
# Bulk Modulus (GPa) = 52.83275 79.41533 66.12404
# Shear Modulus (GPa) = -552.59399 23.76224 -264.41587
#
# Velocity S-wave (km/s) = -17.44641 3.61782 -12.06832
# Velocity P-wave (km/s) = 19.40967 7.82270 12.56066
#
# Compressibility (1/GPa) = 0.01892765
#
# Stress axis : x y z
#
# Youngs Moduli (GPa) = 86.38177 40.77515 88.86400
#
# Poissons Ratio (x) = 0.32406 0.50322
# Poissons Ratio (y) = 0.68651 0.05360
# Poissons Ratio (z) = 0.48916 0.02459
#
# Static dielectric constant tensor:
#      x y z
#    x 1.630180 0.000000 0.000000 
#    y 0.000000 1.617700 0.000000 
#    z 0.000000 0.000000 1.590820 
# 
# From -- ./inp_files/10481.got.cif
#   From: 2010.05.17/outbox.cif.g08.bks.cpg/sg35_6_cif.got.tgz:10481.got - 2010.06.03 17:29:28.
