data_PCOD9348535
_publ_section_title
;
Structure prediction by ZEFSAII (Michael W. Deem and Ramdas Pophale) SiO2 
 PCOD9348535
Probable space group: C M M 2
;
_chemical_formula_sum "Si O2"
_cell_formula_units_Z 40
_cell_length_a 18.768312
_cell_length_b 8.478881
_cell_length_c 13.249802
_cell_angle_alpha 90.000000
_cell_angle_beta 90.000000
_cell_angle_gamma 90.000000
_cell_volume 2108.497755
_symmetry_space_group_name_H-M "C M M 2"
_symmetry_group_IT_number 35
_symmetry_cell_setting 'orthorhombic'
loop_
_space_group_symop_operation_xyz
x,y,z
-x,-y,z
-x,y,z
x,-y,z
1/2+x,1/2+y,z
1/2-x,1/2-y,z
1/2-x,1/2+y,z
1/2+x,1/2-y,z
loop_
_atom_site_type_symbol
_atom_site_label
_atom_site_fract_x
_atom_site_fract_y
_atom_site_fract_z
Si Si1 0.669440 0.189155 0.966420
Si Si2 0.330372 0.189251 0.574066
Si Si3 0.669635 0.689183 0.354677
Si Si4 0.918223 0.307522 0.769418
Si Si5 0.582061 0.309164 0.158426
O O1 0.750000 0.250000 0.966877
O O2 0.627769 0.243528 0.865889
O O3 0.670573 0.000000 0.966311
O O4 0.627250 0.246916 0.064596
O O5 0.250000 0.250000 0.590844
O O6 0.353889 0.249316 0.464212
O O7 0.380735 0.242143 0.665450
O O8 0.328756 0.000000 0.572276
O O9 0.671485 0.500000 0.357626
O O10 0.750000 0.750000 0.337224
O O11 0.618987 0.740302 0.263278
O O12 0.918597 0.500000 0.769785
O O13 0.000000 0.254940 0.776358
O O14 0.500000 0.257012 0.152531
O O15 0.583108 0.500000 0.155800
#
# Coordination Sequence:
#
# PCOD9348535 Si02
#       5
#     8   8   8   8   8
#     4  11  22  37  59  83 109 143 183 225 269 322
#     4  10  19  33  55  79 106 140 178 221 265 314
#     4  10  20  35  55  78 107 142 180 222 267 316
#     4   9  19  35  54  79 110 141 175 219 270 320
#     4  10  22  39  57  80 112 145 178 223 276 325
#
# _framework density 18.970852000000001
#
# number of rings (size 3 to 8) (size 9 to 14) (size 15 to 20)
#    0.000    2.000    0.000    4.800    0.000    5.200 
#    0.000    3.000    0.000    6.600    0.000    0.000 
#    0.000    0.000    0.000    0.000    0.000    0.000 
#
# Total GULP energy -111731.456632 kJ/mol
# GULP energy per Si atom -5586.572832 kJ/mol
# Density = 1.892767 g / cm^3
# Si number density = 18.970852 Si / 1000 Ang^3
#
#
#
# Elastic Constant Matrix: (Units=GPa)
#
#
# Indices 1 2 3 4 5 6 
#
# 1 176.2569 29.0921 144.9560 0.0000 0.0000 0.0000
# 2 29.0921 31.6312 35.6444 0.0000 0.0000 0.0000
# 3 144.9560 35.6444 212.2242 0.0000 0.0000 0.0000
# 4 0.0000 0.0000 0.0000 -26.3165 0.0000 0.0000
# 5 0.0000 0.0000 0.0000 0.0000 39.2784 0.0000
# 6 0.0000 0.0000 0.0000 0.0000 0.0000 3.2833
#
#
#
# Elastic Compliance Matrix: (Units=1/GPa)
#
#
# Indices 1 2 3 4 5 6 
#
# 1 0.013094 -0.002423 -0.008537 0.000000 0.000000 0.000000
# 2 -0.002423 0.039443 -0.004970 0.000000 0.000000 0.000000
# 3 -0.008537 -0.004970 0.011378 0.000000 0.000000 0.000000
# 4 0.000000 0.000000 0.000000 -0.037999 0.000000 0.000000
# 5 0.000000 0.000000 0.000000 0.000000 0.025459 0.000000
# 6 0.000000 0.000000 0.000000 0.000000 0.000000 0.304570
#
#
# Mechanical properties :
#
#
# Convention : Reuss Voigt Hill
#
# Bulk Modulus (GPa) = 31.19564 93.27746 62.23655
# Shear Modulus (GPa) = 12.54736 17.27705 14.91220
#
# Velocity S-wave (km/s) = 2.57456 3.02108 2.80672
# Velocity P-wave (km/s) = 5.03165 7.83867 6.58644
#
# Compressibility (1/GPa) = 0.03205576
#
# Stress axis : x y z
#
# Youngs Moduli (GPa) = 76.36906 25.35293 87.89204
#
# Poissons Ratio (x) = 0.06144 0.75032
# Poissons Ratio (y) = 0.18506 0.43678
# Poissons Ratio (z) = 0.65195 0.12599
#
# Static dielectric constant tensor:
#      x y z
#    x 1.627700 0.000000 0.000000 
#    y 0.000000 1.649750 0.000000 
#    z 0.000000 0.000000 1.643120 
# 
# From -- ./inp_files/11015.got.cif
#   From: 2010.05.17/outbox.cif.g08.bks.cpg/sg35_6_cif.got.tgz:11015.got - 2010.06.03 17:29:28.
