data_PCOD9348716
_publ_section_title
;
Structure prediction by ZEFSAII (Michael W. Deem and Ramdas Pophale) SiO2 
 PCOD9348716
Probable space group: C M M 2
;
_chemical_formula_sum "Si O2"
_cell_formula_units_Z 32
_cell_length_a 8.768135
_cell_length_b 24.204742
_cell_length_c 7.869963
_cell_angle_alpha 90.000000
_cell_angle_beta 90.000000
_cell_angle_gamma 90.000000
_cell_volume 1670.245754
_symmetry_space_group_name_H-M "C M M 2"
_symmetry_group_IT_number 35
_symmetry_cell_setting 'orthorhombic'
loop_
_space_group_symop_operation_xyz
x,y,z
-x,-y,z
-x,y,z
x,-y,z
1/2+x,1/2+y,z
1/2-x,1/2-y,z
1/2-x,1/2+y,z
1/2+x,1/2-y,z
loop_
_atom_site_type_symbol
_atom_site_label
_atom_site_fract_x
_atom_site_fract_y
_atom_site_fract_z
Si Si1 0.816897 0.883481 0.185870
Si Si2 0.181242 0.000000 0.706045
Si Si3 0.318414 0.811188 0.880994
Si Si4 0.182119 0.878896 0.570759
Si Si5 0.818708 0.500000 0.079006
O O1 0.778197 0.864715 0.377000
O O2 0.753532 0.944992 0.157745
O O3 0.000000 0.884633 0.169573
O O4 0.747707 0.844602 0.041487
O O5 0.212404 0.943909 0.603803
O O6 0.000000 0.000000 0.749083
O O7 0.275458 0.000000 0.879657
O O8 0.500000 0.808997 0.892415
O O9 0.250000 0.750000 0.878120
O O10 0.268612 0.843527 0.711154
O O11 0.000000 0.870638 0.593586
O O12 0.000000 0.500000 0.100397
#
# Coordination Sequence:
#
# PCOD9348716 Si02
#       5
#     8   4   8   8   4
#     4  11  23  42  67  95 128 167 210 258 315 374
#     4  10  19  36  64  93 127 167 205 249 309 378
#     4  12  26  44  66  92 125 166 212 263 316 371
#     4  10  22  41  67  96 126 166 210 256 312 375
#     4  12  23  36  60  97 133 169 207 253 313 374
#
# _framework density 19.158857999999999
#
# number of rings (size 3 to 8) (size 9 to 14) (size 15 to 20)
#    0.000    1.000    2.500    4.875    0.000    5.000 
#    0.000    1.250    0.000    0.000    0.000    0.000 
#    0.000    0.000    0.000    0.000    0.000    0.000 
#
# Total GULP energy -89515.834432 kJ/mol
# GULP energy per Si atom -5594.739652 kJ/mol
# Density = 1.911525 g / cm^3
# Si number density = 19.158858 Si / 1000 Ang^3
#
#
#
# Elastic Constant Matrix: (Units=GPa)
#
#
# Indices 1 2 3 4 5 6 
#
# 1 117.3842 75.4204 97.8079 0.0000 0.0000 0.0000
# 2 75.4204 154.7124 83.2597 0.0000 0.0000 0.0000
# 3 97.8079 83.2597 180.1162 0.0000 0.0000 0.0000
# 4 0.0000 0.0000 0.0000 -9.4191 0.0000 0.0000
# 5 0.0000 0.0000 0.0000 0.0000 9.2481 0.0000
# 6 0.0000 0.0000 0.0000 0.0000 0.0000 33.5474
#
#
#
# Elastic Compliance Matrix: (Units=1/GPa)
#
#
# Indices 1 2 3 4 5 6 
#
# 1 0.017724 -0.004607 -0.007495 0.000000 0.000000 0.000000
# 2 -0.004607 0.009801 -0.002029 0.000000 0.000000 0.000000
# 3 -0.007495 -0.002029 0.010560 0.000000 0.000000 0.000000
# 4 0.000000 0.000000 0.000000 -0.106167 0.000000 0.000000
# 5 0.000000 0.000000 0.000000 0.000000 0.108131 0.000000
# 6 0.000000 0.000000 0.000000 0.000000 0.000000 0.029809
#
#
# Mechanical properties :
#
#
# Convention : Reuss Voigt Hill
#
# Bulk Modulus (GPa) = 101.79788 107.24321 104.52055
# Shear Modulus (GPa) = 49.31250 19.72359 34.51805
#
# Velocity S-wave (km/s) = 5.07884 3.21203 4.24922
# Velocity P-wave (km/s) = 9.36172 8.35784 8.87399
#
# Compressibility (1/GPa) = 0.00982339
#
# Stress axis : x y z
#
# Youngs Moduli (GPa) = 56.42046 102.02720 94.69657
#
# Poissons Ratio (x) = 0.47001 0.70977
# Poissons Ratio (y) = 0.25991 0.19215
# Poissons Ratio (z) = 0.42288 0.20703
#
# Static dielectric constant tensor:
#      x y z
#    x 1.638200 0.000000 0.000000 
#    y 0.000000 1.647360 0.000000 
#    z 0.000000 0.000000 1.654320 
# 
# From -- ./inp_files/4771.got.cif
#   From: 2010.05.17/outbox.cif.g08.bks.cpg/sg35_3_cif.got.tgz:4771.got - 2010.06.03 17:29:28.
