data_PCOD9348172
_publ_section_title
;
Structure prediction by ZEFSAII (Michael W. Deem and Ramdas Pophale) SiO2 
 PCOD9348172
Probable space group: C M M 2
;
_chemical_formula_sum "Si O2"
_cell_formula_units_Z 48
_cell_length_a 8.727455
_cell_length_b 27.256994
_cell_length_c 11.706125
_cell_angle_alpha 90.000000
_cell_angle_beta 90.000000
_cell_angle_gamma 90.000000
_cell_volume 2784.702047
_symmetry_space_group_name_H-M "C M M 2"
_symmetry_group_IT_number 35
_symmetry_cell_setting 'orthorhombic'
loop_
_space_group_symop_operation_xyz
x,y,z
-x,-y,z
-x,y,z
x,-y,z
1/2+x,1/2+y,z
1/2-x,1/2-y,z
1/2-x,1/2+y,z
1/2+x,1/2-y,z
loop_
_atom_site_type_symbol
_atom_site_label
_atom_site_fract_x
_atom_site_fract_y
_atom_site_fract_z
Si Si1 0.172697 0.878152 0.964100
Si Si2 0.184669 0.443348 0.154209
Si Si3 0.171794 0.202233 0.161563
Si Si4 0.319484 0.136236 0.341600
Si Si5 0.683247 0.802899 0.790651
Si Si6 0.682987 0.697490 0.536054
O O1 0.263266 0.849615 0.865084
O O2 0.000000 0.890992 0.926525
O O3 0.250871 0.922317 0.034519
O O4 0.161742 0.837453 0.063059
O O5 0.227572 0.500000 0.169337
O O6 0.233160 0.410272 0.264107
O O7 0.000000 0.439333 0.149561
O O8 0.250000 0.250000 0.112711
O O9 0.283008 0.181596 0.258171
O O10 0.000000 0.210804 0.206821
O O11 0.500000 0.131357 0.364040
O O12 0.232852 0.152098 0.456212
O O13 0.500000 0.799545 0.790587
O O14 0.750000 0.750000 0.831620
O O15 0.747238 0.808912 0.662338
O O16 0.500000 0.701167 0.541557
O O17 0.750000 0.750000 0.492984
#
# Coordination Sequence:
#
# PCOD9348172 Si02
#       6
#     8   8   8   8   8   8
#     4  10  20  33  50  74 102 133 169 209 254 303
#     4   9  19  36  57  79 102 131 168 212 263 314
#     4  10  19  29  43  66  97 130 163 199 243 295
#     4  10  19  32  50  72  99 130 166 207 252 302
#     4  11  21  34  52  75 105 140 176 211 249 298
#     4  11  21  34  51  73 104 139 175 210 247 297
#
# _framework density 17.237031999999999
#
# number of rings (size 3 to 8) (size 9 to 14) (size 15 to 20)
#    0.000    1.833    0.000    6.500    0.000    4.333 
#    0.000    0.000    0.000    1.000    0.000    2.333 
#    0.000    0.000    0.000    0.000    0.000    0.000 
#
# Total GULP energy -133779.655206 kJ/mol
# GULP energy per Si atom -5574.152300 kJ/mol
# Density = 1.719780 g / cm^3
# Si number density = 17.237032 Si / 1000 Ang^3
#
#
#
# Elastic Constant Matrix: (Units=GPa)
#
#
# Indices 1 2 3 4 5 6 
#
# 1 105.4546 47.4843 36.5344 0.0000 0.0000 0.0000
# 2 47.4843 95.6602 49.7799 0.0000 0.0000 0.0000
# 3 36.5344 49.7799 86.2406 0.0000 0.0000 0.0000
# 4 0.0000 0.0000 0.0000 23.9806 0.0000 0.0000
# 5 0.0000 0.0000 0.0000 0.0000 37.1875 0.0000
# 6 0.0000 0.0000 0.0000 0.0000 0.0000 20.2710
#
#
#
# Elastic Compliance Matrix: (Units=1/GPa)
#
#
# Indices 1 2 3 4 5 6 
#
# 1 0.012568 -0.004957 -0.002463 0.000000 0.000000 0.000000
# 2 -0.004957 0.016897 -0.007653 0.000000 0.000000 0.000000
# 3 -0.002463 -0.007653 0.017057 0.000000 0.000000 0.000000
# 4 0.000000 0.000000 0.000000 0.041700 0.000000 0.000000
# 5 0.000000 0.000000 0.000000 0.000000 0.026891 0.000000
# 6 0.000000 0.000000 0.000000 0.000000 0.000000 0.049332
#
#
# Mechanical properties :
#
#
# Convention : Reuss Voigt Hill
#
# Bulk Modulus (GPa) = 61.06876 61.66142 61.36509
# Shear Modulus (GPa) = 24.99389 26.52495 25.75942
#
# Velocity S-wave (km/s) = 3.81203 3.92705 3.86997
# Velocity P-wave (km/s) = 7.40818 7.51084 7.45969
#
# Compressibility (1/GPa) = 0.01637498
#
# Stress axis : x y z
#
# Youngs Moduli (GPa) = 79.56676 59.18263 58.62849
#
# Poissons Ratio (x) = 0.29336 0.14440
# Poissons Ratio (y) = 0.39440 0.44870
# Poissons Ratio (z) = 0.19598 0.45294
#
# Static dielectric constant tensor:
#      x y z
#    x 1.564990 0.000000 0.000000 
#    y 0.000000 1.611040 0.000000 
#    z 0.000000 0.000000 1.598800 
# 
# From -- ./inp_files/11375.got.cif
#   From: 2010.05.17/outbox.cif.g08.bks.cpg/sg35_6_cif.got.tgz:11375.got - 2010.06.03 17:29:28.
