data_PCOD9348585
_publ_section_title
;
Structure prediction by ZEFSAII (Michael W. Deem and Ramdas Pophale) SiO2 
 PCOD9348585
Probable space group: C M M 2
;
_chemical_formula_sum "Si O2"
_cell_formula_units_Z 64
_cell_length_a 14.353122
_cell_length_b 19.318890
_cell_length_c 12.501010
_cell_angle_alpha 90.000000
_cell_angle_beta 90.000000
_cell_angle_gamma 90.000000
_cell_volume 3466.359873
_symmetry_space_group_name_H-M "C M M 2"
_symmetry_group_IT_number 35
_symmetry_cell_setting 'orthorhombic'
loop_
_space_group_symop_operation_xyz
x,y,z
-x,-y,z
-x,y,z
x,-y,z
1/2+x,1/2+y,z
1/2-x,1/2-y,z
1/2-x,1/2+y,z
1/2+x,1/2-y,z
loop_
_atom_site_type_symbol
_atom_site_label
_atom_site_fract_x
_atom_site_fract_y
_atom_site_fract_z
Si Si1 0.389522 0.772752 0.475990
Si Si2 0.888689 0.207936 0.252916
Si Si3 0.803407 0.421537 0.512674
Si Si4 0.227276 0.366975 0.746160
Si Si5 0.269237 0.421242 0.282606
Si Si6 0.106673 0.579121 0.931718
Si Si7 0.609831 0.150003 0.155076
Si Si8 0.611790 0.271420 0.706267
O O1 0.500000 0.769247 0.472166
O O2 0.355427 0.739053 0.366867
O O3 0.364690 0.853163 0.490329
O O4 0.361444 0.728407 0.579731
O O5 0.840364 0.134897 0.237101
O O6 0.866213 0.269377 0.170947
O O7 0.000000 0.199311 0.255184
O O8 0.844632 0.500000 0.508110
O O9 0.769726 0.408241 0.633925
O O10 0.732257 0.419308 0.412380
O O11 0.183985 0.411463 0.841116
O O12 0.328088 0.331409 0.761846
O O13 0.153785 0.302716 0.739976
O O14 0.287585 0.500000 0.249980
O O15 0.169836 0.396197 0.236309
O O16 0.107539 0.500000 0.969790
O O17 0.000000 0.593015 0.892220
O O18 0.125327 0.626708 0.033894
O O19 0.500000 0.142048 0.179838
O O20 0.500000 0.275379 0.719004
#
# Coordination Sequence:
#
# PCOD9348585 Si02
#       8
#     8   8   8   8   8   8   8   8
#     4   9  17  31  52  78 112 151 186 225 277 335
#     4  10  20  36  57  82 110 149 196 234 271 330
#     4  10  20  31  49  81 116 147 182 228 285 345
#     4  10  19  34  55  79 111 148 186 231 279 339
#     4  11  22  35  55  84 119 153 182 228 287 341
#     4  10  21  38  59  81 110 146 184 233 294 354
#     4  10  21  38  60  84 108 143 190 239 287 338
#     4   9  18  32  52  80 111 147 188 231 277 327
#
# _framework density 18.463172
#
# number of rings (size 3 to 8) (size 9 to 14) (size 15 to 20)
#    0.000    2.125    1.250    2.250    0.000    2.750 
#    4.500    1.250    0.000    2.250    0.000    0.000 
#    0.000    0.000    0.000    0.000    0.000    0.000 
#
# Total GULP energy -178353.435762 kJ/mol
# GULP energy per Si atom -5573.544868 kJ/mol
# Density = 1.842115 g / cm^3
# Si number density = 18.463172 Si / 1000 Ang^3
#
#
#
# Elastic Constant Matrix: (Units=GPa)
#
#
# Indices 1 2 3 4 5 6 
#
# 1 84.5893 42.7428 30.8540 0.0000 0.0000 0.0000
# 2 42.7428 131.9317 41.0194 0.0000 0.0000 0.0000
# 3 30.8540 41.0194 51.4426 0.0000 0.0000 0.0000
# 4 0.0000 0.0000 0.0000 22.4674 0.0000 0.0000
# 5 0.0000 0.0000 0.0000 0.0000 11.1672 0.0000
# 6 0.0000 0.0000 0.0000 0.0000 0.0000 22.6197
#
#
#
# Elastic Compliance Matrix: (Units=1/GPa)
#
#
# Indices 1 2 3 4 5 6 
#
# 1 0.015932 -0.002913 -0.007233 0.000000 0.000000 0.000000
# 2 -0.002913 0.010611 -0.006714 0.000000 0.000000 0.000000
# 3 -0.007233 -0.006714 0.029131 0.000000 0.000000 0.000000
# 4 0.000000 0.000000 0.000000 0.044509 0.000000 0.000000
# 5 0.000000 0.000000 0.000000 0.000000 0.089548 0.000000
# 6 0.000000 0.000000 0.000000 0.000000 0.000000 0.044209
#
#
# Mechanical properties :
#
#
# Convention : Reuss Voigt Hill
#
# Bulk Modulus (GPa) = 45.54911 55.24398 50.39655
# Shear Modulus (GPa) = 18.18339 21.47404 19.82872
#
# Velocity S-wave (km/s) = 3.14163 3.41409 3.28069
# Velocity P-wave (km/s) = 6.15497 6.74740 6.45798
#
# Compressibility (1/GPa) = 0.02195433
#
# Stress axis : x y z
#
# Youngs Moduli (GPa) = 62.76736 94.24392 34.32791
#
# Poissons Ratio (x) = 0.27451 0.24829
# Poissons Ratio (y) = 0.18282 0.23047
# Poissons Ratio (z) = 0.45399 0.63274
#
# Static dielectric constant tensor:
#      x y z
#    x 1.646920 0.000000 0.000000 
#    y 0.000000 1.633980 0.000000 
#    z 0.000000 0.000000 1.664090 
# 
# From -- ./inp_files/13167.got.cif
#   From: 2010.05.17/outbox.cif.g08.bks.cpg/sg35_7_cif.got.tgz:13167.got - 2010.06.03 17:29:28.
