data_PCOD9348548
_publ_section_title
;
Structure prediction by ZEFSAII (Michael W. Deem and Ramdas Pophale) SiO2 
 PCOD9348548
Probable space group: C M M 2
;
_chemical_formula_sum "Si O2"
_cell_formula_units_Z 48
_cell_length_a 15.710438
_cell_length_b 8.786137
_cell_length_c 17.554507
_cell_angle_alpha 90.000000
_cell_angle_beta 90.000000
_cell_angle_gamma 90.000000
_cell_volume 2423.119883
_symmetry_space_group_name_H-M "C M M 2"
_symmetry_group_IT_number 35
_symmetry_cell_setting 'orthorhombic'
loop_
_space_group_symop_operation_xyz
x,y,z
-x,-y,z
-x,y,z
x,-y,z
1/2+x,1/2+y,z
1/2-x,1/2-y,z
1/2-x,1/2+y,z
1/2+x,1/2-y,z
loop_
_atom_site_type_symbol
_atom_site_label
_atom_site_fract_x
_atom_site_fract_y
_atom_site_fract_z
Si Si1 0.659709 0.820019 0.139000
Si Si2 0.896010 0.676713 0.450690
Si Si3 0.500000 0.183894 0.881595
Si Si4 0.603188 0.323947 0.293025
Si Si5 0.000000 0.181305 0.049633
Si Si6 0.162341 0.316895 0.779699
Si Si7 0.400637 0.185440 0.616886
O O1 0.750000 0.750000 0.115964
O O2 0.642994 0.778552 0.227358
O O3 0.582961 0.746370 0.091842
O O4 0.659671 0.000000 0.128450
O O5 0.870993 0.500000 0.441088
O O6 0.869920 0.772374 0.377360
O O7 0.867921 0.735317 0.533864
O O8 0.000000 0.678595 0.453427
O O9 0.417267 0.224939 0.832129
O O10 0.500000 0.000000 0.891859
O O11 0.500000 0.263660 0.962743
O O12 0.500000 0.309821 0.288874
O O13 0.625014 0.500000 0.279139
O O14 0.000000 0.000000 0.055176
O O15 0.166401 0.500000 0.777981
O O16 0.250000 0.250000 0.809280
O O17 0.146839 0.262956 0.692712
O O18 0.500000 0.228532 0.624570
O O19 0.398836 0.000000 0.615162
#
# Coordination Sequence:
#
# PCOD9348548 Si02
#       7
#     8   8   4   8   4   8   8
#     4  12  25  43  68  96 127 163 206 252 306 367
#     4   8  14  25  47  78 110 150 206 257 299 350
#     4  10  22  42  66  89 118 159 200 239 296 369
#     4  10  19  33  55  84 123 164 206 253 305 360
#     4  12  26  46  70  97 128 159 198 249 306 371
#     4  10  20  36  60  88 119 155 199 247 300 359
#     4   8  13  27  52  79 108 151 204 252 295 351
#
# _framework density 19.809172
#
# number of rings (size 3 to 8) (size 9 to 14) (size 15 to 20)
#    0.000    2.167    1.667    3.750    0.000    2.000 
#    0.000    3.333    0.000    3.000    0.000    0.000 
#    0.000    0.000    0.000    0.000    0.000    0.000 
#
# Total GULP energy -134054.332239 kJ/mol
# GULP energy per Si atom -5585.597177 kJ/mol
# Density = 1.976409 g / cm^3
# Si number density = 19.809172 Si / 1000 Ang^3
#
#
#
# Elastic Constant Matrix: (Units=GPa)
#
#
# Indices 1 2 3 4 5 6 
#
# 1 123.6312 48.7028 67.7491 0.0000 0.0000 0.0000
# 2 48.7028 84.4551 52.0394 0.0000 0.0000 0.0000
# 3 67.7491 52.0394 137.7693 0.0000 0.0000 0.0000
# 4 0.0000 0.0000 0.0000 16.3365 0.0000 0.0000
# 5 0.0000 0.0000 0.0000 0.0000 -9.9314 0.0000
# 6 0.0000 0.0000 0.0000 0.0000 0.0000 23.4513
#
#
#
# Elastic Compliance Matrix: (Units=1/GPa)
#
#
# Indices 1 2 3 4 5 6 
#
# 1 0.012184 -0.004346 -0.004350 0.000000 0.000000 0.000000
# 2 -0.004346 0.016983 -0.004278 0.000000 0.000000 0.000000
# 3 -0.004350 -0.004278 0.011014 0.000000 0.000000 0.000000
# 4 0.000000 0.000000 0.000000 0.061212 0.000000 0.000000
# 5 0.000000 0.000000 0.000000 0.000000 -0.100691 0.000000
# 6 0.000000 0.000000 0.000000 0.000000 0.000000 0.042641
#
#
# Mechanical properties :
#
#
# Convention : Reuss Voigt Hill
#
# Bulk Modulus (GPa) = 70.25929 75.87091 73.06510
# Shear Modulus (GPa) = 67.53495 17.79559 42.66527
#
# Velocity S-wave (km/s) = 5.84524 3.00050 4.64595
# Velocity P-wave (km/s) = 9.00560 7.09845 8.10829
#
# Compressibility (1/GPa) = 0.01423299
#
# Stress axis : x y z
#
# Youngs Moduli (GPa) = 82.07161 58.88391 90.79707
#
# Poissons Ratio (x) = 0.25590 0.39499
# Poissons Ratio (y) = 0.35668 0.38840
# Poissons Ratio (z) = 0.35703 0.25189
#
# Static dielectric constant tensor:
#      x y z
#    x 1.702220 0.000000 0.000000 
#    y 0.000000 1.661620 0.000000 
#    z 0.000000 0.000000 1.697410 
# 
# From -- ./inp_files/17908.got.cif
#   From: 2010.05.17/outbox.cif.g08.bks.cpg/sg35_9_cif.got.tgz:17908.got - 2010.06.03 17:29:28.
