data_PCOD9348482
_publ_section_title
;
Structure prediction by ZEFSAII (Michael W. Deem and Ramdas Pophale) SiO2 
 PCOD9348482
Probable space group: C M M 2
;
_chemical_formula_sum "Si O2"
_cell_formula_units_Z 58
_cell_length_a 7.755504
_cell_length_b 31.234674
_cell_length_c 12.828341
_cell_angle_alpha 90.000000
_cell_angle_beta 90.000000
_cell_angle_gamma 90.000000
_cell_volume 3107.545523
_symmetry_space_group_name_H-M "C M M 2"
_symmetry_group_IT_number 35
_symmetry_cell_setting 'orthorhombic'
loop_
_space_group_symop_operation_xyz
x,y,z
-x,-y,z
-x,y,z
x,-y,z
1/2+x,1/2+y,z
1/2-x,1/2-y,z
1/2-x,1/2+y,z
1/2+x,1/2-y,z
loop_
_atom_site_type_symbol
_atom_site_label
_atom_site_fract_x
_atom_site_fract_y
_atom_site_fract_z
Si Si1 0.801406 0.438862 0.004220
Si Si2 0.298379 0.344864 0.054116
Si Si3 0.790745 0.547636 0.759558
Si Si4 0.294542 0.798920 0.261666
Si Si5 0.708123 0.799026 0.498196
Si Si6 0.794975 0.201503 0.851105
Si Si7 0.202495 0.636508 0.672229
Si Si8 0.500000 0.500000 0.075113
O O1 0.795640 0.388908 0.030380
O O2 0.000000 0.453196 0.018650
O O3 0.753924 0.446071 0.882311
O O4 0.654433 0.463253 0.068051
O O5 0.500000 0.352485 0.034971
O O6 0.275143 0.328933 0.171289
O O7 0.240502 0.309485 0.969403
O O8 0.730005 0.500000 0.728153
O O9 0.725202 0.589252 0.697161
O O10 0.000000 0.547645 0.751359
O O11 0.500000 0.803587 0.263261
O O12 0.250000 0.750000 0.235137
O O13 0.229550 0.806300 0.379684
O O14 0.500000 0.801526 0.497602
O O15 0.750000 0.750000 0.528735
O O16 0.775718 0.834630 0.578331
O O17 0.750000 0.250000 0.822744
O O18 0.716678 0.166171 0.774443
O O19 0.000000 0.197346 0.842608
O O20 0.000000 0.630234 0.649468
#
# Coordination Sequence:
#
# PCOD9348482 Si02
#       8
#     8   8   8   8   8   8   8   2
#     4  11  21  35  56  82 114 152 189 234 285 341
#     4  11  22  36  53  80 111 145 187 232 283 340
#     4   9  17  31  52  78 105 141 184 224 276 336
#     4  10  20  35  54  77 105 142 188 238 283 333
#     4   9  19  34  53  76 104 139 183 232 280 331
#     4  11  23  34  48  72 109 147 181 219 271 338
#     4  10  19  33  53  76 107 141 180 226 277 336
#     4  12  22  36  56  82 116 150 198 236 288 330
#
# _framework density 18.664249000000002
#
# number of rings (size 3 to 8) (size 9 to 14) (size 15 to 20)
#    0.000    1.793    2.759    2.276    0.000    4.966 
#    0.000    0.000    0.000    0.000    1.793    0.000 
#    0.000    0.000    0.000    0.000    0.000    0.000 
#
# Total GULP energy -161564.845196 kJ/mol
# GULP energy per Si atom -5571.201558 kJ/mol
# Density = 1.862177 g / cm^3
# Si number density = 18.664249 Si / 1000 Ang^3
#
#
#
# Elastic Constant Matrix: (Units=GPa)
#
#
# Indices 1 2 3 4 5 6 
#
# 1 55.9036 4.2769 1.3180 0.0000 0.0000 0.0000
# 2 4.2769 156.0492 57.9408 0.0000 0.0000 0.0000
# 3 1.3180 57.9408 70.6734 0.0000 0.0000 0.0000
# 4 0.0000 0.0000 0.0000 1.1719 0.0000 0.0000
# 5 0.0000 0.0000 0.0000 0.0000 14.2181 0.0000
# 6 0.0000 0.0000 0.0000 0.0000 0.0000 1.9216
#
#
#
# Elastic Compliance Matrix: (Units=1/GPa)
#
#
# Indices 1 2 3 4 5 6 
#
# 1 0.017926 -0.000528 0.000098 0.000000 0.000000 0.000000
# 2 -0.000528 0.009228 -0.007556 0.000000 0.000000 0.000000
# 3 0.000098 -0.007556 0.020342 0.000000 0.000000 0.000000
# 4 0.000000 0.000000 0.000000 0.853342 0.000000 0.000000
# 5 0.000000 0.000000 0.000000 0.000000 0.070333 0.000000
# 6 0.000000 0.000000 0.000000 0.000000 0.000000 0.520394
#
#
# Mechanical properties :
#
#
# Convention : Reuss Voigt Hill
#
# Bulk Modulus (GPa) = 31.71974 45.52196 38.62085
# Shear Modulus (GPa) = 3.29371 18.06836 10.68103
#
# Velocity S-wave (km/s) = 1.32987 3.11476 2.39482
# Velocity P-wave (km/s) = 4.40339 6.11380 5.32768
#
# Compressibility (1/GPa) = 0.03152611
#
# Stress axis : x y z
#
# Youngs Moduli (GPa) = 55.78487 108.36426 49.15880
#
# Poissons Ratio (x) = 0.05720 -0.00484
# Poissons Ratio (y) = 0.02945 0.37143
# Poissons Ratio (z) = -0.00549 0.81877
#
# Static dielectric constant tensor:
#      x y z
#    x 1.690620 0.000000 0.000000 
#    y 0.000000 1.648180 0.000000 
#    z 0.000000 0.000000 1.644580 
# 
# From -- ./inp_files/11802.got.cif
#   From: 2010.05.17/outbox.cif.g08.bks.cpg/sg35_6_cif.got.tgz:11802.got - 2010.06.03 17:29:28.
