data_PCOD9348564
_publ_section_title
;
Structure prediction by ZEFSAII (Michael W. Deem and Ramdas Pophale) SiO2 
 PCOD9348564
Probable space group: C M M 2
;
_chemical_formula_sum "Si O2"
_cell_formula_units_Z 36
_cell_length_a 9.442461
_cell_length_b 15.347319
_cell_length_c 13.143687
_cell_angle_alpha 90.000000
_cell_angle_beta 90.000000
_cell_angle_gamma 90.000000
_cell_volume 1904.736606
_symmetry_space_group_name_H-M "C M M 2"
_symmetry_group_IT_number 35
_symmetry_cell_setting 'orthorhombic'
loop_
_space_group_symop_operation_xyz
x,y,z
-x,-y,z
-x,y,z
x,-y,z
1/2+x,1/2+y,z
1/2-x,1/2-y,z
1/2-x,1/2+y,z
1/2+x,1/2-y,z
loop_
_atom_site_type_symbol
_atom_site_label
_atom_site_fract_x
_atom_site_fract_y
_atom_site_fract_z
Si Si1 0.841672 0.327125 0.829100
Si Si2 0.170855 0.000000 0.787111
Si Si3 0.829784 0.000000 0.547119
Si Si4 0.669491 0.597256 0.181188
Si Si5 0.672003 0.340205 0.407759
Si Si6 0.250000 0.750000 0.027723
O O1 0.750000 0.250000 0.775792
O O2 0.746842 0.413767 0.829506
O O3 0.000000 0.340011 0.787336
O O4 0.854786 0.292031 0.944712
O O5 0.200363 0.000000 0.666160
O O6 0.000000 0.000000 0.804485
O O7 0.782526 0.086432 0.488380
O O8 0.000000 0.000000 0.537338
O O9 0.500000 0.591358 0.183507
O O10 0.725328 0.500000 0.157730
O O11 0.712215 0.626722 0.294530
O O12 0.705047 0.671053 0.099780
O O13 0.500000 0.330537 0.410918
O O14 0.750000 0.250000 0.427635
#
# Coordination Sequence:
#
# PCOD9348564 Si02
#       6
#     8   4   4   8   8   4
#     4  10  23  41  61  88 122 156 201 255 304 356
#     4  11  23  41  66  89 116 158 207 255 308 361
#     4   9  20  39  62  87 114 152 199 243 290 355
#     4  10  19  33  57  86 116 159 199 234 283 354
#     4  10  19  36  59  86 120 153 194 238 286 347
#     4  10  22  34  60  88 120 154 202 246 290 356
#
# _framework density 18.900251999999998
#
# number of rings (size 3 to 8) (size 9 to 14) (size 15 to 20)
#    0.667    1.333    2.222    1.667    1.556    0.889 
#    0.000    5.000    0.000    2.667    0.000    0.000 
#    0.000    0.000    0.000    0.000    0.000    0.000 
#
# Total GULP energy -100226.372704 kJ/mol
# GULP energy per Si atom -5568.131817 kJ/mol
# Density = 1.885723 g / cm^3
# Si number density = 18.900252 Si / 1000 Ang^3
#
#
#
# Elastic Constant Matrix: (Units=GPa)
#
#
# Indices 1 2 3 4 5 6 
#
# 1 85.1165 53.4784 22.2792 0.0000 0.0000 0.0000
# 2 53.4784 186.2769 43.0603 0.0000 0.0000 0.0000
# 3 22.2792 43.0603 65.6402 0.0000 0.0000 0.0000
# 4 0.0000 0.0000 0.0000 -121.7545 0.0000 0.0000
# 5 0.0000 0.0000 0.0000 0.0000 16.8152 0.0000
# 6 0.0000 0.0000 0.0000 0.0000 0.0000 3.7630
#
#
#
# Elastic Compliance Matrix: (Units=1/GPa)
#
#
# Indices 1 2 3 4 5 6 
#
# 1 0.014706 -0.003617 -0.002619 0.000000 0.000000 0.000000
# 2 -0.003617 0.007217 -0.003507 0.000000 0.000000 0.000000
# 3 -0.002619 -0.003507 0.018424 0.000000 0.000000 0.000000
# 4 0.000000 0.000000 0.000000 -0.008213 0.000000 0.000000
# 5 0.000000 0.000000 0.000000 0.000000 0.059470 0.000000
# 6 0.000000 0.000000 0.000000 0.000000 0.000000 0.265744
#
#
# Mechanical properties :
#
#
# Convention : Reuss Voigt Hill
#
# Bulk Modulus (GPa) = 47.93301 63.85215 55.89258
# Shear Modulus (GPa) = 13.02801 -5.68752 3.67025
#
# Velocity S-wave (km/s) = 2.62831 -1.73659 1.39503
# Velocity P-wave (km/s) = 5.88445 5.46224 5.67727
#
# Compressibility (1/GPa) = 0.02086245
#
# Stress axis : x y z
#
# Youngs Moduli (GPa) = 67.99731 138.55463 54.27659
#
# Poissons Ratio (x) = 0.50111 0.14215
# Poissons Ratio (y) = 0.24592 0.19035
# Poissons Ratio (z) = 0.17809 0.48592
#
# Static dielectric constant tensor:
#      x y z
#    x 1.674060 0.000000 0.000000 
#    y 0.000000 1.643660 0.000000 
#    z 0.000000 0.000000 1.676080 
# 
# From -- ./inp_files/14668.got.cif
#   From: 2010.05.17/outbox.cif.g08.bks.cpg/sg35_8_cif.got.tgz:14668.got - 2010.06.03 17:29:28.
