data_PCOD9348775
_publ_section_title
;
Structure prediction by ZEFSAII (Michael W. Deem and Ramdas Pophale) SiO2 
 PCOD9348775
Probable space group: C M M 2
;
_chemical_formula_sum "Si O2"
_cell_formula_units_Z 64
_cell_length_a 13.535164
_cell_length_b 13.365576
_cell_length_c 19.930173
_cell_angle_alpha 90.000000
_cell_angle_beta 90.000000
_cell_angle_gamma 90.000000
_cell_volume 3605.473190
_symmetry_space_group_name_H-M "C M M 2"
_symmetry_group_IT_number 35
_symmetry_cell_setting 'orthorhombic'
loop_
_space_group_symop_operation_xyz
x,y,z
-x,-y,z
-x,y,z
x,-y,z
1/2+x,1/2+y,z
1/2-x,1/2-y,z
1/2-x,1/2+y,z
1/2+x,1/2-y,z
loop_
_atom_site_type_symbol
_atom_site_label
_atom_site_fract_x
_atom_site_fract_y
_atom_site_fract_z
Si Si1 0.615462 0.695396 0.820880
Si Si2 0.698531 0.115569 0.463598
Si Si3 0.884538 0.804605 0.531004
Si Si4 0.385846 0.878291 0.030506
Si Si5 0.880476 0.114690 0.675942
Si Si6 0.120580 0.384094 0.175942
Si Si7 0.698531 0.115569 0.888286
Si Si8 0.885846 0.621709 0.321378
O O1 0.500000 0.672346 0.829092
O O2 0.646183 0.670082 0.744652
O O3 0.637354 0.809877 0.840696
O O4 0.687605 0.631989 0.868588
O O5 0.812395 0.131988 0.483297
O O6 0.637354 0.190124 0.511188
O O7 0.676646 0.146379 0.386925
O O8 0.670392 0.000000 0.471806
O O9 0.853817 0.829918 0.607232
O O10 0.000000 0.827655 0.522793
O O11 0.500000 0.847159 0.019630
O O12 0.350977 0.840191 0.103529
O O13 0.386809 0.000000 0.035171
O O14 0.323354 0.853621 0.964959
O O15 0.000000 0.110197 0.675942
O O16 0.843597 0.000000 0.675942
O O17 0.153659 0.500000 0.175942
O O18 0.149023 0.340192 0.248355
O O19 0.000000 0.385208 0.175942
O O20 0.670393 0.000000 0.880079
O O21 0.886809 0.500000 0.316713
O O22 0.000000 0.652841 0.332254
#
# Coordination Sequence:
#
# PCOD9348775 Si02
#       8
#     8   8   8   8   8   8   8   8
#     4  10  21  36  53  73  98 129 166 204 244 296
#     4  10  20  32  50  77 104 130 161 201 252 299
#     4  10  21  36  53  73  98 129 166 204 244 296
#     4   8  13  23  41  67  99 131 163 201 242 284
#     4   9  18  35  57  75  94 127 169 208 243 285
#     4   7  10  18  36  63  93 127 166 201 233 276
#     4  10  20  32  50  77 104 130 161 201 252 299
#     4   8  13  23  41  67  99 131 163 201 242 284
#
# _framework density 17.750789999999999
#
# number of rings (size 3 to 8) (size 9 to 14) (size 15 to 20)
#    0.000    3.000    0.000    3.000    0.000    5.000 
#    0.000    1.875    0.000    5.250    0.000    2.625 
#    0.000    5.000    0.000    0.000    0.000    4.750 
#
# Total GULP energy -178138.019838 kJ/mol
# GULP energy per Si atom -5566.813120 kJ/mol
# Density = 1.771039 g / cm^3
# Si number density = 17.750790 Si / 1000 Ang^3
#
#
#
# Elastic Constant Matrix: (Units=GPa)
#
#
# Indices 1 2 3 4 5 6 
#
# 1 65.4297 -2.7383 66.5535 0.0000 0.0000 0.0000
# 2 -2.7383 64.6039 58.1998 0.0000 0.0000 0.0000
# 3 66.5535 58.1998 200.4826 0.0000 0.0000 0.0000
# 4 0.0000 0.0000 0.0000 -3.8609 0.0000 0.0000
# 5 0.0000 0.0000 0.0000 0.0000 4.1030 0.0000
# 6 0.0000 0.0000 0.0000 0.0000 0.0000 12.8927
#
#
#
# Elastic Compliance Matrix: (Units=1/GPa)
#
#
# Indices 1 2 3 4 5 6 
#
# 1 0.030178 0.013953 -0.014068 0.000000 0.000000 0.000000
# 2 0.013953 0.027412 -0.012590 0.000000 0.000000 0.000000
# 3 -0.014068 -0.012590 0.013313 0.000000 0.000000 0.000000
# 4 0.000000 0.000000 0.000000 -0.259008 0.000000 0.000000
# 5 0.000000 0.000000 0.000000 0.000000 0.243725 0.000000
# 6 0.000000 0.000000 0.000000 0.000000 0.000000 0.077564
#
#
# Mechanical properties :
#
#
# Convention : Reuss Voigt Hill
#
# Bulk Modulus (GPa) = 21.98172 63.83846 42.91009
# Shear Modulus (GPa) = 28.77587 16.52704 22.65146
#
# Velocity S-wave (km/s) = 4.03066 3.05464 3.57610
# Velocity P-wave (km/s) = 5.83713 6.96297 6.42475
#
# Compressibility (1/GPa) = 0.04549235
#
# Stress axis : x y z
#
# Youngs Moduli (GPa) = 33.13717 36.48053 75.11491
#
# Poissons Ratio (x) = -0.50901 1.05675
# Poissons Ratio (y) = -0.46236 0.94566
# Poissons Ratio (z) = 0.46619 0.45927
#
# Static dielectric constant tensor:
#      x y z
#    x 1.611320 0.000000 0.000000 
#    y 0.000000 1.627140 0.000000 
#    z 0.000000 0.000000 1.646180 
# 
# From -- ./inp_files/18908.got.cif
#   From: 2010.05.17/outbox.cif.g08.bks.cpg/sg35_10_cif.got.tgz:18908.got - 2010.06.03 17:29:28.
