data_PCOD9348054
_publ_section_title
;
Structure prediction by ZEFSAII (Michael W. Deem and Ramdas Pophale) SiO2 
 PCOD9348054
Probable space group: P N N 2
;
_chemical_formula_sum "Si O2"
_cell_formula_units_Z 32
_cell_length_a 18.000000
_cell_length_b 6.000000
_cell_length_c 15.000000
_cell_angle_alpha 90.000000
_cell_angle_beta 90.000000
_cell_angle_gamma 90.000000
_cell_volume 1620.000000
_symmetry_space_group_name_H-M "P N N 2"
_symmetry_group_IT_number 34
_symmetry_cell_setting 'orthorhombic'
loop_
_space_group_symop_operation_xyz
x,y,z
-x,-y,z
1/2-x,1/2+y,1/2+z
1/2+x,1/2-y,1/2+z
loop_
_atom_site_type_symbol
_atom_site_label
_atom_site_fract_x
_atom_site_fract_y
_atom_site_fract_z
Si Si1 0.378388 0.448998 0.402160
Si Si2 0.076358 0.641764 0.063794
Si Si3 0.192683 0.892537 0.167921
Si Si4 0.449133 0.813630 0.281160
Si Si5 0.185291 0.034251 0.609313
Si Si6 0.528276 0.254400 0.083810
Si Si7 0.813831 0.359443 0.757405
Si Si8 0.201079 0.276035 0.017932
O O1 0.421396 0.327990 0.484197
O O2 0.429634 0.598418 0.338159
O O3 0.333581 0.261676 0.349115
O O4 0.318502 0.633107 0.432592
O O5 0.112212 0.773908 0.149989
O O6 0.136348 0.455220 0.034845
O O7 0.000000 0.500000 0.076201
O O8 0.250459 0.693941 0.147483
O O9 0.231999 0.027927 0.249378
O O10 0.197738 0.086526 0.093969
O O11 0.490703 0.752443 0.189466
O O12 0.500000 0.000000 0.329659
O O13 0.374222 0.942630 0.252335
O O14 0.116656 0.192271 0.582843
O O15 0.172143 0.834583 0.681896
O O16 0.221463 0.904708 0.525645
O O17 0.500000 0.500000 0.048122
O O18 0.500000 0.000000 0.052564
#
# Coordination Sequence:
#
# PCOD9348054 Si02
#       8
#     4   4   4   4   4   4   4   4
#     4  11  22  34  48  76 111 157 199 249 300 380
#     4  10  22  39  54  77 112 162 206 243 297 377
#     4   9  19  35  55  74 102 157 193 247 296 348
#     4  11  23  32  47  78 119 160 196 234 290 360
#     4  10  18  35  54  73 106 158 187 240 289 352
#     4  11  22  34  52  83 114 155 201 241 291 354
#     4  11  19  33  52  75 110 155 197 251 298 357
#     4   9  21  35  52  73 106 155 191 239 301 356
#
# _framework density 19.753086
#
# number of rings (size 3 to 8) (size 9 to 14) (size 15 to 20)
#    0.000    1.750    2.500    2.250    1.750    5.000 
#    0.000    0.000    0.000    0.000    0.000    0.000 
#    0.000    0.000  578.000    0.125    0.000    0.000 
#
# Total GULP energy -178141.137975 kJ/mol
# GULP energy per Si atom -5566.910562 kJ/mol
# Density = 1.970813 g / cm^3
# Si number density = 19.753086 Si / 1000 Ang^3
#
#
#
# Elastic Constant Matrix: (Units=GPa)
#
#
# Indices 1 2 3 4 5 6 
#
# 1 111.3111 48.0431 30.5117 0.0000 0.0000 0.0000
# 2 48.0431 132.1695 16.1629 0.0000 0.0000 0.0000
# 3 30.5117 16.1629 25.2185 0.0000 0.0000 0.0000
# 4 0.0000 0.0000 0.0000 39.0439 0.0000 0.0000
# 5 0.0000 0.0000 0.0000 0.0000 19.2610 0.0000
# 6 0.0000 0.0000 0.0000 0.0000 0.0000 59.9450
#
#
#
# Elastic Compliance Matrix: (Units=1/GPa)
#
#
# Indices 1 2 3 4 5 6 
#
# 1 0.014764 -0.003453 -0.015650 0.000000 0.000000 0.000000
# 2 -0.003453 0.009017 -0.001602 0.000000 0.000000 0.000000
# 3 -0.015650 -0.001602 0.059614 0.000000 0.000000 0.000000
# 4 0.000000 0.000000 0.000000 0.025612 0.000000 0.000000
# 5 0.000000 0.000000 0.000000 0.000000 0.051918 0.000000
# 6 0.000000 0.000000 0.000000 0.000000 0.000000 0.016682
#
#
# Mechanical properties :
#
#
# Convention : Reuss Voigt Hill
#
# Bulk Modulus (GPa) = 23.81691 50.90383 37.36037
# Shear Modulus (GPa) = 21.45815 35.24875 28.35345
#
# Velocity S-wave (km/s) = 3.29951 4.22888 3.79277
# Velocity P-wave (km/s) = 5.15744 7.04773 6.17534
#
# Compressibility (1/GPa) = 0.04198698
#
# Stress axis : x y z
#
# Youngs Moduli (GPa) = 67.73284 110.90179 16.77448
#
# Poissons Ratio (x) = 0.38292 0.26252
# Poissons Ratio (y) = 0.23387 0.02687
# Poissons Ratio (z) = 1.06000 0.17762
#
# Static dielectric constant tensor:
#      x y z
#    x 1.805100 0.000000 0.000000 
#    y 0.000000 1.733320 0.000000 
#    z 0.000000 0.000000 1.751480 
# 
# From -- ./inp_files/6965.got.cif
#   From: 2010.05.17/outbox.ucp.g08.bks.cvg/sg34_4_cif.got.tgz:6965.got - 2010.06.11 10:35:58.
