data_PCOD9348804
_publ_section_title
;
Structure prediction by ZEFSAII (Michael W. Deem and Ramdas Pophale) SiO2 
 PCOD9348804
Probable space group: C M M 2
;
_chemical_formula_sum "Si O2"
_cell_formula_units_Z 56
_cell_length_a 9.517061
_cell_length_b 14.904626
_cell_length_c 18.883685
_cell_angle_alpha 90.000000
_cell_angle_beta 90.000000
_cell_angle_gamma 90.000000
_cell_volume 2678.617384
_symmetry_space_group_name_H-M "C M M 2"
_symmetry_group_IT_number 35
_symmetry_cell_setting 'orthorhombic'
loop_
_space_group_symop_operation_xyz
x,y,z
-x,-y,z
-x,y,z
x,-y,z
1/2+x,1/2+y,z
1/2-x,1/2-y,z
1/2-x,1/2+y,z
1/2+x,1/2-y,z
loop_
_atom_site_type_symbol
_atom_site_label
_atom_site_fract_x
_atom_site_fract_y
_atom_site_fract_z
Si Si1 0.842317 0.894346 0.477150
Si Si2 0.168405 0.342793 0.613141
Si Si3 0.841067 0.110085 0.900611
Si Si4 0.663053 0.889623 0.344974
Si Si5 0.337596 0.890045 0.036270
Si Si6 0.829024 0.395874 0.190021
Si Si7 0.155336 0.605461 0.772052
O O1 0.742841 0.886082 0.545407
O O2 0.762729 0.857926 0.408112
O O3 0.000000 0.856395 0.488204
O O4 0.857925 0.000000 0.464487
O O5 0.250000 0.250000 0.619423
O O6 0.192406 0.388042 0.689406
O O7 0.000000 0.336408 0.602819
O O8 0.754454 0.137732 0.969737
O O9 0.766371 0.140750 0.828377
O O10 0.000000 0.141815 0.904062
O O11 0.843902 0.000000 0.900725
O O12 0.500000 0.863910 0.356596
O O13 0.711547 0.858696 0.266784
O O14 0.663584 0.000000 0.343957
O O15 0.500000 0.863428 0.026774
O O16 0.336702 0.000000 0.038271
O O17 0.284839 0.858599 0.113684
O O18 0.783959 0.500000 0.190472
O O19 0.000000 0.395379 0.189219
O O20 0.144023 0.500000 0.788098
O O21 0.000000 0.646407 0.781386
#
# Coordination Sequence:
#
# PCOD9348804 Si02
#       7
#     8   8   8   8   8   8   8
#     4  10  20  33  50  73 100 129 162 199 239 284
#     4  11  23  38  55  74  97 124 156 196 243 293
#     4   9  16  24  36  58  87 117 150 189 231 272
#     4   8  13  23  40  61  86 118 157 197 234 274
#     4   8  12  19  32  50  77 115 154 188 224 269
#     4   7  10  17  31  52  78 112 153 191 226 267
#     4   9  18  33  52  71  91 120 158 194 229 276
#
# _framework density 20.906309
#
# number of rings (size 3 to 8) (size 9 to 14) (size 15 to 20)
#    0.000    3.143    0.000    3.429    0.000    4.286 
#    0.000    2.143    0.000    4.286    0.000    0.000 
#    0.000    1.143    0.000    7.429    0.000   13.857 
#
# Total GULP energy -156044.211701 kJ/mol
# GULP energy per Si atom -5573.007561 kJ/mol
# Density = 2.085872 g / cm^3
# Si number density = 20.906309 Si / 1000 Ang^3
#
#
#
# Elastic Constant Matrix: (Units=GPa)
#
#
# Indices 1 2 3 4 5 6 
#
# 1 131.6905 10.2041 126.0213 0.0000 0.0000 0.0000
# 2 10.2041 33.2972 -0.6694 0.0000 0.0000 0.0000
# 3 126.0213 -0.6694 219.2224 0.0000 0.0000 0.0000
# 4 0.0000 0.0000 0.0000 -34.1294 0.0000 0.0000
# 5 0.0000 0.0000 0.0000 0.0000 -9.8988 0.0000
# 6 0.0000 0.0000 0.0000 0.0000 0.0000 15.9665
#
#
#
# Elastic Compliance Matrix: (Units=1/GPa)
#
#
# Indices 1 2 3 4 5 6 
#
# 1 0.017896 -0.005691 -0.010305 0.000000 0.000000 0.000000
# 2 -0.005691 0.031844 0.003369 0.000000 0.000000 0.000000
# 3 -0.010305 0.003369 0.010496 0.000000 0.000000 0.000000
# 4 0.000000 0.000000 0.000000 -0.029300 0.000000 0.000000
# 5 0.000000 0.000000 0.000000 0.000000 -0.101023 0.000000
# 6 0.000000 0.000000 0.000000 0.000000 0.000000 0.062631
#
#
# Mechanical properties :
#
#
# Convention : Reuss Voigt Hill
#
# Bulk Modulus (GPa) = 28.58672 72.81357 50.70014
# Shear Modulus (GPa) = 169.72509 10.96461 90.34485
#
# Velocity S-wave (km/s) = 9.01997 2.29260 6.58088
# Velocity P-wave (km/s) = 11.05366 6.47396 9.05802
#
# Compressibility (1/GPa) = 0.03498128
#
# Stress axis : x y z
#
# Youngs Moduli (GPa) = 55.87886 31.40266 95.27708
#
# Poissons Ratio (x) = 0.17873 0.98182
# Poissons Ratio (y) = 0.31803 -0.32099
# Poissons Ratio (z) = 0.57583 -0.10580
#
# Static dielectric constant tensor:
#      x y z
#    x 1.720600 0.000000 0.000000 
#    y 0.000000 1.838170 0.000000 
#    z 0.000000 0.000000 1.813420 
# 
# From -- ./inp_files/18242.got.cif
#   From: 2010.05.17/outbox.cif.g08.bks.cpg/sg35_10_cif.got.tgz:18242.got - 2010.06.03 17:29:28.
