data_PCOD9348737
_publ_section_title
;
Structure prediction by ZEFSAII (Michael W. Deem and Ramdas Pophale) SiO2 
 PCOD9348737
Probable space group: C M M 2
;
_chemical_formula_sum "Si O2"
_cell_formula_units_Z 48
_cell_length_a 15.417456
_cell_length_b 8.135558
_cell_length_c 17.900634
_cell_angle_alpha 90.000000
_cell_angle_beta 90.000000
_cell_angle_gamma 90.000000
_cell_volume 2245.269497
_symmetry_space_group_name_H-M "C M M 2"
_symmetry_group_IT_number 35
_symmetry_cell_setting 'orthorhombic'
loop_
_space_group_symop_operation_xyz
x,y,z
-x,-y,z
-x,y,z
x,-y,z
1/2+x,1/2+y,z
1/2-x,1/2-y,z
1/2-x,1/2+y,z
1/2+x,1/2-y,z
loop_
_atom_site_type_symbol
_atom_site_label
_atom_site_fract_x
_atom_site_fract_y
_atom_site_fract_z
Si Si1 0.344297 0.806356 0.832870
Si Si2 0.394227 0.500000 0.411545
Si Si3 0.599712 0.184918 0.672642
Si Si4 0.402447 0.306219 0.993131
Si Si5 0.606511 0.809169 0.312147
Si Si6 0.900796 0.303703 0.148165
Si Si7 0.893129 0.000000 0.584540
O O1 0.250000 0.750000 0.808423
O O2 0.401474 0.768841 0.760514
O O3 0.362531 0.726402 0.912583
O O4 0.348975 0.000000 0.845660
O O5 0.500000 0.500000 0.409158
O O6 0.366384 0.332239 0.369758
O O7 0.368504 0.500000 0.497916
O O8 0.500000 0.171188 0.647716
O O9 0.638472 0.334901 0.625971
O O10 0.638412 0.000000 0.666216
O O11 0.500000 0.233428 0.989313
O O12 0.407446 0.500000 0.002714
O O13 0.359009 0.240454 0.068871
O O14 0.500000 0.811220 0.310135
O O15 0.636133 0.755635 0.228663
O O16 0.632347 0.000000 0.327431
O O17 0.906089 0.500000 0.151544
O O18 0.000000 0.236042 0.145017
O O19 0.000000 0.000000 0.588817
#
# Coordination Sequence:
#
# PCOD9348737 Si02
#       7
#     8   4   8   8   8   8   4
#     4  11  23  37  53  73  99 132 165 213 259 304
#     4   9  16  24  38  63  93 127 161 197 248 295
#     4   9  19  35  54  74  98 133 172 207 251 308
#     4  10  20  31  48  74 101 134 173 210 249 297
#     4   8  14  23  36  57  90 130 165 197 238 290
#     4   8  14  25  40  60  90 130 170 206 241 282
#     4   9  18  30  48  71  97 131 166 207 250 299
#
# _framework density 21.378281000000001
#
# number of rings (size 3 to 8) (size 9 to 14) (size 15 to 20)
#    0.000    2.833    0.000    2.500    3.500    2.333 
#    0.000    3.333    0.000    0.000    0.000    0.000 
#    0.000    1.333    2.000    0.000    0.000    0.000 
#
# Total GULP energy -133734.805358 kJ/mol
# GULP energy per Si atom -5572.283557 kJ/mol
# Density = 2.132962 g / cm^3
# Si number density = 21.378281 Si / 1000 Ang^3
#
#
#
# Elastic Constant Matrix: (Units=GPa)
#
#
# Indices 1 2 3 4 5 6 
#
# 1 25.3821 4.3975 0.1059 0.0000 0.0000 0.0000
# 2 4.3975 104.2634 101.6485 0.0000 0.0000 0.0000
# 3 0.1059 101.6485 165.3283 0.0000 0.0000 0.0000
# 4 0.0000 0.0000 0.0000 60.3487 0.0000 0.0000
# 5 0.0000 0.0000 0.0000 0.0000 -23.9948 0.0000
# 6 0.0000 0.0000 0.0000 0.0000 0.0000 8.6362
#
#
#
# Elastic Compliance Matrix: (Units=1/GPa)
#
#
# Indices 1 2 3 4 5 6 
#
# 1 0.040108 -0.004160 0.002532 0.000000 0.000000 0.000000
# 2 -0.004160 0.024374 -0.014983 0.000000 0.000000 0.000000
# 3 0.002532 -0.014983 0.015259 0.000000 0.000000 0.000000
# 4 0.000000 0.000000 0.000000 0.016570 0.000000 0.000000
# 5 0.000000 0.000000 0.000000 0.000000 -0.041676 0.000000
# 6 0.000000 0.000000 0.000000 0.000000 0.000000 0.115791
#
#
# Mechanical properties :
#
#
# Convention : Reuss Voigt Hill
#
# Bulk Modulus (GPa) = 21.49680 56.36417 38.93048
# Shear Modulus (GPa) = 22.81488 21.58616 22.20052
#
# Velocity S-wave (km/s) = 3.27035 3.18106 3.22601
# Velocity P-wave (km/s) = 4.93330 6.31780 5.66798
#
# Compressibility (1/GPa) = 0.04651856
#
# Stress axis : x y z
#
# Youngs Moduli (GPa) = 24.93261 41.02758 65.53529
#
# Poissons Ratio (x) = 0.17069 -0.16595
# Poissons Ratio (y) = 0.10373 0.98192
# Poissons Ratio (z) = -0.06313 0.61472
#
# Static dielectric constant tensor:
#      x y z
#    x 1.805710 0.000000 0.000000 
#    y 0.000000 1.702230 0.000000 
#    z 0.000000 0.000000 1.779580 
# 
# From -- ./inp_files/15268.got.cif
#   From: 2010.05.17/outbox.cif.g08.bks.cpg/sg35_8_cif.got.tgz:15268.got - 2010.06.03 17:29:28.
