data_PCOD9348708
_publ_section_title
;
Structure prediction by ZEFSAII (Michael W. Deem and Ramdas Pophale) SiO2 
 PCOD9348708
Probable space group: C M M 2
;
_chemical_formula_sum "Si O2"
_cell_formula_units_Z 40
_cell_length_a 11.753849
_cell_length_b 19.947262
_cell_length_c 7.690306
_cell_angle_alpha 90.000000
_cell_angle_beta 90.000000
_cell_angle_gamma 90.000000
_cell_volume 1803.046885
_symmetry_space_group_name_H-M "C M M 2"
_symmetry_group_IT_number 35
_symmetry_cell_setting 'orthorhombic'
loop_
_space_group_symop_operation_xyz
x,y,z
-x,-y,z
-x,y,z
x,-y,z
1/2+x,1/2+y,z
1/2-x,1/2-y,z
1/2-x,1/2+y,z
1/2+x,1/2-y,z
loop_
_atom_site_type_symbol
_atom_site_label
_atom_site_fract_x
_atom_site_fract_y
_atom_site_fract_z
Si Si1 0.250000 0.250000 0.766201
Si Si2 0.787533 0.421704 0.304566
Si Si3 0.000000 0.733376 0.594365
Si Si4 0.376969 0.422496 0.593738
Si Si5 0.500000 0.826895 0.238496
Si Si6 0.500000 0.876404 0.870656
Si Si7 0.248106 0.394420 0.930707
O O1 0.372269 0.256645 0.662154
O O2 0.243994 0.315430 0.887794
O O3 0.819327 0.500000 0.328833
O O4 0.717641 0.394087 0.467278
O O5 0.892850 0.373495 0.277882
O O6 0.718928 0.414304 0.124467
O O7 0.000000 0.730782 0.384113
O O8 0.000000 0.658657 0.683338
O O9 0.500000 0.389821 0.577348
O O10 0.385932 0.500000 0.537628
O O11 0.333591 0.422276 0.789005
O O12 0.500000 0.819964 0.027810
O O13 0.617051 0.916644 0.896672
#
# Coordination Sequence:
#
# PCOD9348708 Si02
#       7
#     4   8   4   8   4   4   8
#     4  10  22  38  62  86 124 168 216 252 312 370
#     4  10  20  36  61  90 118 155 200 251 315 376
#     4  10  20  39  57  83 121 164 202 261 301 361
#     4  10  22  38  56  84 120 156 201 252 299 361
#     4  10  19  36  60  86 118 149 190 256 312 363
#     4   8  18  35  57  83 110 147 188 247 299 356
#     4  10  20  38  60  84 119 157 198 253 307 362
#
# _framework density 22.184671000000002
#
# number of rings (size 3 to 8) (size 9 to 14) (size 15 to 20)
#    0.000    2.200    0.000    3.300    1.400    0.800 
#    0.000   20.500    0.000    1.200    0.000    0.000 
#    0.000    0.000    0.000    0.000    0.000    0.000 
#
# Total GULP energy -111495.879129 kJ/mol
# GULP energy per Si atom -5574.793956 kJ/mol
# Density = 2.213418 g / cm^3
# Si number density = 22.184671 Si / 1000 Ang^3
#
#
#
# Elastic Constant Matrix: (Units=GPa)
#
#
# Indices 1 2 3 4 5 6 
#
# 1 75.1228 -2.4710 -1.5311 0.0000 0.0000 0.0000
# 2 -2.4710 52.0328 -23.3074 0.0000 0.0000 0.0000
# 3 -1.5311 -23.3074 67.7770 0.0000 0.0000 0.0000
# 4 0.0000 0.0000 0.0000 24.7245 0.0000 0.0000
# 5 0.0000 0.0000 0.0000 0.0000 -27.6984 0.0000
# 6 0.0000 0.0000 0.0000 0.0000 0.0000 12.3815
#
#
#
# Elastic Compliance Matrix: (Units=1/GPa)
#
#
# Indices 1 2 3 4 5 6 
#
# 1 0.013354 0.000909 0.000614 0.000000 0.000000 0.000000
# 2 0.000909 0.022780 0.007854 0.000000 0.000000 0.000000
# 3 0.000614 0.007854 0.017469 0.000000 0.000000 0.000000
# 4 0.000000 0.000000 0.000000 0.040446 0.000000 0.000000
# 5 0.000000 0.000000 0.000000 0.000000 -0.036103 0.000000
# 6 0.000000 0.000000 0.000000 0.000000 0.000000 0.080765
#
#
# Mechanical properties :
#
#
# Convention : Reuss Voigt Hill
#
# Bulk Modulus (GPa) = 13.81997 15.59041 14.70519
# Shear Modulus (GPa) = 34.70416 16.69765 25.70091
#
# Velocity S-wave (km/s) = 3.95945 2.74645 3.40736
# Velocity P-wave (km/s) = 5.21019 4.13523 4.70352
#
# Compressibility (1/GPa) = 0.07235905
#
# Stress axis : x y z
#
# Youngs Moduli (GPa) = 74.88412 43.89807 57.24401
#
# Poissons Ratio (x) = -0.03992 -0.03517
# Poissons Ratio (y) = -0.06810 -0.44961
# Poissons Ratio (z) = -0.04601 -0.34479
#
# Static dielectric constant tensor:
#      x y z
#    x 1.884140 0.000000 0.000000 
#    y 0.000000 1.882770 0.000000 
#    z 0.000000 0.000000 1.798540 
# 
# From -- ./inp_files/6122.got.cif
#   From: 2010.05.17/outbox.cif.g08.bks.cpg/sg35_4_cif.got.tgz:6122.got - 2010.06.03 17:29:28.
