data_PCOD9348055
_publ_section_title
;
Structure prediction by ZEFSAII (Michael W. Deem and Ramdas Pophale) SiO2 
 PCOD9348055
Probable space group: P N N 2
;
_chemical_formula_sum "Si O2"
_cell_formula_units_Z 32
_cell_length_a 15.000000
_cell_length_b 12.000000
_cell_length_c 9.000000
_cell_angle_alpha 90.000000
_cell_angle_beta 90.000000
_cell_angle_gamma 90.000000
_cell_volume 1620.000000
_symmetry_space_group_name_H-M "P N N 2"
_symmetry_group_IT_number 34
_symmetry_cell_setting 'orthorhombic'
loop_
_space_group_symop_operation_xyz
x,y,z
-x,-y,z
1/2-x,1/2+y,1/2+z
1/2+x,1/2-y,1/2+z
loop_
_atom_site_type_symbol
_atom_site_label
_atom_site_fract_x
_atom_site_fract_y
_atom_site_fract_z
Si Si1 0.514105 0.874105 0.326300
Si Si2 0.550374 0.893868 0.674326
Si Si3 0.250900 0.604023 0.081680
Si Si4 0.049944 0.852026 0.284051
Si Si5 0.214911 0.694499 0.774024
Si Si6 0.358989 0.700986 0.347751
Si Si7 0.790870 0.145080 0.505246
Si Si8 0.874657 0.942450 0.144985
O O1 0.515342 0.881298 0.505897
O O2 0.611551 0.838194 0.274490
O O3 0.438244 0.783063 0.296614
O O4 0.500000 0.000000 0.270220
O O5 0.656059 0.907446 0.662965
O O6 0.535807 0.777072 0.751329
O O7 0.500000 0.000000 0.741489
O O8 0.323167 0.634127 0.205464
O O9 0.265240 0.483979 0.007630
O O10 0.243881 0.693895 0.947485
O O11 0.110164 0.853962 0.432751
O O12 0.949859 0.899923 0.263096
O O13 0.108088 0.924391 0.161980
O O14 0.219562 0.804247 0.671260
O O15 0.278797 0.602150 0.697273
O O16 0.277853 0.779679 0.408364
O O17 0.387956 0.617238 0.483672
#
# Coordination Sequence:
#
# PCOD9348055 Si02
#       8
#     4   4   4   4   4   4   4   4
#     4  10  21  39  66  93 126 173 217 283 344 400
#     4  10  20  37  66  95 125 169 229 273 334 412
#     4  11  23  41  67 101 131 182 220 287 356 405
#     4  11  21  41  68  92 131 180 227 280 341 412
#     4  10  23  42  64  96 133 171 227 280 343 410
#     4  11  22  41  68 100 133 174 238 281 343 428
#     4  11  23  43  66  96 136 178 225 284 343 416
#     4  10  23  40  67  94 132 181 224 279 345 410
#
# _framework density 19.753086
#
# number of rings (size 3 to 8) (size 9 to 14) (size 15 to 20)
#    0.000    1.500    3.750    2.250    1.750    3.000 
#    0.000    0.625    0.000    0.000    0.000    0.000 
#    0.000    0.000    0.000    0.000    0.000    0.000 
#
# Total GULP energy -178435.304628 kJ/mol
# GULP energy per Si atom -5576.103270 kJ/mol
# Density = 1.970813 g / cm^3
# Si number density = 19.753086 Si / 1000 Ang^3
#
#
#
# Elastic Constant Matrix: (Units=GPa)
#
#
# Indices 1 2 3 4 5 6 
#
# 1 53.2199 11.1802 23.7237 0.0000 0.0000 0.0000
# 2 11.1802 95.6978 22.3024 0.0000 0.0000 0.0000
# 3 23.7237 22.3024 39.9246 0.0000 0.0000 0.0000
# 4 0.0000 0.0000 0.0000 18.4364 0.0000 0.0000
# 5 0.0000 0.0000 0.0000 0.0000 28.9888 0.0000
# 6 0.0000 0.0000 0.0000 0.0000 0.0000 31.1839
#
#
#
# Elastic Compliance Matrix: (Units=1/GPa)
#
#
# Indices 1 2 3 4 5 6 
#
# 1 0.025594 0.000637 -0.015564 0.000000 0.000000 0.000000
# 2 0.000637 0.012029 -0.007098 0.000000 0.000000 0.000000
# 3 -0.015564 -0.007098 0.038261 0.000000 0.000000 0.000000
# 4 0.000000 0.000000 0.000000 0.054240 0.000000 0.000000
# 5 0.000000 0.000000 0.000000 0.000000 0.034496 0.000000
# 6 0.000000 0.000000 0.000000 0.000000 0.000000 0.032068
#
#
# Mechanical properties :
#
#
# Convention : Reuss Voigt Hill
#
# Bulk Modulus (GPa) = 31.41347 33.69498 32.55422
# Shear Modulus (GPa) = 19.89251 24.49757 22.19504
#
# Velocity S-wave (km/s) = 3.17686 3.52545 3.35569
# Velocity P-wave (km/s) = 5.42164 5.80232 5.61521
#
# Compressibility (1/GPa) = 0.03183348
#
# Stress axis : x y z
#
# Youngs Moduli (GPa) = 39.07141 83.12966 26.13634
#
# Poissons Ratio (x) = -0.05296 0.40679
# Poissons Ratio (y) = -0.02489 0.18553
# Poissons Ratio (z) = 0.60812 0.59008
#
# Static dielectric constant tensor:
#      x y z
#    x 1.810440 0.000000 0.000000 
#    y 0.000000 1.754320 0.000000 
#    z 0.000000 0.000000 1.699520 
# 
# From -- ./inp_files/3673.got.cif
#   From: 2010.05.17/outbox.ucp.g08.bks.cvg/sg34_2_cif.got.tgz:3673.got - 2010.06.11 10:35:58.
