data_PCOD9348472
_publ_section_title
;
Structure prediction by ZEFSAII (Michael W. Deem and Ramdas Pophale) SiO2 
 PCOD9348472
Probable space group: C M M 2
;
_chemical_formula_sum "Si O2"
_cell_formula_units_Z 64
_cell_length_a 8.824683
_cell_length_b 18.639626
_cell_length_c 21.621265
_cell_angle_alpha 90.000000
_cell_angle_beta 90.000000
_cell_angle_gamma 90.000000
_cell_volume 3556.455733
_symmetry_space_group_name_H-M "C M M 2"
_symmetry_group_IT_number 35
_symmetry_cell_setting 'orthorhombic'
loop_
_space_group_symop_operation_xyz
x,y,z
-x,-y,z
-x,y,z
x,-y,z
1/2+x,1/2+y,z
1/2-x,1/2-y,z
1/2-x,1/2+y,z
1/2+x,1/2-y,z
loop_
_atom_site_type_symbol
_atom_site_label
_atom_site_fract_x
_atom_site_fract_y
_atom_site_fract_z
Si Si1 0.682854 0.670498 0.346750
Si Si2 0.181033 0.670105 0.217897
Si Si3 0.676530 0.412633 0.602313
Si Si4 0.181525 0.170843 0.979874
Si Si5 0.324043 0.912810 0.729189
Si Si6 0.684834 0.417235 0.467931
Si Si7 0.683640 0.084421 0.865533
Si Si8 0.818381 0.084350 0.104502
O O1 0.500000 0.672459 0.342736
O O2 0.750000 0.750000 0.352646
O O3 0.750270 0.641304 0.282474
O O4 0.728759 0.626632 0.407572
O O5 0.250000 0.750000 0.209047
O O6 0.232249 0.621121 0.161124
O O7 0.000000 0.675235 0.222062
O O8 0.500000 0.394503 0.604960
O O9 0.687869 0.500000 0.601318
O O10 0.749982 0.386700 0.665834
O O11 0.738335 0.389128 0.535165
O O12 0.250000 0.250000 0.985159
O O13 0.246196 0.131098 0.919700
O O14 0.000000 0.175139 0.975712
O O15 0.220396 0.124710 0.040826
O O16 0.500000 0.893594 0.727194
O O17 0.263447 0.891522 0.796796
O O18 0.314468 0.000000 0.728921
O O19 0.500000 0.416743 0.470494
O O20 0.731815 0.500000 0.461446
O O21 0.500000 0.089294 0.866668
O O22 0.721953 0.000000 0.873536
O O23 0.000000 0.092061 0.114184
O O24 0.784111 0.000000 0.099893
#
# Coordination Sequence:
#
# PCOD9348472 Si02
#       8
#     8   8   8   8   8   8   8   8
#     4  10  19  33  53  74 100 135 171 209 254 305
#     4  11  22  37  57  80 106 137 175 214 254 304
#     4   8  13  23  41  66  94 123 161 209 254 298
#     4  11  23  38  57  80 106 138 175 213 253 303
#     4   8  14  25  42  67  99 132 164 201 251 306
#     4   8  15  28  47  71  97 128 168 211 254 300
#     4   9  18  33  53  77 106 138 172 214 262 309
#     4  10  22  40  60  83 110 137 167 207 255 304
#
# _framework density 17.995445
#
# number of rings (size 3 to 8) (size 9 to 14) (size 15 to 20)
#    0.000    2.625    0.000    4.875    0.000    4.000 
#    0.000    3.750    0.000    3.375    0.000    3.500 
#    0.000    0.000    0.000    0.000    0.000    0.000 
#
# Total GULP energy -178381.891385 kJ/mol
# GULP energy per Si atom -5574.434106 kJ/mol
# Density = 1.795449 g / cm^3
# Si number density = 17.995445 Si / 1000 Ang^3
#
#
#
# Elastic Constant Matrix: (Units=GPa)
#
#
# Indices 1 2 3 4 5 6 
#
# 1 54.3834 34.3407 71.3828 0.0000 0.0000 0.0000
# 2 34.3407 64.3471 77.6696 0.0000 0.0000 0.0000
# 3 71.3828 77.6696 220.1006 0.0000 0.0000 0.0000
# 4 0.0000 0.0000 0.0000 -67.9141 0.0000 0.0000
# 5 0.0000 0.0000 0.0000 0.0000 91.8810 0.0000
# 6 0.0000 0.0000 0.0000 0.0000 0.0000 18.5206
#
#
#
# Elastic Compliance Matrix: (Units=1/GPa)
#
#
# Indices 1 2 3 4 5 6 
#
# 1 0.034524 -0.008553 -0.008179 0.000000 0.000000 0.000000
# 2 -0.008553 0.029191 -0.007527 0.000000 0.000000 0.000000
# 3 -0.008179 -0.007527 0.009852 0.000000 0.000000 0.000000
# 4 0.000000 0.000000 0.000000 -0.014724 0.000000 0.000000
# 5 0.000000 0.000000 0.000000 0.000000 0.010884 0.000000
# 6 0.000000 0.000000 0.000000 0.000000 0.000000 0.053994
#
#
# Mechanical properties :
#
#
# Convention : Reuss Voigt Hill
#
# Bulk Modulus (GPa) = 39.92075 78.40194 59.16134
# Shear Modulus (GPa) = 27.68768 18.86005 23.27386
#
# Velocity S-wave (km/s) = 3.92675 3.24087 3.60018
# Velocity P-wave (km/s) = 6.54149 7.59385 7.08723
#
# Compressibility (1/GPa) = 0.02504963
#
# Stress axis : x y z
#
# Youngs Moduli (GPa) = 28.96562 34.25768 101.50213
#
# Poissons Ratio (x) = 0.29299 0.83015
# Poissons Ratio (y) = 0.24773 0.76401
# Poissons Ratio (z) = 0.23690 0.25786
#
# Static dielectric constant tensor:
#      x y z
#    x 1.610010 0.000000 0.000000 
#    y 0.000000 1.594190 0.000000 
#    z 0.000000 0.000000 1.640810 
# 
# From -- ./inp_files/18409.got.cif
#   From: 2010.05.17/outbox.cif.g08.bks.cpg/sg35_10_cif.got.tgz:18409.got - 2010.06.03 17:29:28.
