data_PCOD9348439
_publ_section_title
;
Structure prediction by ZEFSAII (Michael W. Deem and Ramdas Pophale) SiO2 
 PCOD9348439
Probable space group: C M M 2
;
_chemical_formula_sum "Si O2"
_cell_formula_units_Z 64
_cell_length_a 15.536962
_cell_length_b 18.230492
_cell_length_c 11.991548
_cell_angle_alpha 90.000000
_cell_angle_beta 90.000000
_cell_angle_gamma 90.000000
_cell_volume 3396.563538
_symmetry_space_group_name_H-M "C M M 2"
_symmetry_group_IT_number 35
_symmetry_cell_setting 'orthorhombic'
loop_
_space_group_symop_operation_xyz
x,y,z
-x,-y,z
-x,y,z
x,-y,z
1/2+x,1/2+y,z
1/2-x,1/2-y,z
1/2-x,1/2+y,z
1/2+x,1/2-y,z
loop_
_atom_site_type_symbol
_atom_site_label
_atom_site_fract_x
_atom_site_fract_y
_atom_site_fract_z
Si Si1 0.375587 0.207035 0.678750
Si Si2 0.905287 0.353466 0.920621
Si Si3 0.406680 0.147259 0.436651
Si Si4 0.783135 0.917308 0.434895
Si Si5 0.186057 0.862932 0.678084
Si Si6 0.217707 0.917957 0.920527
Si Si7 0.597426 0.698301 0.041506
Si Si8 0.155351 0.782007 0.288628
O O1 0.409993 0.173649 0.792794
O O2 0.410332 0.175498 0.563739
O O3 0.277347 0.179024 0.677385
O O4 0.380616 0.295264 0.680817
O O5 0.820434 0.403262 0.929290
O O6 0.000000 0.384522 0.950580
O O7 0.889840 0.280283 0.993525
O O8 0.500000 0.113401 0.408851
O O9 0.320113 0.098577 0.428336
O O10 0.391033 0.218726 0.359887
O O11 0.814451 0.906936 0.562769
O O12 0.828939 0.854324 0.362690
O O13 0.800431 0.000000 0.397461
O O14 0.187744 0.908615 0.791737
O O15 0.198472 0.000000 0.959424
O O16 0.166802 0.856269 0.988714
O O17 0.500000 0.675936 0.011227
O O18 0.608162 0.700772 0.174110
O O19 0.250000 0.750000 0.261051
#
# Coordination Sequence:
#
# PCOD9348439 Si02
#       8
#     8   8   8   8   8   8   8   8
#     4   9  15  29  54  81 109 140 180 224 264 309
#     4  10  20  35  58  87 114 143 184 229 273 327
#     4  10  19  32  54  83 112 140 176 224 271 321
#     4  10  20  34  54  81 111 146 181 214 269 335
#     4   9  16  31  53  79 110 143 180 220 262 317
#     4  11  22  36  57  83 116 153 181 219 278 336
#     4  11  23  39  60  82 105 141 190 241 280 321
#     4  10  20  36  57  80 105 139 185 232 275 324
#
# _framework density 18.842573999999999
#
# number of rings (size 3 to 8) (size 9 to 14) (size 15 to 20)
#    0.000    2.000    2.500    2.250    0.000    1.250 
#    0.000    0.000    0.000    5.625    0.000    3.500 
#    0.000    0.000    0.000    0.000    0.000    0.000 
#
# Total GULP energy -178425.333564 kJ/mol
# GULP energy per Si atom -5575.791674 kJ/mol
# Density = 1.879969 g / cm^3
# Si number density = 18.842574 Si / 1000 Ang^3
#
#
#
# Elastic Constant Matrix: (Units=GPa)
#
#
# Indices 1 2 3 4 5 6 
#
# 1 33.1986 -7.1597 5.9522 0.0000 0.0000 0.0000
# 2 -7.1597 50.6904 6.1961 0.0000 0.0000 0.0000
# 3 5.9522 6.1961 81.9161 0.0000 0.0000 0.0000
# 4 0.0000 0.0000 0.0000 -1.1237 0.0000 0.0000
# 5 0.0000 0.0000 0.0000 0.0000 61.1857 0.0000
# 6 0.0000 0.0000 0.0000 0.0000 0.0000 8.9258
#
#
#
# Elastic Compliance Matrix: (Units=1/GPa)
#
#
# Indices 1 2 3 4 5 6 
#
# 1 0.031633 0.004793 -0.002661 0.000000 0.000000 0.000000
# 2 0.004793 0.020638 -0.001909 0.000000 0.000000 0.000000
# 3 -0.002661 -0.001909 0.012545 0.000000 0.000000 0.000000
# 4 0.000000 0.000000 0.000000 -0.889912 0.000000 0.000000
# 5 0.000000 0.000000 0.000000 0.000000 0.016344 0.000000
# 6 0.000000 0.000000 0.000000 0.000000 0.000000 0.112034
#
#
# Mechanical properties :
#
#
# Convention : Reuss Voigt Hill
#
# Bulk Modulus (GPa) = 15.32297 19.53138 17.42718
# Shear Modulus (GPa) = -7.40291 24.51867 8.55788
#
# Velocity S-wave (km/s) = -1.98428 3.61118 2.13346
# Velocity P-wave (km/s) = 1.70293 5.27025 3.91635
#
# Compressibility (1/GPa) = 0.06526150
#
# Stress axis : x y z
#
# Youngs Moduli (GPa) = 31.61298 48.45436 79.71052
#
# Poissons Ratio (x) = -0.23225 0.21211
# Poissons Ratio (y) = -0.15153 0.15219
# Poissons Ratio (z) = 0.08412 0.09252
#
# Static dielectric constant tensor:
#      x y z
#    x 1.694460 0.000000 0.000000 
#    y 0.000000 1.619610 0.000000 
#    z 0.000000 0.000000 1.635220 
# 
# From -- ./inp_files/13241.got.cif
#   From: 2010.05.17/outbox.cif.g08.bks.cpg/sg35_7_cif.got.tgz:13241.got - 2010.06.03 17:29:28.
