data_PCOD9348385
_publ_section_title
;
Structure prediction by ZEFSAII (Michael W. Deem and Ramdas Pophale) SiO2 
 PCOD9348385
Probable space group: C M M 2
;
_chemical_formula_sum "Si O2"
_cell_formula_units_Z 56
_cell_length_a 7.790282
_cell_length_b 18.912779
_cell_length_c 19.047056
_cell_angle_alpha 90.000000
_cell_angle_beta 90.000000
_cell_angle_gamma 90.000000
_cell_volume 2806.314792
_symmetry_space_group_name_H-M "C M M 2"
_symmetry_group_IT_number 35
_symmetry_cell_setting 'orthorhombic'
loop_
_space_group_symop_operation_xyz
x,y,z
-x,-y,z
-x,y,z
x,-y,z
1/2+x,1/2+y,z
1/2-x,1/2-y,z
1/2-x,1/2+y,z
1/2+x,1/2-y,z
loop_
_atom_site_type_symbol
_atom_site_label
_atom_site_fract_x
_atom_site_fract_y
_atom_site_fract_z
Si Si1 0.207071 0.832325 0.626920
Si Si2 0.206769 0.419129 0.916581
Si Si3 0.793733 0.081172 0.761300
Si Si4 0.292871 0.832773 0.050297
Si Si5 0.204994 0.667057 0.355563
Si Si6 0.706449 0.833357 0.202606
Si Si7 0.295145 0.419980 0.492981
O O1 0.250000 0.750000 0.624212
O O2 0.270323 0.870227 0.697966
O O3 0.272317 0.874163 0.558418
O O4 0.000000 0.837395 0.627014
O O5 0.269979 0.500000 0.920590
O O6 0.251371 0.391547 0.839141
O O7 0.000000 0.420663 0.920936
O O8 0.272259 0.374278 0.982372
O O9 0.000000 0.078181 0.756010
O O10 0.729273 0.000000 0.755358
O O11 0.500000 0.838766 0.050908
O O12 0.250000 0.750000 0.044677
O O13 0.230442 0.860246 0.126788
O O14 0.250000 0.750000 0.364568
O O15 0.270827 0.641531 0.278756
O O16 0.266578 0.620776 0.420351
O O17 0.000000 0.662665 0.354226
O O18 0.500000 0.841496 0.202803
O O19 0.750000 0.750000 0.202110
O O20 0.500000 0.424991 0.502768
O O21 0.226113 0.500000 0.491726
#
# Coordination Sequence:
#
# PCOD9348385 Si02
#       7
#     8   8   8   8   8   8   8
#     4  10  21  36  54  76 100 127 161 200 242 290
#     4   9  18  32  49  70  97 128 161 197 239 287
#     4   9  18  34  54  72  93 125 163 199 237 285
#     4   9  17  30  48  70  96 127 163 201 241 285
#     4  10  19  32  52  77 103 131 167 209 251 296
#     4   8  15  28  46  69  96 127 162 199 241 287
#     4  10  21  37  55  74 100 134 168 203 247 297
#
# _framework density 19.954995
#
# number of rings (size 3 to 8) (size 9 to 14) (size 15 to 20)
#    0.000    2.714    0.000    1.286    0.000    6.000 
#    0.000    3.571    0.000    5.143    0.000    2.000 
#    0.000    0.000    0.000    0.000    0.000    0.000 
#
# Total GULP energy -156100.233756 kJ/mol
# GULP energy per Si atom -5575.008348 kJ/mol
# Density = 1.990958 g / cm^3
# Si number density = 19.954995 Si / 1000 Ang^3
#
#
#
# Elastic Constant Matrix: (Units=GPa)
#
#
# Indices 1 2 3 4 5 6 
#
# 1 27.5238 2.9718 6.6719 0.0000 0.0000 0.0000
# 2 2.9718 99.6089 109.6556 0.0000 0.0000 0.0000
# 3 6.6719 109.6556 253.6906 0.0000 0.0000 0.0000
# 4 0.0000 0.0000 0.0000 -64.8664 0.0000 0.0000
# 5 0.0000 0.0000 0.0000 0.0000 50.2641 0.0000
# 6 0.0000 0.0000 0.0000 0.0000 0.0000 18.5677
#
#
#
# Elastic Compliance Matrix: (Units=1/GPa)
#
#
# Indices 1 2 3 4 5 6 
#
# 1 0.036565 -0.000062 -0.000935 0.000000 0.000000 0.000000
# 2 -0.000062 0.019153 -0.008277 0.000000 0.000000 0.000000
# 3 -0.000935 -0.008277 0.007544 0.000000 0.000000 0.000000
# 4 0.000000 0.000000 0.000000 -0.015416 0.000000 0.000000
# 5 0.000000 0.000000 0.000000 0.000000 0.019895 0.000000
# 6 0.000000 0.000000 0.000000 0.000000 0.000000 0.053857
#
#
# Mechanical properties :
#
#
# Convention : Reuss Voigt Hill
#
# Bulk Modulus (GPa) = 22.36377 68.82466 45.59422
# Shear Modulus (GPa) = 32.24752 18.22802 25.23777
#
# Velocity S-wave (km/s) = 4.02433 3.02562 3.56017
# Velocity P-wave (km/s) = 5.72931 6.83891 6.30855
#
# Compressibility (1/GPa) = 0.04471518
#
# Stress axis : x y z
#
# Youngs Moduli (GPa) = 27.34821 52.21093 132.55353
#
# Poissons Ratio (x) = 0.00321 0.12394
# Poissons Ratio (y) = 0.00168 1.09716
# Poissons Ratio (z) = 0.02557 0.43216
#
# Static dielectric constant tensor:
#      x y z
#    x 1.730910 0.000000 0.000000 
#    y 0.000000 1.663890 0.000000 
#    z 0.000000 0.000000 1.743750 
# 
# From -- ./inp_files/18222.got.cif
#   From: 2010.05.17/outbox.cif.g08.bks.cpg/sg35_10_cif.got.tgz:18222.got - 2010.06.03 17:29:28.
