data_PCOD9348830
_publ_section_title
;
Structure prediction by ZEFSAII (Michael W. Deem and Ramdas Pophale) SiO2 
 PCOD9348830
Probable space group: C M M 2
;
_chemical_formula_sum "Si O2"
_cell_formula_units_Z 48
_cell_length_a 8.893235
_cell_length_b 15.839085
_cell_length_c 16.435993
_cell_angle_alpha 90.000000
_cell_angle_beta 90.000000
_cell_angle_gamma 90.000000
_cell_volume 2315.185563
_symmetry_space_group_name_H-M "C M M 2"
_symmetry_group_IT_number 35
_symmetry_cell_setting 'orthorhombic'
loop_
_space_group_symop_operation_xyz
x,y,z
-x,-y,z
-x,y,z
x,-y,z
1/2+x,1/2+y,z
1/2-x,1/2-y,z
1/2-x,1/2+y,z
1/2+x,1/2-y,z
loop_
_atom_site_type_symbol
_atom_site_label
_atom_site_fract_x
_atom_site_fract_y
_atom_site_fract_z
Si Si1 0.178285 0.343113 0.573390
Si Si2 0.675381 0.396380 0.087748
Si Si3 0.321715 0.343149 0.412162
Si Si4 0.828976 0.899049 0.735900
Si Si5 0.183481 0.098084 0.911233
Si Si6 0.332520 0.100695 0.250833
O O1 0.250000 0.250000 0.576451
O O2 0.250110 0.385142 0.492845
O O3 0.225806 0.382808 0.658783
O O4 0.000000 0.339552 0.564301
O O5 0.500000 0.374309 0.097844
O O6 0.680862 0.500000 0.085817
O O7 0.768031 0.366237 0.165510
O O8 0.730152 0.365876 0.998807
O O9 0.500000 0.339407 0.421214
O O10 0.250000 0.250000 0.408621
O O11 0.274338 0.383810 0.327244
O O12 0.772528 0.864857 0.823474
O O13 0.000000 0.867459 0.720284
O O14 0.839699 0.000000 0.745940
O O15 0.000000 0.097988 0.911280
O O16 0.232783 0.000000 0.911963
O O17 0.500000 0.134732 0.267652
O O18 0.343234 0.000000 0.241426
#
# Coordination Sequence:
#
# PCOD9348830 Si02
#       6
#     8   8   8   8   8   8
#     4  11  22  37  55  74  99 131 168 207 250 301
#     4   8  13  24  44  70  99 132 169 205 244 291
#     4  11  22  38  58  76  97 128 167 207 251 304
#     4   9  17  31  52  78 106 135 168 206 249 295
#     4   7  11  22  43  70  99 131 166 203 242 288
#     4  10  20  33  50  76 108 137 167 206 249 291
#
# _framework density 20.732679000000001
#
# number of rings (size 3 to 8) (size 9 to 14) (size 15 to 20)
#    0.000    2.667    0.000    6.500    0.000    2.000 
#    0.000    0.833    0.000    4.000    0.000    4.667 
#    0.000    0.000    0.000    0.000    0.000    0.000 
#
# Total GULP energy -133779.172055 kJ/mol
# GULP energy per Si atom -5574.132169 kJ/mol
# Density = 2.068549 g / cm^3
# Si number density = 20.732679 Si / 1000 Ang^3
#
#
#
# Elastic Constant Matrix: (Units=GPa)
#
#
# Indices 1 2 3 4 5 6 
#
# 1 137.2373 4.8605 81.5794 0.0000 0.0000 0.0000
# 2 4.8605 11.9557 11.5747 0.0000 0.0000 0.0000
# 3 81.5794 11.5747 211.0607 0.0000 0.0000 0.0000
# 4 0.0000 0.0000 0.0000 31.8711 0.0000 0.0000
# 5 0.0000 0.0000 0.0000 0.0000 1.3375 0.0000
# 6 0.0000 0.0000 0.0000 0.0000 0.0000 13.6894
#
#
#
# Elastic Compliance Matrix: (Units=1/GPa)
#
#
# Indices 1 2 3 4 5 6 
#
# 1 0.009461 -0.000323 -0.003639 0.000000 0.000000 0.000000
# 2 -0.000323 0.088343 -0.004720 0.000000 0.000000 0.000000
# 3 -0.003639 -0.004720 0.006403 0.000000 0.000000 0.000000
# 4 0.000000 0.000000 0.000000 0.031376 0.000000 0.000000
# 5 0.000000 0.000000 0.000000 0.000000 0.747668 0.000000
# 6 0.000000 0.000000 0.000000 0.000000 0.000000 0.073049
#
#
# Mechanical properties :
#
#
# Convention : Reuss Voigt Hill
#
# Bulk Modulus (GPa) = 11.51504 61.80921 36.66213
# Shear Modulus (GPa) = 4.98697 26.86221 15.92459
#
# Velocity S-wave (km/s) = 1.55261 3.60341 2.77445
# Velocity P-wave (km/s) = 2.96315 6.86950 5.29009
#
# Compressibility (1/GPa) = 0.08684292
#
# Stress axis : x y z
#
# Youngs Moduli (GPa) = 105.69189 11.31957 156.16475
#
# Poissons Ratio (x) = 0.00366 0.56834
# Poissons Ratio (y) = 0.03415 0.73708
# Poissons Ratio (z) = 0.38465 0.05343
#
# Static dielectric constant tensor:
#      x y z
#    x 1.712810 0.000000 0.000000 
#    y 0.000000 1.786960 0.000000 
#    z 0.000000 0.000000 1.821180 
# 
# From -- ./inp_files/15380.got.cif
#   From: 2010.05.17/outbox.cif.g08.bks.cpg/sg35_8_cif.got.tgz:15380.got - 2010.06.03 17:29:28.
