data_PCOD9348423
_publ_section_title
;
Structure prediction by ZEFSAII (Michael W. Deem and Ramdas Pophale) SiO2 
 PCOD9348423
Probable space group: C M M 2
;
_chemical_formula_sum "Si O2"
_cell_formula_units_Z 40
_cell_length_a 16.076943
_cell_length_b 8.353083
_cell_length_c 14.983111
_cell_angle_alpha 90.000000
_cell_angle_beta 90.000000
_cell_angle_gamma 90.000000
_cell_volume 2012.112531
_symmetry_space_group_name_H-M "C M M 2"
_symmetry_group_IT_number 35
_symmetry_cell_setting 'orthorhombic'
loop_
_space_group_symop_operation_xyz
x,y,z
-x,-y,z
-x,y,z
x,-y,z
1/2+x,1/2+y,z
1/2-x,1/2-y,z
1/2-x,1/2+y,z
1/2+x,1/2-y,z
loop_
_atom_site_type_symbol
_atom_site_label
_atom_site_fract_x
_atom_site_fract_y
_atom_site_fract_z
Si Si1 0.845461 0.191249 0.154350
Si Si2 0.500000 0.695675 0.033989
Si Si3 0.338019 0.191419 0.723178
Si Si4 0.344652 0.192412 0.348203
Si Si5 0.000000 0.191842 0.828237
Si Si6 0.093930 0.694463 0.539652
O O1 0.750000 0.250000 0.140622
O O2 0.875027 0.242214 0.253442
O O3 0.915512 0.247858 0.084506
O O4 0.841987 0.000000 0.151048
O O5 0.500000 0.500000 0.036235
O O6 0.500000 0.746164 0.931179
O O7 0.250000 0.250000 0.759712
O O8 0.417315 0.248530 0.778688
O O9 0.348638 0.251228 0.620582
O O10 0.338696 0.000000 0.721736
O O11 0.250000 0.250000 0.354972
O O12 0.387332 0.249705 0.439445
O O13 0.348694 0.000000 0.344843
O O14 0.000000 0.000000 0.826848
O O15 0.099402 0.500000 0.536978
O O16 0.000000 0.737124 0.564078
#
# Coordination Sequence:
#
# PCOD9348423 Si02
#       6
#     8   4   8   8   4   8
#     4  10  20  38  59  83 115 151 189 234 285 339
#     4   9  22  41  62  83 114 150 185 239 298 347
#     4  11  22  40  64  89 121 159 197 242 295 351
#     4  10  19  32  53  80 113 151 190 232 277 332
#     4  11  23  43  64  89 118 150 197 249 302 359
#     4   9  18  33  54  81 117 155 191 234 283 337
#
# _framework density 19.879605000000002
#
# number of rings (size 3 to 8) (size 9 to 14) (size 15 to 20)
#    0.000    2.000    1.000    3.900    1.400    0.800 
#    0.000   10.500    0.000    0.000    0.000    0.000 
#    0.000    0.000    0.000    0.000    0.000    0.000 
#
# Total GULP energy -111622.411146 kJ/mol
# GULP energy per Si atom -5581.120557 kJ/mol
# Density = 1.983436 g / cm^3
# Si number density = 19.879605 Si / 1000 Ang^3
#
#
#
# Elastic Constant Matrix: (Units=GPa)
#
#
# Indices 1 2 3 4 5 6 
#
# 1 139.1531 22.6720 89.4833 0.0000 0.0000 0.0000
# 2 22.6720 44.3351 26.5410 0.0000 0.0000 0.0000
# 3 89.4833 26.5410 154.0036 0.0000 0.0000 0.0000
# 4 0.0000 0.0000 0.0000 16.3884 0.0000 0.0000
# 5 0.0000 0.0000 0.0000 0.0000 21.6448 0.0000
# 6 0.0000 0.0000 0.0000 0.0000 0.0000 26.2955
#
#
#
# Elastic Compliance Matrix: (Units=1/GPa)
#
#
# Indices 1 2 3 4 5 6 
#
# 1 0.011650 -0.002124 -0.006403 0.000000 0.000000 0.000000
# 2 -0.002124 0.025538 -0.003167 0.000000 0.000000 0.000000
# 3 -0.006403 -0.003167 0.010760 0.000000 0.000000 0.000000
# 4 0.000000 0.000000 0.000000 0.061019 0.000000 0.000000
# 5 0.000000 0.000000 0.000000 0.000000 0.046200 0.000000
# 6 0.000000 0.000000 0.000000 0.000000 0.000000 0.038029
#
#
# Mechanical properties :
#
#
# Convention : Reuss Voigt Hill
#
# Bulk Modulus (GPa) = 40.71871 68.32049 54.51960
# Shear Modulus (GPa) = 22.24493 26.11880 24.18186
#
# Velocity S-wave (km/s) = 3.34875 3.62864 3.49150
# Velocity P-wave (km/s) = 5.95645 7.21095 6.61351
#
# Compressibility (1/GPa) = 0.02455874
#
# Stress axis : x y z
#
# Youngs Moduli (GPa) = 85.83701 39.15789 92.94023
#
# Poissons Ratio (x) = 0.08319 0.59510
# Poissons Ratio (y) = 0.18235 0.29432
# Poissons Ratio (z) = 0.54962 0.12400
#
# Static dielectric constant tensor:
#      x y z
#    x 1.683470 0.000000 0.000000 
#    y 0.000000 1.687350 0.000000 
#    z 0.000000 0.000000 1.722140 
# 
# From -- ./inp_files/16614.got.cif
#   From: 2010.05.17/outbox.cif.g08.bks.cpg/sg35_9_cif.got.tgz:16614.got - 2010.06.03 17:29:28.
