data_PCOD9348232
_publ_section_title
;
Structure prediction by ZEFSAII (Michael W. Deem and Ramdas Pophale) SiO2 
 PCOD9348232
Probable space group: C M M 2
;
_chemical_formula_sum "Si O2"
_cell_formula_units_Z 48
_cell_length_a 28.958482
_cell_length_b 7.634197
_cell_length_c 10.753508
_cell_angle_alpha 90.000000
_cell_angle_beta 90.000000
_cell_angle_gamma 90.000000
_cell_volume 2377.329162
_symmetry_space_group_name_H-M "C M M 2"
_symmetry_group_IT_number 35
_symmetry_cell_setting 'orthorhombic'
loop_
_space_group_symop_operation_xyz
x,y,z
-x,-y,z
-x,y,z
x,-y,z
1/2+x,1/2+y,z
1/2-x,1/2-y,z
1/2-x,1/2+y,z
1/2+x,1/2-y,z
loop_
_atom_site_type_symbol
_atom_site_label
_atom_site_fract_x
_atom_site_fract_y
_atom_site_fract_z
Si Si1 0.303864 0.289848 0.189340
Si Si2 0.195648 0.789256 0.686521
Si Si3 0.146445 0.215140 0.938091
Si Si4 0.551460 0.291617 0.041893
Si Si5 0.646994 0.708011 0.437277
Si Si6 0.051891 0.290690 0.329708
O O1 0.309975 0.500000 0.188866
O O2 0.250000 0.250000 0.195481
O O3 0.329340 0.219535 0.312048
O O4 0.325578 0.226345 0.060206
O O5 0.250000 0.750000 0.684562
O O6 0.171038 0.725064 0.812293
O O7 0.169991 0.721510 0.562823
O O8 0.191089 0.000000 0.687550
O O9 0.093628 0.273981 0.958522
O O10 0.146505 0.000000 0.937297
O O11 0.500000 0.217998 0.020555
O O12 0.549023 0.500000 0.021896
O O13 0.562849 0.266082 0.188009
O O14 0.655848 0.500000 0.437909
O O15 0.592312 0.732646 0.421356
O O16 0.050910 0.500000 0.330348
O O17 0.000000 0.225913 0.358598
#
# Coordination Sequence:
#
# PCOD9348232 Si02
#       6
#     8   8   8   8   8   8
#     4  10  19  31  48  71 100 130 168 215 257 300
#     4  10  21  36  54  75 105 141 177 216 258 308
#     4   9  17  32  51  75 105 134 170 214 256 303
#     4   9  16  30  54  78 103 137 172 210 261 312
#     4  10  20  35  53  75 103 137 174 213 257 307
#     4  10  20  33  52  80 109 134 167 214 263 310
#
# _framework density 20.190725
#
# number of rings (size 3 to 8) (size 9 to 14) (size 15 to 20)
#    0.000    2.333    1.667    1.500    0.000    2.333 
#    0.000    1.667    0.000    3.000    0.000    2.333 
#    0.000    0.000    0.000    0.000    0.000    0.000 
#
# Total GULP energy -133968.193140 kJ/mol
# GULP energy per Si atom -5582.008047 kJ/mol
# Density = 2.014477 g / cm^3
# Si number density = 20.190725 Si / 1000 Ang^3
#
#
#
# Elastic Constant Matrix: (Units=GPa)
#
#
# Indices 1 2 3 4 5 6 
#
# 1 183.1769 -7.7735 117.3336 0.0000 0.0000 0.0000
# 2 -7.7735 37.5075 11.6798 0.0000 0.0000 0.0000
# 3 117.3336 11.6798 180.0037 0.0000 0.0000 0.0000
# 4 0.0000 0.0000 0.0000 -3.2948 0.0000 0.0000
# 5 0.0000 0.0000 0.0000 0.0000 40.8036 0.0000
# 6 0.0000 0.0000 0.0000 0.0000 0.0000 19.8536
#
#
#
# Elastic Compliance Matrix: (Units=1/GPa)
#
#
# Indices 1 2 3 4 5 6 
#
# 1 0.009975 0.004176 -0.006773 0.000000 0.000000 0.000000
# 2 0.004176 0.028960 -0.004601 0.000000 0.000000 0.000000
# 3 -0.006773 -0.004601 0.010269 0.000000 0.000000 0.000000
# 4 0.000000 0.000000 0.000000 -0.303504 0.000000 0.000000
# 5 0.000000 0.000000 0.000000 0.000000 0.024508 0.000000
# 6 0.000000 0.000000 0.000000 0.000000 0.000000 0.050369
#
#
# Mechanical properties :
#
#
# Convention : Reuss Voigt Hill
#
# Bulk Modulus (GPa) = 28.72940 71.46309 50.09624
# Shear Modulus (GPa) = -32.58910 30.10236 -1.24337
#
# Velocity S-wave (km/s) = -4.02190 3.86541 -0.78559
# Velocity P-wave (km/s) = 2.70327 7.44263 4.90332
#
# Compressibility (1/GPa) = 0.03480755
#
# Stress axis : x y z
#
# Youngs Moduli (GPa) = 100.25183 34.53059 97.38105
#
# Poissons Ratio (x) = -0.14421 0.65956
# Poissons Ratio (y) = -0.41870 0.44810
# Poissons Ratio (z) = 0.67901 0.15889
#
# Static dielectric constant tensor:
#      x y z
#    x 1.716680 0.000000 0.000000 
#    y 0.000000 1.739620 0.000000 
#    z 0.000000 0.000000 1.694880 
# 
# From -- ./inp_files/5326.got.cif
#   From: 2010.05.17/outbox.cif.g08.bks.cpg/sg35_3_cif.got.tgz:5326.got - 2010.06.03 17:29:28.
