data_PCOD9348762
_publ_section_title
;
Structure prediction by ZEFSAII (Michael W. Deem and Ramdas Pophale) SiO2 
 PCOD9348762
Probable space group: C M M 2
;
_chemical_formula_sum "Si O2"
_cell_formula_units_Z 64
_cell_length_a 29.049131
_cell_length_b 8.751095
_cell_length_c 15.865443
_cell_angle_alpha 90.000000
_cell_angle_beta 90.000000
_cell_angle_gamma 90.000000
_cell_volume 4033.181316
_symmetry_space_group_name_H-M "C M M 2"
_symmetry_group_IT_number 35
_symmetry_cell_setting 'orthorhombic'
loop_
_space_group_symop_operation_xyz
x,y,z
-x,-y,z
-x,y,z
x,-y,z
1/2+x,1/2+y,z
1/2-x,1/2-y,z
1/2-x,1/2+y,z
1/2+x,1/2-y,z
loop_
_atom_site_type_symbol
_atom_site_label
_atom_site_fract_x
_atom_site_fract_y
_atom_site_fract_z
Si Si1 0.700761 0.817240 0.662420
Si Si2 0.445850 0.183086 0.749906
Si Si3 0.201016 0.817630 0.849992
Si Si4 0.889692 0.317966 0.919633
Si Si5 0.555811 0.823933 0.248972
Si Si6 0.945792 0.818751 0.073091
Si Si7 0.390628 0.681572 0.593143
Si Si8 0.054095 0.315011 0.436962
O O1 0.750000 0.750000 0.635181
O O2 0.692432 0.752861 0.756924
O O3 0.658798 0.760659 0.605623
O O4 0.702497 0.000000 0.665970
O O5 0.500000 0.218481 0.753862
O O6 0.421018 0.220175 0.837952
O O7 0.421395 0.268333 0.673232
O O8 0.441028 0.000000 0.736117
O O9 0.250000 0.750000 0.878628
O O10 0.158808 0.766185 0.907797
O O11 0.203746 0.000000 0.843227
O O12 0.882444 0.500000 0.919598
O O13 0.916267 0.266859 0.003037
O O14 0.500000 0.824340 0.251836
O O15 0.569095 0.726912 0.167663
O O16 0.569732 0.770602 0.342342
O O17 0.570477 0.000000 0.237333
O O18 0.000000 0.776927 0.064237
O O19 0.941832 0.000000 0.061523
O O20 0.385310 0.500000 0.592333
O O21 0.416009 0.739693 0.509520
O O22 0.056929 0.500000 0.442135
O O23 0.000000 0.274944 0.447546
#
# Coordination Sequence:
#
# PCOD9348762 Si02
#       8
#     8   8   8   8   8   8   8   8
#     4  11  21  36  55  74  97 128 166 210 255 299
#     4  10  21  35  49  66  95 136 176 210 245 290
#     4  11  21  35  54  76 100 128 164 209 256 301
#     4  11  21  34  52  73  98 135 175 210 249 297
#     4   8  15  30  51  72  95 128 170 212 253 298
#     4  10  20  32  48  73 105 137 169 210 256 301
#     4  12  23  33  48  73 102 135 170 207 251 301
#     4   9  18  33  52  73 100 135 173 212 253 299
#
# _framework density 15.868368
#
# number of rings (size 3 to 8) (size 9 to 14) (size 15 to 20)
#    0.000    1.750    1.250    6.375    0.000    4.250 
#    0.000    1.250    0.000    0.000    0.000    0.875 
#    0.000    6.000    0.000    0.000    0.000    0.000 
#
# Total GULP energy -178663.606423 kJ/mol
# GULP energy per Si atom -5583.237701 kJ/mol
# Density = 1.583225 g / cm^3
# Si number density = 15.868368 Si / 1000 Ang^3
#
#
#
# Elastic Constant Matrix: (Units=GPa)
#
#
# Indices 1 2 3 4 5 6 
#
# 1 99.3659 54.3266 53.5942 0.0000 0.0000 0.0000
# 2 54.3266 93.4866 51.5598 0.0000 0.0000 0.0000
# 3 53.5942 51.5598 107.9421 0.0000 0.0000 0.0000
# 4 0.0000 0.0000 0.0000 13.8830 0.0000 0.0000
# 5 0.0000 0.0000 0.0000 0.0000 5.2754 0.0000
# 6 0.0000 0.0000 0.0000 0.0000 0.0000 24.1678
#
#
#
# Elastic Compliance Matrix: (Units=1/GPa)
#
#
# Indices 1 2 3 4 5 6 
#
# 1 0.016455 -0.006865 -0.004891 0.000000 0.000000 0.000000
# 2 -0.006865 0.017386 -0.004896 0.000000 0.000000 0.000000
# 3 -0.004891 -0.004896 0.014031 0.000000 0.000000 0.000000
# 4 0.000000 0.000000 0.000000 0.072030 0.000000 0.000000
# 5 0.000000 0.000000 0.000000 0.000000 0.189558 0.000000
# 6 0.000000 0.000000 0.000000 0.000000 0.000000 0.041377
#
#
# Mechanical properties :
#
#
# Convention : Reuss Voigt Hill
#
# Bulk Modulus (GPa) = 68.64114 68.86175 68.75145
# Shear Modulus (GPa) = 12.85349 18.08619 15.46984
#
# Velocity S-wave (km/s) = 2.84915 3.37970 3.12570
# Velocity P-wave (km/s) = 7.36030 7.66288 7.51311
#
# Compressibility (1/GPa) = 0.01456852
#
# Stress axis : x y z
#
# Youngs Moduli (GPa) = 60.77151 57.51615 71.26823
#
# Poissons Ratio (x) = 0.39484 0.34858
# Poissons Ratio (y) = 0.41718 0.34896
# Poissons Ratio (z) = 0.29724 0.28162
#
# Static dielectric constant tensor:
#      x y z
#    x 1.520460 0.000000 0.000000 
#    y 0.000000 1.531990 0.000000 
#    z 0.000000 0.000000 1.518120 
# 
# From -- ./inp_files/17737.got.cif
#   From: 2010.05.17/outbox.cif.g08.bks.cpg/sg35_9_cif.got.tgz:17737.got - 2010.06.03 17:29:28.
