data_PCOD9348164
_publ_section_title
;
Structure prediction by ZEFSAII (Michael W. Deem and Ramdas Pophale) SiO2 
 PCOD9348164
Probable space group: C M M 2
;
_chemical_formula_sum "Si O2"
_cell_formula_units_Z 40
_cell_length_a 23.780701
_cell_length_b 8.359841
_cell_length_c 10.450768
_cell_angle_alpha 90.000000
_cell_angle_beta 90.000000
_cell_angle_gamma 90.000000
_cell_volume 2077.642769
_symmetry_space_group_name_H-M "C M M 2"
_symmetry_group_IT_number 35
_symmetry_cell_setting 'orthorhombic'
loop_
_space_group_symop_operation_xyz
x,y,z
-x,-y,z
-x,y,z
x,-y,z
1/2+x,1/2+y,z
1/2-x,1/2-y,z
1/2-x,1/2+y,z
1/2+x,1/2-y,z
loop_
_atom_site_type_symbol
_atom_site_label
_atom_site_fract_x
_atom_site_fract_y
_atom_site_fract_z
Si Si1 0.879626 0.694678 0.290320
Si Si2 0.000000 0.193855 0.683959
Si Si3 0.686465 0.191993 0.547004
Si Si4 0.119211 0.190052 0.791717
Si Si5 0.000000 0.693911 0.388222
Si Si6 0.685700 0.809325 0.038518
O O1 0.880925 0.500000 0.283734
O O2 0.844607 0.738398 0.416259
O O3 0.847690 0.752787 0.163735
O O4 0.943588 0.747978 0.315350
O O5 0.056128 0.247334 0.758284
O O6 0.000000 0.251845 0.536585
O O7 0.000000 0.000000 0.680087
O O8 0.750000 0.250000 0.542581
O O9 0.655599 0.269608 0.667004
O O10 0.684020 0.000000 0.559603
O O11 0.117172 0.000000 0.810899
O O12 0.149766 0.264660 0.913805
O O13 0.000000 0.500000 0.390478
O O14 0.750000 0.750000 0.031551
O O15 0.688532 0.000000 0.047843
#
# Coordination Sequence:
#
# PCOD9348164 Si02
#       6
#     8   4   8   8   4   8
#     4   9  20  36  60  89 118 152 194 243 295 349
#     4  10  22  39  60  88 122 154 194 245 298 350
#     4  11  21  36  58  87 116 153 198 246 297 351
#     4  11  23  40  60  86 119 157 197 245 296 352
#     4  10  18  37  64  90 120 152 194 247 294 350
#     4  11  23  41  61  87 121 160 201 245 297 353
#
# _framework density 19.252589
#
# number of rings (size 3 to 8) (size 9 to 14) (size 15 to 20)
#    0.000    1.600    2.000    3.000    0.000    1.600 
#    0.000    6.000    0.000    0.000    0.000    0.000 
#    0.000    0.000    0.000    0.000    0.000    0.000 
#
# Total GULP energy -111737.755417 kJ/mol
# GULP energy per Si atom -5586.887771 kJ/mol
# Density = 1.920877 g / cm^3
# Si number density = 19.252589 Si / 1000 Ang^3
#
#
#
# Elastic Constant Matrix: (Units=GPa)
#
#
# Indices 1 2 3 4 5 6 
#
# 1 215.0255 16.8158 95.6763 0.0000 0.0000 0.0000
# 2 16.8158 24.2509 9.5203 0.0000 0.0000 0.0000
# 3 95.6763 9.5203 159.0097 0.0000 0.0000 0.0000
# 4 0.0000 0.0000 0.0000 -34.7544 0.0000 0.0000
# 5 0.0000 0.0000 0.0000 0.0000 47.9302 0.0000
# 6 0.0000 0.0000 0.0000 0.0000 0.0000-1597.7284
#
#
#
# Elastic Compliance Matrix: (Units=1/GPa)
#
#
# Indices 1 2 3 4 5 6 
#
# 1 0.006567 -0.003075 -0.003768 0.000000 0.000000 0.000000
# 2 -0.003075 0.043668 -0.000764 0.000000 0.000000 0.000000
# 3 -0.003768 -0.000764 0.008602 0.000000 0.000000 0.000000
# 4 0.000000 0.000000 0.000000 -0.028773 0.000000 0.000000
# 5 0.000000 0.000000 0.000000 0.000000 0.020864 0.000000
# 6 0.000000 0.000000 0.000000 0.000000 0.000000 -0.000626
#
#
# Mechanical properties :
#
#
# Convention : Reuss Voigt Hill
#
# Bulk Modulus (GPa) = 22.92353 71.36789 47.14571
# Shear Modulus (GPa) = 62.45624 -298.49229 -118.01802
#
# Velocity S-wave (km/s) = 5.70183 -12.46502 -7.83791
# Velocity P-wave (km/s) = 7.43508 13.03914 7.57426
#
# Compressibility (1/GPa) = 0.04362331
#
# Stress axis : x y z
#
# Youngs Moduli (GPa) = 152.26580 22.90017 116.25707
#
# Poissons Ratio (x) = 0.07042 0.43800
# Poissons Ratio (y) = 0.46820 0.08886
# Poissons Ratio (z) = 0.57367 0.01750
#
# Static dielectric constant tensor:
#      x y z
#    x 1.662580 0.000000 0.000000 
#    y 0.000000 1.664450 0.000000 
#    z 0.000000 0.000000 1.634310 
# 
# From -- ./inp_files/13805.got.cif
#   From: 2010.05.17/outbox.cif.g08.bks.cpg/sg35_7_cif.got.tgz:13805.got - 2010.06.03 17:29:28.
