data_PCOD9348721
_publ_section_title
;
Structure prediction by ZEFSAII (Michael W. Deem and Ramdas Pophale) SiO2 
 PCOD9348721
Probable space group: C M M 2
;
_chemical_formula_sum "Si O2"
_cell_formula_units_Z 48
_cell_length_a 14.223803
_cell_length_b 14.782197
_cell_length_c 12.013582
_cell_angle_alpha 90.000000
_cell_angle_beta 90.000000
_cell_angle_gamma 90.000000
_cell_volume 2525.964435
_symmetry_space_group_name_H-M "C M M 2"
_symmetry_group_IT_number 35
_symmetry_cell_setting 'orthorhombic'
loop_
_space_group_symop_operation_xyz
x,y,z
-x,-y,z
-x,y,z
x,-y,z
1/2+x,1/2+y,z
1/2-x,1/2-y,z
1/2-x,1/2+y,z
1/2+x,1/2-y,z
loop_
_atom_site_type_symbol
_atom_site_label
_atom_site_fract_x
_atom_site_fract_y
_atom_site_fract_z
Si Si1 0.259945 0.000000 0.987900
Si Si2 0.000000 0.711934 0.960023
Si Si3 0.390472 0.890402 0.591791
Si Si4 0.500000 0.609380 0.074256
Si Si5 0.812119 0.338721 0.829855
Si Si6 0.821741 0.608645 0.352708
Si Si7 0.500000 0.108662 0.195378
Si Si8 0.205983 0.845503 0.158377
O O1 0.262252 0.078809 0.891799
O O2 0.257017 0.078147 0.085786
O O3 0.909147 0.677627 0.895519
O O4 0.000000 0.821140 0.970466
O O5 0.000000 0.666219 0.082549
O O6 0.500000 0.861954 0.594081
O O7 0.337937 0.859544 0.702392
O O8 0.342890 0.858559 0.476870
O O9 0.390578 0.000000 0.590622
O O10 0.500000 0.500000 0.051708
O O11 0.404040 0.636555 0.136683
O O12 0.750000 0.250000 0.836941
O O13 0.815862 0.500000 0.357965
O O14 0.731019 0.643935 0.288010
O O15 0.909576 0.629711 0.271251
O O16 0.500000 0.000000 0.169177
O O17 0.250000 0.750000 0.121690
#
# Coordination Sequence:
#
# PCOD9348721 Si02
#       8
#     4   4   8   4   8   8   4   8
#     4  12  22  42  62  96 134 172 210 268 334 388
#     4  12  26  39  61  99 134 169 219 265 330 397
#     4  10  20  41  66  95 125 164 214 272 340 392
#     4  12  24  44  65  94 140 184 219 262 335 408
#     4  12  26  41  64  93 129 172 225 275 323 394
#     4  10  19  37  63  95 132 169 210 267 332 402
#     4  10  20  31  58 101 138 171 200 265 341 399
#     4  12  25  42  67  99 135 179 225 268 326 405
#
# _framework density 19.002642999999999
#
# number of rings (size 3 to 8) (size 9 to 14) (size 15 to 20)
#    0.000    0.833    4.167    4.500    3.500    0.667 
#    0.000    0.000    0.000    0.000    0.000    1.167 
#    0.000    0.000    0.000    0.000    0.000    0.000 
#
# Total GULP energy -133601.120463 kJ/mol
# GULP energy per Si atom -5566.713353 kJ/mol
# Density = 1.895939 g / cm^3
# Si number density = 19.002643 Si / 1000 Ang^3
#
#
#
# Elastic Constant Matrix: (Units=GPa)
#
#
# Indices 1 2 3 4 5 6 
#
# 1 15.5925 22.0521 8.1711 0.0000 0.0000 0.0000
# 2 22.0521 134.0953 49.3723 0.0000 0.0000 0.0000
# 3 8.1711 49.3723 151.2211 0.0000 0.0000 0.0000
# 4 0.0000 0.0000 0.0000 -17.3018 0.0000 0.0000
# 5 0.0000 0.0000 0.0000 0.0000 -39.6051 0.0000
# 6 0.0000 0.0000 0.0000 0.0000 0.0000 -16.6919
#
#
#
# Elastic Compliance Matrix: (Units=1/GPa)
#
#
# Indices 1 2 3 4 5 6 
#
# 1 0.083570 -0.013731 -0.000033 0.000000 0.000000 0.000000
# 2 -0.013731 0.010732 -0.002762 0.000000 0.000000 0.000000
# 3 -0.000033 -0.002762 0.007516 0.000000 0.000000 0.000000
# 4 0.000000 0.000000 0.000000 -0.057798 0.000000 0.000000
# 5 0.000000 0.000000 0.000000 0.000000 -0.025249 0.000000
# 6 0.000000 0.000000 0.000000 0.000000 0.000000 -0.059909
#
#
# Mechanical properties :
#
#
# Convention : Reuss Voigt Hill
#
# Bulk Modulus (GPa) = 14.54178 51.12222 32.83200
# Shear Modulus (GPa) = 336.98971 0.03446 168.51208
#
# Velocity S-wave (km/s) = 13.33129 0.13480 9.42713
# Velocity P-wave (km/s) = 15.64077 5.19474 11.65373
#
# Compressibility (1/GPa) = 0.06876739
#
# Stress axis : x y z
#
# Youngs Moduli (GPa) = 11.96598 93.17530 133.04258
#
# Poissons Ratio (x) = 1.27941 0.00433
# Poissons Ratio (y) = 0.16431 0.36748
# Poissons Ratio (z) = 0.00039 0.25736
#
# Static dielectric constant tensor:
#      x y z
#    x 1.707680 0.000000 0.000000 
#    y 0.000000 1.683290 0.000000 
#    z 0.000000 0.000000 1.648110 
# 
# From -- ./inp_files/12946.got.cif
#   From: 2010.05.17/outbox.cif.g08.bks.cpg/sg35_7_cif.got.tgz:12946.got - 2010.06.03 17:29:28.
