data_PCOD9348399
_publ_section_title
;
Structure prediction by ZEFSAII (Michael W. Deem and Ramdas Pophale) SiO2 
 PCOD9348399
Probable space group: C M M 2
;
_chemical_formula_sum "Si O2"
_cell_formula_units_Z 48
_cell_length_a 15.872330
_cell_length_b 8.754098
_cell_length_c 17.750378
_cell_angle_alpha 90.000000
_cell_angle_beta 90.000000
_cell_angle_gamma 90.000000
_cell_volume 2466.378321
_symmetry_space_group_name_H-M "C M M 2"
_symmetry_group_IT_number 35
_symmetry_cell_setting 'orthorhombic'
loop_
_space_group_symop_operation_xyz
x,y,z
-x,-y,z
-x,y,z
x,-y,z
1/2+x,1/2+y,z
1/2-x,1/2-y,z
1/2-x,1/2+y,z
1/2+x,1/2-y,z
loop_
_atom_site_type_symbol
_atom_site_label
_atom_site_fract_x
_atom_site_fract_y
_atom_site_fract_z
Si Si1 0.838627 0.181783 0.965300
Si Si2 0.337840 0.684556 0.600691
Si Si3 0.602895 0.322507 0.275482
Si Si4 0.101448 0.678542 0.118827
Si Si5 0.500000 0.686239 0.696608
Si Si6 0.901687 0.186094 0.439612
Si Si7 0.500000 0.686658 0.869753
O O1 0.750000 0.250000 0.940377
O O2 0.916861 0.236776 0.914612
O O3 0.835066 0.000000 0.960568
O O4 0.856626 0.229410 0.051321
O O5 0.335501 0.500000 0.600959
O O6 0.250000 0.750000 0.628643
O O7 0.416738 0.733637 0.651409
O O8 0.353392 0.735669 0.514244
O O9 0.500000 0.318855 0.278152
O O10 0.627152 0.500000 0.267134
O O11 0.629570 0.231299 0.201736
O O12 0.630519 0.262538 0.357581
O O13 0.118404 0.500000 0.108402
O O14 0.000000 0.702655 0.114719
O O15 0.500000 0.500000 0.696473
O O16 0.500000 0.736414 0.783136
O O17 0.000000 0.229824 0.447962
O O18 0.900378 0.000000 0.437366
O O19 0.500000 0.500000 0.870377
#
# Coordination Sequence:
#
# PCOD9348399 Si02
#       7
#     8   8   8   8   4   8   4
#     4  11  22  38  59  84 113 146 186 228 277 333
#     4  10  19  33  56  83 112 145 184 226 271 323
#     4   8  14  25  46  74 103 139 188 235 273 316
#     4  10  19  32  52  79 112 147 187 231 278 328
#     4   9  18  36  61  84 109 146 184 219 267 333
#     4   8  13  26  49  75 101 140 191 231 263 315
#     4   9  20  38  61  86 111 142 182 225 273 333
#
# _framework density 19.461735000000001
#
# number of rings (size 3 to 8) (size 9 to 14) (size 15 to 20)
#    0.000    2.667    1.667    2.000    0.000    1.333 
#    0.000    2.083    0.000    6.000    0.000    0.000 
#    0.000    0.000    0.000    0.000    0.000    0.000 
#
# Total GULP energy -133904.986099 kJ/mol
# GULP energy per Si atom -5579.374421 kJ/mol
# Density = 1.941744 g / cm^3
# Si number density = 19.461735 Si / 1000 Ang^3
#
#
#
# Elastic Constant Matrix: (Units=GPa)
#
#
# Indices 1 2 3 4 5 6 
#
# 1 121.5579 30.1395 75.2469 0.0000 0.0000 0.0000
# 2 30.1395 20.8449 20.1130 0.0000 0.0000 0.0000
# 3 75.2469 20.1130 147.6506 0.0000 0.0000 0.0000
# 4 0.0000 0.0000 0.0000 6.2176 0.0000 0.0000
# 5 0.0000 0.0000 0.0000 0.0000 -4.8490 0.0000
# 6 0.0000 0.0000 0.0000 0.0000 0.0000 22.8246
#
#
#
# Elastic Compliance Matrix: (Units=1/GPa)
#
#
# Indices 1 2 3 4 5 6 
#
# 1 0.016297 -0.017903 -0.005867 0.000000 0.000000 0.000000
# 2 -0.017903 0.074900 -0.001079 0.000000 0.000000 0.000000
# 3 -0.005867 -0.001079 0.009910 0.000000 0.000000 0.000000
# 4 0.000000 0.000000 0.000000 0.160835 0.000000 0.000000
# 5 0.000000 0.000000 0.000000 0.000000 -0.206229 0.000000
# 6 0.000000 0.000000 0.000000 0.000000 0.000000 0.043812
#
#
# Mechanical properties :
#
#
# Convention : Reuss Voigt Hill
#
# Bulk Modulus (GPa) = 19.45171 60.11691 39.78431
# Shear Modulus (GPa) = 30.05545 15.80890 22.93217
#
# Velocity S-wave (km/s) = 3.93407 2.85319 3.43639
# Velocity P-wave (km/s) = 5.53646 6.46615 6.01928
#
# Compressibility (1/GPa) = 0.05140935
#
# Stress axis : x y z
#
# Youngs Moduli (GPa) = 61.36061 13.35108 100.91259
#
# Poissons Ratio (x) = 0.23903 0.59202
# Poissons Ratio (y) = 1.09855 0.10888
# Poissons Ratio (z) = 0.35998 0.01441
#
# Static dielectric constant tensor:
#      x y z
#    x 1.688590 0.000000 0.000000 
#    y 0.000000 1.654450 0.000000 
#    z 0.000000 0.000000 1.682040 
# 
# From -- ./inp_files/17920.got.cif
#   From: 2010.05.17/outbox.cif.g08.bks.cpg/sg35_9_cif.got.tgz:17920.got - 2010.06.03 17:29:28.
