data_PCOD9348782
_publ_section_title
;
Structure prediction by ZEFSAII (Michael W. Deem and Ramdas Pophale) SiO2 
 PCOD9348782
Probable space group: C M M 2
;
_chemical_formula_sum "Si O2"
_cell_formula_units_Z 64
_cell_length_a 15.302040
_cell_length_b 24.593562
_cell_length_c 7.839105
_cell_angle_alpha 90.000000
_cell_angle_beta 90.000000
_cell_angle_gamma 90.000000
_cell_volume 2950.103472
_symmetry_space_group_name_H-M "C M M 2"
_symmetry_group_IT_number 35
_symmetry_cell_setting 'orthorhombic'
loop_
_space_group_symop_operation_xyz
x,y,z
-x,-y,z
-x,y,z
x,-y,z
1/2+x,1/2+y,z
1/2-x,1/2-y,z
1/2-x,1/2+y,z
1/2+x,1/2-y,z
loop_
_atom_site_type_symbol
_atom_site_label
_atom_site_fract_x
_atom_site_fract_y
_atom_site_fract_z
Si Si1 0.394305 0.732887 0.089430
Si Si2 0.336490 0.282642 0.466064
Si Si3 0.097409 0.873304 0.922807
Si Si4 0.742827 0.391179 0.495702
Si Si5 0.233142 0.562635 0.844916
Si Si6 0.404998 0.561999 0.269887
Si Si7 0.593623 0.826804 0.535833
Si Si8 0.898451 0.349818 0.940624
O O1 0.500000 0.730200 0.113628
O O2 0.346534 0.714262 0.261503
O O3 0.374186 0.689521 0.940388
O O4 0.372698 0.794646 0.038735
O O5 0.250000 0.250000 0.516097
O O6 0.325717 0.342242 0.544003
O O7 0.407316 0.238229 0.516197
O O8 0.091737 0.895161 0.117423
O O9 0.000000 0.876934 0.847639
O O10 0.169498 0.913270 0.851006
O O11 0.784204 0.427774 0.644271
O O12 0.682811 0.426921 0.374111
O O13 0.826737 0.355599 0.435377
O O14 0.227811 0.500000 0.892373
O O15 0.169231 0.600573 0.956827
O O16 0.500000 0.567280 0.362744
O O17 0.402013 0.500000 0.203999
O O18 0.500000 0.848782 0.478454
O O19 0.604264 0.836740 0.737732
O O20 0.000000 0.362772 0.982479
#
# Coordination Sequence:
#
# PCOD9348782 Si02
#       8
#     8   8   8   8   8   8   8   8
#     4  10  20  35  56  86 116 148 187 232 294 354
#     4  10  20  32  52  85 115 147 182 227 288 349
#     4  10  22  38  56  82 115 152 195 238 291 355
#     4  10  21  37  55  84 116 148 201 241 287 349
#     4  11  24  39  59  84 115 159 202 246 293 339
#     4  10  20  36  58  81 112 154 195 240 292 350
#     4   9  19  36  56  80 116 153 186 234 296 350
#     4   9  21  39  60  86 115 150 193 240 294 351
#
# _framework density 21.694156
#
# number of rings (size 3 to 8) (size 9 to 14) (size 15 to 20)
#    0.000    2.125    1.250    1.125    3.500    2.000 
#    0.000    0.000    0.000    1.125    0.000    0.000 
#    0.000    4.000    0.000    0.000    0.000    0.000 
#
# Total GULP energy -178350.183650 kJ/mol
# GULP energy per Si atom -5573.443239 kJ/mol
# Density = 2.164478 g / cm^3
# Si number density = 21.694156 Si / 1000 Ang^3
#
#
#
# Elastic Constant Matrix: (Units=GPa)
#
#
# Indices 1 2 3 4 5 6 
#
# 1 81.7472 39.9385 2.4934 0.0000 0.0000 0.0000
# 2 39.9385 148.4906 7.8205 0.0000 0.0000 0.0000
# 3 2.4934 7.8205 14.4785 0.0000 0.0000 0.0000
# 4 0.0000 0.0000 0.0000 25.7320 0.0000 0.0000
# 5 0.0000 0.0000 0.0000 0.0000 22.3228 0.0000
# 6 0.0000 0.0000 0.0000 0.0000 0.0000 30.8783
#
#
#
# Elastic Compliance Matrix: (Units=1/GPa)
#
#
# Indices 1 2 3 4 5 6 
#
# 1 0.014086 -0.003768 -0.000390 0.000000 0.000000 0.000000
# 2 -0.003768 0.007940 -0.003640 0.000000 0.000000 0.000000
# 3 -0.000390 -0.003640 0.071101 0.000000 0.000000 0.000000
# 4 0.000000 0.000000 0.000000 0.038862 0.000000 0.000000
# 5 0.000000 0.000000 0.000000 0.000000 0.044797 0.000000
# 6 0.000000 0.000000 0.000000 0.000000 0.000000 0.032385
#
#
# Mechanical properties :
#
#
# Convention : Reuss Voigt Hill
#
# Bulk Modulus (GPa) = 12.89822 38.35790 25.62806
# Shear Modulus (GPa) = 19.95130 28.75087 24.35108
#
# Velocity S-wave (km/s) = 3.03588 3.64439 3.35397
# Velocity P-wave (km/s) = 4.27167 5.95217 5.18052
#
# Compressibility (1/GPa) = 0.07753006
#
# Stress axis : x y z
#
# Youngs Moduli (GPa) = 70.99443 125.95156 14.06450
#
# Poissons Ratio (x) = 0.47458 0.00549
# Poissons Ratio (y) = 0.26750 0.05119
# Poissons Ratio (z) = 0.02772 0.45841
#
# Static dielectric constant tensor:
#      x y z
#    x 1.850470 0.000000 0.000000 
#    y 0.000000 1.798500 0.000000 
#    z 0.000000 0.000000 1.851820 
# 
# From -- ./inp_files/7874.got.cif
#   From: 2010.05.17/outbox.cif.g08.bks.cpg/sg35_4_cif.got.tgz:7874.got - 2010.06.03 17:29:28.
