data_PCOD9348583
_publ_section_title
;
Structure prediction by ZEFSAII (Michael W. Deem and Ramdas Pophale) SiO2 
 PCOD9348583
Probable space group: C M M 2
;
_chemical_formula_sum "Si O2"
_cell_formula_units_Z 48
_cell_length_a 14.570351
_cell_length_b 8.326587
_cell_length_c 17.335459
_cell_angle_alpha 90.000000
_cell_angle_beta 90.000000
_cell_angle_gamma 90.000000
_cell_volume 2103.160339
_symmetry_space_group_name_H-M "C M M 2"
_symmetry_group_IT_number 35
_symmetry_cell_setting 'orthorhombic'
loop_
_space_group_symop_operation_xyz
x,y,z
-x,-y,z
-x,y,z
x,-y,z
1/2+x,1/2+y,z
1/2-x,1/2-y,z
1/2-x,1/2+y,z
1/2+x,1/2-y,z
loop_
_atom_site_type_symbol
_atom_site_label
_atom_site_fract_x
_atom_site_fract_y
_atom_site_fract_z
Si Si1 0.387744 0.000000 0.622860
Si Si2 0.353429 0.309734 0.033850
Si Si3 0.606973 0.822083 0.200799
Si Si4 0.612262 0.676201 0.710949
Si Si5 0.112262 0.823799 0.356752
Si Si6 0.387744 0.000000 0.444840
Si Si7 0.106973 0.322083 0.866902
O O1 0.358508 0.164758 0.664787
O O2 0.500000 0.000000 0.625496
O O3 0.359740 0.000000 0.533850
O O4 0.362438 0.500000 0.033850
O O5 0.250000 0.250000 0.033850
O O6 0.390806 0.242746 0.114219
O O7 0.390806 0.242746 0.953482
O O8 0.500000 0.840107 0.220225
O O9 0.641585 0.705325 0.267762
O O10 0.649938 0.000000 0.203618
O O11 0.500000 0.671997 0.706500
O O12 0.643988 0.500000 0.684155
O O13 0.641585 0.705325 0.799939
O O14 0.141492 0.664758 0.402914
O O15 0.000000 0.828003 0.361201
O O16 0.143988 0.000000 0.383546
O O17 0.500000 0.000000 0.442205
O O18 0.149938 0.500000 0.864083
O O19 0.000000 0.340107 0.847476
#
# Coordination Sequence:
#
# PCOD9348583 Si02
#       7
#     4   8   8   8   8   4   8
#     4   9  16  26  40  63  99 135 165 208 262 309
#     4  12  25  38  51  73 105 139 173 221 267 313
#     4  10  19  34  55  76 101 137 178 218 261 310
#     4   9  16  27  44  67  95 131 173 212 252 304
#     4   9  16  27  44  67  95 131 173 212 252 304
#     4   9  16  26  40  63  99 135 165 208 262 309
#     4  10  19  34  55  76 101 137 178 218 261 310
#
# _framework density 22.822797999999999
#
# number of rings (size 3 to 8) (size 9 to 14) (size 15 to 20)
#    0.000    2.167    1.667    3.000    0.000    4.667 
#    0.000    3.333    0.000    0.000    0.000    0.000 
#    0.000    1.333    0.667    0.000    0.000    0.000 
#
# Total GULP energy -134013.631704 kJ/mol
# GULP energy per Si atom -5583.901321 kJ/mol
# Density = 2.277085 g / cm^3
# Si number density = 22.822798 Si / 1000 Ang^3
#
#
#
# Elastic Constant Matrix: (Units=GPa)
#
#
# Indices 1 2 3 4 5 6 
#
# 1 39.4769 6.1572 -8.9657 0.0000 0.0000 0.0000
# 2 6.1572 240.6565 94.5339 0.0000 0.0000 0.0000
# 3 -8.9657 94.5339 149.2247 0.0000 0.0000 0.0000
# 4 0.0000 0.0000 0.0000 10.1327 0.0000 0.0000
# 5 0.0000 0.0000 0.0000 0.0000 -46.6834 0.0000
# 6 0.0000 0.0000 0.0000 0.0000 0.0000 17.3255
#
#
#
# Elastic Compliance Matrix: (Units=1/GPa)
#
#
# Indices 1 2 3 4 5 6 
#
# 1 0.026203 -0.001716 0.002661 0.000000 0.000000 0.000000
# 2 -0.001716 0.005644 -0.003679 0.000000 0.000000 0.000000
# 3 0.002661 -0.003679 0.009192 0.000000 0.000000 0.000000
# 4 0.000000 0.000000 0.000000 0.098690 0.000000 0.000000
# 5 0.000000 0.000000 0.000000 0.000000 -0.021421 0.000000
# 6 0.000000 0.000000 0.000000 0.000000 0.000000 0.057718
#
#
# Mechanical properties :
#
#
# Convention : Reuss Voigt Hill
#
# Bulk Modulus (GPa) = 28.11139 68.08986 48.10062
# Shear Modulus (GPa) = 25.85967 18.66381 22.26174
#
# Velocity S-wave (km/s) = 3.36975 2.86277 3.12655
# Velocity P-wave (km/s) = 5.24255 6.38954 5.84425
#
# Compressibility (1/GPa) = 0.03557277
#
# Stress axis : x y z
#
# Youngs Moduli (GPa) = 38.16314 177.17095 108.79404
#
# Poissons Ratio (x) = 0.30399 -0.28954
# Poissons Ratio (y) = 0.06548 0.40022
# Poissons Ratio (z) = -0.10156 0.65176
#
# Static dielectric constant tensor:
#      x y z
#    x 1.883300 0.000000 0.000000 
#    y 0.000000 1.838210 0.000000 
#    z 0.000000 0.000000 1.874760 
# 
# From -- ./inp_files/17117.got.cif
#   From: 2010.05.17/outbox.cif.g08.bks.cpg/sg35_9_cif.got.tgz:17117.got - 2010.06.03 17:29:28.
