data_PCOD9348715
_publ_section_title
;
Structure prediction by ZEFSAII (Michael W. Deem and Ramdas Pophale) SiO2 
 PCOD9348715
Probable space group: C M M 2
;
_chemical_formula_sum "Si O2"
_cell_formula_units_Z 64
_cell_length_a 31.494277
_cell_length_b 8.928882
_cell_length_c 12.113795
_cell_angle_alpha 90.000000
_cell_angle_beta 90.000000
_cell_angle_gamma 90.000000
_cell_volume 3406.504338
_symmetry_space_group_name_H-M "C M M 2"
_symmetry_group_IT_number 35
_symmetry_cell_setting 'orthorhombic'
loop_
_space_group_symop_operation_xyz
x,y,z
-x,-y,z
-x,y,z
x,-y,z
1/2+x,1/2+y,z
1/2-x,1/2-y,z
1/2-x,1/2+y,z
1/2+x,1/2-y,z
loop_
_atom_site_type_symbol
_atom_site_label
_atom_site_fract_x
_atom_site_fract_y
_atom_site_fract_z
Si Si1 0.822845 0.178276 0.820690
Si Si2 0.376211 0.820489 0.193620
Si Si3 0.548353 0.679811 0.053258
Si Si4 0.376903 0.679906 0.435569
Si Si5 0.451442 0.178491 0.579293
Si Si6 0.075762 0.177475 0.806049
Si Si7 0.205820 0.321266 0.048225
Si Si8 0.794145 0.180204 0.576913
O O1 0.873571 0.201168 0.814012
O O2 0.803154 0.225666 0.703761
O O3 0.815576 0.000000 0.835241
O O4 0.804006 0.263845 0.924864
O O5 0.416885 0.762520 0.126257
O O6 0.375696 0.747426 0.313784
O O7 0.333867 0.778260 0.125347
O O8 0.377541 0.000000 0.202564
O O9 0.500000 0.716358 0.084434
O O10 0.554225 0.500000 0.064064
O O11 0.555769 0.715999 0.924224
O O12 0.378605 0.500000 0.431282
O O13 0.417463 0.740389 0.501881
O O14 0.334420 0.723669 0.502794
O O15 0.500000 0.216008 0.549404
O O16 0.442872 0.230858 0.704525
O O17 0.446035 0.000000 0.570955
O O18 0.068646 0.000000 0.785666
O O19 0.209400 0.500000 0.047707
O O20 0.250000 0.250000 0.086303
O O21 0.750000 0.250000 0.538695
O O22 0.791337 0.000000 0.575055
#
# Coordination Sequence:
#
# PCOD9348715 Si02
#       8
#     8   8   8   8   8   8   8   8
#     4  10  19  36  62  91 124 157 196 245 298 355
#     4  11  25  43  62  88 120 157 202 252 308 360
#     4  10  21  38  63  93 122 159 204 246 295 356
#     4  11  24  44  66  87 115 157 208 254 300 357
#     4  11  24  40  61  92 127 161 199 247 304 360
#     4  10  19  36  63  92 125 161 199 245 296 356
#     4  11  24  40  61  90 123 160 202 246 300 361
#     4  10  22  39  60  90 121 154 194 241 297 355
#
# _framework density 18.787588
#
# number of rings (size 3 to 8) (size 9 to 14) (size 15 to 20)
#    0.000    1.500    2.500    2.250    0.000    7.750 
#    0.000    2.500    0.000    0.000    0.000    0.000 
#    0.000    0.000    0.000    0.000    0.000    0.000 
#
# Total GULP energy -178908.008855 kJ/mol
# GULP energy per Si atom -5590.875277 kJ/mol
# Density = 1.874483 g / cm^3
# Si number density = 18.787588 Si / 1000 Ang^3
#
#
#
# Elastic Constant Matrix: (Units=GPa)
#
#
# Indices 1 2 3 4 5 6 
#
# 1 174.7057 69.0258 91.6062 0.0000 0.0000 0.0000
# 2 69.0258 48.7582 55.7313 0.0000 0.0000 0.0000
# 3 91.6062 55.7313 141.8358 0.0000 0.0000 0.0000
# 4 0.0000 0.0000 0.0000 29.5512 0.0000 0.0000
# 5 0.0000 0.0000 0.0000 0.0000 0.0642 0.0000
# 6 0.0000 0.0000 0.0000 0.0000 0.0000 29.8954
#
#
#
# Elastic Compliance Matrix: (Units=1/GPa)
#
#
# Indices 1 2 3 4 5 6 
#
# 1 0.013348 -0.016414 -0.002171 0.000000 0.000000 0.000000
# 2 -0.016414 0.057416 -0.011959 0.000000 0.000000 0.000000
# 3 -0.002171 -0.011959 0.013152 0.000000 0.000000 0.000000
# 4 0.000000 0.000000 0.000000 0.033840 0.000000 0.000000
# 5 0.000000 0.000000 0.000000 0.000000 15.576154 0.000000
# 6 0.000000 0.000000 0.000000 0.000000 0.000000 0.033450
#
#
# Mechanical properties :
#
#
# Convention : Reuss Voigt Hill
#
# Bulk Modulus (GPa) = 43.80868 88.66959 66.23913
# Shear Modulus (GPa) = 0.31653 21.83124 11.07389
#
# Velocity S-wave (km/s) = 0.41091 3.41252 2.43044
# Velocity P-wave (km/s) = 4.85733 7.92624 6.57339
#
# Compressibility (1/GPa) = 0.02282653
#
# Stress axis : x y z
#
# Youngs Moduli (GPa) = 74.92028 17.41673 76.03632
#
# Poissons Ratio (x) = 0.28588 0.16507
# Poissons Ratio (y) = 1.22976 0.90932
# Poissons Ratio (z) = 0.16265 0.20829
#
# Static dielectric constant tensor:
#      x y z
#    x 1.642690 0.000000 0.000000 
#    y 0.000000 1.628640 0.000000 
#    z 0.000000 0.000000 1.617990 
# 
# From -- ./inp_files/11948.got.cif
#   From: 2010.05.17/outbox.cif.g08.bks.cpg/sg35_6_cif.got.tgz:11948.got - 2010.06.03 17:29:28.
