data_PCOD9348319
_publ_section_title
;
Structure prediction by ZEFSAII (Michael W. Deem and Ramdas Pophale) SiO2 
 PCOD9348319
Probable space group: C M M 2
;
_chemical_formula_sum "Si O2"
_cell_formula_units_Z 48
_cell_length_a 7.468154
_cell_length_b 18.076871
_cell_length_c 18.124562
_cell_angle_alpha 90.000000
_cell_angle_beta 90.000000
_cell_angle_gamma 90.000000
_cell_volume 2446.831393
_symmetry_space_group_name_H-M "C M M 2"
_symmetry_group_IT_number 35
_symmetry_cell_setting 'orthorhombic'
loop_
_space_group_symop_operation_xyz
x,y,z
-x,-y,z
-x,y,z
x,-y,z
1/2+x,1/2+y,z
1/2-x,1/2-y,z
1/2-x,1/2+y,z
1/2+x,1/2-y,z
loop_
_atom_site_type_symbol
_atom_site_label
_atom_site_fract_x
_atom_site_fract_y
_atom_site_fract_z
Si Si1 0.212189 0.162812 0.697050
Si Si2 0.705136 0.590290 0.085965
Si Si3 0.714129 0.663560 0.396531
Si Si4 0.281395 0.414339 0.248591
Si Si5 0.781860 0.084860 0.545054
Si Si6 0.500000 0.088997 0.800547
Si Si7 0.000000 0.409907 0.970845
O O1 0.250000 0.250000 0.700497
O O2 0.268604 0.131890 0.616751
O O3 0.327703 0.120893 0.758271
O O4 0.000000 0.149696 0.706138
O O5 0.500000 0.613925 0.076594
O O6 0.705906 0.500000 0.087989
O O7 0.828804 0.613995 0.018673
O O8 0.773600 0.612773 0.167293
O O9 0.500000 0.652540 0.395312
O O10 0.750000 0.750000 0.403778
O O11 0.781454 0.632165 0.318582
O O12 0.781806 0.620410 0.468502
O O13 0.500000 0.413502 0.246865
O O14 0.228094 0.500000 0.257956
O O15 0.000000 0.085051 0.543120
O O16 0.724130 0.000000 0.552227
O O17 0.500000 0.113033 0.886059
O O18 0.500000 0.000000 0.797026
O O19 0.000000 0.500000 0.970451
#
# Coordination Sequence:
#
# PCOD9348319 Si02
#       7
#     8   8   8   8   8   4   4
#     4  11  22  40  64  89 120 163 201 244 300 368
#     4   8  14  27  49  77 108 141 182 231 284 340
#     4  10  19  32  49  72 106 147 184 228 275 336
#     4   8  14  27  50  75  98 135 185 230 273 322
#     4   9  18  33  56  83 111 145 192 241 287 339
#     4  11  24  40  62  95 126 154 199 253 306 362
#     4   9  18  32  52  83 117 144 177 233 295 344
#
# _framework density 19.617207000000001
#
# number of rings (size 3 to 8) (size 9 to 14) (size 15 to 20)
#    0.000    2.667    0.833    2.500    0.000    3.667 
#    3.000    1.667    0.000    2.000    0.000    0.000 
#    0.000    0.000    0.000    0.000    0.000    0.000 
#
# Total GULP energy -133966.076307 kJ/mol
# GULP energy per Si atom -5581.919846 kJ/mol
# Density = 1.957256 g / cm^3
# Si number density = 19.617207 Si / 1000 Ang^3
#
#
#
# Elastic Constant Matrix: (Units=GPa)
#
#
# Indices 1 2 3 4 5 6 
#
# 1 93.7813 18.3038 64.8188 0.0000 0.0000 0.0000
# 2 18.3038 88.7117 67.5127 0.0000 0.0000 0.0000
# 3 64.8188 67.5127 211.7343 0.0000 0.0000 0.0000
# 4 0.0000 0.0000 0.0000 -8.1181 0.0000 0.0000
# 5 0.0000 0.0000 0.0000 0.0000 25.1756 0.0000
# 6 0.0000 0.0000 0.0000 0.0000 0.0000 13.5246
#
#
#
# Elastic Compliance Matrix: (Units=1/GPa)
#
#
# Indices 1 2 3 4 5 6 
#
# 1 0.013540 0.000476 -0.004297 0.000000 0.000000 0.000000
# 2 0.000476 0.014901 -0.004897 0.000000 0.000000 0.000000
# 3 -0.004297 -0.004897 0.007600 0.000000 0.000000 0.000000
# 4 0.000000 0.000000 0.000000 -0.123181 0.000000 0.000000
# 5 0.000000 0.000000 0.000000 0.000000 0.039721 0.000000
# 6 0.000000 0.000000 0.000000 0.000000 0.000000 0.073940
#
#
# Mechanical properties :
#
#
# Convention : Reuss Voigt Hill
#
# Bulk Modulus (GPa) = 53.74728 77.27756 65.51242
# Shear Modulus (GPa) = 99.68633 22.35588 61.02110
#
# Velocity S-wave (km/s) = 7.13625 3.37947 5.58332
# Velocity P-wave (km/s) = 9.76519 7.39635 8.66213
#
# Compressibility (1/GPa) = 0.01860559
#
# Stress axis : x y z
#
# Youngs Moduli (GPa) = 73.85491 67.10932 131.58191
#
# Poissons Ratio (x) = -0.03197 0.56540
# Poissons Ratio (y) = -0.03519 0.64438
# Poissons Ratio (z) = 0.31735 0.32864
#
# Static dielectric constant tensor:
#      x y z
#    x 1.733740 0.000000 0.000000 
#    y 0.000000 1.643920 0.000000 
#    z 0.000000 0.000000 1.674570 
# 
# From -- ./inp_files/15201.got.cif
#   From: 2010.05.17/outbox.cif.g08.bks.cpg/sg35_8_cif.got.tgz:15201.got - 2010.06.03 17:29:28.
