data_PCOD9348053
_publ_section_title
;
Structure prediction by ZEFSAII (Michael W. Deem and Ramdas Pophale) SiO2 
 PCOD9348053
Probable space group: P N N 2
;
_chemical_formula_sum "Si O2"
_cell_formula_units_Z 32
_cell_length_a 15.000000
_cell_length_b 9.000000
_cell_length_c 12.000000
_cell_angle_alpha 90.000000
_cell_angle_beta 90.000000
_cell_angle_gamma 90.000000
_cell_volume 1620.000000
_symmetry_space_group_name_H-M "P N N 2"
_symmetry_group_IT_number 34
_symmetry_cell_setting 'orthorhombic'
loop_
_space_group_symop_operation_xyz
x,y,z
-x,-y,z
1/2-x,1/2+y,1/2+z
1/2+x,1/2-y,1/2+z
loop_
_atom_site_type_symbol
_atom_site_label
_atom_site_fract_x
_atom_site_fract_y
_atom_site_fract_z
Si Si1 0.220133 0.974793 0.038870
Si Si2 0.744452 0.016206 0.707332
Si Si3 0.709216 0.185000 0.239223
Si Si4 0.586377 0.602148 0.360825
Si Si5 0.238344 0.820115 0.477670
Si Si6 0.053305 0.716160 0.466139
Si Si7 0.122475 0.389089 0.393272
Si Si8 0.003054 0.324401 0.714388
O O1 0.242475 0.940077 0.166125
O O2 0.127408 0.923949 0.983401
O O3 0.293269 0.872579 0.974508
O O4 0.237211 0.148920 0.011758
O O5 0.833643 0.058291 0.776717
O O6 0.749662 0.073582 0.582238
O O7 0.662094 0.093945 0.770627
O O8 0.737845 0.838973 0.721070
O O9 0.705911 0.142705 0.368638
O O10 0.607019 0.216423 0.206581
O O11 0.500000 0.500000 0.345229
O O12 0.549530 0.759831 0.319756
O O13 0.135236 0.821372 0.437993
O O14 0.085527 0.550652 0.431673
O O15 0.956086 0.728156 0.411387
O O16 0.042311 0.726028 0.599235
O O17 0.000000 0.500000 0.715697
#
# Coordination Sequence:
#
# PCOD9348053 Si02
#       8
#     4   4   4   4   4   4   4   4
#     4  10  21  40  62  85 126 172 204 255 326 378
#     4  11  22  37  64  93 127 166 207 262 327 377
#     4  12  23  41  61  96 131 164 209 272 321 379
#     4  11  21  39  62  88 127 173 205 260 330 376
#     4  11  22  41  62  92 128 167 208 267 322 383
#     4  10  16  33  62  86 115 159 212 252 305 368
#     4   9  17  35  59  88 115 159 202 251 312 369
#     4  12  21  34  64  97 118 163 226 266 304 383
#
# _framework density 19.753086
#
# number of rings (size 3 to 8) (size 9 to 14) (size 15 to 20)
#    0.000    1.250    8.750    0.750    0.000    1.000 
#    2.250    2.500    2.750    0.750    0.000    0.000 
#    0.000    0.000    0.000    0.000    0.000    0.000 
#
# Total GULP energy -178412.052158 kJ/mol
# GULP energy per Si atom -5575.376630 kJ/mol
# Density = 1.970813 g / cm^3
# Si number density = 19.753086 Si / 1000 Ang^3
#
#
#
# Elastic Constant Matrix: (Units=GPa)
#
#
# Indices 1 2 3 4 5 6 
#
# 1 63.1242 -0.4412 19.4010 0.0000 0.0000 0.0000
# 2 -0.4412 6.2129 14.7338 0.0000 0.0000 0.0000
# 3 19.4010 14.7338 92.0698 0.0000 0.0000 0.0000
# 4 0.0000 0.0000 0.0000 24.8091 0.0000 0.0000
# 5 0.0000 0.0000 0.0000 0.0000 19.6905 0.0000
# 6 0.0000 0.0000 0.0000 0.0000 0.0000 18.4937
#
#
#
# Elastic Compliance Matrix: (Units=1/GPa)
#
#
# Indices 1 2 3 4 5 6 
#
# 1 0.017929 0.016491 -0.006417 0.000000 0.000000 0.000000
# 2 0.016491 0.274566 -0.047414 0.000000 0.000000 0.000000
# 3 -0.006417 -0.047414 0.019801 0.000000 0.000000 0.000000
# 4 0.000000 0.000000 0.000000 0.040308 0.000000 0.000000
# 5 0.000000 0.000000 0.000000 0.000000 0.050786 0.000000
# 6 0.000000 0.000000 0.000000 0.000000 0.000000 0.054072
#
#
# Mechanical properties :
#
#
# Convention : Reuss Voigt Hill
#
# Bulk Modulus (GPa) = 4.20844 25.42159 14.81501
# Shear Modulus (GPa) = 8.17865 21.11287 14.64576
#
# Velocity S-wave (km/s) = 2.03701 3.27286 2.72590
# Velocity P-wave (km/s) = 2.76906 5.21342 4.17417
#
# Compressibility (1/GPa) = 0.23761788
#
# Stress axis : x y z
#
# Youngs Moduli (GPa) = 55.77453 3.64211 50.50230
#
# Poissons Ratio (x) = -0.06006 0.32408
# Poissons Ratio (y) = -0.91979 2.39449
# Poissons Ratio (z) = 0.35791 0.17269
#
# Static dielectric constant tensor:
#      x y z
#    x 1.826080 0.000000 0.000000 
#    y 0.000000 1.722560 0.000000 
#    z 0.000000 0.000000 1.701330 
# 
# From -- ./inp_files/5677.got.cif
#   From: 2010.05.17/outbox.ucp.g08.bks.cvg/sg34_3_cif.got.tgz:5677.got - 2010.06.11 10:35:58.
