data_PCOD9348000
_publ_section_title
;
Structure prediction by ZEFSAII (Michael W. Deem and Ramdas Pophale) SiO2 
 PCOD9348000
Probable space group: P N N 2
;
_chemical_formula_sum "Si O2"
_cell_formula_units_Z 20
_cell_length_a 16.759592
_cell_length_b 5.082810
_cell_length_c 8.647406
_cell_angle_alpha 90.000000
_cell_angle_beta 90.000000
_cell_angle_gamma 90.000000
_cell_volume 736.636387
_symmetry_space_group_name_H-M "P N N 2"
_symmetry_group_IT_number 34
_symmetry_cell_setting 'orthorhombic'
loop_
_space_group_symop_operation_xyz
x,y,z
-x,-y,z
1/2-x,1/2+y,1/2+z
1/2+x,1/2-y,1/2+z
loop_
_atom_site_type_symbol
_atom_site_label
_atom_site_fract_x
_atom_site_fract_y
_atom_site_fract_z
Si Si1 0.910223 0.492458 0.538510
Si Si2 0.086223 0.130715 0.074368
Si Si3 0.175486 0.907334 0.316955
Si Si4 0.295455 0.056335 0.565580
Si Si5 0.138868 0.982464 0.727806
O O1 0.854208 0.347340 0.411530
O O2 0.883537 0.769965 0.614632
O O3 0.000000 0.500000 0.478852
O O4 0.909170 0.274207 0.675944
O O5 0.117090 0.433731 0.064712
O O6 0.103839 0.089281 0.261951
O O7 0.123762 0.043932 0.905199
O O8 0.000000 0.000000 0.059561
O O9 0.250082 0.020571 0.406729
O O10 0.199006 0.841081 0.140367
O O11 0.231604 0.929457 0.684968
#
# Coordination Sequence:
#
# PCOD9348000 Si02
#       5
#     4   4   4   4   4
#     4  11  26  50  81 117 165 209 267 331 418 486
#     4  12  29  49  80 121 163 207 276 350 411 473
#     4  11  29  45  82 107 158 208 275 331 403 490
#     4  11  27  48  76 112 156 212 274 320 411 486
#     4  11  27  51  82 115 162 220 266 331 411 505
#
# _framework density 27.150435000000002
#
# number of rings (size 3 to 8) (size 9 to 14) (size 15 to 20)
#    0.000    0.800    2.000    1.800   19.600    0.000 
#    0.000    0.000    0.000    0.000    0.000    0.000 
#    0.000    0.000    0.000    0.000    0.000    0.000 
#
# Total GULP energy -111612.538367 kJ/mol
# GULP energy per Si atom -5580.626918 kJ/mol
# Density = 2.708864 g / cm^3
# Si number density = 27.150435 Si / 1000 Ang^3
#
#
#
# Elastic Constant Matrix: (Units=GPa)
#
#
# Indices 1 2 3 4 5 6 
#
# 1 40.1749 20.0864 29.6261 0.0000 0.0000 0.0000
# 2 20.0864 109.0272 47.0674 0.0000 0.0000 0.0000
# 3 29.6261 47.0674 168.9121 0.0000 0.0000 0.0000
# 4 0.0000 0.0000 0.0000 72.1063 0.0000 0.0000
# 5 0.0000 0.0000 0.0000 0.0000 45.9246 0.0000
# 6 0.0000 0.0000 0.0000 0.0000 0.0000 1047.7633
#
#
#
# Elastic Compliance Matrix: (Units=1/GPa)
#
#
# Indices 1 2 3 4 5 6 
#
# 1 0.029834 -0.003680 -0.004207 0.000000 0.000000 0.000000
# 2 -0.003680 0.010880 -0.002386 0.000000 0.000000 0.000000
# 3 -0.004207 -0.002386 0.007323 0.000000 0.000000 0.000000
# 4 0.000000 0.000000 0.000000 0.013868 0.000000 0.000000
# 5 0.000000 0.000000 0.000000 0.000000 0.021775 0.000000
# 6 0.000000 0.000000 0.000000 0.000000 0.000000 0.000954
#
#
# Mechanical properties :
#
#
# Convention : Reuss Voigt Hill
#
# Bulk Modulus (GPa) = 36.37719 56.85267 46.61493
# Shear Modulus (GPa) = 43.72736 247.91444 145.82090
#
# Velocity S-wave (km/s) = 4.01753 9.56607 7.33656
# Velocity P-wave (km/s) = 5.91170 11.95818 9.43256
#
# Compressibility (1/GPa) = 0.02748976
#
# Stress axis : x y z
#
# Youngs Moduli (GPa) = 33.51928 91.91013 136.55423
#
# Poissons Ratio (x) = 0.33824 0.57451
# Poissons Ratio (y) = 0.12335 0.32586
# Poissons Ratio (z) = 0.14102 0.21933
#
# Static dielectric constant tensor:
#      x y z
#    x 1.905590 0.000000 0.000000 
#    y 0.000000 1.961950 0.000000 
#    z 0.000000 0.000000 2.096870 
# 
# From -- ./inp_files/2040.got.cif
#   From: 2010.05.17/outbox.cif.g08.bks.cpg/sg34_2_cif.got.tgz:2040.got - 2010.06.03 17:23:11.
