data_PCOD9348912
_publ_section_title
;
Structure prediction by ZEFSAII (Michael W. Deem and Ramdas Pophale) SiO2 
 PCOD9348912
Probable space group: C M M 2
;
_chemical_formula_sum "Si O2"
_cell_formula_units_Z 56
_cell_length_a 14.409339
_cell_length_b 17.696073
_cell_length_c 12.956283
_cell_angle_alpha 90.000000
_cell_angle_beta 90.000000
_cell_angle_gamma 90.000000
_cell_volume 3303.705951
_symmetry_space_group_name_H-M "C M M 2"
_symmetry_group_IT_number 35
_symmetry_cell_setting 'orthorhombic'
loop_
_space_group_symop_operation_xyz
x,y,z
-x,-y,z
-x,y,z
x,-y,z
1/2+x,1/2+y,z
1/2-x,1/2-y,z
1/2-x,1/2+y,z
1/2+x,1/2-y,z
loop_
_atom_site_type_symbol
_atom_site_label
_atom_site_fract_x
_atom_site_fract_y
_atom_site_fract_z
Si Si1 0.605401 0.591749 0.494770
Si Si2 0.394157 0.180578 0.209387
Si Si3 0.389731 0.649296 0.129758
Si Si4 0.888670 0.911017 0.728961
Si Si5 0.766629 0.912198 0.304938
Si Si6 0.718808 0.663114 0.914507
Si Si7 0.603656 0.911259 0.995495
O O1 0.500000 0.618339 0.473765
O O2 0.601974 0.500000 0.494048
O O3 0.633035 0.612834 0.611206
O O4 0.675684 0.613457 0.405092
O O5 0.500000 0.174346 0.247486
O O6 0.376020 0.267415 0.179664
O O7 0.319653 0.142450 0.283483
O O8 0.387628 0.134683 0.101857
O O9 0.500000 0.634425 0.123808
O O10 0.335336 0.594105 0.206553
O O11 0.343094 0.649194 0.017091
O O12 0.837917 0.862011 0.814591
O O13 0.000000 0.905384 0.740295
O O14 0.864605 0.000000 0.741434
O O15 0.738182 0.000000 0.316797
O O16 0.750000 0.750000 0.912391
O O17 0.812622 0.614519 0.924112
O O18 0.500000 0.895752 0.953459
O O19 0.610456 0.000000 0.017602
#
# Coordination Sequence:
#
# PCOD9348912 Si02
#       7
#     8   8   8   8   8   8   8
#     4   8  16  33  54  76 103 134 169 209 258 312
#     4  10  20  35  50  70 103 143 177 203 243 304
#     4  11  22  35  50  73 108 143 167 202 260 315
#     4   9  19  36  57  78 101 134 173 213 258 308
#     4  11  20  32  54  81 104 130 170 218 259 302
#     4  12  21  33  52  77 109 136 169 211 260 307
#     4  10  20  34  51  70  97 137 180 212 242 294
#
# _framework density 16.950661
#
# number of rings (size 3 to 8) (size 9 to 14) (size 15 to 20)
#    0.000    1.857    2.857    3.000    0.000    2.857 
#    0.000    1.429    0.000    0.857    0.000    2.000 
#    0.000    0.000    0.000    0.000    0.000    0.000 
#
# Total GULP energy -156256.963517 kJ/mol
# GULP energy per Si atom -5580.605840 kJ/mol
# Density = 1.691208 g / cm^3
# Si number density = 16.950661 Si / 1000 Ang^3
#
#
#
# Elastic Constant Matrix: (Units=GPa)
#
#
# Indices 1 2 3 4 5 6 
#
# 1 87.4106 13.5116 49.8710 0.0000 0.0000 0.0000
# 2 13.5116 28.3285 7.1773 0.0000 0.0000 0.0000
# 3 49.8710 7.1773 102.0512 0.0000 0.0000 0.0000
# 4 0.0000 0.0000 0.0000 15.8796 0.0000 0.0000
# 5 0.0000 0.0000 0.0000 0.0000 35.9846 0.0000
# 6 0.0000 0.0000 0.0000 0.0000 0.0000 21.5418
#
#
#
# Elastic Compliance Matrix: (Units=1/GPa)
#
#
# Indices 1 2 3 4 5 6 
#
# 1 0.016823 -0.006049 -0.007796 0.000000 0.000000 0.000000
# 2 -0.006049 0.038115 0.000275 0.000000 0.000000 0.000000
# 3 -0.007796 0.000275 0.013589 0.000000 0.000000 0.000000
# 4 0.000000 0.000000 0.000000 0.062974 0.000000 0.000000
# 5 0.000000 0.000000 0.000000 0.000000 0.027790 0.000000
# 6 0.000000 0.000000 0.000000 0.000000 0.000000 0.046421
#
#
# Mechanical properties :
#
#
# Convention : Reuss Voigt Hill
#
# Bulk Modulus (GPa) = 24.16090 39.87890 32.01990
# Shear Modulus (GPa) = 20.27183 24.49656 22.38419
#
# Velocity S-wave (km/s) = 3.46198 3.80566 3.63788
# Velocity P-wave (km/s) = 5.50136 6.54891 6.04786
#
# Compressibility (1/GPa) = 0.04138919
#
# Stress axis : x y z
#
# Youngs Moduli (GPa) = 59.44235 26.23615 73.58721
#
# Poissons Ratio (x) = 0.15870 0.57367
# Poissons Ratio (y) = 0.35955 -0.02026
# Poissons Ratio (z) = 0.46340 -0.00722
#
# Static dielectric constant tensor:
#      x y z
#    x 1.585810 0.000000 0.000000 
#    y 0.000000 1.585120 0.000000 
#    z 0.000000 0.000000 1.553270 
# 
# From -- ./inp_files/12978.got.cif
#   From: 2010.05.17/outbox.cif.g08.bks.cpg/sg35_7_cif.got.tgz:12978.got - 2010.06.03 17:29:28.
