data_PCOD9348882
_publ_section_title
;
Structure prediction by ZEFSAII (Michael W. Deem and Ramdas Pophale) SiO2 
 PCOD9348882
Probable space group: C M M 2
;
_chemical_formula_sum "Si O2"
_cell_formula_units_Z 48
_cell_length_a 15.678401
_cell_length_b 8.645386
_cell_length_c 17.806268
_cell_angle_alpha 90.000000
_cell_angle_beta 90.000000
_cell_angle_gamma 90.000000
_cell_volume 2413.565349
_symmetry_space_group_name_H-M "C M M 2"
_symmetry_group_IT_number 35
_symmetry_cell_setting 'orthorhombic'
loop_
_space_group_symop_operation_xyz
x,y,z
-x,-y,z
-x,y,z
x,-y,z
1/2+x,1/2+y,z
1/2-x,1/2-y,z
1/2-x,1/2+y,z
1/2+x,1/2-y,z
loop_
_atom_site_type_symbol
_atom_site_label
_atom_site_fract_x
_atom_site_fract_y
_atom_site_fract_z
Si Si1 0.500000 0.812635 0.470451
Si Si2 0.000000 0.184564 0.303079
Si Si3 0.347126 0.184994 0.203751
Si Si4 0.401096 0.822889 0.728776
Si Si5 0.338681 0.186699 0.571453
Si Si6 0.845623 0.815963 0.882378
Si Si7 0.846854 0.186447 0.045471
O O1 0.500000 0.734638 0.389682
O O2 0.582899 0.768872 0.518809
O O3 0.500000 0.000000 0.461663
O O4 0.914927 0.252279 0.263706
O O5 0.000000 0.000000 0.295117
O O6 0.250000 0.250000 0.213318
O O7 0.380938 0.239757 0.121757
O O8 0.342816 0.000000 0.206174
O O9 0.500000 0.826486 0.706212
O O10 0.352175 0.755521 0.657086
O O11 0.391924 0.738189 0.807530
O O12 0.372271 0.000000 0.740981
O O13 0.250000 0.250000 0.541711
O O14 0.337807 0.000000 0.575183
O O15 0.750000 0.750000 0.878061
O O16 0.840833 0.000000 0.882631
O O17 0.884528 0.770871 0.963745
O O18 0.750000 0.250000 0.041889
O O19 0.847190 0.000000 0.052969
#
# Coordination Sequence:
#
# PCOD9348882 Si02
#       7
#     4   4   8   8   8   8   8
#     4  10  22  44  66  87 122 159 194 243 304 369
#     4  12  26  44  66  95 128 161 202 251 306 369
#     4  11  22  40  66  95 126 164 208 253 308 368
#     4  10  20  36  56  80 115 159 202 248 302 356
#     4  10  21  39  64  90 119 157 199 244 301 361
#     4  10  20  33  52  80 114 155 201 250 300 350
#     4   9  17  32  54  81 115 157 201 251 304 354
#
# _framework density 19.887589999999999
#
# number of rings (size 3 to 8) (size 9 to 14) (size 15 to 20)
#    0.000    1.833    0.833    4.750    0.000    5.667 
#    1.500    1.667    0.000    0.000    0.000    0.000 
#    0.000    0.000    0.000    0.000    0.000    0.000 
#
# Total GULP energy -133973.767120 kJ/mol
# GULP energy per Si atom -5582.240297 kJ/mol
# Density = 1.984232 g / cm^3
# Si number density = 19.887590 Si / 1000 Ang^3
#
#
#
# Elastic Constant Matrix: (Units=GPa)
#
#
# Indices 1 2 3 4 5 6 
#
# 1 106.0747 33.2083 67.5055 0.0000 0.0000 0.0000
# 2 33.2083 89.9221 55.2690 0.0000 0.0000 0.0000
# 3 67.5055 55.2690 163.5908 0.0000 0.0000 0.0000
# 4 0.0000 0.0000 0.0000 10.1173 0.0000 0.0000
# 5 0.0000 0.0000 0.0000 0.0000 22.1755 0.0000
# 6 0.0000 0.0000 0.0000 0.0000 0.0000 25.8637
#
#
#
# Elastic Compliance Matrix: (Units=1/GPa)
#
#
# Indices 1 2 3 4 5 6 
#
# 1 0.013038 -0.001903 -0.004737 0.000000 0.000000 0.000000
# 2 -0.001903 0.014313 -0.004050 0.000000 0.000000 0.000000
# 3 -0.004737 -0.004050 0.009436 0.000000 0.000000 0.000000
# 4 0.000000 0.000000 0.000000 0.098840 0.000000 0.000000
# 5 0.000000 0.000000 0.000000 0.000000 0.045095 0.000000
# 6 0.000000 0.000000 0.000000 0.000000 0.000000 0.038664
#
#
# Mechanical properties :
#
#
# Convention : Reuss Voigt Hill
#
# Bulk Modulus (GPa) = 64.91155 74.61703 69.76429
# Shear Modulus (GPa) = 20.33327 25.20495 22.76911
#
# Velocity S-wave (km/s) = 3.20098 3.56388 3.38729
# Velocity P-wave (km/s) = 6.80969 7.38484 7.10308
#
# Compressibility (1/GPa) = 0.01540558
#
# Stress axis : x y z
#
# Youngs Moduli (GPa) = 76.70018 69.86627 105.97850
#
# Poissons Ratio (x) = 0.13298 0.50202
# Poissons Ratio (y) = 0.14599 0.42924
# Poissons Ratio (z) = 0.36333 0.28297
#
# Static dielectric constant tensor:
#      x y z
#    x 1.667010 0.000000 0.000000 
#    y 0.000000 1.680690 0.000000 
#    z 0.000000 0.000000 1.720770 
# 
# From -- ./inp_files/17078.got.cif
#   From: 2010.05.17/outbox.cif.g08.bks.cpg/sg35_9_cif.got.tgz:17078.got - 2010.06.03 17:29:28.
