data_PCOD9348457
_publ_section_title
;
Structure prediction by ZEFSAII (Michael W. Deem and Ramdas Pophale) SiO2 
 PCOD9348457
Probable space group: C M M 2
;
_chemical_formula_sum "Si O2"
_cell_formula_units_Z 56
_cell_length_a 13.667925
_cell_length_b 19.742792
_cell_length_c 8.775605
_cell_angle_alpha 90.000000
_cell_angle_beta 90.000000
_cell_angle_gamma 90.000000
_cell_volume 2368.035583
_symmetry_space_group_name_H-M "C M M 2"
_symmetry_group_IT_number 35
_symmetry_cell_setting 'orthorhombic'
loop_
_space_group_symop_operation_xyz
x,y,z
-x,-y,z
-x,y,z
x,-y,z
1/2+x,1/2+y,z
1/2-x,1/2-y,z
1/2-x,1/2+y,z
1/2+x,1/2-y,z
loop_
_atom_site_type_symbol
_atom_site_label
_atom_site_fract_x
_atom_site_fract_y
_atom_site_fract_z
Si Si1 0.112171 0.278640 0.976400
Si Si2 0.390105 0.877362 0.726823
Si Si3 0.790858 0.922098 0.324915
Si Si4 0.891526 0.768526 0.570667
Si Si5 0.882019 0.123792 0.996678
Si Si6 0.388238 0.179821 0.320928
Si Si7 0.188501 0.900210 0.664622
O O1 0.146601 0.344040 0.883711
O O2 0.000000 0.270072 0.917538
O O3 0.152525 0.202539 0.976335
O O4 0.110580 0.304054 0.145414
O O5 0.500000 0.905626 0.735650
O O6 0.393446 0.808469 0.627634
O O7 0.301312 0.922620 0.671398
O O8 0.841489 0.902126 0.161732
O O9 0.697011 0.873665 0.348717
O O10 0.847930 0.918873 0.491518
O O11 0.761050 0.000000 0.307220
O O12 0.869731 0.753771 0.396102
O O13 0.818393 0.818336 0.650370
O O14 0.000000 0.797871 0.591193
O O15 0.000000 0.123547 0.009979
O O16 0.857658 0.086473 0.832985
O O17 0.500000 0.157680 0.361521
#
# Coordination Sequence:
#
# PCOD9348457 Si02
#       7
#     8   8   8   8   8   8   8
#     4   9  18  34  60  98 131 159 199 249 321 406
#     4  10  19  32  56  97 141 168 196 244 315 401
#     4  12  29  46  63  91 125 172 236 279 306 365
#     4  10  19  33  59  98 132 159 198 250 322 401
#     4  11  25  45  69  97 131 165 207 270 336 393
#     4  10  21  39  64  95 134 171 205 259 329 394
#     4  12  23  39  70  97 131 174 214 260 330 392
#
# _framework density 23.648292000000001
#
# number of rings (size 3 to 8) (size 9 to 14) (size 15 to 20)
#    0.000    1.429    2.857    2.571    0.000    6.286 
#    0.000    0.000    0.000    0.000    0.000    2.000 
#    0.000    0.000    0.000    0.000    0.000    0.000 
#
# Total GULP energy -155963.686162 kJ/mol
# GULP energy per Si atom -5570.131649 kJ/mol
# Density = 2.359447 g / cm^3
# Si number density = 23.648292 Si / 1000 Ang^3
#
#
#
# Elastic Constant Matrix: (Units=GPa)
#
#
# Indices 1 2 3 4 5 6 
#
# 1 122.5340 20.6860 38.7165 0.0000 0.0000 0.0000
# 2 20.6860 78.1407 22.8277 0.0000 0.0000 0.0000
# 3 38.7165 22.8277 198.0193 0.0000 0.0000 0.0000
# 4 0.0000 0.0000 0.0000 -4.1310 0.0000 0.0000
# 5 0.0000 0.0000 0.0000 0.0000 32.6089 0.0000
# 6 0.0000 0.0000 0.0000 0.0000 0.0000 -2.2111
#
#
#
# Elastic Compliance Matrix: (Units=1/GPa)
#
#
# Indices 1 2 3 4 5 6 
#
# 1 0.008970 -0.001927 -0.001532 0.000000 0.000000 0.000000
# 2 -0.001927 0.013657 -0.001198 0.000000 0.000000 0.000000
# 3 -0.001532 -0.001198 0.005488 0.000000 0.000000 0.000000
# 4 0.000000 0.000000 0.000000 -0.242070 0.000000 0.000000
# 5 0.000000 0.000000 0.000000 0.000000 0.030666 0.000000
# 6 0.000000 0.000000 0.000000 0.000000 0.000000 -0.452256
#
#
# Mechanical properties :
#
#
# Convention : Reuss Voigt Hill
#
# Bulk Modulus (GPa) = 53.18512 62.57272 57.87892
# Shear Modulus (GPa) = -8.06500 26.35094 9.14297
#
# Velocity S-wave (km/s) = -1.84873 3.34171 1.96841
# Velocity P-wave (km/s) = 4.24050 6.43479 5.44924
#
# Compressibility (1/GPa) = 0.01880225
#
# Stress axis : x y z
#
# Youngs Moduli (GPa) = 111.47879 73.21992 182.23071
#
# Poissons Ratio (x) = 0.14111 0.27912
# Poissons Ratio (y) = 0.21485 0.21824
# Poissons Ratio (z) = 0.17075 0.08769
#
# Static dielectric constant tensor:
#      x y z
#    x 1.979710 0.000000 0.000000 
#    y 0.000000 1.911650 0.000000 
#    z 0.000000 0.000000 2.159180 
# 
# From -- ./inp_files/7659.got.cif
#   From: 2010.05.17/outbox.cif.g08.bks.cpg/sg35_4_cif.got.tgz:7659.got - 2010.06.03 17:29:28.
