data_PCOD9348269
_publ_section_title
;
Structure prediction by ZEFSAII (Michael W. Deem and Ramdas Pophale) SiO2 
 PCOD9348269
Probable space group: C M M 2
;
_chemical_formula_sum "Si O2"
_cell_formula_units_Z 40
_cell_length_a 18.753590
_cell_length_b 11.462128
_cell_length_c 9.463990
_cell_angle_alpha 90.000000
_cell_angle_beta 90.000000
_cell_angle_gamma 90.000000
_cell_volume 2034.341899
_symmetry_space_group_name_H-M "C M M 2"
_symmetry_group_IT_number 35
_symmetry_cell_setting 'orthorhombic'
loop_
_space_group_symop_operation_xyz
x,y,z
-x,-y,z
-x,y,z
x,-y,z
1/2+x,1/2+y,z
1/2-x,1/2-y,z
1/2-x,1/2+y,z
1/2+x,1/2-y,z
loop_
_atom_site_type_symbol
_atom_site_label
_atom_site_fract_x
_atom_site_fract_y
_atom_site_fract_z
Si Si1 0.144794 0.871320 0.533020
Si Si2 0.735493 0.125093 0.288029
Si Si3 0.297663 0.365322 0.850585
Si Si4 0.079116 0.306504 0.343710
Si Si5 0.078766 0.130799 0.080389
O O1 0.212248 0.868083 0.424172
O O2 0.172495 0.856200 0.691033
O O3 0.090838 0.773264 0.481228
O O4 0.112516 0.000000 0.520145
O O5 0.750000 0.250000 0.212785
O O6 0.652568 0.122820 0.330961
O O7 0.751268 0.000000 0.215725
O O8 0.267454 0.500000 0.862338
O O9 0.250000 0.250000 0.871706
O O10 0.361428 0.356814 0.963031
O O11 0.082801 0.221206 0.207847
O O12 0.000000 0.360539 0.344683
O O13 0.000000 0.142337 0.014780
O O14 0.083974 0.000000 0.141190
#
# Coordination Sequence:
#
# PCOD9348269 Si02
#       5
#     8   8   8   8   8
#     4   9  18  33  53  76 103 136 173 213 255 303
#     4   9  18  33  52  75 104 136 171 211 255 302
#     4  10  20  35  55  78 104 135 173 216 261 308
#     4  10  19  31  50  77 107 137 170 211 260 309
#     4   9  19  35  52  73 105 140 172 211 258 306
#
# _framework density 19.662378
#
# number of rings (size 3 to 8) (size 9 to 14) (size 15 to 20)
#    0.000    2.600    0.000    2.400    0.000    5.600 
#    0.000    7.000    0.000    1.800    0.000    0.000 
#    0.000    0.000    0.000    0.000    0.000    0.000 
#
# Total GULP energy -111418.670803 kJ/mol
# GULP energy per Si atom -5570.933540 kJ/mol
# Density = 1.961763 g / cm^3
# Si number density = 19.662378 Si / 1000 Ang^3
#
#
#
# Elastic Constant Matrix: (Units=GPa)
#
#
# Indices 1 2 3 4 5 6 
#
# 1 107.5836 35.7555 12.9564 0.0000 0.0000 0.0000
# 2 35.7555 149.9990 23.9068 0.0000 0.0000 0.0000
# 3 12.9564 23.9068 70.8912 0.0000 0.0000 0.0000
# 4 0.0000 0.0000 0.0000 -57.7924 0.0000 0.0000
# 5 0.0000 0.0000 0.0000 0.0000 19.4532 0.0000
# 6 0.0000 0.0000 0.0000 0.0000 0.0000 -4.9875
#
#
#
# Elastic Compliance Matrix: (Units=1/GPa)
#
#
# Indices 1 2 3 4 5 6 
#
# 1 0.010175 -0.002250 -0.001101 0.000000 0.000000 0.000000
# 2 -0.002250 0.007543 -0.002132 0.000000 0.000000 0.000000
# 3 -0.001101 -0.002132 0.015026 0.000000 0.000000 0.000000
# 4 0.000000 0.000000 0.000000 -0.017303 0.000000 0.000000
# 5 0.000000 0.000000 0.000000 0.000000 0.051405 0.000000
# 6 0.000000 0.000000 0.000000 0.000000 0.000000 -0.200502
#
#
# Mechanical properties :
#
#
# Convention : Reuss Voigt Hill
#
# Bulk Modulus (GPa) = 45.91804 52.63457 49.27631
# Shear Modulus (GPa) = -43.31684 8.39167 -17.46258
#
# Velocity S-wave (km/s) = -4.69874 2.06813 -2.98337
# Velocity P-wave (km/s) = 2.45633 5.70352 3.63982
#
# Compressibility (1/GPa) = 0.02177793
#
# Stress axis : x y z
#
# Youngs Moduli (GPa) = 98.27529 132.57424 66.54920
#
# Poissons Ratio (x) = 0.29830 0.07327
# Poissons Ratio (y) = 0.22113 0.14192
# Poissons Ratio (z) = 0.10819 0.28271
#
# Static dielectric constant tensor:
#      x y z
#    x 1.721250 0.000000 0.000000 
#    y 0.000000 1.766160 0.000000 
#    z 0.000000 0.000000 1.646090 
# 
# From -- ./inp_files/5880.got.cif
#   From: 2010.05.17/outbox.cif.g08.bks.cpg/sg35_3_cif.got.tgz:5880.got - 2010.06.03 17:29:28.
