data_PCOD9348409
_publ_section_title
;
Structure prediction by ZEFSAII (Michael W. Deem and Ramdas Pophale) SiO2 
 PCOD9348409
Probable space group: C M M 2
;
_chemical_formula_sum "Si O2"
_cell_formula_units_Z 64
_cell_length_a 33.669233
_cell_length_b 9.225651
_cell_length_c 11.138696
_cell_angle_alpha 90.000000
_cell_angle_beta 90.000000
_cell_angle_gamma 90.000000
_cell_volume 3459.908358
_symmetry_space_group_name_H-M "C M M 2"
_symmetry_group_IT_number 35
_symmetry_cell_setting 'orthorhombic'
loop_
_space_group_symop_operation_xyz
x,y,z
-x,-y,z
-x,y,z
x,-y,z
1/2+x,1/2+y,z
1/2-x,1/2-y,z
1/2-x,1/2+y,z
1/2+x,1/2-y,z
loop_
_atom_site_type_symbol
_atom_site_label
_atom_site_fract_x
_atom_site_fract_y
_atom_site_fract_z
Si Si1 0.889334 0.335740 0.412500
Si Si2 0.045270 0.843371 0.317465
Si Si3 0.684251 0.673180 0.318294
Si Si4 0.287234 0.330264 0.577967
Si Si5 0.292412 0.322828 0.047122
Si Si6 0.126173 0.329209 0.948306
Si Si7 0.454485 0.668328 0.029135
Si Si8 0.357868 0.835661 0.672992
O O1 0.879192 0.500000 0.383754
O O2 0.932474 0.290117 0.373522
O O3 0.859493 0.236616 0.336322
O O4 0.884913 0.316864 0.555434
O O5 0.045905 0.833496 0.173831
O O6 0.000000 0.844406 0.356289
O O7 0.063596 0.000000 0.351780
O O8 0.682602 0.500000 0.323613
O O9 0.705917 0.723750 0.440598
O O10 0.702827 0.710650 0.190233
O O11 0.281201 0.500000 0.574944
O O12 0.250000 0.250000 0.631294
O O13 0.324741 0.284985 0.655075
O O14 0.291593 0.500000 0.031430
O O15 0.250000 0.250000 0.008104
O O16 0.332998 0.254319 0.989081
O O17 0.129089 0.500000 0.984034
O O18 0.123840 0.323644 0.803579
O O19 0.084669 0.258815 0.992809
O O20 0.500000 0.715903 0.993840
O O21 0.450037 0.500000 0.989240
O O22 0.340713 0.000000 0.663162
#
# Coordination Sequence:
#
# PCOD9348409 Si02
#       8
#     8   8   8   8   8   8   8   8
#     4  10  19  32  53  78 103 134 172 215 262 311
#     4   9  18  33  53  78 109 140 166 200 254 318
#     4   9  19  34  52  76 106 138 170 210 264 323
#     4  10  19  32  53  78 102 132 171 215 263 314
#     4  11  23  38  56  80 112 147 183 224 272 326
#     4  11  23  39  58  79 107 145 188 231 273 318
#     4   9  19  37  60  85 113 144 178 219 270 326
#     4   9  21  39  53  70 101 139 177 217 261 310
#
# _framework density 18.497601
#
# number of rings (size 3 to 8) (size 9 to 14) (size 15 to 20)
#    0.000    2.250    0.000    3.375    0.000    7.500 
#    0.000    1.875    0.000    3.750    0.000    0.000 
#    0.000    0.000    0.000    0.000    0.000    0.000 
#
# Total GULP energy -178214.522386 kJ/mol
# GULP energy per Si atom -5569.203825 kJ/mol
# Density = 1.845550 g / cm^3
# Si number density = 18.497601 Si / 1000 Ang^3
#
#
#
# Elastic Constant Matrix: (Units=GPa)
#
#
# Indices 1 2 3 4 5 6 
#
# 1 115.8386 47.0130 22.1272 0.0000 0.0000 0.0000
# 2 47.0130 42.5593 20.4888 0.0000 0.0000 0.0000
# 3 22.1272 20.4888 29.8531 0.0000 0.0000 0.0000
# 4 0.0000 0.0000 0.0000 22.6967 0.0000 0.0000
# 5 0.0000 0.0000 0.0000 0.0000 -3.3167 0.0000
# 6 0.0000 0.0000 0.0000 0.0000 0.0000 32.9742
#
#
#
# Elastic Compliance Matrix: (Units=1/GPa)
#
#
# Indices 1 2 3 4 5 6 
#
# 1 0.015651 -0.017480 0.000396 0.000000 0.000000 0.000000
# 2 -0.017480 0.054613 -0.024526 0.000000 0.000000 0.000000
# 3 0.000396 -0.024526 0.050036 0.000000 0.000000 0.000000
# 4 0.000000 0.000000 0.000000 0.044059 0.000000 0.000000
# 5 0.000000 0.000000 0.000000 0.000000 -0.301508 0.000000
# 6 0.000000 0.000000 0.000000 0.000000 0.000000 0.030327
#
#
# Mechanical properties :
#
#
# Convention : Reuss Voigt Hill
#
# Bulk Modulus (GPa) = 26.96782 40.83434 33.90108
# Shear Modulus (GPa) = -444.74497 17.04565 -213.84966
#
# Velocity S-wave (km/s) = -15.52275 3.03893 -10.76385
# Velocity P-wave (km/s) = 17.51182 5.86829 11.66677
#
# Compressibility (1/GPa) = 0.03708123
#
# Stress axis : x y z
#
# Youngs Moduli (GPa) = 63.89298 18.31076 19.98542
#
# Poissons Ratio (x) = 0.32007 -0.00791
# Poissons Ratio (y) = 1.11683 0.49016
# Poissons Ratio (z) = -0.02530 0.44909
#
# Static dielectric constant tensor:
#      x y z
#    x 1.675070 0.000000 0.000000 
#    y 0.000000 1.704220 0.000000 
#    z 0.000000 0.000000 1.634600 
# 
# From -- ./inp_files/14606.got.cif
#   From: 2010.05.17/outbox.cif.g08.bks.cpg/sg35_8_cif.got.tgz:14606.got - 2010.06.03 17:29:28.
