data_PCOD9348960
_publ_section_title
;
Structure prediction by ZEFSAII (Michael W. Deem and Ramdas Pophale) SiO2 
 PCOD9348960
Probable space group: C M M 2
;
_chemical_formula_sum "Si O2"
_cell_formula_units_Z 48
_cell_length_a 15.140604
_cell_length_b 9.418524
_cell_length_c 16.141343
_cell_angle_alpha 90.000000
_cell_angle_beta 90.000000
_cell_angle_gamma 90.000000
_cell_volume 2301.790089
_symmetry_space_group_name_H-M "C M M 2"
_symmetry_group_IT_number 35
_symmetry_cell_setting 'orthorhombic'
loop_
_space_group_symop_operation_xyz
x,y,z
-x,-y,z
-x,y,z
x,-y,z
1/2+x,1/2+y,z
1/2-x,1/2-y,z
1/2-x,1/2+y,z
1/2+x,1/2-y,z
loop_
_atom_site_type_symbol
_atom_site_label
_atom_site_fract_x
_atom_site_fract_y
_atom_site_fract_z
Si Si1 0.107834 0.835930 0.812630
Si Si2 0.392243 0.665073 0.629502
Si Si3 0.391449 0.836997 0.468432
Si Si4 0.342929 0.171770 0.154100
Si Si5 0.103069 0.159472 0.311965
Si Si6 0.894289 0.340995 0.968603
O O1 0.134978 0.783645 0.721287
O O2 0.139888 0.752550 0.892981
O O3 0.000000 0.831628 0.813597
O O4 0.133390 0.000000 0.818871
O O5 0.500000 0.665092 0.628765
O O6 0.365754 0.500000 0.618695
O O7 0.363460 0.763094 0.553977
O O8 0.500000 0.838284 0.467683
O O9 0.359584 0.744348 0.390452
O O10 0.362624 0.000000 0.462550
O O11 0.250000 0.250000 0.159328
O O12 0.392972 0.243309 0.230490
O O13 0.340932 0.000000 0.161596
O O14 0.378212 0.208120 0.062394
O O15 0.000000 0.141562 0.330974
O O16 0.140934 0.000000 0.299832
O O17 0.857601 0.500000 0.961873
O O18 0.000000 0.347840 0.959162
#
# Coordination Sequence:
#
# PCOD9348960 Si02
#       6
#     8   8   8   8   8   8
#     4   8  14  24  40  64  94 127 161 197 237 283
#     4   8  13  22  36  58  92 129 160 193 236 284
#     4   9  16  25  40  65  96 129 163 199 240 286
#     4  11  23  38  54  73  99 130 166 208 254 302
#     4  10  20  34  53  76 101 131 167 206 249 298
#     4   9  18  32  50  72  98 128 161 200 246 293
#
# _framework density 20.853335999999999
#
# number of rings (size 3 to 8) (size 9 to 14) (size 15 to 20)
#    0.000    2.833    0.000    3.000    0.000    5.667 
#    0.000    5.000    0.000    0.000    0.000    1.167 
#    0.000    5.333    0.000    0.000    0.000    0.000 
#
# Total GULP energy -133829.241018 kJ/mol
# GULP energy per Si atom -5576.218376 kJ/mol
# Density = 2.080587 g / cm^3
# Si number density = 20.853336 Si / 1000 Ang^3
#
#
#
# Elastic Constant Matrix: (Units=GPa)
#
#
# Indices 1 2 3 4 5 6 
#
# 1 24.2217 10.1329 5.4042 0.0000 0.0000 0.0000
# 2 10.1329 128.9777 111.9368 0.0000 0.0000 0.0000
# 3 5.4042 111.9368 210.3652 0.0000 0.0000 0.0000
# 4 0.0000 0.0000 0.0000 32.6687 0.0000 0.0000
# 5 0.0000 0.0000 0.0000 0.0000 -39.8551 0.0000
# 6 0.0000 0.0000 0.0000 0.0000 0.0000 16.9494
#
#
#
# Elastic Compliance Matrix: (Units=1/GPa)
#
#
# Indices 1 2 3 4 5 6 
#
# 1 0.042874 -0.004482 0.001284 0.000000 0.000000 0.000000
# 2 -0.004482 0.014875 -0.007800 0.000000 0.000000 0.000000
# 3 0.001284 -0.007800 0.008871 0.000000 0.000000 0.000000
# 4 0.000000 0.000000 0.000000 0.030610 0.000000 0.000000
# 5 0.000000 0.000000 0.000000 0.000000 -0.025091 0.000000
# 6 0.000000 0.000000 0.000000 0.000000 0.000000 0.058999
#
#
# Mechanical properties :
#
#
# Convention : Reuss Voigt Hill
#
# Bulk Modulus (GPa) = 22.41007 68.72359 45.56683
# Shear Modulus (GPa) = 29.76020 17.69199 23.72610
#
# Velocity S-wave (km/s) = 3.78182 2.91589 3.37673
# Velocity P-wave (km/s) = 5.46255 6.66062 6.09111
#
# Compressibility (1/GPa) = 0.04462280
#
# Stress axis : x y z
#
# Youngs Moduli (GPa) = 23.32410 67.22843 112.72730
#
# Poissons Ratio (x) = 0.30135 -0.14471
# Poissons Ratio (y) = 0.10455 0.87925
# Poissons Ratio (z) = -0.02994 0.52437
#
# Static dielectric constant tensor:
#      x y z
#    x 1.838840 0.000000 0.000000 
#    y 0.000000 1.730920 0.000000 
#    z 0.000000 0.000000 1.787720 
# 
# From -- ./inp_files/15161.got.cif
#   From: 2010.05.17/outbox.cif.g08.bks.cpg/sg35_8_cif.got.tgz:15161.got - 2010.06.03 17:29:28.
