data_PCOD9348378
_publ_section_title
;
Structure prediction by ZEFSAII (Michael W. Deem and Ramdas Pophale) SiO2 
 PCOD9348378
Probable space group: C M M 2
;
_chemical_formula_sum "Si O2"
_cell_formula_units_Z 56
_cell_length_a 8.222041
_cell_length_b 18.641713
_cell_length_c 18.660771
_cell_angle_alpha 90.000000
_cell_angle_beta 90.000000
_cell_angle_gamma 90.000000
_cell_volume 2860.191021
_symmetry_space_group_name_H-M "C M M 2"
_symmetry_group_IT_number 35
_symmetry_cell_setting 'orthorhombic'
loop_
_space_group_symop_operation_xyz
x,y,z
-x,-y,z
-x,y,z
x,-y,z
1/2+x,1/2+y,z
1/2-x,1/2-y,z
1/2-x,1/2+y,z
1/2+x,1/2-y,z
loop_
_atom_site_type_symbol
_atom_site_label
_atom_site_fract_x
_atom_site_fract_y
_atom_site_fract_z
Si Si1 0.803562 0.582310 0.753970
Si Si2 0.696594 0.167766 0.613080
Si Si3 0.694692 0.667840 0.894266
Si Si4 0.805650 0.832159 0.174872
Si Si5 0.699008 0.917427 0.471726
Si Si6 0.305649 0.167847 0.332141
Si Si7 0.301031 0.582558 0.035265
O O1 0.745359 0.500000 0.755146
O O2 0.746456 0.624453 0.683175
O O3 0.753443 0.624642 0.824920
O O4 0.000000 0.580602 0.751246
O O5 0.500000 0.166079 0.613212
O O6 0.750000 0.250000 0.615276
O O7 0.752014 0.128452 0.540480
O O8 0.500000 0.666533 0.894752
O O9 0.750000 0.750000 0.891949
O O10 0.752985 0.628529 0.966709
O O11 0.750000 0.750000 0.165148
O O12 0.749975 0.856661 0.253503
O O13 0.746379 0.880695 0.109181
O O14 0.000000 0.832681 0.174175
O O15 0.500000 0.917020 0.471594
O O16 0.753733 0.880575 0.397890
O O17 0.750379 0.000000 0.477001
O O18 0.500000 0.167276 0.332870
O O19 0.250000 0.250000 0.341792
O O20 0.500000 0.583030 0.035434
O O21 0.249303 0.500000 0.029825
#
# Coordination Sequence:
#
# PCOD9348378 Si02
#       7
#     8   8   8   8   8   8   8
#     4  10  21  37  57  82 111 141 176 219 266 316
#     4  10  20  35  56  79 105 139 177 216 258 308
#     4  11  22  37  58  81 108 142 180 220 263 314
#     4  10  19  33  54  76 102 135 171 212 256 307
#     4   9  18  33  53  76 102 135 174 214 258 307
#     4  10  19  32  52  76 103 134 170 212 256 306
#     4   9  19  35  54  77 104 136 174 215 262 314
#
# _framework density 19.57911
#
# number of rings (size 3 to 8) (size 9 to 14) (size 15 to 20)
#    0.000    2.143    0.000    4.286    0.000    4.857 
#    0.000    2.857    0.000    9.000    0.000    0.000 
#    0.000    0.000    0.000    0.000    0.000    0.000 
#
# Total GULP energy -156404.360675 kJ/mol
# GULP energy per Si atom -5585.870024 kJ/mol
# Density = 1.953455 g / cm^3
# Si number density = 19.579110 Si / 1000 Ang^3
#
#
#
# Elastic Constant Matrix: (Units=GPa)
#
#
# Indices 1 2 3 4 5 6 
#
# 1 20.2247 14.1984 20.0632 0.0000 0.0000 0.0000
# 2 14.1984 191.3434 143.5563 0.0000 0.0000 0.0000
# 3 20.0632 143.5563 226.6090 0.0000 0.0000 0.0000
# 4 0.0000 0.0000 0.0000 -50.9292 0.0000 0.0000
# 5 0.0000 0.0000 0.0000 0.0000 6.5573 0.0000
# 6 0.0000 0.0000 0.0000 0.0000 0.0000 16.4422
#
#
#
# Elastic Compliance Matrix: (Units=1/GPa)
#
#
# Indices 1 2 3 4 5 6 
#
# 1 0.054270 -0.000805 -0.004295 0.000000 0.000000 0.000000
# 2 -0.000805 0.009972 -0.006246 0.000000 0.000000 0.000000
# 3 -0.004295 -0.006246 0.008750 0.000000 0.000000 0.000000
# 4 0.000000 0.000000 0.000000 -0.019635 0.000000 0.000000
# 5 0.000000 0.000000 0.000000 0.000000 0.152501 0.000000
# 6 0.000000 0.000000 0.000000 0.000000 0.000000 0.060819
#
#
# Mechanical properties :
#
#
# Convention : Reuss Voigt Hill
#
# Bulk Modulus (GPa) = 19.88043 88.20145 54.04094
# Shear Modulus (GPa) = 16.33264 11.77136 14.05200
#
# Velocity S-wave (km/s) = 2.89136 2.45464 2.68191
# Velocity P-wave (km/s) = 4.61764 7.29248 6.10339
#
# Compressibility (1/GPa) = 0.05030071
#
# Stress axis : x y z
#
# Youngs Moduli (GPa) = 18.42630 100.28069 114.28561
#
# Poissons Ratio (x) = 0.08068 0.49088
# Poissons Ratio (y) = 0.01482 0.71383
# Poissons Ratio (z) = 0.07914 0.62635
#
# Static dielectric constant tensor:
#      x y z
#    x 1.698850 0.000000 0.000000 
#    y 0.000000 1.663370 0.000000 
#    z 0.000000 0.000000 1.676300 
# 
# From -- ./inp_files/15646.got.cif
#   From: 2010.05.17/outbox.cif.g08.bks.cpg/sg35_8_cif.got.tgz:15646.got - 2010.06.03 17:29:28.
