data_PCOD9348757
_publ_section_title
;
Structure prediction by ZEFSAII (Michael W. Deem and Ramdas Pophale) SiO2 
 PCOD9348757
Probable space group: C M M 2
;
_chemical_formula_sum "Si O2"
_cell_formula_units_Z 64
_cell_length_a 7.695977
_cell_length_b 18.918197
_cell_length_c 21.391842
_cell_angle_alpha 90.000000
_cell_angle_beta 90.000000
_cell_angle_gamma 90.000000
_cell_volume 3114.524037
_symmetry_space_group_name_H-M "C M M 2"
_symmetry_group_IT_number 35
_symmetry_cell_setting 'orthorhombic'
loop_
_space_group_symop_operation_xyz
x,y,z
-x,-y,z
-x,y,z
x,-y,z
1/2+x,1/2+y,z
1/2-x,1/2-y,z
1/2-x,1/2+y,z
1/2+x,1/2-y,z
loop_
_atom_site_type_symbol
_atom_site_label
_atom_site_fract_x
_atom_site_fract_y
_atom_site_fract_z
Si Si1 0.290650 0.167411 0.155310
Si Si2 0.711952 0.581777 0.652950
Si Si3 0.712111 0.418113 0.793138
Si Si4 0.291077 0.419209 0.414205
Si Si5 0.292666 0.919838 0.035810
Si Si6 0.709051 0.667794 0.533264
Si Si7 0.206598 0.832392 0.912289
Si Si8 0.208628 0.419000 0.274634
O O1 0.500000 0.161733 0.155353
O O2 0.250000 0.250000 0.151760
O O3 0.224320 0.124382 0.095019
O O4 0.226173 0.130759 0.219088
O O5 0.500000 0.583594 0.653086
O O6 0.761076 0.500000 0.642366
O O7 0.768300 0.602326 0.723006
O O8 0.774119 0.630485 0.596545
O O9 0.500000 0.416757 0.793029
O O10 0.761910 0.500000 0.804301
O O11 0.775568 0.367748 0.848409
O O12 0.500000 0.421790 0.418826
O O13 0.225879 0.500000 0.419564
O O14 0.225451 0.371512 0.470977
O O15 0.249163 0.393240 0.344519
O O16 0.500000 0.925262 0.044351
O O17 0.223284 0.000000 0.032535
O O18 0.264341 0.876843 0.972311
O O19 0.500000 0.660146 0.533546
O O20 0.750000 0.750000 0.532232
O O21 0.250000 0.750000 0.917652
O O22 0.000000 0.838162 0.909995
O O23 0.274219 0.500000 0.268613
O O24 0.000000 0.422127 0.269388
#
# Coordination Sequence:
#
# PCOD9348757 Si02
#       8
#     8   8   8   8   8   8   8   8
#     4  10  21  36  54  77 105 135 167 205 249 299
#     4   8  14  28  51  74  95 126 170 212 248 292
#     4   8  15  29  50  75 100 128 167 213 255 297
#     4   9  18  33  52  73  97 127 166 209 247 287
#     4  10  21  38  59  80 103 134 172 214 259 306
#     4  10  20  32  48  72 101 131 163 203 250 298
#     4  11  22  35  52  77 109 141 173 211 256 305
#     4   9  18  34  55  76  98 128 166 205 247 296
#
# _framework density 20.548884999999999
#
# number of rings (size 3 to 8) (size 9 to 14) (size 15 to 20)
#    0.000    2.625    0.000    2.625    0.000    7.250 
#    0.000    2.500    0.000    4.125    0.000    3.500 
#    0.000    0.000    0.000    0.000    0.000    0.000 
#
# Total GULP energy -178637.463322 kJ/mol
# GULP energy per Si atom -5582.420729 kJ/mol
# Density = 2.050212 g / cm^3
# Si number density = 20.548885 Si / 1000 Ang^3
#
#
#
# Elastic Constant Matrix: (Units=GPa)
#
#
# Indices 1 2 3 4 5 6 
#
# 1 34.7597 2.3192 5.9665 0.0000 0.0000 0.0000
# 2 2.3192 163.2148 147.5048 0.0000 0.0000 0.0000
# 3 5.9665 147.5048 236.1228 0.0000 0.0000 0.0000
# 4 0.0000 0.0000 0.0000 3.7319 0.0000 0.0000
# 5 0.0000 0.0000 0.0000 0.0000 40.4101 0.0000
# 6 0.0000 0.0000 0.0000 0.0000 0.0000 17.5717
#
#
#
# Elastic Compliance Matrix: (Units=1/GPa)
#
#
# Indices 1 2 3 4 5 6 
#
# 1 0.028918 0.000573 -0.001089 0.000000 0.000000 0.000000
# 2 0.000573 0.014082 -0.008812 0.000000 0.000000 0.000000
# 3 -0.001089 -0.008812 0.009767 0.000000 0.000000 0.000000
# 4 0.000000 0.000000 0.000000 0.267963 0.000000 0.000000
# 5 0.000000 0.000000 0.000000 0.000000 0.024746 0.000000
# 6 0.000000 0.000000 0.000000 0.000000 0.000000 0.056910
#
#
# Mechanical properties :
#
#
# Convention : Reuss Voigt Hill
#
# Bulk Modulus (GPa) = 29.31483 82.85314 56.08398
# Shear Modulus (GPa) = 11.56306 30.89653 21.22980
#
# Velocity S-wave (km/s) = 2.37472 3.88179 3.21773
# Velocity P-wave (km/s) = 4.67076 7.77808 6.41539
#
# Compressibility (1/GPa) = 0.03411243
#
# Stress axis : x y z
#
# Youngs Moduli (GPa) = 34.58102 71.01197 102.38447
#
# Poissons Ratio (x) = -0.04068 0.11146
# Poissons Ratio (y) = -0.01981 0.90216
# Poissons Ratio (z) = 0.03764 0.62572
#
# Static dielectric constant tensor:
#      x y z
#    x 1.775340 0.000000 0.000000 
#    y 0.000000 1.688900 0.000000 
#    z 0.000000 0.000000 1.729690 
# 
# From -- ./inp_files/18446.got.cif
#   From: 2010.05.17/outbox.cif.g08.bks.cpg/sg35_10_cif.got.tgz:18446.got - 2010.06.03 17:29:28.
