data_PCOD9348408
_publ_section_title
;
Structure prediction by ZEFSAII (Michael W. Deem and Ramdas Pophale) SiO2 
 PCOD9348408
Probable space group: C M M 2
;
_chemical_formula_sum "Si O2"
_cell_formula_units_Z 64
_cell_length_a 8.193277
_cell_length_b 18.887218
_cell_length_c 21.420902
_cell_angle_alpha 90.000000
_cell_angle_beta 90.000000
_cell_angle_gamma 90.000000
_cell_volume 3314.846216
_symmetry_space_group_name_H-M "C M M 2"
_symmetry_group_IT_number 35
_symmetry_cell_setting 'orthorhombic'
loop_
_space_group_symop_operation_xyz
x,y,z
-x,-y,z
-x,y,z
x,-y,z
1/2+x,1/2+y,z
1/2-x,1/2-y,z
1/2-x,1/2+y,z
1/2+x,1/2-y,z
loop_
_atom_site_type_symbol
_atom_site_label
_atom_site_fract_x
_atom_site_fract_y
_atom_site_fract_z
Si Si1 0.302652 0.668641 0.287770
Si Si2 0.194559 0.169344 0.426173
Si Si3 0.196394 0.580850 0.544650
Si Si4 0.194333 0.169025 0.802814
Si Si5 0.697087 0.668546 0.045722
Si Si6 0.302996 0.917878 0.683272
Si Si7 0.699785 0.581931 0.923423
Si Si8 0.800247 0.918343 0.167504
O O1 0.500000 0.667201 0.287518
O O2 0.250000 0.750000 0.277932
O O3 0.246195 0.645806 0.357159
O O4 0.245817 0.618882 0.231582
O O5 0.250000 0.250000 0.433487
O O6 0.252289 0.125464 0.485315
O O7 0.000000 0.166776 0.424988
O O8 0.253194 0.500000 0.537338
O O9 0.251498 0.605317 0.613679
O O10 0.000000 0.580294 0.546407
O O11 0.250000 0.250000 0.806467
O O12 0.244129 0.132078 0.738312
O O13 0.256457 0.122467 0.861230
O O14 0.000000 0.168625 0.806501
O O15 0.500000 0.667208 0.045827
O O16 0.750000 0.750000 0.044468
O O17 0.752876 0.628029 0.108167
O O18 0.752076 0.625466 0.984529
O O19 0.500000 0.917630 0.683869
O O20 0.251058 0.000000 0.692680
O O21 0.500000 0.581521 0.923246
O O22 0.751865 0.500000 0.924813
O O23 0.000000 0.918347 0.167458
O O24 0.748528 0.000000 0.162931
#
# Coordination Sequence:
#
# PCOD9348408 Si02
#       8
#     8   8   8   8   8   8   8   8
#     4   9  18  32  50  72  99 131 167 209 253 298
#     4  10  20  33  51  75 103 136 172 212 257 305
#     4   9  19  36  56  77 103 134 167 208 258 309
#     4  11  22  35  53  77 106 138 172 212 256 303
#     4  10  19  32  53  77 102 134 169 207 250 297
#     4   9  19  37  58  78 102 133 169 210 257 308
#     4   9  18  33  53  77 103 132 170 213 253 297
#     4   9  17  30  50  75 100 130 170 210 248 294
#
# _framework density 19.307078000000001
#
# number of rings (size 3 to 8) (size 9 to 14) (size 15 to 20)
#    0.000    2.500    0.000    3.000    0.000    4.500 
#    0.000    3.125    0.000    4.125    0.000    0.000 
#    0.000    0.000    0.000    0.000    0.000    0.000 
#
# Total GULP energy -178570.588230 kJ/mol
# GULP energy per Si atom -5580.330882 kJ/mol
# Density = 1.926313 g / cm^3
# Si number density = 19.307078 Si / 1000 Ang^3
#
#
#
# Elastic Constant Matrix: (Units=GPa)
#
#
# Indices 1 2 3 4 5 6 
#
# 1 10.7790 13.7602 21.3671 0.0000 0.0000 0.0000
# 2 13.7602 163.4189 139.8856 0.0000 0.0000 0.0000
# 3 21.3671 139.8856 232.9197 0.0000 0.0000 0.0000
# 4 0.0000 0.0000 0.0000 44.0048 0.0000 0.0000
# 5 0.0000 0.0000 0.0000 0.0000 6.6197 0.0000
# 6 0.0000 0.0000 0.0000 0.0000 0.0000 15.7366
#
#
#
# Elastic Compliance Matrix: (Units=1/GPa)
#
#
# Indices 1 2 3 4 5 6 
#
# 1 0.113533 -0.001326 -0.009618 0.000000 0.000000 0.000000
# 2 -0.001326 0.012609 -0.007451 0.000000 0.000000 0.000000
# 3 -0.009618 -0.007451 0.009650 0.000000 0.000000 0.000000
# 4 0.000000 0.000000 0.000000 0.022725 0.000000 0.000000
# 5 0.000000 0.000000 0.000000 0.000000 0.151065 0.000000
# 6 0.000000 0.000000 0.000000 0.000000 0.000000 0.063546
#
#
# Mechanical properties :
#
#
# Convention : Reuss Voigt Hill
#
# Bulk Modulus (GPa) = 10.10089 84.12702 47.11396
# Shear Modulus (GPa) = 11.28871 28.74586 20.01728
#
# Velocity S-wave (km/s) = 2.42067 3.86278 3.22341
# Velocity P-wave (km/s) = 3.61329 7.97261 6.18944
#
# Compressibility (1/GPa) = 0.09900117
#
# Stress axis : x y z
#
# Youngs Moduli (GPa) = 8.80799 79.30962 103.62185
#
# Poissons Ratio (x) = 0.10519 0.99668
# Poissons Ratio (y) = 0.01168 0.77207
# Poissons Ratio (z) = 0.08472 0.59092
#
# Static dielectric constant tensor:
#      x y z
#    x 1.689160 0.000000 0.000000 
#    y 0.000000 1.629290 0.000000 
#    z 0.000000 0.000000 1.685250 
# 
# From -- ./inp_files/18405.got.cif
#   From: 2010.05.17/outbox.cif.g08.bks.cpg/sg35_10_cif.got.tgz:18405.got - 2010.06.03 17:29:28.
