data_PCOD9348415
_publ_section_title
;
Structure prediction by ZEFSAII (Michael W. Deem and Ramdas Pophale) SiO2 
 PCOD9348415
Probable space group: C M M 2
;
_chemical_formula_sum "Si O2"
_cell_formula_units_Z 64
_cell_length_a 8.856113
_cell_length_b 18.611991
_cell_length_c 21.621029
_cell_angle_alpha 90.000000
_cell_angle_beta 90.000000
_cell_angle_gamma 90.000000
_cell_volume 3563.791950
_symmetry_space_group_name_H-M "C M M 2"
_symmetry_group_IT_number 35
_symmetry_cell_setting 'orthorhombic'
loop_
_space_group_symop_operation_xyz
x,y,z
-x,-y,z
-x,y,z
x,-y,z
1/2+x,1/2+y,z
1/2-x,1/2-y,z
1/2-x,1/2+y,z
1/2+x,1/2-y,z
loop_
_atom_site_type_symbol
_atom_site_label
_atom_site_fract_x
_atom_site_fract_y
_atom_site_fract_z
Si Si1 0.181278 0.415404 0.931640
Si Si2 0.820166 0.585037 0.188971
Si Si3 0.681942 0.583546 0.426397
Si Si4 0.317314 0.170192 0.810359
Si Si5 0.818903 0.170773 0.302943
Si Si6 0.674194 0.412621 0.059807
Si Si7 0.818408 0.670108 0.675933
Si Si8 0.681537 0.830311 0.540155
O O1 0.215739 0.500000 0.925369
O O2 0.231887 0.374888 0.869814
O O3 0.000000 0.408640 0.937269
O O4 0.255717 0.387834 0.994934
O O5 0.783376 0.500000 0.195725
O O6 0.740770 0.629568 0.242696
O O7 0.764192 0.608961 0.121157
O O8 0.000000 0.592826 0.193145
O O9 0.500000 0.587511 0.432132
O O10 0.724805 0.500000 0.421724
O O11 0.724763 0.626046 0.364181
O O12 0.755606 0.620951 0.485552
O O13 0.500000 0.174303 0.812127
O O14 0.250000 0.250000 0.814006
O O15 0.274728 0.137897 0.742722
O O16 0.750000 0.250000 0.306023
O O17 0.000000 0.175074 0.300738
O O18 0.500000 0.391261 0.064947
O O19 0.680841 0.500000 0.058246
O O20 0.750000 0.750000 0.676304
O O21 0.776157 0.639476 0.608682
O O22 0.000000 0.674964 0.675883
O O23 0.500000 0.825576 0.536247
O O24 0.750000 0.750000 0.534770
#
# Coordination Sequence:
#
# PCOD9348415 Si02
#       8
#     8   8   8   8   8   8   8   8
#     4   9  17  30  48  70  97 130 168 209 253 302
#     4  10  20  35  57  83 108 135 170 212 256 304
#     4  10  22  39  57  78 106 139 173 211 256 305
#     4   9  17  30  48  70  97 130 167 208 254 302
#     4  11  23  39  58  80 107 138 172 210 254 304
#     4   9  17  30  50  75 102 133 169 209 253 302
#     4   8  15  28  46  70  98 129 167 207 250 301
#     4  10  19  32  53  79 105 135 173 216 260 308
#
# _framework density 17.958399
#
# number of rings (size 3 to 8) (size 9 to 14) (size 15 to 20)
#    0.000    2.500    0.000    2.250    0.000    6.000 
#    0.000    1.250    0.000    3.750    0.000    1.750 
#    0.000    0.000    0.000    0.000    0.000    0.000 
#
# Total GULP energy -178395.568906 kJ/mol
# GULP energy per Si atom -5574.861528 kJ/mol
# Density = 1.791752 g / cm^3
# Si number density = 17.958399 Si / 1000 Ang^3
#
#
#
# Elastic Constant Matrix: (Units=GPa)
#
#
# Indices 1 2 3 4 5 6 
#
# 1 33.6856 36.2077 57.9627 0.0000 0.0000 0.0000
# 2 36.2077 73.1666 81.1409 0.0000 0.0000 0.0000
# 3 57.9627 81.1409 219.4613 0.0000 0.0000 0.0000
# 4 0.0000 0.0000 0.0000 32.8762 0.0000 0.0000
# 5 0.0000 0.0000 0.0000 0.0000 11.1821 0.0000
# 6 0.0000 0.0000 0.0000 0.0000 0.0000 20.3917
#
#
#
# Elastic Compliance Matrix: (Units=1/GPa)
#
#
# Indices 1 2 3 4 5 6 
#
# 1 0.075085 -0.025704 -0.010328 0.000000 0.000000 0.000000
# 2 -0.025704 0.031965 -0.005030 0.000000 0.000000 0.000000
# 3 -0.010328 -0.005030 0.009144 0.000000 0.000000 0.000000
# 4 0.000000 0.000000 0.000000 0.030417 0.000000 0.000000
# 5 0.000000 0.000000 0.000000 0.000000 0.089428 0.000000
# 6 0.000000 0.000000 0.000000 0.000000 0.000000 0.049039
#
#
# Mechanical properties :
#
#
# Convention : Reuss Voigt Hill
#
# Bulk Modulus (GPa) = 29.34961 75.21512 52.28236
# Shear Modulus (GPa) = 13.20795 22.95684 18.08240
#
# Velocity S-wave (km/s) = 2.71491 3.57926 3.17662
# Velocity P-wave (km/s) = 5.11920 7.68475 6.52923
#
# Compressibility (1/GPa) = 0.03407201
#
# Stress axis : x y z
#
# Youngs Moduli (GPa) = 13.31816 31.28379 109.36290
#
# Poissons Ratio (x) = 0.80412 1.12945
# Poissons Ratio (y) = 0.34233 0.55006
# Poissons Ratio (z) = 0.13754 0.15735
#
# Static dielectric constant tensor:
#      x y z
#    x 1.605190 0.000000 0.000000 
#    y 0.000000 1.576970 0.000000 
#    z 0.000000 0.000000 1.636650 
# 
# From -- ./inp_files/18427.got.cif
#   From: 2010.05.17/outbox.cif.g08.bks.cpg/sg35_10_cif.got.tgz:18427.got - 2010.06.03 17:29:28.
