data_PCOD9348342
_publ_section_title
;
Structure prediction by ZEFSAII (Michael W. Deem and Ramdas Pophale) SiO2 
 PCOD9348342
Probable space group: C M M 2
;
_chemical_formula_sum "Si O2"
_cell_formula_units_Z 64
_cell_length_a 8.675799
_cell_length_b 20.574918
_cell_length_c 20.551584
_cell_angle_alpha 90.000000
_cell_angle_beta 90.000000
_cell_angle_gamma 90.000000
_cell_volume 3668.536929
_symmetry_space_group_name_H-M "C M M 2"
_symmetry_group_IT_number 35
_symmetry_cell_setting 'orthorhombic'
loop_
_space_group_symop_operation_xyz
x,y,z
-x,-y,z
-x,y,z
x,-y,z
1/2+x,1/2+y,z
1/2-x,1/2-y,z
1/2-x,1/2+y,z
1/2+x,1/2-y,z
loop_
_atom_site_type_symbol
_atom_site_label
_atom_site_fract_x
_atom_site_fract_y
_atom_site_fract_z
Si Si1 0.315751 0.820657 0.526280
Si Si2 0.684633 0.179127 0.376048
Si Si3 0.685872 0.678535 0.881385
Si Si4 0.315522 0.424974 0.276003
Si Si5 0.814366 0.321411 0.024236
Si Si6 0.312403 0.426023 0.774512
Si Si7 0.314274 0.074763 0.133621
Si Si8 0.314108 0.424831 0.626008
O O1 0.500000 0.818147 0.528481
O O2 0.250000 0.750000 0.544418
O O3 0.268735 0.833633 0.451207
O O4 0.255725 0.875611 0.574520
O O5 0.500000 0.181080 0.373068
O O6 0.750000 0.250000 0.358077
O O7 0.746571 0.124063 0.328331
O O8 0.500000 0.680792 0.883238
O O9 0.750000 0.750000 0.865281
O O10 0.736900 0.625988 0.827949
O O11 0.748382 0.661841 0.953095
O O12 0.500000 0.421571 0.277796
O O13 0.268765 0.500000 0.288958
O O14 0.257751 0.408727 0.203422
O O15 0.750000 0.250000 0.041187
O O16 0.768884 0.374765 0.077694
O O17 0.000000 0.318439 0.020730
O O18 0.500000 0.426340 0.774836
O O19 0.262678 0.500000 0.789060
O O20 0.265964 0.409814 0.700473
O O21 0.500000 0.077163 0.139572
O O22 0.271256 0.000000 0.117781
O O23 0.500000 0.420650 0.623392
O O24 0.271886 0.500000 0.612773
#
# Coordination Sequence:
#
# PCOD9348342 Si02
#       8
#     8   8   8   8   8   8   8   8
#     4  10  21  36  54  77 105 136 173 215 258 306
#     4  10  21  37  56  77 104 138 173 213 259 307
#     4  10  19  32  51  73 100 132 166 207 251 298
#     4  10  21  36  55  80 108 137 172 213 253 301
#     4  10  20  34  52  74 101 132 167 207 251 301
#     4   8  16  32  52  74 100 132 170 208 249 299
#     4   9  19  36  55  74 100 135 171 208 253 302
#     4   9  18  34  55  77 104 138 173 211 257 308
#
# _framework density 17.445647000000001
#
# number of rings (size 3 to 8) (size 9 to 14) (size 15 to 20)
#    0.000    2.500    0.000    3.375    0.000    5.500 
#    0.000    6.250    0.000    2.625    0.000    0.000 
#    0.000    0.000    0.000    0.000    0.000    0.000 
#
# Total GULP energy -178538.111079 kJ/mol
# GULP energy per Si atom -5579.315971 kJ/mol
# Density = 1.740594 g / cm^3
# Si number density = 17.445647 Si / 1000 Ang^3
#
#
#
# Elastic Constant Matrix: (Units=GPa)
#
#
# Indices 1 2 3 4 5 6 
#
# 1 37.8929 45.5494 43.3916 0.0000 0.0000 0.0000
# 2 45.5494 150.2904 136.2457 0.0000 0.0000 0.0000
# 3 43.3916 136.2457 144.4022 0.0000 0.0000 0.0000
# 4 0.0000 0.0000 0.0000 44.6130 0.0000 0.0000
# 5 0.0000 0.0000 0.0000 0.0000 25.6254 0.0000
# 6 0.0000 0.0000 0.0000 0.0000 0.0000 27.8798
#
#
#
# Elastic Compliance Matrix: (Units=1/GPa)
#
#
# Indices 1 2 3 4 5 6 
#
# 1 0.041881 -0.008878 -0.004208 0.000000 0.000000 0.000000
# 2 -0.008878 0.047879 -0.042507 0.000000 0.000000 0.000000
# 3 -0.004208 -0.042507 0.048295 0.000000 0.000000 0.000000
# 4 0.000000 0.000000 0.000000 0.022415 0.000000 0.000000
# 5 0.000000 0.000000 0.000000 0.000000 0.039024 0.000000
# 6 0.000000 0.000000 0.000000 0.000000 0.000000 0.035868
#
#
# Mechanical properties :
#
#
# Convention : Reuss Voigt Hill
#
# Bulk Modulus (GPa) = 37.21727 86.99544 62.10635
# Shear Modulus (GPa) = 14.06448 26.78355 20.42402
#
# Velocity S-wave (km/s) = 2.84243 3.92249 3.42529
# Velocity P-wave (km/s) = 5.67028 8.39579 7.16385
#
# Compressibility (1/GPa) = 0.02686925
#
# Stress axis : x y z
#
# Youngs Moduli (GPa) = 23.87707 20.88596 20.70592
#
# Poissons Ratio (x) = 0.18543 0.08713
# Poissons Ratio (y) = 0.21199 0.88014
# Poissons Ratio (z) = 0.10048 0.88779
#
# Static dielectric constant tensor:
#      x y z
#    x 1.590310 0.000000 0.000000 
#    y 0.000000 1.573410 0.000000 
#    z 0.000000 0.000000 1.574070 
# 
# From -- ./inp_files/18355.got.cif
#   From: 2010.05.17/outbox.cif.g08.bks.cpg/sg35_10_cif.got.tgz:18355.got - 2010.06.03 17:29:28.
