data_PCOD9348567
_publ_section_title
;
Structure prediction by ZEFSAII (Michael W. Deem and Ramdas Pophale) SiO2 
 PCOD9348567
Probable space group: C M M 2
;
_chemical_formula_sum "Si O2"
_cell_formula_units_Z 64
_cell_length_a 29.791986
_cell_length_b 9.325353
_cell_length_c 12.150419
_cell_angle_alpha 90.000000
_cell_angle_beta 90.000000
_cell_angle_gamma 90.000000
_cell_volume 3375.638957
_symmetry_space_group_name_H-M "C M M 2"
_symmetry_group_IT_number 35
_symmetry_cell_setting 'orthorhombic'
loop_
_space_group_symop_operation_xyz
x,y,z
-x,-y,z
-x,y,z
x,-y,z
1/2+x,1/2+y,z
1/2-x,1/2-y,z
1/2-x,1/2+y,z
1/2+x,1/2-y,z
loop_
_atom_site_type_symbol
_atom_site_label
_atom_site_fract_x
_atom_site_fract_y
_atom_site_fract_z
Si Si1 0.797774 0.670156 0.727790
Si Si2 0.653000 0.342213 0.540637
Si Si3 0.703614 0.330815 0.312110
Si Si4 0.550488 0.277321 0.533438
Si Si5 0.449672 0.329198 0.776769
Si Si6 0.451505 0.166566 0.294292
Si Si7 0.135695 0.671180 0.164578
Si Si8 0.127327 0.331554 0.904105
O O1 0.790974 0.500000 0.715496
O O2 0.750000 0.750000 0.726395
O O3 0.829264 0.729102 0.629240
O O4 0.826263 0.696424 0.839226
O O5 0.668598 0.500000 0.577763
O O6 0.674368 0.311426 0.422470
O O7 0.599393 0.348476 0.526462
O O8 0.710154 0.500000 0.294722
O O9 0.750000 0.250000 0.328747
O O10 0.677219 0.258020 0.212478
O O11 0.500000 0.344623 0.522272
O O12 0.550967 0.238758 0.662736
O O13 0.552466 0.175221 0.426873
O O14 0.500000 0.316510 0.823719
O O15 0.442886 0.500000 0.750815
O O16 0.411173 0.268801 0.853955
O O17 0.500000 0.233025 0.265232
O O18 0.408648 0.225115 0.229983
O O19 0.453114 0.000000 0.263344
O O20 0.141280 0.500000 0.186643
O O21 0.131065 0.689954 0.034349
O O22 0.116110 0.500000 0.884764
#
# Coordination Sequence:
#
# PCOD9348567 Si02
#       8
#     8   8   8   8   8   8   8   8
#     4  11  24  41  61  87 117 151 195 245 300 355
#     4  11  22  38  62  92 123 157 194 235 291 353
#     4  11  24  41  61  89 119 152 195 243 298 355
#     4  10  19  33  57  91 124 156 193 233 285 350
#     4  10  21  37  59  87 121 161 200 240 291 348
#     4   9  18  33  56  87 121 158 197 239 291 349
#     4  10  21  40  63  86 117 156 200 247 294 346
#     4  10  23  40  60  88 118 155 200 246 296 348
#
# _framework density 18.959372999999999
#
# number of rings (size 3 to 8) (size 9 to 14) (size 15 to 20)
#    0.000    1.750    2.500    1.500    0.000    6.000 
#    0.000    3.750    0.000    0.375    0.000    0.000 
#    0.000    0.000    0.000    0.000    0.000    0.000 
#
# Total GULP energy -178255.721133 kJ/mol
# GULP energy per Si atom -5570.491285 kJ/mol
# Density = 1.891622 g / cm^3
# Si number density = 18.959373 Si / 1000 Ang^3
#
#
#
# Elastic Constant Matrix: (Units=GPa)
#
#
# Indices 1 2 3 4 5 6 
#
# 1 157.1962 56.6478 51.7605 0.0000 0.0000 0.0000
# 2 56.6478 54.1333 48.8847 0.0000 0.0000 0.0000
# 3 51.7605 48.8847 79.1914 0.0000 0.0000 0.0000
# 4 0.0000 0.0000 0.0000 20.0935 0.0000 0.0000
# 5 0.0000 0.0000 0.0000 0.0000 11.9303 0.0000
# 6 0.0000 0.0000 0.0000 0.0000 0.0000 20.9424
#
#
#
# Elastic Compliance Matrix: (Units=1/GPa)
#
#
# Indices 1 2 3 4 5 6 
#
# 1 0.010214 -0.010529 -0.000176 0.000000 0.000000 0.000000
# 2 -0.010529 0.052596 -0.025585 0.000000 0.000000 0.000000
# 3 -0.000176 -0.025585 0.028537 0.000000 0.000000 0.000000
# 4 0.000000 0.000000 0.000000 0.049767 0.000000 0.000000
# 5 0.000000 0.000000 0.000000 0.000000 0.083820 0.000000
# 6 0.000000 0.000000 0.000000 0.000000 0.000000 0.047750
#
#
# Mechanical properties :
#
#
# Convention : Reuss Voigt Hill
#
# Bulk Modulus (GPa) = 53.29127 67.23411 60.26269
# Shear Modulus (GPa) = 14.22395 19.47512 16.84953
#
# Velocity S-wave (km/s) = 2.74201 3.20848 2.98437
# Velocity P-wave (km/s) = 6.18013 7.01890 6.61283
#
# Compressibility (1/GPa) = 0.01876480
#
# Stress axis : x y z
#
# Youngs Moduli (GPa) = 97.90671 19.01301 35.04267
#
# Poissons Ratio (x) = 0.20019 0.00618
# Poissons Ratio (y) = 1.03086 0.89658
# Poissons Ratio (z) = 0.01727 0.48645
#
# Static dielectric constant tensor:
#      x y z
#    x 1.674640 0.000000 0.000000 
#    y 0.000000 1.660000 0.000000 
#    z 0.000000 0.000000 1.636900 
# 
# From -- ./inp_files/14553.got.cif
#   From: 2010.05.17/outbox.cif.g08.bks.cpg/sg35_8_cif.got.tgz:14553.got - 2010.06.03 17:29:28.
