data_PCOD9348628
_publ_section_title
;
Structure prediction by ZEFSAII (Michael W. Deem and Ramdas Pophale) SiO2 
 PCOD9348628
Probable space group: C M M 2
;
_chemical_formula_sum "Si O2"
_cell_formula_units_Z 56
_cell_length_a 15.446828
_cell_length_b 18.236287
_cell_length_c 10.074594
_cell_angle_alpha 90.000000
_cell_angle_beta 90.000000
_cell_angle_gamma 90.000000
_cell_volume 2837.940478
_symmetry_space_group_name_H-M "C M M 2"
_symmetry_group_IT_number 35
_symmetry_cell_setting 'orthorhombic'
loop_
_space_group_symop_operation_xyz
x,y,z
-x,-y,z
-x,y,z
x,-y,z
1/2+x,1/2+y,z
1/2-x,1/2-y,z
1/2-x,1/2+y,z
1/2+x,1/2-y,z
loop_
_atom_site_type_symbol
_atom_site_label
_atom_site_fract_x
_atom_site_fract_y
_atom_site_fract_z
Si Si1 0.268242 0.336088 0.660620
Si Si2 0.399934 0.863021 0.807708
Si Si3 0.603105 0.923087 0.079298
Si Si4 0.759980 0.912358 0.403771
Si Si5 0.402335 0.175884 0.325833
Si Si6 0.900487 0.192402 0.895664
Si Si7 0.169288 0.193471 0.194113
O O1 0.250000 0.250000 0.628441
O O2 0.174108 0.367928 0.699117
O O3 0.305440 0.380269 0.535708
O O4 0.332111 0.338731 0.788304
O O5 0.500000 0.881442 0.771460
O O6 0.365912 0.909891 0.932028
O O7 0.401070 0.779626 0.863145
O O8 0.500000 0.927638 0.064403
O O9 0.635733 0.000000 0.136197
O O10 0.613275 0.857279 0.178936
O O11 0.668285 0.868346 0.407997
O O12 0.802944 0.880699 0.268988
O O13 0.753074 0.000000 0.406267
O O14 0.500000 0.160210 0.368882
O O15 0.388853 0.261759 0.300921
O O16 0.000000 0.166691 0.879001
O O17 0.871123 0.182084 0.048716
O O18 0.250000 0.250000 0.178576
#
# Coordination Sequence:
#
# PCOD9348628 Si02
#       7
#     8   8   8   8   8   8   8
#     4  10  21  38  58  84 117 158 203 253 296 356
#     4   9  17  30  53  86 120 153 190 237 291 356
#     4   9  16  26  44  79 123 156 181 218 279 353
#     4  11  25  41  56  83 125 167 203 245 307 369
#     4  10  19  34  60  90 119 155 198 243 294 360
#     4  10  19  35  62  89 110 142 200 266 313 347
#     4  10  19  35  63  90 118 153 198 252 301 360
#
# _framework density 19.732619
#
# number of rings (size 3 to 8) (size 9 to 14) (size 15 to 20)
#    0.000    2.143    1.429    3.429    2.000    2.000 
#    0.000    5.000    0.000    4.714    0.000    0.000 
#    0.000    0.000    0.000    0.000    0.000    0.000 
#
# Total GULP energy -155963.276628 kJ/mol
# GULP energy per Si atom -5570.117022 kJ/mol
# Density = 1.968771 g / cm^3
# Si number density = 19.732619 Si / 1000 Ang^3
#
#
#
# Elastic Constant Matrix: (Units=GPa)
#
#
# Indices 1 2 3 4 5 6 
#
# 1 71.2546 24.2689 35.0634 0.0000 0.0000 0.0000
# 2 24.2689 58.7210 32.3018 0.0000 0.0000 0.0000
# 3 35.0634 32.3018 102.5751 0.0000 0.0000 0.0000
# 4 0.0000 0.0000 0.0000 66.2610 0.0000 0.0000
# 5 0.0000 0.0000 0.0000 0.0000 15.6523 0.0000
# 6 0.0000 0.0000 0.0000 0.0000 0.0000 6.6859
#
#
#
# Elastic Compliance Matrix: (Units=1/GPa)
#
#
# Indices 1 2 3 4 5 6 
#
# 1 0.017965 -0.004894 -0.004600 0.000000 0.000000 0.000000
# 2 -0.004894 0.021931 -0.005233 0.000000 0.000000 0.000000
# 3 -0.004600 -0.005233 0.012969 0.000000 0.000000 0.000000
# 4 0.000000 0.000000 0.000000 0.015092 0.000000 0.000000
# 5 0.000000 0.000000 0.000000 0.000000 0.063888 0.000000
# 6 0.000000 0.000000 0.000000 0.000000 0.000000 0.149569
#
#
# Mechanical properties :
#
#
# Convention : Reuss Voigt Hill
#
# Bulk Modulus (GPa) = 42.71579 46.20209 44.45894
# Shear Modulus (GPa) = 15.69009 27.11427 21.40218
#
# Velocity S-wave (km/s) = 2.82287 3.71089 3.29691
# Velocity P-wave (km/s) = 5.68499 6.46729 6.08871
#
# Compressibility (1/GPa) = 0.02341055
#
# Stress axis : x y z
#
# Youngs Moduli (GPa) = 55.66508 45.59702 77.10555
#
# Poissons Ratio (x) = 0.22317 0.35465
# Poissons Ratio (y) = 0.27245 0.40351
# Poissons Ratio (z) = 0.25604 0.23862
#
# Static dielectric constant tensor:
#      x y z
#    x 1.741690 0.000000 0.000000 
#    y 0.000000 1.598760 0.000000 
#    z 0.000000 0.000000 1.724810 
# 
# From -- ./inp_files/8662.got.cif
#   From: 2010.05.17/outbox.cif.g08.bks.cpg/sg35_5_cif.got.tgz:8662.got - 2010.06.03 17:29:28.
