data_PCOD9348978
_publ_section_title
;
Structure prediction by ZEFSAII (Michael W. Deem and Ramdas Pophale) SiO2 
 PCOD9348978
Probable space group: C M M 2
;
_chemical_formula_sum "Si O2"
_cell_formula_units_Z 64
_cell_length_a 8.984455
_cell_length_b 19.666177
_cell_length_c 20.864152
_cell_angle_alpha 90.000000
_cell_angle_beta 90.000000
_cell_angle_gamma 90.000000
_cell_volume 3686.484561
_symmetry_space_group_name_H-M "C M M 2"
_symmetry_group_IT_number 35
_symmetry_cell_setting 'orthorhombic'
loop_
_space_group_symop_operation_xyz
x,y,z
-x,-y,z
-x,y,z
x,-y,z
1/2+x,1/2+y,z
1/2-x,1/2-y,z
1/2-x,1/2+y,z
1/2+x,1/2-y,z
loop_
_atom_site_type_symbol
_atom_site_label
_atom_site_fract_x
_atom_site_fract_y
_atom_site_fract_z
Si Si1 0.678658 0.176220 0.219810
Si Si2 0.678505 0.323162 0.851929
Si Si3 0.678384 0.322468 0.000016
Si Si4 0.321033 0.079583 0.482441
Si Si5 0.178697 0.322709 0.367735
Si Si6 0.320257 0.579293 0.114974
Si Si7 0.828455 0.082690 0.614669
Si Si8 0.176491 0.418939 0.747407
O O1 0.500000 0.180399 0.213521
O O2 0.750000 0.250000 0.205278
O O3 0.716162 0.159652 0.294070
O O4 0.744547 0.119914 0.172789
O O5 0.500000 0.319634 0.846872
O O6 0.750000 0.250000 0.836835
O O7 0.742536 0.378655 0.803715
O O8 0.717873 0.338548 0.926257
O O9 0.500000 0.314886 0.002783
O O10 0.750000 0.250000 0.017405
O O11 0.721322 0.381093 0.049691
O O12 0.500000 0.084201 0.489317
O O13 0.274624 0.122432 0.420484
O O14 0.245975 0.104660 0.548077
O O15 0.283939 0.000000 0.473668
O O16 0.250000 0.250000 0.382163
O O17 0.000000 0.316877 0.370662
O O18 0.500000 0.583221 0.121469
O O19 0.278685 0.500000 0.113384
O O20 0.740134 0.103417 0.678299
O O21 0.000000 0.104025 0.618433
O O22 0.824586 0.000000 0.613802
O O23 0.203046 0.500000 0.753598
O O24 0.000000 0.407349 0.749847
#
# Coordination Sequence:
#
# PCOD9348978 Si02
#       8
#     8   8   8   8   8   8   8   8
#     4  10  20  35  55  77 102 136 177 215 255 307
#     4  10  20  35  55  78 105 136 171 212 257 306
#     4   9  19  35  55  76 100 135 174 210 252 306
#     4   9  17  31  51  73  98 130 167 207 253 303
#     4   9  19  34  52  74 101 133 167 207 253 302
#     4  10  21  36  53  77 109 139 169 211 260 305
#     4   9  17  30  49  74 102 132 169 211 254 303
#     4  10  20  34  53  77 105 137 173 214 259 306
#
# _framework density 17.360714000000002
#
# number of rings (size 3 to 8) (size 9 to 14) (size 15 to 20)
#    0.000    2.500    0.000    1.875    0.000    6.500 
#    0.000    3.125    0.000    3.000    0.000    0.000 
#    0.000    0.000    0.000    0.000    0.000    0.000 
#
# Total GULP energy -178509.397444 kJ/mol
# GULP energy per Si atom -5578.418670 kJ/mol
# Density = 1.732120 g / cm^3
# Si number density = 17.360714 Si / 1000 Ang^3
#
#
#
# Elastic Constant Matrix: (Units=GPa)
#
#
# Indices 1 2 3 4 5 6 
#
# 1 51.3097 53.5974 59.9916 0.0000 0.0000 0.0000
# 2 53.5974 105.5961 100.6684 0.0000 0.0000 0.0000
# 3 59.9916 100.6684 140.9263 0.0000 0.0000 0.0000
# 4 0.0000 0.0000 0.0000 41.1242 0.0000 0.0000
# 5 0.0000 0.0000 0.0000 0.0000 21.4440 0.0000
# 6 0.0000 0.0000 0.0000 0.0000 0.0000 27.0326
#
#
#
# Elastic Compliance Matrix: (Units=1/GPa)
#
#
# Indices 1 2 3 4 5 6 
#
# 1 0.044753 -0.014273 -0.008855 0.000000 0.000000 0.000000
# 2 -0.014273 0.034239 -0.018382 0.000000 0.000000 0.000000
# 3 -0.008855 -0.018382 0.023996 0.000000 0.000000 0.000000
# 4 0.000000 0.000000 0.000000 0.024317 0.000000 0.000000
# 5 0.000000 0.000000 0.000000 0.000000 0.046633 0.000000
# 6 0.000000 0.000000 0.000000 0.000000 0.000000 0.036992
#
#
# Mechanical properties :
#
#
# Convention : Reuss Voigt Hill
#
# Bulk Modulus (GPa) = 50.08200 80.70522 65.39361
# Shear Modulus (GPa) = 16.63308 23.49180 20.06244
#
# Velocity S-wave (km/s) = 3.09866 3.68252 3.40313
# Velocity P-wave (km/s) = 6.45854 8.04173 7.29322
#
# Compressibility (1/GPa) = 0.01996725
#
# Stress axis : x y z
#
# Youngs Moduli (GPa) = 22.34508 29.20670 41.67312
#
# Poissons Ratio (x) = 0.41687 0.36902
# Poissons Ratio (y) = 0.31893 0.76603
# Poissons Ratio (z) = 0.19787 0.53687
#
# Static dielectric constant tensor:
#      x y z
#    x 1.580990 0.000000 0.000000 
#    y 0.000000 1.561090 0.000000 
#    z 0.000000 0.000000 1.587020 
# 
# From -- ./inp_files/18397.got.cif
#   From: 2010.05.17/outbox.cif.g08.bks.cpg/sg35_10_cif.got.tgz:18397.got - 2010.06.03 17:29:28.
