data_PCOD9348424
_publ_section_title
;
Structure prediction by ZEFSAII (Michael W. Deem and Ramdas Pophale) SiO2 
 PCOD9348424
Probable space group: C M M 2
;
_chemical_formula_sum "Si O2"
_cell_formula_units_Z 64
_cell_length_a 33.614474
_cell_length_b 9.276912
_cell_length_c 11.335914
_cell_angle_alpha 90.000000
_cell_angle_beta 90.000000
_cell_angle_gamma 90.000000
_cell_volume 3534.974613
_symmetry_space_group_name_H-M "C M M 2"
_symmetry_group_IT_number 35
_symmetry_cell_setting 'orthorhombic'
loop_
_space_group_symop_operation_xyz
x,y,z
-x,-y,z
-x,y,z
x,-y,z
1/2+x,1/2+y,z
1/2-x,1/2-y,z
1/2-x,1/2+y,z
1/2+x,1/2-y,z
loop_
_atom_site_type_symbol
_atom_site_label
_atom_site_fract_x
_atom_site_fract_y
_atom_site_fract_z
Si Si1 0.060306 0.164317 0.228260
Si Si2 0.790989 0.673330 0.521266
Si Si3 0.852042 0.841392 0.125127
Si Si4 0.046132 0.826817 0.504729
Si Si5 0.288010 0.832084 0.245977
Si Si6 0.622137 0.173681 0.630161
Si Si7 0.044778 0.337690 0.999853
Si Si8 0.889318 0.833158 0.870607
O O1 0.107237 0.162573 0.199616
O O2 0.050806 0.198165 0.363568
O O3 0.044323 0.276737 0.132915
O O4 0.046216 0.000000 0.204270
O O5 0.786070 0.500000 0.533387
O O6 0.750000 0.750000 0.565140
O O7 0.794118 0.710868 0.382470
O O8 0.834329 0.711047 0.575114
O O9 0.825281 0.714120 0.170408
O O10 0.833649 0.000000 0.145621
O O11 0.861781 0.827573 0.986984
O O12 0.082983 0.745444 0.568389
O O13 0.000000 0.787636 0.537868
O O14 0.050266 0.000000 0.523825
O O15 0.250000 0.750000 0.198400
O O16 0.281018 0.000000 0.243713
O O17 0.623360 0.234268 0.762739
O O18 0.617975 0.000000 0.625726
O O19 0.061870 0.500000 0.997684
O O20 0.000000 0.343661 0.956073
O O21 0.069477 0.228588 0.920571
O O22 0.892524 0.000000 0.833959
#
# Coordination Sequence:
#
# PCOD9348424 Si02
#       8
#     8   8   8   8   8   8   8   8
#     4   9  18  33  54  79 108 142 179 222 271 326
#     4   9  20  37  58  86 114 142 178 221 271 328
#     4   9  18  33  53  78 105 134 172 217 267 321
#     4  10  21  36  55  81 113 151 193 231 272 327
#     4  10  19  32  53  81 112 141 169 207 258 318
#     4  11  23  39  58  81 111 146 187 234 283 330
#     4  10  20  33  52  79 108 138 175 223 277 326
#     4  10  22  39  57  76 101 139 185 226 267 321
#
# _framework density 18.104799
#
# number of rings (size 3 to 8) (size 9 to 14) (size 15 to 20)
#    0.000    2.250    0.000    3.375    0.000    6.750 
#    0.000    0.625    0.000    1.500    0.000    0.000 
#    0.000    0.000    0.000    0.000    0.000    0.000 
#
# Total GULP energy -178325.888550 kJ/mol
# GULP energy per Si atom -5572.684017 kJ/mol
# Density = 1.806359 g / cm^3
# Si number density = 18.104799 Si / 1000 Ang^3
#
#
#
# Elastic Constant Matrix: (Units=GPa)
#
#
# Indices 1 2 3 4 5 6 
#
# 1 116.0151 46.3485 39.8083 0.0000 0.0000 0.0000
# 2 46.3485 54.9528 25.1495 0.0000 0.0000 0.0000
# 3 39.8083 25.1495 46.3972 0.0000 0.0000 0.0000
# 4 0.0000 0.0000 0.0000 29.4193 0.0000 0.0000
# 5 0.0000 0.0000 0.0000 0.0000 -28.5297 0.0000
# 6 0.0000 0.0000 0.0000 0.0000 0.0000 12.7649
#
#
#
# Elastic Compliance Matrix: (Units=1/GPa)
#
#
# Indices 1 2 3 4 5 6 
#
# 1 0.014923 -0.008946 -0.007955 0.000000 0.000000 0.000000
# 2 -0.008946 0.029564 -0.008350 0.000000 0.000000 0.000000
# 3 -0.007955 -0.008350 0.032904 0.000000 0.000000 0.000000
# 4 0.000000 0.000000 0.000000 0.033991 0.000000 0.000000
# 5 0.000000 0.000000 0.000000 0.000000 -0.035051 0.000000
# 6 0.000000 0.000000 0.000000 0.000000 0.000000 0.078340
#
#
# Mechanical properties :
#
#
# Convention : Reuss Voigt Hill
#
# Bulk Modulus (GPa) = 37.18778 48.88639 43.03709
# Shear Modulus (GPa) = 23.34981 9.80146 16.57563
#
# Velocity S-wave (km/s) = 3.59514 2.32927 3.02907
# Velocity P-wave (km/s) = 6.14965 5.85615 6.00470
#
# Compressibility (1/GPa) = 0.02689055
#
# Stress axis : x y z
#
# Youngs Moduli (GPa) = 67.01076 33.82509 30.39156
#
# Poissons Ratio (x) = 0.30260 0.24175
# Poissons Ratio (y) = 0.59947 0.25375
# Poissons Ratio (z) = 0.53305 0.28242
#
# Static dielectric constant tensor:
#      x y z
#    x 1.766050 0.000000 0.000000 
#    y 0.000000 1.632440 0.000000 
#    z 0.000000 0.000000 1.607580 
# 
# From -- ./inp_files/14600.got.cif
#   From: 2010.05.17/outbox.cif.g08.bks.cpg/sg35_8_cif.got.tgz:14600.got - 2010.06.03 17:29:28.
