data_PCOD9348420
_publ_section_title
;
Structure prediction by ZEFSAII (Michael W. Deem and Ramdas Pophale) SiO2 
 PCOD9348420
Probable space group: C M M 2
;
_chemical_formula_sum "Si O2"
_cell_formula_units_Z 48
_cell_length_a 8.095552
_cell_length_b 18.654087
_cell_length_c 16.266967
_cell_angle_alpha 90.000000
_cell_angle_beta 90.000000
_cell_angle_gamma 90.000000
_cell_volume 2456.558158
_symmetry_space_group_name_H-M "C M M 2"
_symmetry_group_IT_number 35
_symmetry_cell_setting 'orthorhombic'
loop_
_space_group_symop_operation_xyz
x,y,z
-x,-y,z
-x,y,z
x,-y,z
1/2+x,1/2+y,z
1/2-x,1/2-y,z
1/2-x,1/2+y,z
1/2+x,1/2-y,z
loop_
_atom_site_type_symbol
_atom_site_label
_atom_site_fract_x
_atom_site_fract_y
_atom_site_fract_z
Si Si1 0.802488 0.667542 0.850370
Si Si2 0.801337 0.581519 0.691025
Si Si3 0.199327 0.081699 0.012039
Si Si4 0.699111 0.333448 0.351083
Si Si5 0.697980 0.666787 0.530254
Si Si6 0.300066 0.333250 0.171948
O O1 0.750000 0.750000 0.850943
O O2 0.738530 0.627010 0.768888
O O3 0.745247 0.626918 0.932022
O O4 0.000000 0.665272 0.848638
O O5 0.738300 0.500000 0.692702
O O6 0.760517 0.620650 0.606104
O O7 0.000000 0.578735 0.697813
O O8 0.000000 0.079601 0.016716
O O9 0.259873 0.000000 0.005860
O O10 0.260152 0.120730 0.094866
O O11 0.500000 0.338564 0.351269
O O12 0.750000 0.250000 0.350854
O O13 0.757235 0.360818 0.440178
O O14 0.756839 0.361103 0.262019
O O15 0.500000 0.664691 0.530646
O O16 0.750000 0.750000 0.539183
O O17 0.500000 0.335450 0.171824
O O18 0.250000 0.250000 0.163096
#
# Coordination Sequence:
#
# PCOD9348420 Si02
#       6
#     8   8   8   8   8   8
#     4  11  23  39  59  81 104 133 171 214 260 310
#     4  10  22  39  56  76 105 139 172 210 260 313
#     4  10  21  36  54  78 108 141 175 212 257 307
#     4   8  15  28  47  73 103 134 171 214 257 300
#     4  10  19  32  53  80 107 138 177 218 259 304
#     4   9  17  31  51  75 103 136 174 215 258 304
#
# _framework density 19.539534
#
# number of rings (size 3 to 8) (size 9 to 14) (size 15 to 20)
#    0.000    2.333    0.000    2.500    0.000    6.667 
#    0.000    0.833    0.000    3.000    0.000    0.000 
#    0.000    0.000    0.000    0.000    0.000    0.000 
#
# Total GULP energy -133872.292897 kJ/mol
# GULP energy per Si atom -5578.012204 kJ/mol
# Density = 1.949506 g / cm^3
# Si number density = 19.539534 Si / 1000 Ang^3
#
#
#
# Elastic Constant Matrix: (Units=GPa)
#
#
# Indices 1 2 3 4 5 6 
#
# 1 15.9010 9.7311 12.6164 0.0000 0.0000 0.0000
# 2 9.7311 137.6257 114.7202 0.0000 0.0000 0.0000
# 3 12.6164 114.7202 245.1656 0.0000 0.0000 0.0000
# 4 0.0000 0.0000 0.0000 -4.9786 0.0000 0.0000
# 5 0.0000 0.0000 0.0000 0.0000 5.4637 0.0000
# 6 0.0000 0.0000 0.0000 0.0000 0.0000 11.7690
#
#
#
# Elastic Compliance Matrix: (Units=1/GPa)
#
#
# Indices 1 2 3 4 5 6 
#
# 1 0.066325 -0.003024 -0.001998 0.000000 0.000000 0.000000
# 2 -0.003024 0.012050 -0.005483 0.000000 0.000000 0.000000
# 3 -0.001998 -0.005483 0.006747 0.000000 0.000000 0.000000
# 4 0.000000 0.000000 0.000000 -0.200860 0.000000 0.000000
# 5 0.000000 0.000000 0.000000 0.000000 0.183026 0.000000
# 6 0.000000 0.000000 0.000000 0.000000 0.000000 0.084969
#
#
# Mechanical properties :
#
#
# Convention : Reuss Voigt Hill
#
# Bulk Modulus (GPa) = 15.59765 74.75862 45.17813
# Shear Modulus (GPa) = 25.68860 19.89247 22.79054
#
# Velocity S-wave (km/s) = 3.62981 3.19417 3.41894
# Velocity P-wave (km/s) = 5.05641 7.20742 6.22552
#
# Compressibility (1/GPa) = 0.06411223
#
# Stress axis : x y z
#
# Youngs Moduli (GPa) = 15.07728 82.98426 148.20471
#
# Poissons Ratio (x) = 0.25095 0.29612
# Poissons Ratio (y) = 0.04560 0.81263
# Poissons Ratio (z) = 0.03013 0.45502
#
# Static dielectric constant tensor:
#      x y z
#    x 1.688710 0.000000 0.000000 
#    y 0.000000 1.634030 0.000000 
#    z 0.000000 0.000000 1.718070 
# 
# From -- ./inp_files/15103.got.cif
#   From: 2010.05.17/outbox.cif.g08.bks.cpg/sg35_8_cif.got.tgz:15103.got - 2010.06.03 17:29:28.
