data_PCOD9348858
_publ_section_title
;
Structure prediction by ZEFSAII (Michael W. Deem and Ramdas Pophale) SiO2 
 PCOD9348858
Probable space group: C M M 2
;
_chemical_formula_sum "Si O2"
_cell_formula_units_Z 48
_cell_length_a 8.211378
_cell_length_b 16.426782
_cell_length_c 17.345504
_cell_angle_alpha 90.000000
_cell_angle_beta 90.000000
_cell_angle_gamma 90.000000
_cell_volume 2339.674608
_symmetry_space_group_name_H-M "C M M 2"
_symmetry_group_IT_number 35
_symmetry_cell_setting 'orthorhombic'
loop_
_space_group_symop_operation_xyz
x,y,z
-x,-y,z
-x,y,z
x,-y,z
1/2+x,1/2+y,z
1/2-x,1/2-y,z
1/2-x,1/2+y,z
1/2+x,1/2-y,z
loop_
_atom_site_type_symbol
_atom_site_label
_atom_site_fract_x
_atom_site_fract_y
_atom_site_fract_z
Si Si1 0.196781 0.657053 0.273770
Si Si2 0.696761 0.908376 0.109154
Si Si3 0.306620 0.337949 0.953234
Si Si4 0.300466 0.500000 0.865303
Si Si5 0.698602 0.906883 0.438975
Si Si6 0.805215 0.000000 0.687414
Si Si7 0.805659 0.338169 0.598091
O O1 0.250000 0.750000 0.271089
O O2 0.252979 0.614344 0.195074
O O3 0.255723 0.619005 0.354245
O O4 0.000000 0.651690 0.274282
O O5 0.500000 0.906746 0.109281
O O6 0.751180 0.000000 0.090199
O O7 0.756475 0.849359 0.042280
O O8 0.500000 0.339604 0.948409
O O9 0.250000 0.250000 0.924169
O O10 0.243505 0.417388 0.907491
O O11 0.500000 0.500000 0.867908
O O12 0.250353 0.500000 0.776292
O O13 0.500000 0.903915 0.437758
O O14 0.755320 0.851630 0.509966
O O15 0.745069 0.000000 0.454876
O O16 0.747830 0.082617 0.645814
O O17 0.000000 0.000000 0.686264
O O18 0.750000 0.250000 0.627506
O O19 0.000000 0.338177 0.596527
#
# Coordination Sequence:
#
# PCOD9348858 Si02
#       7
#     8   8   8   4   8   4   8
#     4  10  20  33  51  77 112 153 197 244 290 341
#     4  10  20  35  56  84 115 152 200 246 292 347
#     4  11  22  40  63  89 119 156 196 240 295 354
#     4   9  22  43  65  88 119 154 192 241 301 359
#     4   9  17  33  57  81 111 154 200 245 293 346
#     4  11  23  43  67  92 123 156 196 251 307 365
#     4  11  22  39  63  93 125 162 205 248 301 362
#
# _framework density 20.515674000000001
#
# number of rings (size 3 to 8) (size 9 to 14) (size 15 to 20)
#    0.000    1.833    1.667    2.750    0.000    4.667 
#    0.000    5.833    0.000    1.000    0.000    0.000 
#    0.000    0.000    0.000    0.000    0.000    0.000 
#
# Total GULP energy -134050.362950 kJ/mol
# GULP energy per Si atom -5585.431790 kJ/mol
# Density = 2.046898 g / cm^3
# Si number density = 20.515674 Si / 1000 Ang^3
#
#
#
# Elastic Constant Matrix: (Units=GPa)
#
#
# Indices 1 2 3 4 5 6 
#
# 1 22.9856 18.1947 18.1889 0.0000 0.0000 0.0000
# 2 18.1947 171.8434 67.3943 0.0000 0.0000 0.0000
# 3 18.1889 67.3943 130.8774 0.0000 0.0000 0.0000
# 4 0.0000 0.0000 0.0000 16.9521 0.0000 0.0000
# 5 0.0000 0.0000 0.0000 0.0000 20.1108 0.0000
# 6 0.0000 0.0000 0.0000 0.0000 0.0000 31.5453
#
#
#
# Elastic Compliance Matrix: (Units=1/GPa)
#
#
# Indices 1 2 3 4 5 6 
#
# 1 0.050278 -0.003237 -0.005321 0.000000 0.000000 0.000000
# 2 -0.003237 0.007500 -0.003412 0.000000 0.000000 0.000000
# 3 -0.005321 -0.003412 0.010137 0.000000 0.000000 0.000000
# 4 0.000000 0.000000 0.000000 0.058990 0.000000 0.000000
# 5 0.000000 0.000000 0.000000 0.000000 0.049724 0.000000
# 6 0.000000 0.000000 0.000000 0.000000 0.000000 0.031700
#
#
# Mechanical properties :
#
#
# Convention : Reuss Voigt Hill
#
# Bulk Modulus (GPa) = 22.73968 59.25133 40.99551
# Shear Modulus (GPa) = 20.24877 28.51688 24.38282
#
# Velocity S-wave (km/s) = 3.14505 3.73232 3.45120
# Velocity P-wave (km/s) = 4.92915 6.89328 5.99224
#
# Compressibility (1/GPa) = 0.04397599
#
# Stress axis : x y z
#
# Youngs Moduli (GPa) = 19.88942 133.32941 98.64502
#
# Poissons Ratio (x) = 0.43155 0.52487
# Poissons Ratio (y) = 0.06438 0.33661
# Poissons Ratio (z) = 0.10583 0.45497
#
# Static dielectric constant tensor:
#      x y z
#    x 1.714310 0.000000 0.000000 
#    y 0.000000 1.686490 0.000000 
#    z 0.000000 0.000000 1.741740 
# 
# From -- ./inp_files/17835.got.cif
#   From: 2010.05.17/outbox.cif.g08.bks.cpg/sg35_9_cif.got.tgz:17835.got - 2010.06.03 17:29:28.
