data_PCOD9348684
_publ_section_title
;
Structure prediction by ZEFSAII (Michael W. Deem and Ramdas Pophale) SiO2 
 PCOD9348684
Probable space group: C M M 2
;
_chemical_formula_sum "Si O2"
_cell_formula_units_Z 64
_cell_length_a 14.890890
_cell_length_b 19.829570
_cell_length_c 10.081940
_cell_angle_alpha 90.000000
_cell_angle_beta 90.000000
_cell_angle_gamma 90.000000
_cell_volume 2976.994695
_symmetry_space_group_name_H-M "C M M 2"
_symmetry_group_IT_number 35
_symmetry_cell_setting 'orthorhombic'
loop_
_space_group_symop_operation_xyz
x,y,z
-x,-y,z
-x,y,z
x,-y,z
1/2+x,1/2+y,z
1/2-x,1/2-y,z
1/2-x,1/2+y,z
1/2+x,1/2-y,z
loop_
_atom_site_type_symbol
_atom_site_label
_atom_site_fract_x
_atom_site_fract_y
_atom_site_fract_z
Si Si1 0.604267 0.072874 0.398130
Si Si2 0.814946 0.423598 0.124324
Si Si3 0.687530 0.315729 0.259387
Si Si4 0.894818 0.802203 0.985181
Si Si5 0.890012 0.922695 0.797237
Si Si6 0.391330 0.664335 0.544818
Si Si7 0.390715 0.816779 0.595478
Si Si8 0.391220 0.842618 0.885511
O O1 0.500000 0.070321 0.436451
O O2 0.610017 0.078718 0.240168
O O3 0.642677 0.137737 0.473532
O O4 0.645999 0.000000 0.433931
O O5 0.783143 0.500000 0.111429
O O6 0.742252 0.374836 0.188554
O O7 0.851789 0.395478 0.987601
O O8 0.750000 0.250000 0.280071
O O9 0.616901 0.298403 0.143192
O O10 0.645269 0.341107 0.396027
O O11 0.000000 0.801787 0.952829
O O12 0.859677 0.869473 0.911063
O O13 0.858496 0.732101 0.927282
O O14 0.864162 0.890476 0.654908
O O15 0.000000 0.924581 0.800492
O O16 0.859256 0.000000 0.814498
O O17 0.500000 0.662904 0.539749
O O18 0.362137 0.739162 0.591847
O O19 0.500000 0.813315 0.590434
O O20 0.365883 0.852029 0.732829
O O21 0.500000 0.844374 0.894462
#
# Coordination Sequence:
#
# PCOD9348684 Si02
#       8
#     8   8   8   8   8   8   8   8
#     4   9  18  34  56  82 114 154 196 238 287 342
#     4  11  24  40  56  81 122 165 200 238 288 348
#     4  12  24  39  58  85 119 161 200 243 290 346
#     4  10  20  38  63  90 115 147 195 246 296 351
#     4   9  18  36  63  91 117 146 187 246 309 358
#     4  10  20  37  61  89 116 148 195 247 297 352
#     4   9  17  31  57  90 117 142 186 247 298 345
#     4  10  19  35  61  90 118 151 193 242 294 349
#
# _framework density 21.498192
#
# number of rings (size 3 to 8) (size 9 to 14) (size 15 to 20)
#    0.000    2.000    2.500    1.500    0.000    2.250 
#    0.000    4.375    0.000    3.750    0.000    0.000 
#    0.000    0.000    0.000    0.000    0.000    0.000 
#
# Total GULP energy -178688.959046 kJ/mol
# GULP energy per Si atom -5584.029970 kJ/mol
# Density = 2.144926 g / cm^3
# Si number density = 21.498192 Si / 1000 Ang^3
#
#
#
# Elastic Constant Matrix: (Units=GPa)
#
#
# Indices 1 2 3 4 5 6 
#
# 1 32.0022 12.9597 3.9912 0.0000 0.0000 0.0000
# 2 12.9597 105.8707 13.4224 0.0000 0.0000 0.0000
# 3 3.9912 13.4224 98.3185 0.0000 0.0000 0.0000
# 4 0.0000 0.0000 0.0000 35.9442 0.0000 0.0000
# 5 0.0000 0.0000 0.0000 0.0000 9.6953 0.0000
# 6 0.0000 0.0000 0.0000 0.0000 0.0000 16.0976
#
#
#
# Elastic Compliance Matrix: (Units=1/GPa)
#
#
# Indices 1 2 3 4 5 6 
#
# 1 0.032939 -0.003931 -0.000801 0.000000 0.000000 0.000000
# 2 -0.003931 0.010081 -0.001217 0.000000 0.000000 0.000000
# 3 -0.000801 -0.001217 0.010370 0.000000 0.000000 0.000000
# 4 0.000000 0.000000 0.000000 0.027821 0.000000 0.000000
# 5 0.000000 0.000000 0.000000 0.000000 0.103143 0.000000
# 6 0.000000 0.000000 0.000000 0.000000 0.000000 0.062121
#
#
# Mechanical properties :
#
#
# Convention : Reuss Voigt Hill
#
# Bulk Modulus (GPa) = 24.09977 32.99313 28.54645
# Shear Modulus (GPa) = 18.36872 26.06862 22.21867
#
# Velocity S-wave (km/s) = 2.92624 3.48601 3.21832
# Velocity P-wave (km/s) = 4.75937 5.61990 5.20744
#
# Compressibility (1/GPa) = 0.04149417
#
# Stress axis : x y z
#
# Youngs Moduli (GPa) = 30.35876 99.19758 96.43554
#
# Poissons Ratio (x) = 0.38991 0.07720
# Poissons Ratio (y) = 0.11933 0.11733
# Poissons Ratio (z) = 0.02430 0.12069
#
# Static dielectric constant tensor:
#      x y z
#    x 1.835450 0.000000 0.000000 
#    y 0.000000 1.780910 0.000000 
#    z 0.000000 0.000000 1.768110 
# 
# From -- ./inp_files/8765.got.cif
#   From: 2010.05.17/outbox.cif.g08.bks.cpg/sg35_5_cif.got.tgz:8765.got - 2010.06.03 17:29:28.
