data_PCOD9348404
_publ_section_title
;
Structure prediction by ZEFSAII (Michael W. Deem and Ramdas Pophale) SiO2 
 PCOD9348404
Probable space group: C M M 2
;
_chemical_formula_sum "Si O2"
_cell_formula_units_Z 64
_cell_length_a 29.801434
_cell_length_b 8.901802
_cell_length_c 12.607297
_cell_angle_alpha 90.000000
_cell_angle_beta 90.000000
_cell_angle_gamma 90.000000
_cell_volume 3344.545252
_symmetry_space_group_name_H-M "C M M 2"
_symmetry_group_IT_number 35
_symmetry_cell_setting 'orthorhombic'
loop_
_space_group_symop_operation_xyz
x,y,z
-x,-y,z
-x,y,z
x,-y,z
1/2+x,1/2+y,z
1/2-x,1/2-y,z
1/2-x,1/2+y,z
1/2+x,1/2-y,z
loop_
_atom_site_type_symbol
_atom_site_label
_atom_site_fract_x
_atom_site_fract_y
_atom_site_fract_z
Si Si1 0.109418 0.681185 0.844960
Si Si2 0.703365 0.180317 0.938902
Si Si3 0.950588 0.674296 0.040427
Si Si4 0.552615 0.680306 0.653576
Si Si5 0.081124 0.830149 0.240221
Si Si6 0.816188 0.827145 0.167338
Si Si7 0.104395 0.678900 0.455944
Si Si8 0.795420 0.320190 0.391711
O O1 0.105681 0.500000 0.834075
O O2 0.161640 0.718773 0.862166
O O3 0.082397 0.757011 0.750286
O O4 0.085266 0.725498 0.954717
O O5 0.750000 0.250000 0.900796
O O6 0.705935 0.000000 0.946397
O O7 0.694643 0.246462 0.056910
O O8 0.940901 0.500000 0.066597
O O9 0.949499 0.766882 0.147745
O O10 0.000000 0.682083 0.991103
O O11 0.500000 0.727575 0.659803
O O12 0.553477 0.500000 0.654594
O O13 0.576688 0.740823 0.547860
O O14 0.130515 0.830508 0.187268
O O15 0.083637 0.726536 0.343131
O O16 0.069666 0.000000 0.271337
O O17 0.798659 0.740638 0.271020
O O18 0.799663 0.000000 0.165422
O O19 0.102299 0.500000 0.470090
O O20 0.157466 0.722160 0.448501
O O21 0.792450 0.500000 0.390759
O O22 0.750000 0.250000 0.438993
#
# Coordination Sequence:
#
# PCOD9348404 Si02
#       8
#     8   8   8   8   8   8   8   8
#     4  10  22  41  64  87 117 156 200 247 293 351
#     4  11  22  36  57  85 119 158 200 245 292 346
#     4  10  20  35  57  85 117 154 195 239 292 356
#     4  11  25  44  67  93 118 148 192 249 307 359
#     4  10  20  34  55  84 121 159 194 241 297 350
#     4  10  19  32  52  80 117 161 202 241 287 342
#     4  10  22  40  63  88 117 155 201 247 292 352
#     4  10  20  34  55  85 120 158 200 243 289 345
#
# _framework density 19.135635000000001
#
# number of rings (size 3 to 8) (size 9 to 14) (size 15 to 20)
#    0.000    1.750    1.250    3.000    0.000    6.250 
#    0.000    0.625    0.000    0.000    0.000    0.000 
#    0.000    0.000    0.000    0.000    0.000    0.000 
#
# Total GULP energy -178678.777855 kJ/mol
# GULP energy per Si atom -5583.711808 kJ/mol
# Density = 1.909208 g / cm^3
# Si number density = 19.135635 Si / 1000 Ang^3
#
#
#
# Elastic Constant Matrix: (Units=GPa)
#
#
# Indices 1 2 3 4 5 6 
#
# 1 145.4622 54.0055 74.9530 0.0000 0.0000 0.0000
# 2 54.0055 64.7544 35.2855 0.0000 0.0000 0.0000
# 3 74.9530 35.2855 89.3101 0.0000 0.0000 0.0000
# 4 0.0000 0.0000 0.0000 13.7728 0.0000 0.0000
# 5 0.0000 0.0000 0.0000 0.0000 17.0435 0.0000
# 6 0.0000 0.0000 0.0000 0.0000 0.0000 13.7771
#
#
#
# Elastic Compliance Matrix: (Units=1/GPa)
#
#
# Indices 1 2 3 4 5 6 
#
# 1 0.014115 -0.006776 -0.009169 0.000000 0.000000 0.000000
# 2 -0.006776 0.022932 -0.003374 0.000000 0.000000 0.000000
# 3 -0.009169 -0.003374 0.020225 0.000000 0.000000 0.000000
# 4 0.000000 0.000000 0.000000 0.072607 0.000000 0.000000
# 5 0.000000 0.000000 0.000000 0.000000 0.058673 0.000000
# 6 0.000000 0.000000 0.000000 0.000000 0.000000 0.072584
#
#
# Mechanical properties :
#
#
# Convention : Reuss Voigt Hill
#
# Bulk Modulus (GPa) = 53.66166 69.77942 61.72054
# Shear Modulus (GPa) = 16.34074 17.93754 17.13914
#
# Velocity S-wave (km/s) = 2.92540 3.06500 2.99602
# Velocity P-wave (km/s) = 6.28604 7.00503 6.65525
#
# Compressibility (1/GPa) = 0.01863528
#
# Stress axis : x y z
#
# Youngs Moduli (GPa) = 70.84907 43.60656 49.44459
#
# Poissons Ratio (x) = 0.29546 0.45334
# Poissons Ratio (y) = 0.48004 0.16683
# Poissons Ratio (z) = 0.64959 0.14713
#
# Static dielectric constant tensor:
#      x y z
#    x 1.717800 0.000000 0.000000 
#    y 0.000000 1.661130 0.000000 
#    z 0.000000 0.000000 1.627310 
# 
# From -- ./inp_files/14550.got.cif
#   From: 2010.05.17/outbox.cif.g08.bks.cpg/sg35_8_cif.got.tgz:14550.got - 2010.06.03 17:29:28.
