data_PCOD9348726
_publ_section_title
;
Structure prediction by ZEFSAII (Michael W. Deem and Ramdas Pophale) SiO2 
 PCOD9348726
Probable space group: C M M 2
;
_chemical_formula_sum "Si O2"
_cell_formula_units_Z 48
_cell_length_a 7.700693
_cell_length_b 15.674375
_cell_length_c 19.847238
_cell_angle_alpha 90.000000
_cell_angle_beta 90.000000
_cell_angle_gamma 90.000000
_cell_volume 2395.632081
_symmetry_space_group_name_H-M "C M M 2"
_symmetry_group_IT_number 35
_symmetry_cell_setting 'orthorhombic'
loop_
_space_group_symop_operation_xyz
x,y,z
-x,-y,z
-x,y,z
x,-y,z
1/2+x,1/2+y,z
1/2-x,1/2-y,z
1/2-x,1/2+y,z
1/2+x,1/2-y,z
loop_
_atom_site_type_symbol
_atom_site_label
_atom_site_fract_x
_atom_site_fract_y
_atom_site_fract_z
Si Si1 0.291713 0.851178 0.905030
Si Si2 0.799714 0.000000 0.664553
Si Si3 0.792547 0.654002 0.410421
Si Si4 0.500000 0.599261 0.155454
Si Si5 0.708052 0.000000 0.508810
Si Si6 0.297174 0.151742 0.759664
Si Si7 0.500000 0.396557 0.306703
Si Si8 0.291810 0.149458 0.051426
O O1 0.500000 0.862609 0.907593
O O2 0.250000 0.750000 0.904391
O O3 0.221381 0.879941 0.832056
O O4 0.233911 0.886090 0.977777
O O5 0.730981 0.085332 0.700135
O O6 0.772791 0.000000 0.584846
O O7 0.000000 0.000000 0.679726
O O8 0.750000 0.750000 0.433316
O O9 0.742236 0.583894 0.466495
O O10 0.671230 0.635154 0.346181
O O11 0.000000 0.646295 0.397003
O O12 0.500000 0.500000 0.168316
O O13 0.500000 0.638383 0.230262
O O14 0.670994 0.618202 0.111599
O O15 0.500000 0.000000 0.512580
O O16 0.500000 0.154375 0.772042
O O17 0.250000 0.250000 0.744760
O O18 0.500000 0.500000 0.309419
O O19 0.500000 0.136441 0.060842
O O20 0.250000 0.250000 0.047853
#
# Coordination Sequence:
#
# PCOD9348726 Si02
#       8
#     8   4   8   4   4   8   4   8
#     4   8  16  30  56  84 110 159 210 259 315 362
#     4  12  26  40  60  94 128 167 208 248 315 377
#     4  11  23  42  70 102 129 164 214 256 308 378
#     4  11  26  42  58  94 128 170 205 256 332 372
#     4  10  24  44  68  94 128 165 202 255 312 368
#     4  10  20  39  61  86 125 163 211 266 313 371
#     4  11  24  44  68  89 133 173 206 258 320 375
#     4  10  19  38  62  88 122 164 217 265 313 377
#
# _framework density 20.036466000000001
#
# number of rings (size 3 to 8) (size 9 to 14) (size 15 to 20)
#    0.000    1.833    2.500    1.250    2.333    3.000 
#    1.500    3.333    0.000    0.000    0.000    0.000 
#    0.000    0.000    0.000    0.000    0.000    0.000 
#
# Total GULP energy -133792.276422 kJ/mol
# GULP energy per Si atom -5574.678184 kJ/mol
# Density = 1.999086 g / cm^3
# Si number density = 20.036466 Si / 1000 Ang^3
#
#
#
# Elastic Constant Matrix: (Units=GPa)
#
#
# Indices 1 2 3 4 5 6 
#
# 1 90.2971 19.8762 46.6012 0.0000 0.0000 0.0000
# 2 19.8762 96.8737 56.9960 0.0000 0.0000 0.0000
# 3 46.6012 56.9960 153.3303 0.0000 0.0000 0.0000
# 4 0.0000 0.0000 0.0000 27.9325 0.0000 0.0000
# 5 0.0000 0.0000 0.0000 0.0000 25.7407 0.0000
# 6 0.0000 0.0000 0.0000 0.0000 0.0000 15.7622
#
#
#
# Elastic Compliance Matrix: (Units=1/GPa)
#
#
# Indices 1 2 3 4 5 6 
#
# 1 0.013150 -0.000444 -0.003832 0.000000 0.000000 0.000000
# 2 -0.000444 0.013227 -0.004782 0.000000 0.000000 0.000000
# 3 -0.003832 -0.004782 0.009464 0.000000 0.000000 0.000000
# 4 0.000000 0.000000 0.000000 0.035801 0.000000 0.000000
# 5 0.000000 0.000000 0.000000 0.000000 0.038849 0.000000
# 6 0.000000 0.000000 0.000000 0.000000 0.000000 0.063443
#
#
# Mechanical properties :
#
#
# Convention : Reuss Voigt Hill
#
# Bulk Modulus (GPa) = 56.41325 65.27200 60.84262
# Shear Modulus (GPa) = 25.25801 28.35557 26.80679
#
# Velocity S-wave (km/s) = 3.55435 3.76599 3.66170
# Velocity P-wave (km/s) = 6.71274 7.18036 6.95049
#
# Compressibility (1/GPa) = 0.01772633
#
# Stress axis : x y z
#
# Youngs Moduli (GPa) = 76.04753 75.60145 105.66394
#
# Poissons Ratio (x) = 0.03354 0.40486
# Poissons Ratio (y) = 0.03374 0.50528
# Poissons Ratio (z) = 0.29139 0.36153
#
# Static dielectric constant tensor:
#      x y z
#    x 1.713770 0.000000 0.000000 
#    y 0.000000 1.689640 0.000000 
#    z 0.000000 0.000000 1.758280 
# 
# From -- ./inp_files/17973.got.cif
#   From: 2010.05.17/outbox.cif.g08.bks.cpg/sg35_9_cif.got.tgz:17973.got - 2010.06.03 17:29:28.
