data_PCOD9348433
_publ_section_title
;
Structure prediction by ZEFSAII (Michael W. Deem and Ramdas Pophale) SiO2 
 PCOD9348433
Probable space group: C M M 2
;
_chemical_formula_sum "Si O2"
_cell_formula_units_Z 48
_cell_length_a 15.126855
_cell_length_b 14.630138
_cell_length_c 10.268198
_cell_angle_alpha 90.000000
_cell_angle_beta 90.000000
_cell_angle_gamma 90.000000
_cell_volume 2272.434118
_symmetry_space_group_name_H-M "C M M 2"
_symmetry_group_IT_number 35
_symmetry_cell_setting 'orthorhombic'
loop_
_space_group_symop_operation_xyz
x,y,z
-x,-y,z
-x,y,z
x,-y,z
1/2+x,1/2+y,z
1/2-x,1/2-y,z
1/2-x,1/2+y,z
1/2+x,1/2-y,z
loop_
_atom_site_type_symbol
_atom_site_label
_atom_site_fract_x
_atom_site_fract_y
_atom_site_fract_z
Si Si1 0.105875 0.102490 0.520370
Si Si2 0.399663 0.101075 0.817313
Si Si3 0.369538 0.101612 0.118675
Si Si4 0.838934 0.895831 0.048589
Si Si5 0.108354 0.799910 0.782812
Si Si6 0.645262 0.271059 0.279310
O O1 0.135093 0.136576 0.662420
O O2 0.125793 0.180865 0.415339
O O3 0.000000 0.095909 0.525524
O O4 0.140400 0.000000 0.488089
O O5 0.500000 0.095937 0.766331
O O6 0.359975 0.195052 0.763770
O O7 0.357865 0.000000 0.797484
O O8 0.406043 0.116041 0.973333
O O9 0.264393 0.104065 0.087837
O O10 0.394087 0.176077 0.226073
O O11 0.392881 0.000000 0.162184
O O12 0.882412 0.844009 0.169161
O O13 0.868839 0.000000 0.032850
O O14 0.854905 0.840265 0.917010
O O15 0.000000 0.798660 0.791013
O O16 0.750000 0.250000 0.278089
#
# Coordination Sequence:
#
# PCOD9348433 Si02
#       6
#     8   8   8   8   8   8
#     4  10  22  40  59  81 116 155 189 232 286 337
#     4   9  17  31  52  78 108 140 176 224 278 328
#     4   9  18  33  54  80 110 141 178 228 280 324
#     4  10  19  32  54  81 110 140 180 231 278 328
#     4  10  20  35  56  82 111 146 186 231 282 333
#     4  10  20  36  54  81 111 151 185 230 277 334
#
# _framework density 21.122723000000001
#
# number of rings (size 3 to 8) (size 9 to 14) (size 15 to 20)
#    0.000    2.333    1.667    1.000    0.000    3.000 
#    3.000    0.833    0.000    1.000    0.000    0.000 
#    0.000    0.000    0.000    0.000    0.000    0.000 
#
# Total GULP energy -133840.057110 kJ/mol
# GULP energy per Si atom -5576.669046 kJ/mol
# Density = 2.107465 g / cm^3
# Si number density = 21.122723 Si / 1000 Ang^3
#
#
#
# Elastic Constant Matrix: (Units=GPa)
#
#
# Indices 1 2 3 4 5 6 
#
# 1 27.2972 20.2266 3.4501 0.0000 0.0000 0.0000
# 2 20.2266 158.2286 31.0721 0.0000 0.0000 0.0000
# 3 3.4501 31.0721 81.0403 0.0000 0.0000 0.0000
# 4 0.0000 0.0000 0.0000 23.9563 0.0000 0.0000
# 5 0.0000 0.0000 0.0000 0.0000 15.5095 0.0000
# 6 0.0000 0.0000 0.0000 0.0000 0.0000 6.6232
#
#
#
# Elastic Compliance Matrix: (Units=1/GPa)
#
#
# Indices 1 2 3 4 5 6 
#
# 1 0.040473 -0.005229 0.000282 0.000000 0.000000 0.000000
# 2 -0.005229 0.007510 -0.002657 0.000000 0.000000 0.000000
# 3 0.000282 -0.002657 0.013346 0.000000 0.000000 0.000000
# 4 0.000000 0.000000 0.000000 0.041743 0.000000 0.000000
# 5 0.000000 0.000000 0.000000 0.000000 0.064477 0.000000
# 6 0.000000 0.000000 0.000000 0.000000 0.000000 0.150985
#
#
# Mechanical properties :
#
#
# Convention : Reuss Voigt Hill
#
# Bulk Modulus (GPa) = 21.68209 41.78486 31.73347
# Shear Modulus (GPa) = 14.32192 23.33894 18.83043
#
# Velocity S-wave (km/s) = 2.60673 3.32764 2.98900
# Velocity P-wave (km/s) = 4.39854 5.88125 5.19309
#
# Compressibility (1/GPa) = 0.04612102
#
# Stress axis : x y z
#
# Youngs Moduli (GPa) = 24.70795 133.15296 74.92750
#
# Poissons Ratio (x) = 0.69627 -0.02112
# Poissons Ratio (y) = 0.12920 0.19907
# Poissons Ratio (z) = -0.00696 0.35377
#
# Static dielectric constant tensor:
#      x y z
#    x 1.833170 0.000000 0.000000 
#    y 0.000000 1.821200 0.000000 
#    z 0.000000 0.000000 1.709320 
# 
# From -- ./inp_files/7305.got.cif
#   From: 2010.05.17/outbox.cif.g08.bks.cpg/sg35_4_cif.got.tgz:7305.got - 2010.06.03 17:29:28.
