data_PCOD9348091
_publ_section_title
;
Structure prediction by ZEFSAII (Michael W. Deem and Ramdas Pophale) SiO2 
 PCOD9348091
Probable space group: C M M 2
;
_chemical_formula_sum "Si O2"
_cell_formula_units_Z 32
_cell_length_a 8.627561
_cell_length_b 14.895534
_cell_length_c 12.628277
_cell_angle_alpha 90.000000
_cell_angle_beta 90.000000
_cell_angle_gamma 90.000000
_cell_volume 1622.886753
_symmetry_space_group_name_H-M "C M M 2"
_symmetry_group_IT_number 35
_symmetry_cell_setting 'orthorhombic'
loop_
_space_group_symop_operation_xyz
x,y,z
-x,-y,z
-x,y,z
x,-y,z
1/2+x,1/2+y,z
1/2-x,1/2-y,z
1/2-x,1/2+y,z
1/2+x,1/2-y,z
loop_
_atom_site_type_symbol
_atom_site_label
_atom_site_fract_x
_atom_site_fract_y
_atom_site_fract_z
Si Si1 0.814732 0.647966 0.444520
Si Si2 0.314375 0.649475 0.665235
Si Si3 0.814826 0.148845 0.223012
Si Si4 0.314009 0.500000 0.836069
Si Si5 0.315883 0.000000 0.070333
O O1 0.750000 0.750000 0.446090
O O2 0.755584 0.610418 0.556045
O O3 0.747794 0.610506 0.335096
O O4 0.000000 0.647547 0.441061
O O5 0.500000 0.653367 0.653493
O O6 0.250000 0.750000 0.680252
O O7 0.276150 0.586414 0.764126
O O8 0.750000 0.250000 0.211537
O O9 0.755599 0.086402 0.128902
O O10 0.000000 0.151636 0.226075
O O11 0.500000 0.500000 0.854143
O O12 0.228923 0.500000 0.947451
O O13 0.500000 0.000000 0.083907
#
# Coordination Sequence:
#
# PCOD9348091 Si02
#       5
#     8   8   8   4   4
#     4  10  18  32  56  88 122 153 191 237 291 352
#     4  10  20  37  60  86 117 153 193 238 293 351
#     4  11  22  40  64  90 122 158 197 243 298 354
#     4  10  24  43  60  81 114 155 199 245 293 348
#     4  12  26  43  62  87 118 155 203 251 297 352
#
# _framework density 19.717950999999999
#
# number of rings (size 3 to 8) (size 9 to 14) (size 15 to 20)
#    0.000    1.500    0.000    9.375    0.000    4.000 
#    0.000    6.250    0.000    0.000    0.000    0.000 
#    0.000    0.000    0.000    0.000    0.000    0.000 
#
# Total GULP energy -89444.128389 kJ/mol
# GULP energy per Si atom -5590.258024 kJ/mol
# Density = 1.967307 g / cm^3
# Si number density = 19.717951 Si / 1000 Ang^3
#
#
#
# Elastic Constant Matrix: (Units=GPa)
#
#
# Indices 1 2 3 4 5 6 
#
# 1 181.9864 54.5729 97.7646 0.0000 0.0000 0.0000
# 2 54.5729 109.6651 70.6408 0.0000 0.0000 0.0000
# 3 97.7646 70.6408 180.1588 0.0000 0.0000 0.0000
# 4 0.0000 0.0000 0.0000 28.8514 0.0000 0.0000
# 5 0.0000 0.0000 0.0000 0.0000 39.4399 0.0000
# 6 0.0000 0.0000 0.0000 0.0000 0.0000 21.6889
#
#
#
# Elastic Compliance Matrix: (Units=1/GPa)
#
#
# Indices 1 2 3 4 5 6 
#
# 1 0.007954 -0.001576 -0.003699 0.000000 0.000000 0.000000
# 2 -0.001576 0.012512 -0.004051 0.000000 0.000000 0.000000
# 3 -0.003699 -0.004051 0.009146 0.000000 0.000000 0.000000
# 4 0.000000 0.000000 0.000000 0.034660 0.000000 0.000000
# 5 0.000000 0.000000 0.000000 0.000000 0.025355 0.000000
# 6 0.000000 0.000000 0.000000 0.000000 0.000000 0.046106
#
#
# Mechanical properties :
#
#
# Convention : Reuss Voigt Hill
#
# Bulk Modulus (GPa) = 91.22475 101.97411 96.59943
# Shear Modulus (GPa) = 31.63764 34.58485 33.11124
#
# Velocity S-wave (km/s) = 4.00998 4.19260 4.10230
# Velocity P-wave (km/s) = 8.23439 8.67559 8.45786
#
# Compressibility (1/GPa) = 0.01096194
#
# Stress axis : x y z
#
# Youngs Moduli (GPa) = 125.71645 79.92129 109.33602
#
# Poissons Ratio (x) = 0.12595 0.40439
# Poissons Ratio (y) = 0.19812 0.44291
# Poissons Ratio (z) = 0.46498 0.32376
#
# Static dielectric constant tensor:
#      x y z
#    x 1.656070 0.000000 0.000000 
#    y 0.000000 1.683710 0.000000 
#    z 0.000000 0.000000 1.694530 
# 
# From -- ./inp_files/10822.got.cif
#   From: 2010.05.17/outbox.cif.g08.bks.cpg/sg35_6_cif.got.tgz:10822.got - 2010.06.03 17:29:28.
