data_PCOD9348108
_publ_section_title
;
Structure prediction by ZEFSAII (Michael W. Deem and Ramdas Pophale) SiO2 
 PCOD9348108
Probable space group: C M M 2
;
_chemical_formula_sum "Si O2"
_cell_formula_units_Z 56
_cell_length_a 14.893768
_cell_length_b 22.912460
_cell_length_c 9.315959
_cell_angle_alpha 90.000000
_cell_angle_beta 90.000000
_cell_angle_gamma 90.000000
_cell_volume 3179.097685
_symmetry_space_group_name_H-M "C M M 2"
_symmetry_group_IT_number 35
_symmetry_cell_setting 'orthorhombic'
loop_
_space_group_symop_operation_xyz
x,y,z
-x,-y,z
-x,y,z
x,-y,z
1/2+x,1/2+y,z
1/2-x,1/2-y,z
1/2-x,1/2+y,z
1/2+x,1/2-y,z
loop_
_atom_site_type_symbol
_atom_site_label
_atom_site_fract_x
_atom_site_fract_y
_atom_site_fract_z
Si Si1 0.774771 0.113721 0.860340
Si Si2 0.399295 0.738366 0.562297
Si Si3 0.101161 0.000000 0.517869
Si Si4 0.895168 0.000000 0.865145
Si Si5 0.604074 0.847013 0.031136
Si Si6 0.105524 0.774499 0.872298
Si Si7 0.687834 0.378984 0.525422
Si Si8 0.802941 0.695290 0.305974
O O1 0.835806 0.057419 0.900462
O O2 0.832106 0.170777 0.907265
O O3 0.767693 0.115371 0.684883
O O4 0.678087 0.117592 0.938108
O O5 0.500000 0.758801 0.565472
O O6 0.360313 0.750462 0.719063
O O7 0.390970 0.668569 0.548034
O O8 0.354226 0.769731 0.430530
O O9 0.097515 0.000000 0.691689
O O10 0.152049 0.941283 0.478204
O O11 0.000000 0.000000 0.462061
O O12 0.000000 0.000000 0.917758
O O13 0.500000 0.866919 0.018647
O O14 0.637602 0.840399 0.194272
O O15 0.606888 0.779998 0.976719
O O16 0.000000 0.793071 0.856397
O O17 0.744956 0.350092 0.398848
O O18 0.750000 0.750000 0.232418
#
# Coordination Sequence:
#
# PCOD9348108 Si02
#       8
#     8   8   4   4   8   8   8   8
#     4  10  18  33  53  76 105 133 163 207 248 294
#     4   9  16  28  47  74 103 129 158 197 244 300
#     4   9  16  30  53  81 106 126 154 195 239 297
#     4   9  18  32  56  85 106 128 161 199 248 301
#     4  11  22  34  49  71  98 136 177 211 251 295
#     4   9  17  29  50  78 106 133 163 200 249 303
#     4   9  18  30  50  75 100 130 162 196 247 296
#     4  10  19  31  47  69  99 133 167 207 250 293
#
# _framework density 17.615061000000001
#
# number of rings (size 3 to 8) (size 9 to 14) (size 15 to 20)
#    0.000    2.429    0.000    3.429    0.000    5.714 
#    0.000    1.786    0.000    3.429    0.000    3.500 
#    0.000    0.000    0.000    0.000    0.000    0.000 
#
# Total GULP energy -155880.175217 kJ/mol
# GULP energy per Si atom -5567.149115 kJ/mol
# Density = 1.757497 g / cm^3
# Si number density = 17.615061 Si / 1000 Ang^3
#
#
#
# Elastic Constant Matrix: (Units=GPa)
#
#
# Indices 1 2 3 4 5 6 
#
# 1 128.6909 45.7963 40.8140 0.0000 0.0000 0.0000
# 2 45.7963 86.8761 24.6603 0.0000 0.0000 0.0000
# 3 40.8140 24.6603 55.5067 0.0000 0.0000 0.0000
# 4 0.0000 0.0000 0.0000 6.6625 0.0000 0.0000
# 5 0.0000 0.0000 0.0000 0.0000 20.2543 0.0000
# 6 0.0000 0.0000 0.0000 0.0000 0.0000 20.3758
#
#
#
# Elastic Compliance Matrix: (Units=1/GPa)
#
#
# Indices 1 2 3 4 5 6 
#
# 1 0.011287 -0.004113 -0.006472 0.000000 0.000000 0.000000
# 2 -0.004113 0.014670 -0.003494 0.000000 0.000000 0.000000
# 3 -0.006472 -0.003494 0.024327 0.000000 0.000000 0.000000
# 4 0.000000 0.000000 0.000000 0.150094 0.000000 0.000000
# 5 0.000000 0.000000 0.000000 0.000000 0.049372 0.000000
# 6 0.000000 0.000000 0.000000 0.000000 0.000000 0.049078
#
#
# Mechanical properties :
#
#
# Convention : Reuss Voigt Hill
#
# Bulk Modulus (GPa) = 45.19299 54.84611 50.01955
# Shear Modulus (GPa) = 14.95395 20.11204 17.53300
#
# Velocity S-wave (km/s) = 2.91680 3.38265 3.15833
# Velocity P-wave (km/s) = 6.08730 6.81615 6.46201
#
# Compressibility (1/GPa) = 0.02212732
#
# Stress axis : x y z
#
# Youngs Moduli (GPa) = 88.60042 68.16498 41.10700
#
# Poissons Ratio (x) = 0.28034 0.26604
# Poissons Ratio (y) = 0.36438 0.14361
# Poissons Ratio (z) = 0.57341 0.23815
#
# Static dielectric constant tensor:
#      x y z
#    x 1.637260 0.000000 0.000000 
#    y 0.000000 1.593030 0.000000 
#    z 0.000000 0.000000 1.630940 
# 
# From -- ./inp_files/7708.got.cif
#   From: 2010.05.17/outbox.cif.g08.bks.cpg/sg35_4_cif.got.tgz:7708.got - 2010.06.03 17:29:28.
