data_PCOD9348273
_publ_section_title
;
Structure prediction by ZEFSAII (Michael W. Deem and Ramdas Pophale) SiO2 
 PCOD9348273
Probable space group: C M M 2
;
_chemical_formula_sum "Si O2"
_cell_formula_units_Z 40
_cell_length_a 17.269691
_cell_length_b 16.240869
_cell_length_c 7.812004
_cell_angle_alpha 90.000000
_cell_angle_beta 90.000000
_cell_angle_gamma 90.000000
_cell_volume 2191.070175
_symmetry_space_group_name_H-M "C M M 2"
_symmetry_group_IT_number 35
_symmetry_cell_setting 'orthorhombic'
loop_
_space_group_symop_operation_xyz
x,y,z
-x,-y,z
-x,y,z
x,-y,z
1/2+x,1/2+y,z
1/2-x,1/2-y,z
1/2-x,1/2+y,z
1/2+x,1/2-y,z
loop_
_atom_site_type_symbol
_atom_site_label
_atom_site_fract_x
_atom_site_fract_y
_atom_site_fract_z
Si Si1 0.712954 0.908250 0.152870
Si Si2 0.585991 0.097985 0.665724
Si Si3 0.413018 0.204418 0.012275
Si Si4 0.806233 0.169238 0.857830
Si Si5 0.753240 0.346961 0.501737
O O1 0.760603 0.894959 0.326708
O O2 0.679136 0.000000 0.150301
O O3 0.647287 0.837537 0.142152
O O4 0.766944 0.893548 0.988533
O O5 0.500000 0.114584 0.590595
O O6 0.588200 0.143011 0.848785
O O7 0.659853 0.129511 0.561922
O O8 0.593246 0.000000 0.687329
O O9 0.500000 0.209355 0.079068
O O10 0.383185 0.291692 0.938602
O O11 0.750000 0.250000 0.852280
O O12 0.803194 0.137056 0.663697
O O13 0.750000 0.250000 0.464961
#
# Coordination Sequence:
#
# PCOD9348273 Si02
#       5
#     8   8   8   8   8
#     4  11  22  33  53  82 110 141 178 222 273 325
#     4  10  19  31  50  78 111 140 167 211 272 327
#     4  10  19  35  56  79 108 142 180 222 272 330
#     4   9  18  36  53  75 104 141 183 225 263 316
#     4  11  19  34  54  74 108 148 185 220 258 321
#
# _framework density 18.25592
#
# number of rings (size 3 to 8) (size 9 to 14) (size 15 to 20)
#    0.000    1.800    6.000    3.000    0.000    2.800 
#    0.000    0.000    0.000    0.600    0.000    0.000 
#    0.000    2.400    0.000    0.000    0.000    0.000 
#
# Total GULP energy -111479.842320 kJ/mol
# GULP energy per Si atom -5573.992116 kJ/mol
# Density = 1.821437 g / cm^3
# Si number density = 18.255920 Si / 1000 Ang^3
#
#
#
# Elastic Constant Matrix: (Units=GPa)
#
#
# Indices 1 2 3 4 5 6 
#
# 1 55.8780 36.6147 8.3720 0.0000 0.0000 0.0000
# 2 36.6147 33.0401 14.6778 0.0000 0.0000 0.0000
# 3 8.3720 14.6778 88.4670 0.0000 0.0000 0.0000
# 4 0.0000 0.0000 0.0000 6.1106 0.0000 0.0000
# 5 0.0000 0.0000 0.0000 0.0000 13.6782 0.0000
# 6 0.0000 0.0000 0.0000 0.0000 0.0000 21.3043
#
#
#
# Elastic Compliance Matrix: (Units=1/GPa)
#
#
# Indices 1 2 3 4 5 6 
#
# 1 0.068768 -0.079151 0.006624 0.000000 0.000000 0.000000
# 2 -0.079151 0.123776 -0.013046 0.000000 0.000000 0.000000
# 3 0.006624 -0.013046 0.012841 0.000000 0.000000 0.000000
# 4 0.000000 0.000000 0.000000 0.163649 0.000000 0.000000
# 5 0.000000 0.000000 0.000000 0.000000 0.073109 0.000000
# 6 0.000000 0.000000 0.000000 0.000000 0.000000 0.046939
#
#
# Mechanical properties :
#
#
# Convention : Reuss Voigt Hill
#
# Bulk Modulus (GPa) = 29.20495 32.96822 31.08659
# Shear Modulus (GPa) = 7.44447 16.06667 11.75557
#
# Velocity S-wave (km/s) = 2.02156 2.96983 2.54033
# Velocity P-wave (km/s) = 4.63478 5.46425 5.06652
#
# Compressibility (1/GPa) = 0.03424077
#
# Stress axis : x y z
#
# Youngs Moduli (GPa) = 14.54165 8.07914 77.87430
#
# Poissons Ratio (x) = 0.63947 -0.51586
# Poissons Ratio (y) = 1.15098 1.01592
# Poissons Ratio (z) = -0.09633 0.10540
#
# Static dielectric constant tensor:
#      x y z
#    x 1.653430 0.000000 0.000000 
#    y 0.000000 1.638050 0.000000 
#    z 0.000000 0.000000 1.669220 
# 
# From -- ./inp_files/7143.got.cif
#   From: 2010.05.17/outbox.cif.g08.bks.cpg/sg35_4_cif.got.tgz:7143.got - 2010.06.03 17:29:28.
