data_PCOD9348717
_publ_section_title
;
Structure prediction by ZEFSAII (Michael W. Deem and Ramdas Pophale) SiO2 
 PCOD9348717
Probable space group: C M M 2
;
_chemical_formula_sum "Si O2"
_cell_formula_units_Z 64
_cell_length_a 8.808319
_cell_length_b 31.270593
_cell_length_c 12.041233
_cell_angle_alpha 90.000000
_cell_angle_beta 90.000000
_cell_angle_gamma 90.000000
_cell_volume 3316.653575
_symmetry_space_group_name_H-M "C M M 2"
_symmetry_group_IT_number 35
_symmetry_cell_setting 'orthorhombic'
loop_
_space_group_symop_operation_xyz
x,y,z
-x,-y,z
-x,y,z
x,-y,z
1/2+x,1/2+y,z
1/2-x,1/2-y,z
1/2-x,1/2+y,z
1/2+x,1/2-y,z
loop_
_atom_site_type_symbol
_atom_site_label
_atom_site_fract_x
_atom_site_fract_y
_atom_site_fract_z
Si Si1 0.178871 0.075285 0.947180
Si Si2 0.679680 0.048912 0.175530
Si Si3 0.318948 0.874037 0.557323
Si Si4 0.681961 0.704275 0.696425
Si Si5 0.819142 0.126110 0.311799
Si Si6 0.821639 0.822009 0.948132
Si Si7 0.317775 0.549157 0.696968
Si Si8 0.320206 0.795185 0.175130
O O1 0.196286 0.126638 0.946692
O O2 0.220609 0.057621 0.826150
O O3 0.000000 0.065799 0.965725
O O4 0.274240 0.055995 0.047451
O O5 0.500000 0.056414 0.188848
O O6 0.770113 0.083152 0.247920
O O7 0.713482 0.000000 0.207035
O O8 0.500000 0.871602 0.552925
O O9 0.253060 0.833808 0.625087
O O10 0.250490 0.873949 0.434292
O O11 0.266762 0.916852 0.620824
O O12 0.500000 0.703887 0.683932
O O13 0.750000 0.750000 0.664154
O O14 0.716238 0.695610 0.826487
O O15 0.753675 0.166029 0.242906
O O16 0.000000 0.129055 0.316473
O O17 0.000000 0.812893 0.971072
O O18 0.721929 0.802627 0.046046
O O19 0.500000 0.556023 0.686763
O O20 0.284572 0.500000 0.668434
O O21 0.500000 0.795210 0.190031
O O22 0.250000 0.750000 0.210582
#
# Coordination Sequence:
#
# PCOD9348717 Si02
#       8
#     8   8   8   8   8   8   8   8
#     4  10  19  36  64  95 129 169 210 254 309 372
#     4  11  24  41  63  95 132 167 207 258 315 374
#     4  12  26  44  66  92 125 165 211 261 317 371
#     4  11  23  42  66  95 130 166 211 258 310 371
#     4  12  26  46  69  91 121 163 214 264 315 371
#     4  10  20  37  64  96 131 168 208 255 310 371
#     4  10  21  40  66  95 128 168 212 258 311 371
#     4  12  25  42  66  96 131 166 208 256 313 374
#
# _framework density 19.296558999999998
#
# number of rings (size 3 to 8) (size 9 to 14) (size 15 to 20)
#    0.000    1.000    2.500    4.875    0.000    5.250 
#    0.000    2.500    0.000    0.000    0.000    0.000 
#    0.000    0.000    0.000    0.000    0.000    0.000 
#
# Total GULP energy -179084.774650 kJ/mol
# GULP energy per Si atom -5596.399208 kJ/mol
# Density = 1.925264 g / cm^3
# Si number density = 19.296559 Si / 1000 Ang^3
#
#
#
# Elastic Constant Matrix: (Units=GPa)
#
#
# Indices 1 2 3 4 5 6 
#
# 1 132.7258 88.4696 81.5730 0.0000 0.0000 0.0000
# 2 88.4696 143.7195 72.1206 0.0000 0.0000 0.0000
# 3 81.5730 72.1206 128.8761 0.0000 0.0000 0.0000
# 4 0.0000 0.0000 0.0000 -11.7920 0.0000 0.0000
# 5 0.0000 0.0000 0.0000 0.0000 -5.6229 0.0000
# 6 0.0000 0.0000 0.0000 0.0000 0.0000 -57.8394
#
#
#
# Elastic Compliance Matrix: (Units=1/GPa)
#
#
# Indices 1 2 3 4 5 6 
#
# 1 0.015784 -0.006539 -0.006331 0.000000 0.000000 0.000000
# 2 -0.006539 0.012384 -0.002791 0.000000 0.000000 0.000000
# 3 -0.006331 -0.002791 0.013329 0.000000 0.000000 0.000000
# 4 0.000000 0.000000 0.000000 -0.084803 0.000000 0.000000
# 5 0.000000 0.000000 0.000000 0.000000 -0.177843 0.000000
# 6 0.000000 0.000000 0.000000 0.000000 0.000000 -0.017289
#
#
# Mechanical properties :
#
#
# Convention : Reuss Voigt Hill
#
# Bulk Modulus (GPa) = 98.29329 98.84975 98.57152
# Shear Modulus (GPa) = -24.54303 -4.17365 -14.35834
#
# Velocity S-wave (km/s) = -3.57022 -1.47228 -2.73076
# Velocity P-wave (km/s) = 5.83554 6.96044 6.42266
#
# Compressibility (1/GPa) = 0.01017363
#
# Stress axis : x y z
#
# Youngs Moduli (GPa) = 63.35381 80.74926 75.02502
#
# Poissons Ratio (x) = 0.52804 0.47501
# Poissons Ratio (y) = 0.41428 0.20941
# Poissons Ratio (z) = 0.40112 0.22539
#
# Static dielectric constant tensor:
#      x y z
#    x 1.647000 0.000000 0.000000 
#    y 0.000000 1.658870 0.000000 
#    z 0.000000 0.000000 1.643120 
# 
# From -- ./inp_files/11950.got.cif
#   From: 2010.05.17/outbox.cif.g08.bks.cpg/sg35_6_cif.got.tgz:11950.got - 2010.06.03 17:29:28.
