data_PCOD9348639
_publ_section_title
;
Structure prediction by ZEFSAII (Michael W. Deem and Ramdas Pophale) SiO2 
 PCOD9348639
Probable space group: C M M 2
;
_chemical_formula_sum "Si O2"
_cell_formula_units_Z 40
_cell_length_a 8.175895
_cell_length_b 29.609304
_cell_length_c 7.516628
_cell_angle_alpha 90.000000
_cell_angle_beta 90.000000
_cell_angle_gamma 90.000000
_cell_volume 1819.644553
_symmetry_space_group_name_H-M "C M M 2"
_symmetry_group_IT_number 35
_symmetry_cell_setting 'orthorhombic'
loop_
_space_group_symop_operation_xyz
x,y,z
-x,-y,z
-x,y,z
x,-y,z
1/2+x,1/2+y,z
1/2-x,1/2-y,z
1/2-x,1/2+y,z
1/2+x,1/2-y,z
loop_
_atom_site_type_symbol
_atom_site_label
_atom_site_fract_x
_atom_site_fract_y
_atom_site_fract_z
Si Si1 0.000000 0.552247 0.098890
Si Si2 0.681928 0.396177 0.108912
Si Si3 0.193014 0.795926 0.992634
Si Si4 0.321634 0.395977 0.525163
Si Si5 0.311701 0.200996 0.594107
Si Si6 0.000000 0.447355 0.534923
O O1 0.164770 0.576618 0.034074
O O2 0.000000 0.555214 0.316883
O O3 0.000000 0.500000 0.050739
O O4 0.500000 0.404300 0.032036
O O5 0.672091 0.407944 0.316859
O O6 0.717376 0.342785 0.092997
O O7 0.250000 0.750000 0.087084
O O8 0.292051 0.798340 0.808377
O O9 0.000000 0.792265 0.951421
O O10 0.500000 0.406573 0.603865
O O11 0.291254 0.342301 0.535510
O O12 0.163640 0.421864 0.598690
O O13 0.500000 0.194515 0.543371
O O14 0.250000 0.250000 0.531991
O O15 0.000000 0.500000 0.582642
#
# Coordination Sequence:
#
# PCOD9348639 Si02
#       6
#     4   8   8   8   8   4
#     4   9  18  32  55  79 107 141 175 217 268 313
#     4   9  20  34  53  79 108 137 174 217 264 312
#     4  10  20  34  51  76 104 140 179 215 259 315
#     4  10  19  35  54  79 109 139 174 220 266 311
#     4  11  21  34  52  77 105 142 181 217 260 318
#     4   9  18  34  53  81 109 139 179 219 266 321
#
# _framework density 21.982316000000001
#
# number of rings (size 3 to 8) (size 9 to 14) (size 15 to 20)
#    0.000    2.200    1.000    3.600    2.800    1.600 
#    0.000    6.000    0.000    2.400    0.000    2.800 
#    0.000    0.000    0.000    0.000    0.000    0.000 
#
# Total GULP energy -111684.224354 kJ/mol
# GULP energy per Si atom -5584.211218 kJ/mol
# Density = 2.193228 g / cm^3
# Si number density = 21.982316 Si / 1000 Ang^3
#
#
#
# Elastic Constant Matrix: (Units=GPa)
#
#
# Indices 1 2 3 4 5 6 
#
# 1 201.4774 107.5651 5.8648 0.0000 0.0000 0.0000
# 2 107.5651 141.2548 -6.3575 0.0000 0.0000 0.0000
# 3 5.8648 -6.3575 49.0207 0.0000 0.0000 0.0000
# 4 0.0000 0.0000 0.0000 36.7803 0.0000 0.0000
# 5 0.0000 0.0000 0.0000 0.0000 -34.2960 0.0000
# 6 0.0000 0.0000 0.0000 0.0000 0.0000 32.4641
#
#
#
# Elastic Compliance Matrix: (Units=1/GPa)
#
#
# Indices 1 2 3 4 5 6 
#
# 1 0.008531 -0.006581 -0.001874 0.000000 0.000000 0.000000
# 2 -0.006581 0.012197 0.002369 0.000000 0.000000 0.000000
# 3 -0.001874 0.002369 0.020931 0.000000 0.000000 0.000000
# 4 0.000000 0.000000 0.000000 0.027188 0.000000 0.000000
# 5 0.000000 0.000000 0.000000 0.000000 -0.029158 0.000000
# 6 0.000000 0.000000 0.000000 0.000000 0.000000 0.030803
#
#
# Mechanical properties :
#
#
# Convention : Reuss Voigt Hill
#
# Bulk Modulus (GPa) = 33.91211 67.32197 50.61704
# Shear Modulus (GPa) = 54.05722 25.96839 40.01280
#
# Velocity S-wave (km/s) = 4.96433 3.44078 4.27104
# Velocity P-wave (km/s) = 6.95126 6.81742 6.88467
#
# Compressibility (1/GPa) = 0.02948799
#
# Stress axis : x y z
#
# Youngs Moduli (GPa) = 117.21505 81.98471 47.77597
#
# Poissons Ratio (x) = 0.53954 0.08954
# Poissons Ratio (y) = 0.77138 -0.11319
# Poissons Ratio (z) = 0.21968 -0.19424
#
# Static dielectric constant tensor:
#      x y z
#    x 1.833320 0.000000 0.000000 
#    y 0.000000 1.775000 0.000000 
#    z 0.000000 0.000000 1.835330 
# 
# From -- ./inp_files/5040.got.cif
#   From: 2010.05.17/outbox.cif.g08.bks.cpg/sg35_3_cif.got.tgz:5040.got - 2010.06.03 17:29:28.
