data_PCOD9348246
_publ_section_title
;
Structure prediction by ZEFSAII (Michael W. Deem and Ramdas Pophale) SiO2 
 PCOD9348246
Probable space group: C M M 2
;
_chemical_formula_sum "Si O2"
_cell_formula_units_Z 48
_cell_length_a 15.918835
_cell_length_b 8.724932
_cell_length_c 17.801691
_cell_angle_alpha 90.000000
_cell_angle_beta 90.000000
_cell_angle_gamma 90.000000
_cell_volume 2472.490266
_symmetry_space_group_name_H-M "C M M 2"
_symmetry_group_IT_number 35
_symmetry_cell_setting 'orthorhombic'
loop_
_space_group_symop_operation_xyz
x,y,z
-x,-y,z
-x,y,z
x,-y,z
1/2+x,1/2+y,z
1/2-x,1/2-y,z
1/2-x,1/2+y,z
1/2+x,1/2-y,z
loop_
_atom_site_type_symbol
_atom_site_label
_atom_site_fract_x
_atom_site_fract_y
_atom_site_fract_z
Si Si1 0.500000 0.187198 0.003811
Si Si2 0.844375 0.684846 0.901765
Si Si3 0.655733 0.683733 0.582023
Si Si4 0.902240 0.181080 0.417355
Si Si5 0.155363 0.316703 0.733883
Si Si6 0.000000 0.687302 0.177054
Si Si7 0.336971 0.817962 0.268689
O O1 0.500000 0.235288 0.090456
O O2 0.500000 0.000000 0.001952
O O3 0.415015 0.236096 0.960831
O O4 0.837505 0.500000 0.905570
O O5 0.750000 0.750000 0.912420
O O6 0.876791 0.722272 0.817146
O O7 0.658266 0.500000 0.587089
O O8 0.750000 0.750000 0.577929
O O9 0.613010 0.727433 0.503515
O O10 0.615115 0.747833 0.658631
O O11 0.850044 0.270219 0.355227
O O12 0.000000 0.202919 0.399700
O O13 0.882308 0.000000 0.411693
O O14 0.157590 0.500000 0.726652
O O15 0.250000 0.250000 0.734567
O O16 0.083135 0.738453 0.221121
O O17 0.000000 0.500000 0.178359
O O18 0.250000 0.750000 0.240214
O O19 0.334035 0.000000 0.263768
#
# Coordination Sequence:
#
# PCOD9348246 Si02
#       7
#     4   8   8   8   8   4   8
#     4   9  18  36  59  82 111 148 180 219 275 333
#     4   9  18  33  56  81 109 145 185 225 272 325
#     4  10  19  31  49  73 102 139 182 225 269 321
#     4  10  21  37  55  77 109 147 186 230 278 327
#     4   9  16  28  47  73 102 137 179 224 268 315
#     4   9  20  38  59  84 115 144 180 225 273 333
#     4  11  22  38  60  87 113 146 187 228 276 334
#
# _framework density 19.413625
#
# number of rings (size 3 to 8) (size 9 to 14) (size 15 to 20)
#    0.000    2.333    0.833    3.000    0.000    4.000 
#    1.500    0.417    0.000    3.000    0.000    0.000 
#    0.000    0.000    0.000    0.000    0.000    0.000 
#
# Total GULP energy -133871.077487 kJ/mol
# GULP energy per Si atom -5577.961562 kJ/mol
# Density = 1.936944 g / cm^3
# Si number density = 19.413625 Si / 1000 Ang^3
#
#
#
# Elastic Constant Matrix: (Units=GPa)
#
#
# Indices 1 2 3 4 5 6 
#
# 1 106.5804 34.6821 78.1128 0.0000 0.0000 0.0000
# 2 34.6821 25.0776 28.7048 0.0000 0.0000 0.0000
# 3 78.1128 28.7048 152.5215 0.0000 0.0000 0.0000
# 4 0.0000 0.0000 0.0000 -25.0408 0.0000 0.0000
# 5 0.0000 0.0000 0.0000 0.0000 21.7058 0.0000
# 6 0.0000 0.0000 0.0000 0.0000 0.0000 19.1721
#
#
#
# Elastic Compliance Matrix: (Units=1/GPa)
#
#
# Indices 1 2 3 4 5 6 
#
# 1 0.021606 -0.021942 -0.006936 0.000000 0.000000 0.000000
# 2 -0.021942 0.073108 -0.002522 0.000000 0.000000 0.000000
# 3 -0.006936 -0.002522 0.010583 0.000000 0.000000 0.000000
# 4 0.000000 0.000000 0.000000 -0.039935 0.000000 0.000000
# 5 0.000000 0.000000 0.000000 0.000000 0.046071 0.000000
# 6 0.000000 0.000000 0.000000 0.000000 0.000000 0.052159
#
#
# Mechanical properties :
#
#
# Convention : Reuss Voigt Hill
#
# Bulk Modulus (GPa) = 23.53025 63.01987 43.27506
# Shear Modulus (GPa) = 20.78510 12.67941 16.73225
#
# Velocity S-wave (km/s) = 3.27562 2.55839 2.93897
# Velocity P-wave (km/s) = 5.14325 6.42334 5.81861
#
# Compressibility (1/GPa) = 0.04249849
#
# Stress axis : x y z
#
# Youngs Moduli (GPa) = 46.28360 13.67837 94.48952
#
# Poissons Ratio (x) = 0.30013 0.65536
# Poissons Ratio (y) = 1.01555 0.23827
# Poissons Ratio (z) = 0.32102 0.03449
#
# Static dielectric constant tensor:
#      x y z
#    x 1.672270 0.000000 0.000000 
#    y 0.000000 1.657340 0.000000 
#    z 0.000000 0.000000 1.710460 
# 
# From -- ./inp_files/17876.got.cif
#   From: 2010.05.17/outbox.cif.g08.bks.cpg/sg35_9_cif.got.tgz:17876.got - 2010.06.03 17:29:28.
