data_PCOD9348857
_publ_section_title
;
Structure prediction by ZEFSAII (Michael W. Deem and Ramdas Pophale) SiO2 
 PCOD9348857
Probable space group: C M M 2
;
_chemical_formula_sum "Si O2"
_cell_formula_units_Z 64
_cell_length_a 8.442857
_cell_length_b 28.813266
_cell_length_c 13.477599
_cell_angle_alpha 90.000000
_cell_angle_beta 90.000000
_cell_angle_gamma 90.000000
_cell_volume 3278.645433
_symmetry_space_group_name_H-M "C M M 2"
_symmetry_group_IT_number 35
_symmetry_cell_setting 'orthorhombic'
loop_
_space_group_symop_operation_xyz
x,y,z
-x,-y,z
-x,y,z
x,-y,z
1/2+x,1/2+y,z
1/2-x,1/2-y,z
1/2-x,1/2+y,z
1/2+x,1/2-y,z
loop_
_atom_site_type_symbol
_atom_site_label
_atom_site_fract_x
_atom_site_fract_y
_atom_site_fract_z
Si Si1 0.809384 0.606735 0.104300
Si Si2 0.811392 0.945277 0.910276
Si Si3 0.810443 0.197543 0.580359
Si Si4 0.690848 0.945489 0.697094
Si Si5 0.311158 0.802347 0.010345
Si Si6 0.310042 0.696888 0.800084
Si Si7 0.808872 0.606876 0.498508
Si Si8 0.806102 0.553616 0.300489
O O1 0.755127 0.659965 0.090472
O O2 0.751024 0.580601 0.202269
O O3 0.000000 0.607652 0.110089
O O4 0.763499 0.579499 0.004753
O O5 0.757486 0.927718 0.801920
O O6 0.000000 0.940818 0.916275
O O7 0.768622 0.000000 0.914018
O O8 0.750000 0.250000 0.565777
O O9 0.758824 0.180314 0.691146
O O10 0.747004 0.159889 0.503776
O O11 0.000000 0.198584 0.579323
O O12 0.500000 0.942589 0.701356
O O13 0.746608 0.918968 0.598810
O O14 0.733689 0.000000 0.688039
O O15 0.500000 0.799996 0.010827
O O16 0.250000 0.750000 0.023625
O O17 0.258808 0.821901 0.902476
O O18 0.500000 0.695131 0.805918
O O19 0.250000 0.750000 0.800661
O O20 0.755739 0.579738 0.400532
O O21 0.000000 0.606065 0.499420
O O22 0.755985 0.500000 0.299522
O O23 0.000000 0.553639 0.299892
#
# Coordination Sequence:
#
# PCOD9348857 Si02
#       8
#     8   8   8   8   8   8   8   8
#     4  10  21  36  57  83 109 144 189 232 276 331
#     4  10  21  35  52  78 112 146 180 223 279 339
#     4  10  21  36  54  79 112 150 189 230 278 331
#     4   9  18  33  53  79 111 145 182 224 274 335
#     4  10  20  33  51  77 109 144 184 226 272 324
#     4   9  17  30  49  73 103 142 181 220 266 318
#     4  10  20  34  57  85 111 143 186 234 282 331
#     4   9  18  36  62  87 110 141 186 236 281 329
#
# _framework density 19.520257000000001
#
# number of rings (size 3 to 8) (size 9 to 14) (size 15 to 20)
#    0.000    2.375    0.000    3.000    1.750    5.750 
#    0.000    1.250    0.000    3.375    0.000    0.000 
#    0.000    0.000    0.000    0.000    0.000    0.000 
#
# Total GULP energy -178580.018772 kJ/mol
# GULP energy per Si atom -5580.625587 kJ/mol
# Density = 1.947583 g / cm^3
# Si number density = 19.520257 Si / 1000 Ang^3
#
#
#
# Elastic Constant Matrix: (Units=GPa)
#
#
# Indices 1 2 3 4 5 6 
#
# 1 9.6563 18.3986 15.9736 0.0000 0.0000 0.0000
# 2 18.3986 134.2590 95.4565 0.0000 0.0000 0.0000
# 3 15.9736 95.4565 153.2026 0.0000 0.0000 0.0000
# 4 0.0000 0.0000 0.0000 38.3567 0.0000 0.0000
# 5 0.0000 0.0000 0.0000 0.0000 7.3141 0.0000
# 6 0.0000 0.0000 0.0000 0.0000 0.0000 17.2059
#
#
#
# Elastic Compliance Matrix: (Units=1/GPa)
#
#
# Indices 1 2 3 4 5 6 
#
# 1 0.142108 -0.016050 -0.004817 0.000000 0.000000 0.000000
# 2 -0.016050 0.015185 -0.007788 0.000000 0.000000 0.000000
# 3 -0.004817 -0.007788 0.011882 0.000000 0.000000 0.000000
# 4 0.000000 0.000000 0.000000 0.026071 0.000000 0.000000
# 5 0.000000 0.000000 0.000000 0.000000 0.136721 0.000000
# 6 0.000000 0.000000 0.000000 0.000000 0.000000 0.058120
#
#
# Mechanical properties :
#
#
# Convention : Reuss Voigt Hill
#
# Bulk Modulus (GPa) = 8.93925 61.86391 35.40158
# Shear Modulus (GPa) = 10.31601 23.72796 17.02198
#
# Velocity S-wave (km/s) = 2.30136 3.49026 2.95620
# Velocity P-wave (km/s) = 3.41337 6.92846 5.46144
#
# Compressibility (1/GPa) = 0.11186615
#
# Stress axis : x y z
#
# Youngs Moduli (GPa) = 7.03692 65.85561 84.16170
#
# Poissons Ratio (x) = 1.05696 0.40538
# Poissons Ratio (y) = 0.11294 0.65544
# Poissons Ratio (z) = 0.03389 0.51287
#
# Static dielectric constant tensor:
#      x y z
#    x 1.672710 0.000000 0.000000 
#    y 0.000000 1.696480 0.000000 
#    z 0.000000 0.000000 1.686410 
# 
# From -- ./inp_files/11874.got.cif
#   From: 2010.05.17/outbox.cif.g08.bks.cpg/sg35_6_cif.got.tgz:11874.got - 2010.06.03 17:29:28.
