data_PCOD9348473
_publ_section_title
;
Structure prediction by ZEFSAII (Michael W. Deem and Ramdas Pophale) SiO2 
 PCOD9348473
Probable space group: C M M 2
;
_chemical_formula_sum "Si O2"
_cell_formula_units_Z 64
_cell_length_a 16.035639
_cell_length_b 15.578142
_cell_length_c 13.915717
_cell_angle_alpha 90.000000
_cell_angle_beta 90.000000
_cell_angle_gamma 90.000000
_cell_volume 3476.222106
_symmetry_space_group_name_H-M "C M M 2"
_symmetry_group_IT_number 35
_symmetry_cell_setting 'orthorhombic'
loop_
_space_group_symop_operation_xyz
x,y,z
-x,-y,z
-x,y,z
x,-y,z
1/2+x,1/2+y,z
1/2-x,1/2-y,z
1/2-x,1/2+y,z
1/2+x,1/2-y,z
loop_
_atom_site_type_symbol
_atom_site_label
_atom_site_fract_x
_atom_site_fract_y
_atom_site_fract_z
Si Si1 0.285884 0.660972 0.845280
Si Si2 0.158414 0.229197 0.161227
Si Si3 0.235302 0.155731 0.356902
Si Si4 0.593183 0.272127 0.677722
Si Si5 0.903207 0.599604 0.257154
Si Si6 0.324854 0.093952 0.681904
Si Si7 0.905240 0.903106 0.008434
Si Si8 0.162767 0.906842 0.544932
O O1 0.250000 0.750000 0.886533
O O2 0.346346 0.691493 0.759411
O O3 0.215177 0.608406 0.788024
O O4 0.338374 0.611353 0.924345
O O5 0.250000 0.250000 0.119541
O O6 0.182810 0.178676 0.260364
O O7 0.113164 0.319728 0.185064
O O8 0.109566 0.167247 0.090549
O O9 0.250000 0.250000 0.402365
O O10 0.325128 0.114769 0.329961
O O11 0.185112 0.101629 0.433673
O O12 0.500000 0.280438 0.712225
O O13 0.616311 0.173643 0.660811
O O14 0.607955 0.329097 0.583541
O O15 0.895347 0.500000 0.221590
O O16 0.000000 0.607573 0.291937
O O17 0.249177 0.097581 0.605248
O O18 0.363704 0.000000 0.676103
O O19 0.000000 0.894763 0.971234
O O20 0.895572 0.000000 0.046943
O O21 0.124692 0.000000 0.566196
#
# Coordination Sequence:
#
# PCOD9348473 Si02
#       8
#     8   8   8   8   8   8   8   8
#     4   9  18  35  56  76 100 130 168 209 254 305
#     4   9  20  35  52  74 103 139 174 210 252 306
#     4   9  18  33  52  73 101 138 174 209 253 305
#     4  10  20  34  53  77 105 132 162 207 254 298
#     4   9  17  31  53  78 101 129 169 217 264 303
#     4   9  18  33  54  77 101 132 166 203 249 302
#     4  11  22  34  51  76 105 136 171 213 257 301
#     4  10  19  33  53  74 100 135 174 210 244 292
#
# _framework density 18.410792000000001
#
# number of rings (size 3 to 8) (size 9 to 14) (size 15 to 20)
#    0.000    2.750    0.000    3.750    0.000    3.500 
#    0.000    6.250    0.000    1.500    0.000    0.000 
#    0.000    0.000    0.000    0.000    0.000    0.125 
#
# Total GULP energy -178191.262250 kJ/mol
# GULP energy per Si atom -5568.476945 kJ/mol
# Density = 1.836889 g / cm^3
# Si number density = 18.410792 Si / 1000 Ang^3
#
#
#
# Elastic Constant Matrix: (Units=GPa)
#
#
# Indices 1 2 3 4 5 6 
#
# 1 54.9305 32.1428 9.9020 0.0000 0.0000 0.0000
# 2 32.1428 124.3817 35.4184 0.0000 0.0000 0.0000
# 3 9.9020 35.4184 52.0225 0.0000 0.0000 0.0000
# 4 0.0000 0.0000 0.0000 14.3191 0.0000 0.0000
# 5 0.0000 0.0000 0.0000 0.0000 7.9943 0.0000
# 6 0.0000 0.0000 0.0000 0.0000 0.0000 14.7932
#
#
#
# Elastic Compliance Matrix: (Units=1/GPa)
#
#
# Indices 1 2 3 4 5 6 
#
# 1 0.021454 -0.005435 -0.000383 0.000000 0.000000 0.000000
# 2 -0.005435 0.011350 -0.006693 0.000000 0.000000 0.000000
# 3 -0.000383 -0.006693 0.023852 0.000000 0.000000 0.000000
# 4 0.000000 0.000000 0.000000 0.069837 0.000000 0.000000
# 5 0.000000 0.000000 0.000000 0.000000 0.125089 0.000000
# 6 0.000000 0.000000 0.000000 0.000000 0.000000 0.067599
#
#
# Mechanical properties :
#
#
# Convention : Reuss Voigt Hill
#
# Bulk Modulus (GPa) = 31.61166 42.91791 37.26478
# Shear Modulus (GPa) = 14.09449 17.67942 15.88696
#
# Velocity S-wave (km/s) = 2.76987 3.10219 2.94073
# Velocity P-wave (km/s) = 5.23804 6.01609 5.64050
#
# Compressibility (1/GPa) = 0.03163390
#
# Stress axis : x y z
#
# Youngs Moduli (GPa) = 46.61078 88.10435 41.92493
#
# Poissons Ratio (x) = 0.47886 0.01607
# Poissons Ratio (y) = 0.25333 0.28060
# Poissons Ratio (z) = 0.01786 0.58968
#
# Static dielectric constant tensor:
#      x y z
#    x 1.627180 0.000000 0.000000 
#    y 0.000000 1.673420 0.000000 
#    z 0.000000 0.000000 1.630370 
# 
# From -- ./inp_files/17242.got.cif
#   From: 2010.05.17/outbox.cif.g08.bks.cpg/sg35_9_cif.got.tgz:17242.got - 2010.06.03 17:29:28.
