data_PCOD9348006
_publ_section_title
;
Structure prediction by ZEFSAII (Michael W. Deem and Ramdas Pophale) SiO2 
 PCOD9348006
Probable space group: P N N 2
;
_chemical_formula_sum "Si O2"
_cell_formula_units_Z 18
_cell_length_a 16.293936
_cell_length_b 6.516585
_cell_length_c 7.469053
_cell_angle_alpha 90.000000
_cell_angle_beta 90.000000
_cell_angle_gamma 90.000000
_cell_volume 793.070164
_symmetry_space_group_name_H-M "P N N 2"
_symmetry_group_IT_number 34
_symmetry_cell_setting 'orthorhombic'
loop_
_space_group_symop_operation_xyz
x,y,z
-x,-y,z
1/2-x,1/2+y,1/2+z
1/2+x,1/2-y,1/2+z
loop_
_atom_site_type_symbol
_atom_site_label
_atom_site_fract_x
_atom_site_fract_y
_atom_site_fract_z
Si Si1 0.400406 0.479130 0.351240
Si Si2 0.929622 0.644249 0.033065
Si Si3 0.831192 0.063793 0.484871
Si Si4 0.190966 0.697734 0.135046
Si Si5 0.000000 0.000000 0.283213
O O1 0.500000 0.500000 0.328722
O O2 0.383350 0.719411 0.386638
O O3 0.355447 0.370281 0.186071
O O4 0.361659 0.364609 0.523029
O O5 0.865585 0.505550 0.139560
O O6 0.000000 0.500000 0.950566
O O7 0.977289 0.801580 0.163317
O O8 0.795395 0.216829 0.334893
O O9 0.770746 0.872667 0.523148
O O10 0.920085 0.017676 0.403877
#
# Coordination Sequence:
#
# PCOD9348006 Si02
#       5
#     4   4   4   4   2
#     4  12  24  47  76 111 152 198 256 313 387 459
#     4  12  21  47  80 106 151 203 249 321 387 446
#     4  12  27  49  74 114 150 202 252 315 379 459
#     4  12  28  49  74 111 158 196 253 325 379 453
#     4  12  24  48  78 106 158 196 258 312 384 460
#
# _framework density 22.696603
#
# number of rings (size 3 to 8) (size 9 to 14) (size 15 to 20)
#    0.000    0.000    8.889    1.333    3.111    1.778 
#    4.000    3.333    0.000    0.000    0.000    0.000 
#    0.000    0.000    0.000    0.000    0.000    0.000 
#
# Total GULP energy -100347.334214 kJ/mol
# GULP energy per Si atom -5574.851901 kJ/mol
# Density = 2.264494 g / cm^3
# Si number density = 22.696603 Si / 1000 Ang^3
#
#
#
# Elastic Constant Matrix: (Units=GPa)
#
#
# Indices 1 2 3 4 5 6 
#
# 1 164.9098 48.4028 38.7777 0.0000 0.0000 0.0000
# 2 48.4028 105.5027 47.5342 0.0000 0.0000 0.0000
# 3 38.7777 47.5342 148.0822 0.0000 0.0000 0.0000
# 4 0.0000 0.0000 0.0000 38.3451 0.0000 0.0000
# 5 0.0000 0.0000 0.0000 0.0000 77.3062 0.0000
# 6 0.0000 0.0000 0.0000 0.0000 0.0000 33.4507
#
#
#
# Elastic Compliance Matrix: (Units=1/GPa)
#
#
# Indices 1 2 3 4 5 6 
#
# 1 0.007121 -0.002837 -0.000954 0.000000 0.000000 0.000000
# 2 -0.002837 0.012211 -0.003177 0.000000 0.000000 0.000000
# 3 -0.000954 -0.003177 0.008023 0.000000 0.000000 0.000000
# 4 0.000000 0.000000 0.000000 0.026079 0.000000 0.000000
# 5 0.000000 0.000000 0.000000 0.000000 0.012936 0.000000
# 6 0.000000 0.000000 0.000000 0.000000 0.000000 0.029895
#
#
# Mechanical properties :
#
#
# Convention : Reuss Voigt Hill
#
# Bulk Modulus (GPa) = 74.52189 76.43601 75.47895
# Shear Modulus (GPa) = 43.60211 48.73907 46.17059
#
# Velocity S-wave (km/s) = 4.38777 4.63905 4.51516
# Velocity P-wave (km/s) = 7.65345 7.90220 7.77882
#
# Compressibility (1/GPa) = 0.01341888
#
# Stress axis : x y z
#
# Youngs Moduli (GPa) = 140.42987 81.89054 124.64763
#
# Poissons Ratio (x) = 0.23234 0.11892
# Poissons Ratio (y) = 0.39842 0.39599
# Poissons Ratio (z) = 0.13397 0.26016
#
# Static dielectric constant tensor:
#      x y z
#    x 1.866170 0.000000 0.000000 
#    y 0.000000 1.863980 0.000000 
#    z 0.000000 0.000000 1.888150 
# 
# From -- ./inp_files/3775.got.cif
#   From: 2010.05.17/outbox.cif.g08.bks.cpg/sg34_2_cif.got.tgz:3775.got - 2010.06.03 17:23:11.
