data_PCOD9348153
_publ_section_title
;
Structure prediction by ZEFSAII (Michael W. Deem and Ramdas Pophale) SiO2 
 PCOD9348153
Probable space group: C M M 2
;
_chemical_formula_sum "Si O2"
_cell_formula_units_Z 64
_cell_length_a 27.106639
_cell_length_b 13.785947
_cell_length_c 8.631207
_cell_angle_alpha 90.000000
_cell_angle_beta 90.000000
_cell_angle_gamma 90.000000
_cell_volume 3225.401687
_symmetry_space_group_name_H-M "C M M 2"
_symmetry_group_IT_number 35
_symmetry_cell_setting 'orthorhombic'
loop_
_space_group_symop_operation_xyz
x,y,z
-x,-y,z
-x,y,z
x,-y,z
1/2+x,1/2+y,z
1/2-x,1/2-y,z
1/2-x,1/2+y,z
1/2+x,1/2-y,z
loop_
_atom_site_type_symbol
_atom_site_label
_atom_site_fract_x
_atom_site_fract_y
_atom_site_fract_z
Si Si1 0.633604 0.752820 0.587260
Si Si2 0.943308 0.612991 0.770148
Si Si3 0.320965 0.188261 0.296063
Si Si4 0.218333 0.109099 0.176845
Si Si5 0.302674 0.708994 0.862433
Si Si6 0.444360 0.387217 0.567468
Si Si7 0.057745 0.890547 0.944311
Si Si8 0.388391 0.198294 0.039515
O O1 0.595052 0.824006 0.671789
O O2 0.669612 0.813913 0.478245
O O3 0.665241 0.690023 0.710212
O O4 0.598092 0.678698 0.496885
O O5 0.940600 0.500000 0.731091
O O6 0.000000 0.646191 0.752026
O O7 0.925428 0.630424 0.946208
O O8 0.275205 0.127561 0.228503
O O9 0.309309 0.301449 0.258452
O O10 0.371606 0.164248 0.207176
O O11 0.203735 0.000000 0.217094
O O12 0.208453 0.128705 0.993604
O O13 0.250000 0.750000 0.815705
O O14 0.336049 0.790375 0.948979
O O15 0.500000 0.357491 0.525473
O O16 0.438588 0.500000 0.529076
O O17 0.440132 0.379217 0.756464
O O18 0.088553 0.806182 0.025319
O O19 0.000000 0.882551 0.985713
O O20 0.074740 0.000000 0.980634
#
# Coordination Sequence:
#
# PCOD9348153 Si02
#       8
#     8   8   8   8   8   8   8   8
#     4  11  22  36  63  83 124 154 188 242 296 357
#     4  10  21  38  60  87 115 151 206 255 287 332
#     4  10  23  40  55  87 120 155 193 237 292 366
#     4  10  21  41  62  78 112 156 197 246 293 339
#     4  10  19  36  57  85 106 141 196 242 279 331
#     4   9  17  31  53  83 116 148 185 231 286 341
#     4   9  16  28  52  84 110 139 186 235 280 335
#     4  10  18  35  58  79 114 149 192 236 289 336
#
# _framework density 19.842489
#
# number of rings (size 3 to 8) (size 9 to 14) (size 15 to 20)
#    0.000    2.125    5.000    1.500    1.750    4.000 
#    0.000    2.500    0.000    3.000    0.000    0.000 
#    0.000    0.000    0.000    0.000    0.000    0.000 
#
# Total GULP energy -178313.242961 kJ/mol
# GULP energy per Si atom -5572.288843 kJ/mol
# Density = 1.979733 g / cm^3
# Si number density = 19.842489 Si / 1000 Ang^3
#
#
#
# Elastic Constant Matrix: (Units=GPa)
#
#
# Indices 1 2 3 4 5 6 
#
# 1 100.6866 23.4721 20.0045 0.0000 0.0000 0.0000
# 2 23.4721 59.9035 -2.6867 0.0000 0.0000 0.0000
# 3 20.0045 -2.6867 44.2026 0.0000 0.0000 0.0000
# 4 0.0000 0.0000 0.0000 4.3438 0.0000 0.0000
# 5 0.0000 0.0000 0.0000 0.0000 16.7072 0.0000
# 6 0.0000 0.0000 0.0000 0.0000 0.0000 1.6890
#
#
#
# Elastic Compliance Matrix: (Units=1/GPa)
#
#
# Indices 1 2 3 4 5 6 
#
# 1 0.012280 -0.005075 -0.005866 0.000000 0.000000 0.000000
# 2 -0.005075 0.018836 0.003442 0.000000 0.000000 0.000000
# 3 -0.005866 0.003442 0.025487 0.000000 0.000000 0.000000
# 4 0.000000 0.000000 0.000000 0.230214 0.000000 0.000000
# 5 0.000000 0.000000 0.000000 0.000000 0.059854 0.000000
# 6 0.000000 0.000000 0.000000 0.000000 0.000000 0.592083
#
#
# Mechanical properties :
#
#
# Convention : Reuss Voigt Hill
#
# Bulk Modulus (GPa) = 24.03555 31.81916 27.92736
# Shear Modulus (GPa) = 5.16731 15.48151 10.32441
#
# Velocity S-wave (km/s) = 1.61549 2.79627 2.28352
# Velocity P-wave (km/s) = 3.95212 5.14745 4.58887
#
# Compressibility (1/GPa) = 0.04160504
#
# Stress axis : x y z
#
# Youngs Moduli (GPa) = 81.43085 53.08873 39.23555
#
# Poissons Ratio (x) = 0.26942 0.23016
# Poissons Ratio (y) = 0.41326 -0.13503
# Poissons Ratio (z) = 0.47768 -0.18271
#
# Static dielectric constant tensor:
#      x y z
#    x 1.716610 0.000000 0.000000 
#    y 0.000000 1.693440 0.000000 
#    z 0.000000 0.000000 1.757830 
# 
# From -- ./inp_files/10684.got.cif
#   From: 2010.05.17/outbox.cif.g08.bks.cpg/sg35_6_cif.got.tgz:10684.got - 2010.06.03 17:29:28.
