data_PCOD9348122
_publ_section_title
;
Structure prediction by ZEFSAII (Michael W. Deem and Ramdas Pophale) SiO2 
 PCOD9348122
Probable space group: C M M 2
;
_chemical_formula_sum "Si O2"
_cell_formula_units_Z 64
_cell_length_a 7.557567
_cell_length_b 31.843938
_cell_length_c 12.308175
_cell_angle_alpha 90.000000
_cell_angle_beta 90.000000
_cell_angle_gamma 90.000000
_cell_volume 2962.118566
_symmetry_space_group_name_H-M "C M M 2"
_symmetry_group_IT_number 35
_symmetry_cell_setting 'orthorhombic'
loop_
_space_group_symop_operation_xyz
x,y,z
-x,-y,z
-x,y,z
x,-y,z
1/2+x,1/2+y,z
1/2-x,1/2-y,z
1/2-x,1/2+y,z
1/2+x,1/2-y,z
loop_
_atom_site_type_symbol
_atom_site_label
_atom_site_fract_x
_atom_site_fract_y
_atom_site_fract_z
Si Si1 0.298837 0.702601 0.860930
Si Si2 0.717101 0.872893 0.487649
Si Si3 0.715494 0.079155 0.113140
Si Si4 0.785834 0.323045 0.101734
Si Si5 0.216689 0.453258 0.880334
Si Si6 0.703268 0.877891 0.731622
Si Si7 0.711635 0.203385 0.337164
Si Si8 0.716050 0.047000 0.348366
O O1 0.500000 0.695575 0.830755
O O2 0.250000 0.750000 0.830324
O O3 0.200325 0.664872 0.800848
O O4 0.277984 0.697551 0.990564
O O5 0.500000 0.871349 0.486466
O O6 0.779288 0.871048 0.611834
O O7 0.777752 0.833496 0.415239
O O8 0.770415 0.916221 0.429894
O O9 0.500000 0.078303 0.114676
O O10 0.766284 0.127999 0.105650
O O11 0.773505 0.058856 0.226179
O O12 0.772847 0.055746 0.004140
O O13 0.722245 0.302022 0.213396
O O14 0.000000 0.321297 0.098374
O O15 0.269010 0.500000 0.845857
O O16 0.281008 0.415691 0.803268
O O17 0.000000 0.451976 0.881686
O O18 0.500000 0.890588 0.712507
O O19 0.500000 0.198458 0.331010
O O20 0.750000 0.250000 0.377704
O O21 0.500000 0.047123 0.347824
O O22 0.773168 0.000000 0.377276
#
# Coordination Sequence:
#
# PCOD9348122 Si02
#       8
#     8   8   8   8   8   8   8   8
#     4  12  25  40  59  82 109 139 179 226 278 335
#     4   9  18  32  49  73 107 146 182 221 266 313
#     4   9  14  24  45  74 109 145 178 215 267 321
#     4  10  18  33  57  81 110 145 176 215 271 330
#     4   9  16  26  46  78 110 141 180 224 267 311
#     4  10  20  36  56  78 110 149 188 229 271 316
#     4  10  20  34  53  77 106 138 175 216 266 320
#     4   9  15  24  43  75 113 147 177 216 270 324
#
# _framework density 21.606158000000001
#
# number of rings (size 3 to 8) (size 9 to 14) (size 15 to 20)
#    0.000    2.250    2.500    1.875    0.000    4.000 
#    0.000    4.375    0.000    0.375    0.000    0.000 
#    0.000    3.500    0.000    0.000    0.000    0.000 
#
# Total GULP energy -178753.576160 kJ/mol
# GULP energy per Si atom -5586.049255 kJ/mol
# Density = 2.155698 g / cm^3
# Si number density = 21.606158 Si / 1000 Ang^3
#
#
#
# Elastic Constant Matrix: (Units=GPa)
#
#
# Indices 1 2 3 4 5 6 
#
# 1 49.9377 -7.7787 -3.6610 0.0000 0.0000 0.0000
# 2 -7.7787 181.7574 77.6296 0.0000 0.0000 0.0000
# 3 -3.6610 77.6296 153.5758 0.0000 0.0000 0.0000
# 4 0.0000 0.0000 0.0000 -16.4788 0.0000 0.0000
# 5 0.0000 0.0000 0.0000 0.0000 -10.2415 0.0000
# 6 0.0000 0.0000 0.0000 0.0000 0.0000 4.2386
#
#
#
# Elastic Compliance Matrix: (Units=1/GPa)
#
#
# Indices 1 2 3 4 5 6 
#
# 1 0.020160 0.000839 0.000057 0.000000 0.000000 0.000000
# 2 0.000839 0.007052 -0.003544 0.000000 0.000000 0.000000
# 3 0.000057 -0.003544 0.008304 0.000000 0.000000 0.000000
# 4 0.000000 0.000000 0.000000 -0.060684 0.000000 0.000000
# 5 0.000000 0.000000 0.000000 0.000000 -0.097642 0.000000
# 6 0.000000 0.000000 0.000000 0.000000 0.000000 0.235925
#
#
# Mechanical properties :
#
#
# Convention : Reuss Voigt Hill
#
# Bulk Modulus (GPa) = 33.09356 57.51676 45.30516
# Shear Modulus (GPa) = 38.91493 16.77574 27.84533
#
# Velocity S-wave (km/s) = 4.24855 2.78948 3.59384
# Velocity P-wave (km/s) = 6.27828 6.08714 6.18345
#
# Compressibility (1/GPa) = 0.03021736
#
# Stress axis : x y z
#
# Youngs Moduli (GPa) = 49.60387 141.81218 120.41742
#
# Poissons Ratio (x) = -0.11892 -0.00683
# Poissons Ratio (y) = -0.04160 0.42681
# Poissons Ratio (z) = -0.00281 0.50265
#
# Static dielectric constant tensor:
#      x y z
#    x 1.854280 0.000000 0.000000 
#    y 0.000000 2.011560 0.000000 
#    z 0.000000 0.000000 1.752440 
# 
# From -- ./inp_files/11974.got.cif
#   From: 2010.05.17/outbox.cif.g08.bks.cpg/sg35_6_cif.got.tgz:11974.got - 2010.06.03 17:29:28.
