data_PCOD9348823
_publ_section_title
;
Structure prediction by ZEFSAII (Michael W. Deem and Ramdas Pophale) SiO2 
 PCOD9348823
Probable space group: C M M 2
;
_chemical_formula_sum "Si O2"
_cell_formula_units_Z 48
_cell_length_a 19.456744
_cell_length_b 8.020553
_cell_length_c 15.848496
_cell_angle_alpha 90.000000
_cell_angle_beta 90.000000
_cell_angle_gamma 90.000000
_cell_volume 2473.218761
_symmetry_space_group_name_H-M "C M M 2"
_symmetry_group_IT_number 35
_symmetry_cell_setting 'orthorhombic'
loop_
_space_group_symop_operation_xyz
x,y,z
-x,-y,z
-x,y,z
x,-y,z
1/2+x,1/2+y,z
1/2-x,1/2-y,z
1/2-x,1/2+y,z
1/2+x,1/2-y,z
loop_
_atom_site_type_symbol
_atom_site_label
_atom_site_fract_x
_atom_site_fract_y
_atom_site_fract_z
Si Si1 0.421119 0.703421 0.421250
Si Si2 0.921260 0.201069 0.110193
Si Si3 0.078674 0.298811 0.921465
Si Si4 0.078011 0.200961 0.612382
Si Si5 0.328958 0.198025 0.767992
Si Si6 0.829264 0.201444 0.265921
O O1 0.500000 0.751586 0.401894
O O2 0.419948 0.500000 0.421066
O O3 0.405005 0.757309 0.516980
O O4 0.368591 0.761436 0.350012
O O5 0.870593 0.261363 0.183333
O O6 0.000000 0.260155 0.123241
O O7 0.922686 0.000000 0.114081
O O8 0.899737 0.250510 0.015911
O O9 0.077306 0.500000 0.917405
O O10 0.128824 0.233924 0.848606
O O11 0.000000 0.239232 0.908649
O O12 0.131526 0.254022 0.682759
O O13 0.000000 0.258257 0.632493
O O14 0.076666 0.000000 0.610812
O O15 0.250000 0.250000 0.767465
O O16 0.330692 0.000000 0.774405
O O17 0.750000 0.250000 0.264607
O O18 0.832974 0.000000 0.266083
#
# Coordination Sequence:
#
# PCOD9348823 Si02
#       6
#     8   8   8   8   8   8
#     4   8  15  31  55  78 100 131 171 211 249 294
#     4   9  18  33  54  77  98 127 170 213 249 292
#     4   9  19  36  56  76  99 130 167 209 259 309
#     4   9  18  34  57  82 105 133 172 215 259 308
#     4  11  23  37  53  75 106 141 175 212 258 310
#     4  10  20  33  50  74 105 137 168 204 249 300
#
# _framework density 19.407906000000001
#
# number of rings (size 3 to 8) (size 9 to 14) (size 15 to 20)
#    0.000    2.667    0.000    2.500    0.000    6.333 
#    0.000    7.500    0.000    2.500    0.000    0.000 
#    0.000    0.000    0.000    0.000    0.000    0.000 
#
# Total GULP energy -133924.060121 kJ/mol
# GULP energy per Si atom -5580.169172 kJ/mol
# Density = 1.936373 g / cm^3
# Si number density = 19.407906 Si / 1000 Ang^3
#
#
#
# Elastic Constant Matrix: (Units=GPa)
#
#
# Indices 1 2 3 4 5 6 
#
# 1 160.4977 11.3651 149.9219 0.0000 0.0000 0.0000
# 2 11.3651 14.4492 13.4448 0.0000 0.0000 0.0000
# 3 149.9219 13.4448 197.5736 0.0000 0.0000 0.0000
# 4 0.0000 0.0000 0.0000 10.3058 0.0000 0.0000
# 5 0.0000 0.0000 0.0000 0.0000 11.3299 0.0000
# 6 0.0000 0.0000 0.0000 0.0000 0.0000 16.9128
#
#
#
# Elastic Compliance Matrix: (Units=1/GPa)
#
#
# Indices 1 2 3 4 5 6 
#
# 1 0.021443 -0.001843 -0.016146 0.000000 0.000000 0.000000
# 2 -0.001843 0.074045 -0.003641 0.000000 0.000000 0.000000
# 3 -0.016146 -0.003641 0.017561 0.000000 0.000000 0.000000
# 4 0.000000 0.000000 0.000000 0.097032 0.000000 0.000000
# 5 0.000000 0.000000 0.000000 0.000000 0.088262 0.000000
# 6 0.000000 0.000000 0.000000 0.000000 0.000000 0.059127
#
#
# Mechanical properties :
#
#
# Convention : Reuss Voigt Hill
#
# Bulk Modulus (GPa) = 14.32860 80.22045 47.27453
# Shear Modulus (GPa) = 11.79266 20.89561 16.34414
#
# Velocity S-wave (km/s) = 2.46767 3.28480 2.90511
# Velocity P-wave (km/s) = 3.93930 7.47062 5.97195
#
# Compressibility (1/GPa) = 0.06979048
#
# Stress axis : x y z
#
# Youngs Moduli (GPa) = 46.63477 13.50538 56.94428
#
# Poissons Ratio (x) = 0.02488 0.91943
# Poissons Ratio (y) = 0.08593 0.20731
# Poissons Ratio (z) = 0.75297 0.04917
#
# Static dielectric constant tensor:
#      x y z
#    x 1.505500 0.000000 0.000000 
#    y 0.000000 1.701030 0.000000 
#    z 0.000000 0.000000 1.675350 
# 
# From -- ./inp_files/15119.got.cif
#   From: 2010.05.17/outbox.cif.g08.bks.cpg/sg35_8_cif.got.tgz:15119.got - 2010.06.03 17:29:28.
