data_PCOD9348688
_publ_section_title
;
Structure prediction by ZEFSAII (Michael W. Deem and Ramdas Pophale) SiO2 
 PCOD9348688
Probable space group: C M M 2
;
_chemical_formula_sum "Si O2"
_cell_formula_units_Z 40
_cell_length_a 16.286808
_cell_length_b 11.890292
_cell_length_c 10.420301
_cell_angle_alpha 90.000000
_cell_angle_beta 90.000000
_cell_angle_gamma 90.000000
_cell_volume 2017.942378
_symmetry_space_group_name_H-M "C M M 2"
_symmetry_group_IT_number 35
_symmetry_cell_setting 'orthorhombic'
loop_
_space_group_symop_operation_xyz
x,y,z
-x,-y,z
-x,y,z
x,-y,z
1/2+x,1/2+y,z
1/2-x,1/2-y,z
1/2-x,1/2+y,z
1/2+x,1/2-y,z
loop_
_atom_site_type_symbol
_atom_site_label
_atom_site_fract_x
_atom_site_fract_y
_atom_site_fract_z
Si Si1 0.845565 0.759511 0.767500
Si Si2 0.401371 0.500000 0.859053
Si Si3 0.402361 0.128596 0.520315
Si Si4 0.599282 0.870928 0.018183
Si Si5 0.100191 0.237731 0.272648
Si Si6 0.100476 0.000000 0.160102
O O1 0.750000 0.750000 0.739701
O O2 0.871833 0.888305 0.786876
O O3 0.889962 0.692699 0.653833
O O4 0.864847 0.699274 0.901742
O O5 0.500000 0.500000 0.861024
O O6 0.374100 0.500000 0.009622
O O7 0.500000 0.119048 0.499014
O O8 0.369673 0.205958 0.404047
O O9 0.369602 0.000000 0.522124
O O10 0.500000 0.865666 0.008960
O O11 0.622474 0.817656 0.153886
O O12 0.624835 0.000000 0.009632
O O13 0.127415 0.112320 0.234460
O O14 0.000000 0.233212 0.278320
O O15 0.000000 0.000000 0.157809
#
# Coordination Sequence:
#
# PCOD9348688 Si02
#       6
#     8   4   8   8   8   4
#     4  12  26  39  59  87 129 163 206 254 308 364
#     4  11  22  41  67  93 124 166 213 259 305 368
#     4  10  21  39  63  88 119 156 201 251 307 371
#     4  10  19  35  62  90 117 152 202 252 302 364
#     4   9  17  32  58  92 118 149 195 255 307 358
#     4   9  16  31  59  91 123 146 193 263 310 348
#
# _framework density 19.822171999999998
#
# number of rings (size 3 to 8) (size 9 to 14) (size 15 to 20)
#    0.000    1.800    2.000    3.000    2.800    4.800 
#    0.000    3.000    0.000    0.000    0.000    0.000 
#    0.000    0.000    0.000    0.000    0.000    0.000 
#
# Total GULP energy -111698.412664 kJ/mol
# GULP energy per Si atom -5584.920633 kJ/mol
# Density = 1.977706 g / cm^3
# Si number density = 19.822172 Si / 1000 Ang^3
#
#
#
# Elastic Constant Matrix: (Units=GPa)
#
#
# Indices 1 2 3 4 5 6 
#
# 1 14.9912 15.9075 -3.7681 0.0000 0.0000 0.0000
# 2 15.9075 164.8758 28.5413 0.0000 0.0000 0.0000
# 3 -3.7681 28.5413 78.2002 0.0000 0.0000 0.0000
# 4 0.0000 0.0000 0.0000 28.7476 0.0000 0.0000
# 5 0.0000 0.0000 0.0000 0.0000 -19.8596 0.0000
# 6 0.0000 0.0000 0.0000 0.0000 0.0000 8.4057
#
#
#
# Elastic Compliance Matrix: (Units=1/GPa)
#
#
# Indices 1 2 3 4 5 6 
#
# 1 0.077665 -0.008690 0.006914 0.000000 0.000000 0.000000
# 2 -0.008690 0.007447 -0.003137 0.000000 0.000000 0.000000
# 3 0.006914 -0.003137 0.014266 0.000000 0.000000 0.000000
# 4 0.000000 0.000000 0.000000 0.034785 0.000000 0.000000
# 5 0.000000 0.000000 0.000000 0.000000 -0.050354 0.000000
# 6 0.000000 0.000000 0.000000 0.000000 0.000000 0.118966
#
#
# Mechanical properties :
#
#
# Convention : Reuss Voigt Hill
#
# Bulk Modulus (GPa) = 11.16675 37.71430 24.44052
# Shear Modulus (GPa) = 20.62274 17.95120 19.28697
#
# Velocity S-wave (km/s) = 3.22900 3.01260 3.12268
# Velocity P-wave (km/s) = 4.42127 5.58289 5.03569
#
# Compressibility (1/GPa) = 0.08955160
#
# Stress axis : x y z
#
# Youngs Moduli (GPa) = 12.87586 134.28991 70.09858
#
# Poissons Ratio (x) = 1.16699 -0.48466
# Poissons Ratio (y) = 0.11189 0.21987
# Poissons Ratio (z) = -0.08902 0.42121
#
# Static dielectric constant tensor:
#      x y z
#    x 1.697510 0.000000 0.000000 
#    y 0.000000 1.694040 0.000000 
#    z 0.000000 0.000000 1.671370 
# 
# From -- ./inp_files/9088.got.cif
#   From: 2010.05.17/outbox.cif.g08.bks.cpg/sg35_5_cif.got.tgz:9088.got - 2010.06.03 17:29:28.
