data_PCOD9348590
_publ_section_title
;
Structure prediction by ZEFSAII (Michael W. Deem and Ramdas Pophale) SiO2 
 PCOD9348590
Probable space group: C M M 2
;
_chemical_formula_sum "Si O2"
_cell_formula_units_Z 64
_cell_length_a 29.529188
_cell_length_b 8.763083
_cell_length_c 12.758088
_cell_angle_alpha 90.000000
_cell_angle_beta 90.000000
_cell_angle_gamma 90.000000
_cell_volume 3301.368654
_symmetry_space_group_name_H-M "C M M 2"
_symmetry_group_IT_number 35
_symmetry_cell_setting 'orthorhombic'
loop_
_space_group_symop_operation_xyz
x,y,z
-x,-y,z
-x,y,z
x,-y,z
1/2+x,1/2+y,z
1/2-x,1/2-y,z
1/2-x,1/2+y,z
1/2+x,1/2-y,z
loop_
_atom_site_type_symbol
_atom_site_label
_atom_site_fract_x
_atom_site_fract_y
_atom_site_fract_z
Si Si1 0.947778 0.314006 0.203750
Si Si2 0.551355 0.325998 0.566189
Si Si3 0.683584 0.175209 0.714368
Si Si4 0.797224 0.181366 0.486978
Si Si5 0.796865 0.181426 0.937721
Si Si6 0.613451 0.819713 0.399947
Si Si7 0.077487 0.326180 0.768675
Si Si8 0.892985 0.315304 0.996316
O O1 0.949140 0.500000 0.205731
O O2 0.916948 0.266464 0.302038
O O3 0.922139 0.270148 0.097023
O O4 0.000000 0.261417 0.209192
O O5 0.500000 0.313312 0.527178
O O6 0.567260 0.500000 0.552084
O O7 0.583443 0.213784 0.502499
O O8 0.552413 0.282113 0.688036
O O9 0.799615 0.500000 0.716361
O O10 0.695289 0.252042 0.604341
O O11 0.700420 0.265514 0.816092
O O12 0.629455 0.170560 0.728949
O O13 0.750000 0.250000 0.447631
O O14 0.839320 0.234690 0.416566
O O15 0.795049 0.000000 0.492294
O O16 0.750000 0.250000 0.981321
O O17 0.796113 0.000000 0.943884
O O18 0.842679 0.245428 0.990842
O O19 0.621953 0.000000 0.390262
O O20 0.059777 0.500000 0.764193
O O21 0.080719 0.274853 0.888966
O O22 0.888068 0.500000 0.994795
#
# Coordination Sequence:
#
# PCOD9348590 Si02
#       8
#     8   8   8   8   8   8   8   8
#     4   9  19  38  66  94 116 147 195 250 302 355
#     4  11  23  36  53  81 118 158 197 240 295 355
#     4  10  19  34  55  83 118 157 200 242 288 345
#     4  12  24  38  58  85 119 158 198 242 294 353
#     4  11  21  34  54  83 120 161 202 242 290 347
#     4  11  22  39  62  88 118 152 197 249 299 356
#     4   9  18  32  54  82 116 154 191 236 289 351
#     4   9  19  37  60  87 118 150 194 247 298 352
#
# _framework density 19.385898999999998
#
# number of rings (size 3 to 8) (size 9 to 14) (size 15 to 20)
#    0.000    1.750    1.250    4.875    0.000    4.000 
#    0.000    3.125    0.000    1.875    0.000    0.000 
#    0.000    0.000    0.000    0.000    0.000    0.000 
#
# Total GULP energy -178743.621984 kJ/mol
# GULP energy per Si atom -5585.738187 kJ/mol
# Density = 1.934178 g / cm^3
# Si number density = 19.385899 Si / 1000 Ang^3
#
#
#
# Elastic Constant Matrix: (Units=GPa)
#
#
# Indices 1 2 3 4 5 6 
#
# 1 126.7437 36.0485 64.6378 0.0000 0.0000 0.0000
# 2 36.0485 77.9651 24.3346 0.0000 0.0000 0.0000
# 3 64.6378 24.3346 109.3724 0.0000 0.0000 0.0000
# 4 0.0000 0.0000 0.0000 12.5371 0.0000 0.0000
# 5 0.0000 0.0000 0.0000 0.0000 11.4766 0.0000
# 6 0.0000 0.0000 0.0000 0.0000 0.0000 19.9581
#
#
#
# Elastic Compliance Matrix: (Units=1/GPa)
#
#
# Indices 1 2 3 4 5 6 
#
# 1 0.012184 -0.003639 -0.006391 0.000000 0.000000 0.000000
# 2 -0.003639 0.014870 -0.001158 0.000000 0.000000 0.000000
# 3 -0.006391 -0.001158 0.013178 0.000000 0.000000 0.000000
# 4 0.000000 0.000000 0.000000 0.079763 0.000000 0.000000
# 5 0.000000 0.000000 0.000000 0.000000 0.087134 0.000000
# 6 0.000000 0.000000 0.000000 0.000000 0.000000 0.050105
#
#
# Mechanical properties :
#
#
# Convention : Reuss Voigt Hill
#
# Bulk Modulus (GPa) = 56.00261 62.68034 59.34148
# Shear Modulus (GPa) = 17.50932 21.39839 19.45385
#
# Velocity S-wave (km/s) = 3.00859 3.32597 3.17125
# Velocity P-wave (km/s) = 6.40467 6.86677 6.63974
#
# Compressibility (1/GPa) = 0.01785631
#
# Stress axis : x y z
#
# Youngs Moduli (GPa) = 82.07278 67.24881 75.88501
#
# Poissons Ratio (x) = 0.24470 0.48499
# Poissons Ratio (y) = 0.29865 0.08788
# Poissons Ratio (z) = 0.52454 0.07788
#
# Static dielectric constant tensor:
#      x y z
#    x 1.694090 0.000000 0.000000 
#    y 0.000000 1.655190 0.000000 
#    z 0.000000 0.000000 1.666700 
# 
# From -- ./inp_files/14546.got.cif
#   From: 2010.05.17/outbox.cif.g08.bks.cpg/sg35_8_cif.got.tgz:14546.got - 2010.06.03 17:29:28.
