data_PCOD9348733
_publ_section_title
;
Structure prediction by ZEFSAII (Michael W. Deem and Ramdas Pophale) SiO2 
 PCOD9348733
Probable space group: C M M 2
;
_chemical_formula_sum "Si O2"
_cell_formula_units_Z 56
_cell_length_a 31.524242
_cell_length_b 8.964147
_cell_length_c 12.913465
_cell_angle_alpha 90.000000
_cell_angle_beta 90.000000
_cell_angle_gamma 90.000000
_cell_volume 3649.189464
_symmetry_space_group_name_H-M "C M M 2"
_symmetry_group_IT_number 35
_symmetry_cell_setting 'orthorhombic'
loop_
_space_group_symop_operation_xyz
x,y,z
-x,-y,z
-x,y,z
x,-y,z
1/2+x,1/2+y,z
1/2-x,1/2-y,z
1/2-x,1/2+y,z
1/2+x,1/2-y,z
loop_
_atom_site_type_symbol
_atom_site_label
_atom_site_fract_x
_atom_site_fract_y
_atom_site_fract_z
Si Si1 0.114070 0.178966 0.532610
Si Si2 0.613077 0.821829 0.305130
Si Si3 0.208199 0.321656 0.306386
Si Si4 0.051498 0.671352 0.926446
Si Si5 0.549913 0.321748 0.141878
Si Si6 0.950463 0.179483 0.711594
Si Si7 0.291464 0.677788 0.535853
O O1 0.109555 0.258165 0.421757
O O2 0.078436 0.224291 0.614702
O O3 0.161349 0.207723 0.577917
O O4 0.111041 0.000000 0.515592
O O5 0.661074 0.789977 0.264185
O O6 0.578414 0.748983 0.231178
O O7 0.608107 0.000000 0.308072
O O8 0.213423 0.500000 0.313520
O O9 0.250000 0.250000 0.254857
O O10 0.206809 0.249920 0.421213
O O11 0.065435 0.500000 0.931865
O O12 0.064487 0.747379 0.818900
O O13 0.000000 0.673318 0.925103
O O14 0.063816 0.759157 0.029948
O O15 0.500000 0.283507 0.156292
O O16 0.553493 0.500000 0.143103
O O17 0.000000 0.218526 0.694628
O O18 0.948096 0.000000 0.721831
O O19 0.285658 0.500000 0.528248
O O20 0.250000 0.750000 0.587991
#
# Coordination Sequence:
#
# PCOD9348733 Si02
#       7
#     8   8   8   8   8   8   8
#     4   9  18  30  43  63  92 123 152 182 217 262
#     4  10  20  31  44  66  95 123 151 185 225 268
#     4   9  16  26  41  61  85 114 147 182 220 261
#     4   9  17  30  48  68  88 110 142 186 229 263
#     4  10  20  33  49  67  88 118 154 187 221 265
#     4   9  17  30  47  65  87 116 149 182 216 259
#     4   9  15  24  39  58  82 112 146 183 220 256
#
# _framework density 15.345874
#
# number of rings (size 3 to 8) (size 9 to 14) (size 15 to 20)
#    0.000    2.714    0.000    3.000    0.000    6.000 
#    0.000    1.429    0.000    0.000    0.000    1.000 
#    0.000    4.571    0.000    0.000    0.000    0.000 
#
# Total GULP energy -155875.798385 kJ/mol
# GULP energy per Si atom -5566.992799 kJ/mol
# Density = 1.531095 g / cm^3
# Si number density = 15.345874 Si / 1000 Ang^3
#
#
#
# Elastic Constant Matrix: (Units=GPa)
#
#
# Indices 1 2 3 4 5 6 
#
# 1 109.0132 53.2159 64.9726 0.0000 0.0000 0.0000
# 2 53.2159 62.3227 41.0642 0.0000 0.0000 0.0000
# 3 64.9726 41.0642 86.9066 0.0000 0.0000 0.0000
# 4 0.0000 0.0000 0.0000 9.5686 0.0000 0.0000
# 5 0.0000 0.0000 0.0000 0.0000 -1.3293 0.0000
# 6 0.0000 0.0000 0.0000 0.0000 0.0000 21.5700
#
#
#
# Elastic Compliance Matrix: (Units=1/GPa)
#
#
# Indices 1 2 3 4 5 6 
#
# 1 0.020565 -0.010788 -0.010277 0.000000 0.000000 0.000000
# 2 -0.010788 0.028959 -0.005618 0.000000 0.000000 0.000000
# 3 -0.010277 -0.005618 0.021844 0.000000 0.000000 0.000000
# 4 0.000000 0.000000 0.000000 0.104509 0.000000 0.000000
# 5 0.000000 0.000000 0.000000 0.000000 -0.752264 0.000000
# 6 0.000000 0.000000 0.000000 0.000000 0.000000 0.046361
#
#
# Mechanical properties :
#
#
# Convention : Reuss Voigt Hill
#
# Bulk Modulus (GPa) = 55.55008 64.08311 59.81659
# Shear Modulus (GPa) = -10.62340 12.56118 0.96889
#
# Velocity S-wave (km/s) = -2.63395 2.86411 0.79545
# Velocity P-wave (km/s) = 5.19876 7.26549 6.31722
#
# Compressibility (1/GPa) = 0.01800177
#
# Stress axis : x y z
#
# Youngs Moduli (GPa) = 48.62690 34.53153 45.77855
#
# Poissons Ratio (x) = 0.37254 0.47046
# Poissons Ratio (y) = 0.52460 0.25718
# Poissons Ratio (z) = 0.49973 0.19399
#
# Static dielectric constant tensor:
#      x y z
#    x 1.554590 0.000000 0.000000 
#    y 0.000000 1.513870 0.000000 
#    z 0.000000 0.000000 1.473210 
# 
# From -- ./inp_files/16062.got.cif
#   From: 2010.05.17/outbox.cif.g08.bks.cpg/sg35_9_cif.got.tgz:16062.got - 2010.06.03 17:29:28.
