data_PCOD9348571
_publ_section_title
;
Structure prediction by ZEFSAII (Michael W. Deem and Ramdas Pophale) SiO2 
 PCOD9348571
Probable space group: C M M 2
;
_chemical_formula_sum "Si O2"
_cell_formula_units_Z 30
_cell_length_a 15.550023
_cell_length_b 12.493290
_cell_length_c 7.711318
_cell_angle_alpha 90.000000
_cell_angle_beta 90.000000
_cell_angle_gamma 90.000000
_cell_volume 1498.085049
_symmetry_space_group_name_H-M "C M M 2"
_symmetry_group_IT_number 35
_symmetry_cell_setting 'orthorhombic'
loop_
_space_group_symop_operation_xyz
x,y,z
-x,-y,z
-x,y,z
x,-y,z
1/2+x,1/2+y,z
1/2-x,1/2-y,z
1/2-x,1/2+y,z
1/2+x,1/2-y,z
loop_
_atom_site_type_symbol
_atom_site_label
_atom_site_fract_x
_atom_site_fract_y
_atom_site_fract_z
Si Si1 0.319357 0.379105 0.303110
Si Si2 0.595313 0.124042 0.815062
Si Si3 0.750000 0.750000 0.985905
Si Si4 0.500000 0.000000 0.250270
Si Si5 0.872462 0.659106 0.416468
O O1 0.351723 0.500000 0.306877
O O2 0.294017 0.337742 0.111535
O O3 0.227799 0.372032 0.402440
O O4 0.378064 0.286058 0.383720
O O5 0.500000 0.158817 0.875549
O O6 0.595431 0.127634 0.606170
O O7 0.604787 0.000000 0.870504
O O8 0.674451 0.194393 0.878651
O O9 0.425235 0.093141 0.275077
#
# Coordination Sequence:
#
# PCOD9348571 Si02
#       5
#     8   8   4   2   8
#     4  10  21  40  55  84 117 161 191 231 284 349
#     4  11  20  37  61  90 114 145 193 246 291 343
#     4  10  22  36  56  86 120 158 192 232 290 344
#     4  12  16  36  58  98 112 134 180 272 276 344
#     4  10  19  33  63  87 115 140 191 244 293 329
#
# _framework density 20.025566999999999
#
# number of rings (size 3 to 8) (size 9 to 14) (size 15 to 20)
#    0.000    1.867    4.000    2.400    0.000    0.000 
#    9.600    2.000    0.000    5.600    0.000    0.000 
#    0.000    0.000    0.000    0.000    0.000    0.000 
#
# Total GULP energy -83511.474746 kJ/mol
# GULP energy per Si atom -5567.431650 kJ/mol
# Density = 1.997999 g / cm^3
# Si number density = 20.025567 Si / 1000 Ang^3
#
#
#
# Elastic Constant Matrix: (Units=GPa)
#
#
# Indices 1 2 3 4 5 6 
#
# 1 109.4190 42.4045 21.2340 0.0000 0.0000 0.0000
# 2 42.4045 176.0103 8.1316 0.0000 0.0000 0.0000
# 3 21.2340 8.1316 57.6717 0.0000 0.0000 0.0000
# 4 0.0000 0.0000 0.0000 -1.1242 0.0000 0.0000
# 5 0.0000 0.0000 0.0000 0.0000 -97.9733 0.0000
# 6 0.0000 0.0000 0.0000 0.0000 0.0000 -16.5321
#
#
#
# Elastic Compliance Matrix: (Units=1/GPa)
#
#
# Indices 1 2 3 4 5 6 
#
# 1 0.010785 -0.002431 -0.003628 0.000000 0.000000 0.000000
# 2 -0.002431 0.006267 0.000011 0.000000 0.000000 0.000000
# 3 -0.003628 0.000011 0.018674 0.000000 0.000000 0.000000
# 4 0.000000 0.000000 0.000000 -0.889538 0.000000 0.000000
# 5 0.000000 0.000000 0.000000 0.000000 -0.010207 0.000000
# 6 0.000000 0.000000 0.000000 0.000000 0.000000 -0.060488
#
#
# Mechanical properties :
#
#
# Convention : Reuss Voigt Hill
#
# Bulk Modulus (GPa) = 42.31838 54.07122 48.19480
# Shear Modulus (GPa) = -5.52770 -5.03719 -5.28244
#
# Velocity S-wave (km/s) = -1.66322 -1.58771 -1.62591
# Velocity P-wave (km/s) = 4.18206 4.86812 4.53807
#
# Compressibility (1/GPa) = 0.02363040
#
# Stress axis : x y z
#
# Youngs Moduli (GPa) = 92.71859 159.57658 53.55100
#
# Poissons Ratio (x) = 0.38790 0.19430
# Poissons Ratio (y) = 0.22538 -0.00061
# Poissons Ratio (z) = 0.33641 -0.00182
#
# Static dielectric constant tensor:
#      x y z
#    x 2.476440 0.000000 0.000000 
#    y 0.000000 1.708050 0.000000 
#    z 0.000000 0.000000 1.776900 
# 
# From -- ./inp_files/6695.got.cif
#   From: 2010.05.17/outbox.cif.g08.bks.cpg/sg35_4_cif.got.tgz:6695.got - 2010.06.03 17:29:28.
