data_PCOD9348624
_publ_section_title
;
Structure prediction by ZEFSAII (Michael W. Deem and Ramdas Pophale) SiO2 
 PCOD9348624
Probable space group: C M M 2
;
_chemical_formula_sum "Si O2"
_cell_formula_units_Z 40
_cell_length_a 14.736625
_cell_length_b 14.530271
_cell_length_c 8.974861
_cell_angle_alpha 90.000000
_cell_angle_beta 90.000000
_cell_angle_gamma 90.000000
_cell_volume 1921.761451
_symmetry_space_group_name_H-M "C M M 2"
_symmetry_group_IT_number 35
_symmetry_cell_setting 'orthorhombic'
loop_
_space_group_symop_operation_xyz
x,y,z
-x,-y,z
-x,y,z
x,-y,z
1/2+x,1/2+y,z
1/2-x,1/2-y,z
1/2-x,1/2+y,z
1/2+x,1/2-y,z
loop_
_atom_site_type_symbol
_atom_site_label
_atom_site_fract_x
_atom_site_fract_y
_atom_site_fract_z
Si Si1 0.396836 0.206718 0.892740
Si Si2 0.694017 0.395824 0.328368
Si Si3 0.250000 0.750000 0.123346
Si Si4 0.808097 0.000000 0.787071
Si Si5 0.108370 0.825093 0.624029
Si Si6 0.400712 0.500000 0.092858
Si Si7 0.103147 0.500000 0.820909
O O1 0.500000 0.237912 0.911436
O O2 0.370378 0.235313 0.723675
O O3 0.392905 0.096619 0.908129
O O4 0.333629 0.255281 0.011022
O O5 0.723280 0.500000 0.371684
O O6 0.763374 0.336811 0.231621
O O7 0.658851 0.338709 0.468099
O O8 0.614217 0.416242 0.208171
O O9 0.858126 0.910699 0.723306
O O10 0.701880 0.000000 0.741499
O O11 0.824158 0.000000 0.965592
O O12 0.000000 0.829577 0.599862
O O13 0.500000 0.500000 0.023947
O O14 0.000000 0.500000 0.749659
#
# Coordination Sequence:
#
# PCOD9348624 Si02
#       7
#     8   8   4   4   8   4   4
#     4  10  23  41  66  95 127 172 227 282 332 385
#     4  10  24  40  61  94 136 182 207 259 334 405
#     4  12  24  42  68  96 136 168 234 272 330 396
#     4  12  21  33  65  96 124 168 220 270 333 386
#     4  11  22  40  64  99 135 169 210 271 346 409
#     4  10  19  34  59  96 132 164 208 270 337 397
#     4  10  22  41  60  84 124 166 216 276 320 369
#
# _framework density 20.814238
#
# number of rings (size 3 to 8) (size 9 to 14) (size 15 to 20)
#    0.600    0.800    1.000    5.100    1.400    5.600 
#    0.000    0.000    0.000    1.200    0.000    0.000 
#    0.000    0.000    0.000    0.000    0.000    0.000 
#
# Total GULP energy -111465.255421 kJ/mol
# GULP energy per Si atom -5573.262771 kJ/mol
# Density = 2.076686 g / cm^3
# Si number density = 20.814238 Si / 1000 Ang^3
#
#
#
# Elastic Constant Matrix: (Units=GPa)
#
#
# Indices 1 2 3 4 5 6 
#
# 1 40.5767 4.9055 36.9271 0.0000 0.0000 0.0000
# 2 4.9055 70.4226 34.2228 0.0000 0.0000 0.0000
# 3 36.9271 34.2228 136.6523 0.0000 0.0000 0.0000
# 4 0.0000 0.0000 0.0000 23.9420 0.0000 0.0000
# 5 0.0000 0.0000 0.0000 0.0000 18.1467 0.0000
# 6 0.0000 0.0000 0.0000 0.0000 0.0000 21.9130
#
#
#
# Elastic Compliance Matrix: (Units=1/GPa)
#
#
# Indices 1 2 3 4 5 6 
#
# 1 0.033011 0.002318 -0.009501 0.000000 0.000000 0.000000
# 2 0.002318 0.016330 -0.004716 0.000000 0.000000 0.000000
# 3 -0.009501 -0.004716 0.011066 0.000000 0.000000 0.000000
# 4 0.000000 0.000000 0.000000 0.041768 0.000000 0.000000
# 5 0.000000 0.000000 0.000000 0.000000 0.055107 0.000000
# 6 0.000000 0.000000 0.000000 0.000000 0.000000 0.045635
#
#
# Mechanical properties :
#
#
# Convention : Reuss Voigt Hill
#
# Bulk Modulus (GPa) = 27.31573 44.41804 35.86688
# Shear Modulus (GPa) = 20.92769 24.24008 22.58389
#
# Velocity S-wave (km/s) = 3.17432 3.41631 3.29754
# Velocity P-wave (km/s) = 5.15628 6.07850 5.63628
#
# Compressibility (1/GPa) = 0.03660894
#
# Stress axis : x y z
#
# Youngs Moduli (GPa) = 30.29314 61.23571 90.36473
#
# Poissons Ratio (x) = -0.14192 0.85854
# Poissons Ratio (y) = -0.07021 0.42616
# Poissons Ratio (z) = 0.28781 0.28879
#
# Static dielectric constant tensor:
#      x y z
#    x 1.751070 0.000000 0.000000 
#    y 0.000000 1.805730 0.000000 
#    z 0.000000 0.000000 1.719540 
# 
# From -- ./inp_files/7052.got.cif
#   From: 2010.05.17/outbox.cif.g08.bks.cpg/sg35_4_cif.got.tgz:7052.got - 2010.06.03 17:29:28.
