data_PCOD9348445
_publ_section_title
;
Structure prediction by ZEFSAII (Michael W. Deem and Ramdas Pophale) SiO2 
 PCOD9348445
Probable space group: C M M 2
;
_chemical_formula_sum "Si O2"
_cell_formula_units_Z 64
_cell_length_a 8.275803
_cell_length_b 30.256531
_cell_length_c 12.655687
_cell_angle_alpha 90.000000
_cell_angle_beta 90.000000
_cell_angle_gamma 90.000000
_cell_volume 3168.947197
_symmetry_space_group_name_H-M "C M M 2"
_symmetry_group_IT_number 35
_symmetry_cell_setting 'orthorhombic'
loop_
_space_group_symop_operation_xyz
x,y,z
-x,-y,z
-x,y,z
x,-y,z
1/2+x,1/2+y,z
1/2-x,1/2-y,z
1/2-x,1/2+y,z
1/2+x,1/2-y,z
loop_
_atom_site_type_symbol
_atom_site_label
_atom_site_fract_x
_atom_site_fract_y
_atom_site_fract_z
Si Si1 0.195781 0.702459 0.089360
Si Si2 0.807520 0.604557 0.607175
Si Si3 0.307738 0.451406 0.170122
Si Si4 0.688346 0.888709 0.998405
Si Si5 0.808240 0.949198 0.809628
Si Si6 0.195105 0.703528 0.557695
Si Si7 0.688490 0.184823 0.325252
Si Si8 0.811295 0.908729 0.380885
O O1 0.250000 0.750000 0.048829
O O2 0.257650 0.697770 0.211100
O O3 0.000000 0.700104 0.092748
O O4 0.251373 0.660858 0.019343
O O5 0.763054 0.576574 0.709363
O O6 0.754375 0.656542 0.609061
O O7 0.732730 0.583119 0.501755
O O8 0.000000 0.605044 0.594558
O O9 0.500000 0.445572 0.149056
O O10 0.260205 0.500000 0.132821
O O11 0.285624 0.446889 0.295642
O O12 0.211511 0.414136 0.108772
O O13 0.500000 0.885881 0.970038
O O14 0.771987 0.919229 0.911575
O O15 0.000000 0.951498 0.796104
O O16 0.747607 0.000000 0.819900
O O17 0.250000 0.750000 0.606646
O O18 0.258983 0.702519 0.435908
O O19 0.000000 0.703292 0.555227
O O20 0.500000 0.197344 0.323485
O O21 0.706623 0.132494 0.340587
O O22 0.000000 0.895979 0.374841
#
# Coordination Sequence:
#
# PCOD9348445 Si02
#       8
#     8   8   8   8   8   8   8   8
#     4  10  21  35  55  84 119 157 199 245 292 347
#     4  10  22  40  61  87 120 154 196 247 296 350
#     4  10  21  36  55  83 119 157 196 239 291 353
#     4  11  23  40  62  88 119 153 195 246 296 351
#     4  11  25  45  68  91 114 146 194 249 301 358
#     4   9  18  31  52  82 118 157 195 238 284 338
#     4   9  17  32  50  76 117 159 199 245 289 337
#     4  10  19  32  54  84 119 160 198 239 293 349
#
# _framework density 20.195982000000001
#
# number of rings (size 3 to 8) (size 9 to 14) (size 15 to 20)
#    0.000    2.000    1.250    3.000    0.000    7.750 
#    0.000    1.875    0.000    0.000    0.000    0.000 
#    0.000    0.000    0.000    0.000    0.000    0.000 
#
# Total GULP energy -178512.137901 kJ/mol
# GULP energy per Si atom -5578.504309 kJ/mol
# Density = 2.015001 g / cm^3
# Si number density = 20.195982 Si / 1000 Ang^3
#
#
#
# Elastic Constant Matrix: (Units=GPa)
#
#
# Indices 1 2 3 4 5 6 
#
# 1 13.7088 9.8794 4.0741 0.0000 0.0000 0.0000
# 2 9.8794 136.4540 45.2177 0.0000 0.0000 0.0000
# 3 4.0741 45.2177 81.0790 0.0000 0.0000 0.0000
# 4 0.0000 0.0000 0.0000 12.1644 0.0000 0.0000
# 5 0.0000 0.0000 0.0000 0.0000 40.7507 0.0000
# 6 0.0000 0.0000 0.0000 0.0000 0.0000 18.7211
#
#
#
# Elastic Compliance Matrix: (Units=1/GPa)
#
#
# Indices 1 2 3 4 5 6 
#
# 1 0.077019 -0.005267 -0.000933 0.000000 0.000000 0.000000
# 2 -0.005267 0.009350 -0.004950 0.000000 0.000000 0.000000
# 3 -0.000933 -0.004950 0.015141 0.000000 0.000000 0.000000
# 4 0.000000 0.000000 0.000000 0.082207 0.000000 0.000000
# 5 0.000000 0.000000 0.000000 0.000000 0.024539 0.000000
# 6 0.000000 0.000000 0.000000 0.000000 0.000000 0.053416
#
#
# Mechanical properties :
#
#
# Convention : Reuss Voigt Hill
#
# Bulk Modulus (GPa) = 12.62456 38.84267 25.73362
# Shear Modulus (GPa) = 16.10953 25.79860 20.95406
#
# Velocity S-wave (km/s) = 2.82735 3.57797 3.22458
# Velocity P-wave (km/s) = 4.11378 6.02858 5.16076
#
# Compressibility (1/GPa) = 0.07921066
#
# Stress axis : x y z
#
# Youngs Moduli (GPa) = 12.98384 106.95072 66.04558
#
# Poissons Ratio (x) = 0.56333 0.06159
# Poissons Ratio (y) = 0.06839 0.32692
# Poissons Ratio (z) = 0.01211 0.52939
#
# Static dielectric constant tensor:
#      x y z
#    x 1.704350 0.000000 0.000000 
#    y 0.000000 1.744510 0.000000 
#    z 0.000000 0.000000 1.718790 
# 
# From -- ./inp_files/11937.got.cif
#   From: 2010.05.17/outbox.cif.g08.bks.cpg/sg35_6_cif.got.tgz:11937.got - 2010.06.03 17:29:28.
