data_PCOD9348625
_publ_section_title
;
Structure prediction by ZEFSAII (Michael W. Deem and Ramdas Pophale) SiO2 
 PCOD9348625
Probable space group: C M M 2
;
_chemical_formula_sum "Si O2"
_cell_formula_units_Z 42
_cell_length_a 7.857273
_cell_length_b 20.332341
_cell_length_c 12.735716
_cell_angle_alpha 90.000000
_cell_angle_beta 90.000000
_cell_angle_gamma 90.000000
_cell_volume 2034.616648
_symmetry_space_group_name_H-M "C M M 2"
_symmetry_group_IT_number 35
_symmetry_cell_setting 'orthorhombic'
loop_
_space_group_symop_operation_xyz
x,y,z
-x,-y,z
-x,y,z
x,-y,z
1/2+x,1/2+y,z
1/2-x,1/2-y,z
1/2-x,1/2+y,z
1/2+x,1/2-y,z
loop_
_atom_site_type_symbol
_atom_site_label
_atom_site_fract_x
_atom_site_fract_y
_atom_site_fract_z
Si Si1 0.805216 0.105925 0.161170
Si Si2 0.302046 0.174239 0.959164
Si Si3 0.296446 0.325691 0.720914
Si Si4 0.000000 0.500000 0.182618
Si Si5 0.200575 0.822709 0.365784
Si Si6 0.791469 0.924163 0.536520
O O1 0.652568 0.055865 0.178845
O O2 0.767675 0.164814 0.243237
O O3 0.000000 0.082767 0.184498
O O4 0.798780 0.130421 0.041641
O O5 0.500000 0.166530 0.983363
O O6 0.250000 0.250000 0.972328
O O7 0.272263 0.158714 0.836854
O O8 0.500000 0.328015 0.726242
O O9 0.250000 0.250000 0.693689
O O10 0.239638 0.379386 0.635810
O O11 0.250000 0.750000 0.400433
O O12 0.270124 0.883193 0.434920
O O13 0.000000 0.825788 0.381532
O O14 0.000000 0.926389 0.536309
O O15 0.733654 0.000000 0.538482
#
# Coordination Sequence:
#
# PCOD9348625 Si02
#       6
#     8   8   8   2   8   8
#     4  11  24  43  66  95 131 173 216 259 322 381
#     4  11  21  38  63  92 126 163 213 274 324 378
#     4  10  19  34  60  88 118 160 209 263 321 382
#     4  12  26  44  64  94 134 180 208 264 308 388
#     4  10  22  38  64  93 123 163 210 266 320 381
#     4   9  19  37  58  85 121 162 209 259 322 390
#
# _framework density 20.642707000000001
#
# number of rings (size 3 to 8) (size 9 to 14) (size 15 to 20)
#    0.000    1.714    0.952    4.857    2.667    1.524 
#    1.714    0.952    0.000    4.000    0.000    0.000 
#    0.000    0.000    0.000    0.000    0.000    0.000 
#
# Total GULP energy -116956.557709 kJ/mol
# GULP energy per Si atom -5569.359891 kJ/mol
# Density = 2.059572 g / cm^3
# Si number density = 20.642707 Si / 1000 Ang^3
#
#
#
# Elastic Constant Matrix: (Units=GPa)
#
#
# Indices 1 2 3 4 5 6 
#
# 1 96.3575 22.9432 12.8927 0.0000 0.0000 0.0000
# 2 22.9432 145.3630 66.3659 0.0000 0.0000 0.0000
# 3 12.8927 66.3659 86.7697 0.0000 0.0000 0.0000
# 4 0.0000 0.0000 0.0000 -149.8983 0.0000 0.0000
# 5 0.0000 0.0000 0.0000 0.0000 -24.4230 0.0000
# 6 0.0000 0.0000 0.0000 0.0000 0.0000 26.9389
#
#
#
# Elastic Compliance Matrix: (Units=1/GPa)
#
#
# Indices 1 2 3 4 5 6 
#
# 1 0.010795 -0.001493 -0.000462 0.000000 0.000000 0.000000
# 2 -0.001493 0.010777 -0.008021 0.000000 0.000000 0.000000
# 3 -0.000462 -0.008021 0.017728 0.000000 0.000000 0.000000
# 4 0.000000 0.000000 0.000000 -0.006671 0.000000 0.000000
# 5 0.000000 0.000000 0.000000 0.000000 -0.040945 0.000000
# 6 0.000000 0.000000 0.000000 0.000000 0.000000 0.037121
#
#
# Mechanical properties :
#
#
# Convention : Reuss Voigt Hill
#
# Bulk Modulus (GPa) = 51.68357 59.21043 55.44700
# Shear Modulus (GPa) = 90.56844 -14.39059 38.08893
#
# Velocity S-wave (km/s) = 6.63095 -2.64318 4.30018
# Velocity P-wave (km/s) = 9.14973 4.40801 7.18151
#
# Compressibility (1/GPa) = 0.01934851
#
# Stress axis : x y z
#
# Youngs Moduli (GPa) = 92.63272 92.79077 56.40711
#
# Poissons Ratio (x) = 0.13852 0.02607
# Poissons Ratio (y) = 0.13829 0.45244
# Poissons Ratio (z) = 0.04282 0.74427
#
# Static dielectric constant tensor:
#      x y z
#    x 1.742070 0.000000 0.000000 
#    y 0.000000 1.774010 0.000000 
#    z 0.000000 0.000000 1.754280 
# 
# From -- ./inp_files/11215.got.cif
#   From: 2010.05.17/outbox.cif.g08.bks.cpg/sg35_6_cif.got.tgz:11215.got - 2010.06.03 17:29:28.
