data_PCOD9348265
_publ_section_title
;
Structure prediction by ZEFSAII (Michael W. Deem and Ramdas Pophale) SiO2 
 PCOD9348265
Probable space group: C M M 2
;
_chemical_formula_sum "Si O2"
_cell_formula_units_Z 48
_cell_length_a 31.694864
_cell_length_b 9.200346
_cell_length_c 9.710422
_cell_angle_alpha 90.000000
_cell_angle_beta 90.000000
_cell_angle_gamma 90.000000
_cell_volume 2831.595132
_symmetry_space_group_name_H-M "C M M 2"
_symmetry_group_IT_number 35
_symmetry_cell_setting 'orthorhombic'
loop_
_space_group_symop_operation_xyz
x,y,z
-x,-y,z
-x,y,z
x,-y,z
1/2+x,1/2+y,z
1/2-x,1/2-y,z
1/2-x,1/2+y,z
1/2+x,1/2-y,z
loop_
_atom_site_type_symbol
_atom_site_label
_atom_site_fract_x
_atom_site_fract_y
_atom_site_fract_z
Si Si1 0.207442 0.668459 0.867130
Si Si2 0.379328 0.673605 0.862286
Si Si3 0.376846 0.672494 0.536302
Si Si4 0.708147 0.166510 0.531536
Si Si5 0.450999 0.173298 0.039336
Si Si6 0.548183 0.672906 0.331657
O O1 0.206594 0.500000 0.910677
O O2 0.250000 0.750000 0.913303
O O3 0.164943 0.753474 0.906975
O O4 0.208417 0.669193 0.699346
O O5 0.378061 0.500000 0.884079
O O6 0.383917 0.700822 0.698331
O O7 0.418080 0.746058 0.941403
O O8 0.369268 0.500000 0.522564
O O9 0.335084 0.756376 0.489323
O O10 0.417495 0.711196 0.446317
O O11 0.750000 0.250000 0.485120
O O12 0.709185 0.000000 0.487314
O O13 0.500000 0.201699 0.000447
O O14 0.445332 0.236190 0.192993
O O15 0.444300 0.000000 0.036844
O O16 0.500000 0.696907 0.379443
O O17 0.552333 0.500000 0.301067
#
# Coordination Sequence:
#
# PCOD9348265 Si02
#       6
#     8   8   8   8   8   8
#     4   9  16  27  44  68  99 132 165 201 241 287
#     4  10  19  31  50  76 103 131 164 203 247 292
#     4   9  18  31  49  75 103 128 160 203 246 288
#     4   9  16  26  43  67  97 131 164 198 238 285
#     4  10  21  36  52  71  97 130 167 205 246 295
#     4   9  18  34  54  73  95 127 165 202 243 294
#
# _framework density 16.951574999999998
#
# number of rings (size 3 to 8) (size 9 to 14) (size 15 to 20)
#    0.000    2.667    0.000    2.000    0.000    7.000 
#    0.000    1.667    0.000    3.000    0.000    2.333 
#    0.000    0.000    0.000    0.000    0.000    0.000 
#
# Total GULP energy -133805.034141 kJ/mol
# GULP energy per Si atom -5575.209756 kJ/mol
# Density = 1.691299 g / cm^3
# Si number density = 16.951575 Si / 1000 Ang^3
#
#
#
# Elastic Constant Matrix: (Units=GPa)
#
#
# Indices 1 2 3 4 5 6 
#
# 1 190.9954 111.5754 72.2663 0.0000 0.0000 0.0000
# 2 111.5754 109.5317 50.8435 0.0000 0.0000 0.0000
# 3 72.2663 50.8435 36.8473 0.0000 0.0000 0.0000
# 4 0.0000 0.0000 0.0000 16.4750 0.0000 0.0000
# 5 0.0000 0.0000 0.0000 0.0000 -11.8914 0.0000
# 6 0.0000 0.0000 0.0000 0.0000 0.0000 35.3573
#
#
#
# Elastic Compliance Matrix: (Units=1/GPa)
#
#
# Indices 1 2 3 4 5 6 
#
# 1 0.021886 -0.006591 -0.033828 0.000000 0.000000 0.000000
# 2 -0.006591 0.027382 -0.024855 0.000000 0.000000 0.000000
# 3 -0.033828 -0.024855 0.127780 0.000000 0.000000 0.000000
# 4 0.000000 0.000000 0.000000 0.060698 0.000000 0.000000
# 5 0.000000 0.000000 0.000000 0.000000 -0.084095 0.000000
# 6 0.000000 0.000000 0.000000 0.000000 0.000000 0.028283
#
#
# Mechanical properties :
#
#
# Convention : Reuss Voigt Hill
#
# Bulk Modulus (GPa) = 21.50612 89.63833 55.57223
# Shear Modulus (GPa) = 15.24475 14.83412 15.03944
#
# Velocity S-wave (km/s) = 3.00211 2.96140 2.98182
# Velocity P-wave (km/s) = 4.97305 8.04282 6.68649
#
# Compressibility (1/GPa) = 0.04649839
#
# Stress axis : x y z
#
# Youngs Moduli (GPa) = 45.69210 36.52073 7.82596
#
# Poissons Ratio (x) = 0.24072 0.26474
# Poissons Ratio (y) = 0.30118 0.19452
# Poissons Ratio (z) = 1.54566 0.90773
#
# Static dielectric constant tensor:
#      x y z
#    x 1.561340 0.000000 0.000000 
#    y 0.000000 1.567620 0.000000 
#    z 0.000000 0.000000 1.545970 
# 
# From -- ./inp_files/5289.got.cif
#   From: 2010.05.17/outbox.cif.g08.bks.cpg/sg35_3_cif.got.tgz:5289.got - 2010.06.03 17:29:28.
