data_PCOD9348787
_publ_section_title
;
Structure prediction by ZEFSAII (Michael W. Deem and Ramdas Pophale) SiO2 
 PCOD9348787
Probable space group: C M M 2
;
_chemical_formula_sum "Si O2"
_cell_formula_units_Z 64
_cell_length_a 8.725014
_cell_length_b 29.398178
_cell_length_c 15.994666
_cell_angle_alpha 90.000000
_cell_angle_beta 90.000000
_cell_angle_gamma 90.000000
_cell_volume 4102.624066
_symmetry_space_group_name_H-M "C M M 2"
_symmetry_group_IT_number 35
_symmetry_cell_setting 'orthorhombic'
loop_
_space_group_symop_operation_xyz
x,y,z
-x,-y,z
-x,y,z
x,-y,z
1/2+x,1/2+y,z
1/2-x,1/2-y,z
1/2-x,1/2+y,z
1/2+x,1/2-y,z
loop_
_atom_site_type_symbol
_atom_site_label
_atom_site_fract_x
_atom_site_fract_y
_atom_site_fract_z
Si Si1 0.315244 0.550768 0.920090
Si Si2 0.684317 0.145286 0.660781
Si Si3 0.316279 0.800673 0.832009
Si Si4 0.682208 0.698925 0.504951
Si Si5 0.816589 0.301082 0.333285
Si Si6 0.316442 0.801130 0.147539
Si Si7 0.684854 0.050943 0.733896
Si Si8 0.184108 0.145640 0.991081
O O1 0.500000 0.551345 0.914869
O O2 0.267717 0.500000 0.947828
O O3 0.250210 0.557868 0.826948
O O4 0.268696 0.593069 0.977401
O O5 0.500000 0.147079 0.648707
O O6 0.718958 0.172434 0.746433
O O7 0.764411 0.169034 0.582948
O O8 0.731643 0.092962 0.675938
O O9 0.500000 0.799138 0.841433
O O10 0.250000 0.750000 0.827409
O O11 0.244965 0.826572 0.911051
O O12 0.500000 0.702433 0.501426
O O13 0.750000 0.750000 0.514479
O O14 0.744653 0.678662 0.417289
O O15 0.750000 0.250000 0.331288
O O16 0.779220 0.319591 0.240921
O O17 0.000000 0.299662 0.342108
O O18 0.500000 0.798238 0.140713
O O19 0.250000 0.750000 0.139545
O O20 0.250395 0.832182 0.074560
O O21 0.500000 0.052381 0.739744
O O22 0.729799 0.000000 0.706152
O O23 0.000000 0.148286 0.992813
#
# Coordination Sequence:
#
# PCOD9348787 Si02
#       8
#     8   8   8   8   8   8   8   8
#     4   9  18  32  49  69  93 122 157 197 240 283
#     4  10  20  33  48  69  96 127 160 196 235 280
#     4  11  22  34  46  63  92 130 165 197 230 272
#     4  11  21  32  49  71  97 128 160 197 236 281
#     4   9  17  31  50  70  93 122 155 196 239 280
#     4  10  20  33  50  71  97 127 160 196 235 280
#     4   9  17  31  51  72  93 120 156 198 242 282
#     4  11  21  32  48  69  95 127 160 196 236 281
#
# _framework density 15.599771
#
# number of rings (size 3 to 8) (size 9 to 14) (size 15 to 20)
#    0.000    2.000    1.250    4.125    0.000    4.500 
#    0.000    0.000    0.000    0.000    0.000    0.875 
#    0.000    1.000    0.000    0.000    0.000    0.000 
#
# Total GULP energy -178480.679697 kJ/mol
# GULP energy per Si atom -5577.521241 kJ/mol
# Density = 1.556427 g / cm^3
# Si number density = 15.599771 Si / 1000 Ang^3
#
#
#
# Elastic Constant Matrix: (Units=GPa)
#
#
# Indices 1 2 3 4 5 6 
#
# 1 57.0811 40.2383 56.8832 0.0000 0.0000 0.0000
# 2 40.2383 117.5783 73.6762 0.0000 0.0000 0.0000
# 3 56.8832 73.6762 145.1075 0.0000 0.0000 0.0000
# 4 0.0000 0.0000 0.0000 5.6993 0.0000 0.0000
# 5 0.0000 0.0000 0.0000 0.0000 -23.2508 0.0000
# 6 0.0000 0.0000 0.0000 0.0000 0.0000 10.3763
#
#
#
# Elastic Compliance Matrix: (Units=1/GPa)
#
#
# Indices 1 2 3 4 5 6 
#
# 1 0.030144 -0.004270 -0.009649 0.000000 0.000000 0.000000
# 2 -0.004270 0.013078 -0.004966 0.000000 0.000000 0.000000
# 3 -0.009649 -0.004966 0.013195 0.000000 0.000000 0.000000
# 4 0.000000 0.000000 0.000000 0.175461 0.000000 0.000000
# 5 0.000000 0.000000 0.000000 0.000000 -0.043009 0.000000
# 6 0.000000 0.000000 0.000000 0.000000 0.000000 0.096373
#
#
# Mechanical properties :
#
#
# Convention : Reuss Voigt Hill
#
# Bulk Modulus (GPa) = 53.62622 73.48471 63.55546
# Shear Modulus (GPa) = 15.18697 8.49625 11.84161
#
# Velocity S-wave (km/s) = 3.12354 2.33628 2.75815
# Velocity P-wave (km/s) = 6.88909 7.38147 7.13953
#
# Compressibility (1/GPa) = 0.01864759
#
# Stress axis : x y z
#
# Youngs Moduli (GPa) = 33.17370 76.46232 75.78394
#
# Poissons Ratio (x) = 0.32651 0.73122
# Poissons Ratio (y) = 0.14166 0.37637
# Poissons Ratio (z) = 0.32008 0.37974
#
# Static dielectric constant tensor:
#      x y z
#    x 1.546700 0.000000 0.000000 
#    y 0.000000 1.517390 0.000000 
#    z 0.000000 0.000000 1.517160 
# 
# From -- ./inp_files/16173.got.cif
#   From: 2010.05.17/outbox.cif.g08.bks.cpg/sg35_9_cif.got.tgz:16173.got - 2010.06.03 17:29:28.
