data_PCOD9348499
_publ_section_title
;
Structure prediction by ZEFSAII (Michael W. Deem and Ramdas Pophale) SiO2 
 PCOD9348499
Probable space group: C M M 2
;
_chemical_formula_sum "Si O2"
_cell_formula_units_Z 48
_cell_length_a 8.345963
_cell_length_b 19.696562
_cell_length_c 15.563279
_cell_angle_alpha 90.000000
_cell_angle_beta 90.000000
_cell_angle_gamma 90.000000
_cell_volume 2558.397285
_symmetry_space_group_name_H-M "C M M 2"
_symmetry_group_IT_number 35
_symmetry_cell_setting 'orthorhombic'
loop_
_space_group_symop_operation_xyz
x,y,z
-x,-y,z
-x,y,z
x,-y,z
1/2+x,1/2+y,z
1/2-x,1/2-y,z
1/2-x,1/2+y,z
1/2+x,1/2-y,z
loop_
_atom_site_type_symbol
_atom_site_label
_atom_site_fract_x
_atom_site_fract_y
_atom_site_fract_z
Si Si1 0.806426 0.422426 0.670580
Si Si2 0.809661 0.174115 0.820906
Si Si3 0.307738 0.825532 0.013971
Si Si4 0.804052 0.577843 0.168528
Si Si5 0.806466 0.674499 0.321935
Si Si6 0.306393 0.825531 0.518060
O O1 0.748664 0.500000 0.671905
O O2 0.756578 0.380504 0.754319
O O3 0.750237 0.380827 0.586746
O O4 0.000000 0.423957 0.667625
O O5 0.750000 0.250000 0.798532
O O6 0.754158 0.159804 0.918247
O O7 0.000000 0.174250 0.817932
O O8 0.500000 0.824971 0.011522
O O9 0.250000 0.750000 0.038067
O O10 0.254168 0.880240 0.084264
O O11 0.750421 0.500000 0.167918
O O12 0.751937 0.619092 0.253031
O O13 0.000000 0.577366 0.168889
O O14 0.750000 0.750000 0.297761
O O15 0.752633 0.661088 0.419978
O O16 0.000000 0.674378 0.321855
O O17 0.500000 0.825778 0.518174
O O18 0.250000 0.750000 0.542253
#
# Coordination Sequence:
#
# PCOD9348499 Si02
#       6
#     8   8   8   8   8   8
#     4  10  21  36  53  76 107 140 173 211 258 310
#     4  11  22  37  57  79 103 133 173 217 261 309
#     4  10  19  33  54  77 101 132 170 211 255 302
#     4   9  18  31  49  75 104 134 168 206 250 300
#     4   9  17  31  52  76 102 132 169 211 251 295
#     4   9  18  32  52  77 102 133 171 211 254 299
#
# _framework density 18.761745999999999
#
# number of rings (size 3 to 8) (size 9 to 14) (size 15 to 20)
#    0.000    2.333    0.000    4.000    0.000    3.667 
#    0.000    5.833    0.000    4.000    0.000    4.667 
#    0.000    0.000    0.000    0.000    0.000    0.000 
#
# Total GULP energy -133981.460683 kJ/mol
# GULP energy per Si atom -5582.560862 kJ/mol
# Density = 1.871904 g / cm^3
# Si number density = 18.761746 Si / 1000 Ang^3
#
#
#
# Elastic Constant Matrix: (Units=GPa)
#
#
# Indices 1 2 3 4 5 6 
#
# 1 20.6161 18.5733 14.5459 0.0000 0.0000 0.0000
# 2 18.5733 201.5399 140.9959 0.0000 0.0000 0.0000
# 3 14.5459 140.9959 135.4242 0.0000 0.0000 0.0000
# 4 0.0000 0.0000 0.0000 2.9763 0.0000 0.0000
# 5 0.0000 0.0000 0.0000 0.0000 11.5621 0.0000
# 6 0.0000 0.0000 0.0000 0.0000 0.0000 25.5431
#
#
#
# Elastic Compliance Matrix: (Units=1/GPa)
#
#
# Indices 1 2 3 4 5 6 
#
# 1 0.053081 -0.003325 -0.002240 0.000000 0.000000 0.000000
# 2 -0.003325 0.018475 -0.018878 0.000000 0.000000 0.000000
# 3 -0.002240 -0.018878 0.027280 0.000000 0.000000 0.000000
# 4 0.000000 0.000000 0.000000 0.335982 0.000000 0.000000
# 5 0.000000 0.000000 0.000000 0.000000 0.086489 0.000000
# 6 0.000000 0.000000 0.000000 0.000000 0.000000 0.039150
#
#
# Mechanical properties :
#
#
# Convention : Reuss Voigt Hill
#
# Bulk Modulus (GPa) = 20.01976 78.42337 49.22156
# Shear Modulus (GPa) = 7.98729 20.24731 14.11730
#
# Velocity S-wave (km/s) = 2.06554 3.28865 2.74606
# Velocity P-wave (km/s) = 4.04751 7.50404 6.02880
#
# Compressibility (1/GPa) = 0.04995065
#
# Stress axis : x y z
#
# Youngs Moduli (GPa) = 18.83896 54.12592 36.65697
#
# Poissons Ratio (x) = 0.17996 0.08210
# Poissons Ratio (y) = 0.06264 0.69203
# Poissons Ratio (z) = 0.04220 1.02181
#
# Static dielectric constant tensor:
#      x y z
#    x 1.647530 0.000000 0.000000 
#    y 0.000000 1.624210 0.000000 
#    z 0.000000 0.000000 1.648680 
# 
# From -- ./inp_files/15168.got.cif
#   From: 2010.05.17/outbox.cif.g08.bks.cpg/sg35_8_cif.got.tgz:15168.got - 2010.06.03 17:29:28.
