data_PCOD9348533
_publ_section_title
;
Structure prediction by ZEFSAII (Michael W. Deem and Ramdas Pophale) SiO2 
 PCOD9348533
Probable space group: C M M 2
;
_chemical_formula_sum "Si O2"
_cell_formula_units_Z 64
_cell_length_a 17.849108
_cell_length_b 14.845811
_cell_length_c 14.317412
_cell_angle_alpha 90.000000
_cell_angle_beta 90.000000
_cell_angle_gamma 90.000000
_cell_volume 3793.892029
_symmetry_space_group_name_H-M "C M M 2"
_symmetry_group_IT_number 35
_symmetry_cell_setting 'orthorhombic'
loop_
_space_group_symop_operation_xyz
x,y,z
-x,-y,z
-x,y,z
x,-y,z
1/2+x,1/2+y,z
1/2-x,1/2-y,z
1/2-x,1/2+y,z
1/2+x,1/2-y,z
loop_
_atom_site_type_symbol
_atom_site_label
_atom_site_fract_x
_atom_site_fract_y
_atom_site_fract_z
Si Si1 0.819980 0.106898 0.629550
Si Si2 0.411356 0.721504 0.776303
Si Si3 0.684679 0.895900 0.766793
Si Si4 0.411100 0.719705 0.263850
Si Si5 0.817556 0.398362 0.279913
Si Si6 0.681330 0.601550 0.909507
Si Si7 0.208464 0.156024 0.117219
Si Si8 0.178782 0.892521 0.411326
O O1 0.878003 0.165136 0.689245
O O2 0.739027 0.120925 0.677970
O O3 0.820159 0.129631 0.520548
O O4 0.836448 0.000000 0.639174
O O5 0.500000 0.719074 0.777750
O O6 0.379705 0.822497 0.770229
O O7 0.376110 0.673195 0.867278
O O8 0.739992 0.883565 0.855652
O O9 0.659887 0.000000 0.764894
O O10 0.500000 0.716372 0.254262
O O11 0.379875 0.821557 0.272984
O O12 0.366543 0.676627 0.176130
O O13 0.381838 0.663997 0.353537
O O14 0.845892 0.500000 0.292272
O O15 0.765285 0.394120 0.187397
O O16 0.759500 0.375232 0.363305
O O17 0.657073 0.500000 0.884386
O O18 0.691722 0.609473 0.019713
O O19 0.250000 0.250000 0.096066
O O20 0.164779 0.000000 0.400940
#
# Coordination Sequence:
#
# PCOD9348533 Si02
#       8
#     8   8   8   8   8   8   8   8
#     4   9  18  34  56  76  95 125 166 209 247 286
#     4  11  22  33  48  74 107 135 159 194 243 300
#     4   9  19  35  54  75  96 125 169 210 241 281
#     4  10  21  33  47  74 107 134 161 195 243 301
#     4   9  18  33  53  75  97 126 168 210 243 283
#     4  10  19  33  55  77  97 126 165 207 246 286
#     4   9  17  32  53  73  96 128 166 207 245 284
#     4   9  18  34  55  75  95 126 168 209 246 284
#
# _framework density 16.869221
#
# number of rings (size 3 to 8) (size 9 to 14) (size 15 to 20)
#    0.000    2.500    0.000    4.875    0.000    5.250 
#    0.000    1.250    0.000    0.000    0.000    8.750 
#    0.000    0.000    0.000    0.000    0.000    0.000 
#
# Total GULP energy -178497.359936 kJ/mol
# GULP energy per Si atom -5578.042498 kJ/mol
# Density = 1.683083 g / cm^3
# Si number density = 16.869221 Si / 1000 Ang^3
#
#
#
# Elastic Constant Matrix: (Units=GPa)
#
#
# Indices 1 2 3 4 5 6 
#
# 1 43.7297 13.7482 23.7319 0.0000 0.0000 0.0000
# 2 13.7482 49.7177 22.1260 0.0000 0.0000 0.0000
# 3 23.7319 22.1260 116.4822 0.0000 0.0000 0.0000
# 4 0.0000 0.0000 0.0000 1369.1140 0.0000 0.0000
# 5 0.0000 0.0000 0.0000 0.0000 3.0748 0.0000
# 6 0.0000 0.0000 0.0000 0.0000 0.0000 3.5781
#
#
#
# Elastic Compliance Matrix: (Units=1/GPa)
#
#
# Indices 1 2 3 4 5 6 
#
# 1 0.027013 -0.005484 -0.004462 0.000000 0.000000 0.000000
# 2 -0.005484 0.023084 -0.003268 0.000000 0.000000 0.000000
# 3 -0.004462 -0.003268 0.010115 0.000000 0.000000 0.000000
# 4 0.000000 0.000000 0.000000 0.000730 0.000000 0.000000
# 5 0.000000 0.000000 0.000000 0.000000 0.325220 0.000000
# 6 0.000000 0.000000 0.000000 0.000000 0.000000 0.279474
#
#
# Mechanical properties :
#
#
# Convention : Reuss Voigt Hill
#
# Bulk Modulus (GPa) = 29.59888 36.57129 33.08508
# Shear Modulus (GPa) = 7.10908 285.17497 146.14202
#
# Velocity S-wave (km/s) = 2.05509 13.01605 9.31775
# Velocity P-wave (km/s) = 4.81823 15.73583 11.63683
#
# Compressibility (1/GPa) = 0.03378507
#
# Stress axis : x y z
#
# Youngs Moduli (GPa) = 37.01867 43.31959 98.86562
#
# Poissons Ratio (x) = 0.23757 0.44113
# Poissons Ratio (y) = 0.20302 0.32305
# Poissons Ratio (z) = 0.16517 0.14155
#
# Static dielectric constant tensor:
#      x y z
#    x 1.524360 0.000000 0.000000 
#    y 0.000000 1.550280 0.000000 
#    z 0.000000 0.000000 1.567040 
# 
# From -- ./inp_files/16886.got.cif
#   From: 2010.05.17/outbox.cif.g08.bks.cpg/sg35_9_cif.got.tgz:16886.got - 2010.06.03 17:29:28.
