data_PCOD9348906
_publ_section_title
;
Structure prediction by ZEFSAII (Michael W. Deem and Ramdas Pophale) SiO2 
 PCOD9348906
Probable space group: C M M 2
;
_chemical_formula_sum "Si O2"
_cell_formula_units_Z 58
_cell_length_a 13.672873
_cell_length_b 23.834416
_cell_length_c 8.803628
_cell_angle_alpha 90.000000
_cell_angle_beta 90.000000
_cell_angle_gamma 90.000000
_cell_volume 2868.969809
_symmetry_space_group_name_H-M "C M M 2"
_symmetry_group_IT_number 35
_symmetry_cell_setting 'orthorhombic'
loop_
_space_group_symop_operation_xyz
x,y,z
-x,-y,z
-x,y,z
x,-y,z
1/2+x,1/2+y,z
1/2-x,1/2-y,z
1/2-x,1/2+y,z
1/2+x,1/2-y,z
loop_
_atom_site_type_symbol
_atom_site_label
_atom_site_fract_x
_atom_site_fract_y
_atom_site_fract_z
Si Si1 0.386655 0.628237 0.261190
Si Si2 0.112593 0.686706 0.579968
Si Si3 0.308044 0.384283 0.589493
Si Si4 0.610524 0.236325 0.244107
Si Si5 0.000000 0.500000 0.715461
Si Si6 0.240682 0.656249 0.031831
Si Si7 0.687889 0.940666 0.819567
Si Si8 0.888966 0.209681 0.798181
O O1 0.500000 0.614149 0.232618
O O2 0.351957 0.605153 0.424054
O O3 0.377666 0.696548 0.255432
O O4 0.308581 0.614412 0.131531
O O5 0.200363 0.643204 0.576058
O O6 0.121535 0.717289 0.417845
O O7 0.129911 0.731483 0.714792
O O8 0.000000 0.667438 0.591652
O O9 0.281374 0.432800 0.708776
O O10 0.376375 0.338295 0.670593
O O11 0.500000 0.225406 0.193656
O O12 0.677900 0.197915 0.136990
O O13 0.912263 0.547779 0.728395
O O14 0.180307 0.614565 0.922940
O O15 0.313398 0.692977 0.927862
O O16 0.699295 0.000000 0.907748
O O17 0.000000 0.209623 0.856564
#
# Coordination Sequence:
#
# PCOD9348906 Si02
#       8
#     8   8   8   8   2   8   8   8
#     4  11  22  37  58  88 131 170 201 241 298 370
#     4  10  20  33  54  87 127 165 205 249 296 367
#     4  11  20  35  63  88 116 163 207 250 308 375
#     4  10  21  35  56  89 133 172 203 242 299 372
#     4   8  20  48  72  86 122 152 200 274 340 360
#     4  11  22  37  62  92 122 165 214 256 310 376
#     4   9  23  42  66  88 117 152 203 268 319 370
#     4  10  21  37  55  84 123 168 213 250 300 361
#
# _framework density 20.216315000000002
#
# number of rings (size 3 to 8) (size 9 to 14) (size 15 to 20)
#    0.414    1.379    2.759    1.655    1.931    4.414 
#    0.000    3.448    0.000   17.379    0.000    0.000 
#    0.000    0.000    0.000    0.000    0.000    0.000 
#
# Total GULP energy -161511.661683 kJ/mol
# GULP energy per Si atom -5569.367644 kJ/mol
# Density = 2.017030 g / cm^3
# Si number density = 20.216315 Si / 1000 Ang^3
#
#
#
# Elastic Constant Matrix: (Units=GPa)
#
#
# Indices 1 2 3 4 5 6 
#
# 1 86.7865 7.5247 9.9789 0.0000 0.0000 0.0000
# 2 7.5247 44.4773 -1.6517 0.0000 0.0000 0.0000
# 3 9.9789 -1.6517 68.6844 0.0000 0.0000 0.0000
# 4 0.0000 0.0000 0.0000 11.9316 0.0000 0.0000
# 5 0.0000 0.0000 0.0000 0.0000 27.1670 0.0000
# 6 0.0000 0.0000 0.0000 0.0000 0.0000 26.3339
#
#
#
# Elastic Compliance Matrix: (Units=1/GPa)
#
#
# Indices 1 2 3 4 5 6 
#
# 1 0.011908 -0.002081 -0.001780 0.000000 0.000000 0.000000
# 2 -0.002081 0.022867 0.000852 0.000000 0.000000 0.000000
# 3 -0.001780 0.000852 0.014838 0.000000 0.000000 0.000000
# 4 0.000000 0.000000 0.000000 0.083811 0.000000 0.000000
# 5 0.000000 0.000000 0.000000 0.000000 0.036809 0.000000
# 6 0.000000 0.000000 0.000000 0.000000 0.000000 0.037974
#
#
# Mechanical properties :
#
#
# Convention : Reuss Voigt Hill
#
# Bulk Modulus (GPa) = 22.93784 25.73911 24.33847
# Shear Modulus (GPa) = 21.85734 25.35960 23.60847
#
# Velocity S-wave (km/s) = 3.29169 3.54561 3.42101
# Velocity P-wave (km/s) = 5.08112 5.43335 5.26018
#
# Compressibility (1/GPa) = 0.04359609
#
# Stress axis : x y z
#
# Youngs Moduli (GPa) = 83.98002 43.73105 67.39246
#
# Poissons Ratio (x) = 0.09099 0.11996
# Poissons Ratio (y) = 0.17473 -0.05743
# Poissons Ratio (z) = 0.14949 -0.03727
#
# Static dielectric constant tensor:
#      x y z
#    x 1.745580 0.000000 0.000000 
#    y 0.000000 1.734020 0.000000 
#    z 0.000000 0.000000 1.782780 
# 
# From -- ./inp_files/7794.got.cif
#   From: 2010.05.17/outbox.cif.g08.bks.cpg/sg35_4_cif.got.tgz:7794.got - 2010.06.03 17:29:28.
