data_PCOD9348746
_publ_section_title
;
Structure prediction by ZEFSAII (Michael W. Deem and Ramdas Pophale) SiO2 
 PCOD9348746
Probable space group: C M M 2
;
_chemical_formula_sum "Si O2"
_cell_formula_units_Z 56
_cell_length_a 19.382191
_cell_length_b 19.382012
_cell_length_c 9.241384
_cell_angle_alpha 90.000000
_cell_angle_beta 90.000000
_cell_angle_gamma 90.000000
_cell_volume 3471.672455
_symmetry_space_group_name_H-M "C M M 2"
_symmetry_group_IT_number 35
_symmetry_cell_setting 'orthorhombic'
loop_
_space_group_symop_operation_xyz
x,y,z
-x,-y,z
-x,y,z
x,-y,z
1/2+x,1/2+y,z
1/2-x,1/2-y,z
1/2-x,1/2+y,z
1/2+x,1/2-y,z
loop_
_atom_site_type_symbol
_atom_site_label
_atom_site_fract_x
_atom_site_fract_y
_atom_site_fract_z
Si Si1 0.300157 0.685498 0.191420
Si Si2 0.919761 0.286293 0.681490
Si Si3 0.581777 0.676860 0.428362
Si Si4 0.213709 0.419760 0.361928
Si Si5 0.676860 0.418222 0.615055
Si Si6 0.185497 0.199845 0.851998
Si Si7 0.581016 0.081017 0.521700
O O1 0.250000 0.750000 0.223870
O O2 0.369244 0.685625 0.288852
O O3 0.253390 0.621607 0.240282
O O4 0.315766 0.684237 0.021709
O O5 0.908711 0.243410 0.532540
O O6 0.878392 0.246614 0.803135
O O7 0.901733 0.365734 0.649872
O O8 0.000000 0.283130 0.715527
O O9 0.500000 0.669022 0.398589
O O10 0.612972 0.612972 0.521708
O O11 0.216872 0.500000 0.327898
O O12 0.256590 0.408708 0.510879
O O13 0.134268 0.401730 0.393538
O O14 0.669023 0.500000 0.644827
O O15 0.685623 0.369243 0.754567
O O16 0.250000 0.250000 0.819549
O O17 0.500000 0.090972 0.485406
O O18 0.590967 0.000000 0.557988
#
# Coordination Sequence:
#
# PCOD9348746 Si02
#       7
#     8   8   8   8   8   8   8
#     4  10  20  32  47  69  98 129 162 200 242 287
#     4   9  17  30  48  70  94 122 159 199 240 285
#     4   9  18  32  51  72  94 124 161 203 248 294
#     4   9  17  30  48  70  94 122 159 199 240 285
#     4   9  18  32  51  72  94 124 161 203 248 294
#     4  10  20  32  47  69  98 129 162 200 242 287
#     4   9  16  26  45  74 102 126 157 200 244 285
#
# _framework density 16.130555000000001
#
# number of rings (size 3 to 8) (size 9 to 14) (size 15 to 20)
#    0.000    2.714    0.000    1.714    0.000    5.429 
#    0.000    0.000    0.000    1.714    0.000    4.000 
#    0.000    9.143    0.000    0.000    0.000    0.000 
#
# Total GULP energy -155920.873040 kJ/mol
# GULP energy per Si atom -5568.602609 kJ/mol
# Density = 1.609384 g / cm^3
# Si number density = 16.130555 Si / 1000 Ang^3
#
#
#
# Elastic Constant Matrix: (Units=GPa)
#
#
# Indices 1 2 3 4 5 6 
#
# 1 85.5239 64.8746 58.5948 0.0000 0.0000 0.0000
# 2 64.8746 85.4954 58.5843 0.0000 0.0000 0.0000
# 3 58.5948 58.5843 91.4215 0.0000 0.0000 0.0000
# 4 0.0000 0.0000 0.0000 17.0990 0.0000 0.0000
# 5 0.0000 0.0000 0.0000 0.0000 17.0987 0.0000
# 6 0.0000 0.0000 0.0000 0.0000 0.0000 24.0967
#
#
#
# Elastic Compliance Matrix: (Units=1/GPa)
#
#
# Indices 1 2 3 4 5 6 
#
# 1 0.030867 -0.017589 -0.008512 0.000000 0.000000 0.000000
# 2 -0.017589 0.030877 -0.008513 0.000000 0.000000 0.000000
# 3 -0.008512 -0.008513 0.021849 0.000000 0.000000 0.000000
# 4 0.000000 0.000000 0.000000 0.058483 0.000000 0.000000
# 5 0.000000 0.000000 0.000000 0.000000 0.058484 0.000000
# 6 0.000000 0.000000 0.000000 0.000000 0.000000 0.041499
#
#
# Mechanical properties :
#
#
# Convention : Reuss Voigt Hill
#
# Bulk Modulus (GPa) = 69.61615 69.61646 69.61630
# Shear Modulus (GPa) = 15.81899 17.01801 16.41850
#
# Velocity S-wave (km/s) = 3.13499 3.25163 3.19384
# Velocity P-wave (km/s) = 7.50705 7.57293 7.54006
#
# Compressibility (1/GPa) = 0.01436448
#
# Stress axis : x y z
#
# Youngs Moduli (GPa) = 32.39706 32.38681 45.76860
#
# Poissons Ratio (x) = 0.56967 0.38958
# Poissons Ratio (y) = 0.56985 0.38962
# Poissons Ratio (z) = 0.27576 0.27570
#
# Static dielectric constant tensor:
#      x y z
#    x 1.563220 0.000000 0.000000 
#    y 0.000000 1.563220 0.000000 
#    z 0.000000 0.000000 1.512980 
# 
# From -- ./inp_files/8657.got.cif
#   From: 2010.05.17/outbox.cif.g08.bks.cpg/sg35_5_cif.got.tgz:8657.got - 2010.06.03 17:29:28.
