data_PCOD9348774
_publ_section_title
;
Structure prediction by ZEFSAII (Michael W. Deem and Ramdas Pophale) SiO2 
 PCOD9348774
Probable space group: C M M 2
;
_chemical_formula_sum "Si O2"
_cell_formula_units_Z 36
_cell_length_a 13.169358
_cell_length_b 13.455691
_cell_length_c 11.743148
_cell_angle_alpha 90.000000
_cell_angle_beta 90.000000
_cell_angle_gamma 90.000000
_cell_volume 2080.918846
_symmetry_space_group_name_H-M "C M M 2"
_symmetry_group_IT_number 35
_symmetry_cell_setting 'orthorhombic'
loop_
_space_group_symop_operation_xyz
x,y,z
-x,-y,z
-x,y,z
x,-y,z
1/2+x,1/2+y,z
1/2-x,1/2-y,z
1/2-x,1/2+y,z
1/2+x,1/2-y,z
loop_
_atom_site_type_symbol
_atom_site_label
_atom_site_fract_x
_atom_site_fract_y
_atom_site_fract_z
Si Si1 0.196979 0.114894 0.021000
Si Si2 0.382991 0.196322 0.896925
Si Si3 0.620932 0.618749 0.518235
Si Si4 0.616069 0.620278 0.262797
Si Si5 0.250000 0.750000 0.689260
O O1 0.182249 0.144472 0.152775
O O2 0.166396 0.000000 0.007380
O O3 0.312012 0.130683 0.979047
O O4 0.131577 0.191165 0.945127
O O5 0.500000 0.168729 0.894548
O O6 0.329596 0.195892 0.773655
O O7 0.500000 0.636998 0.533283
O O8 0.635974 0.500000 0.526693
O O9 0.647951 0.652358 0.389117
O O10 0.687440 0.675026 0.610529
O O11 0.500000 0.654143 0.242261
O O12 0.613111 0.500000 0.268669
#
# Coordination Sequence:
#
# PCOD9348774 Si02
#       5
#     8   8   8   8   4
#     4   9  18  33  53  74  97 127 159 196 244 292
#     4  10  22  35  47  71 101 128 166 206 237 280
#     4   9  18  33  53  75  98 126 160 198 241 289
#     4   8  14  27  50  78 101 121 153 197 242 289
#     4  10  20  32  50  72  98 128 166 206 238 276
#
# _framework density 17.300049000000001
#
# number of rings (size 3 to 8) (size 9 to 14) (size 15 to 20)
#    0.000    3.111    0.000    2.667    0.000    7.111 
#    0.000    0.000    0.000    3.333    0.000    6.222 
#    0.000    0.000    0.000    0.000    0.000    0.000 
#
# Total GULP energy -100258.047573 kJ/mol
# GULP energy per Si atom -5569.891532 kJ/mol
# Density = 1.726067 g / cm^3
# Si number density = 17.300049 Si / 1000 Ang^3
#
#
#
# Elastic Constant Matrix: (Units=GPa)
#
#
# Indices 1 2 3 4 5 6 
#
# 1 95.1333 1.8996 77.3251 0.0000 0.0000 0.0000
# 2 1.8996 44.4019 34.2619 0.0000 0.0000 0.0000
# 3 77.3251 34.2619 165.4333 0.0000 0.0000 0.0000
# 4 0.0000 0.0000 0.0000 28.6025 0.0000 0.0000
# 5 0.0000 0.0000 0.0000 0.0000 24.8628 0.0000
# 6 0.0000 0.0000 0.0000 0.0000 0.0000 21.4969
#
#
#
# Elastic Compliance Matrix: (Units=1/GPa)
#
#
# Indices 1 2 3 4 5 6 
#
# 1 0.018639 0.007052 -0.010173 0.000000 0.000000 0.000000
# 2 0.007052 0.029473 -0.009400 0.000000 0.000000 0.000000
# 3 -0.010173 -0.009400 0.012746 0.000000 0.000000 0.000000
# 4 0.000000 0.000000 0.000000 0.034962 0.000000 0.000000
# 5 0.000000 0.000000 0.000000 0.000000 0.040221 0.000000
# 6 0.000000 0.000000 0.000000 0.000000 0.000000 0.046518
#
#
# Mechanical properties :
#
#
# Convention : Reuss Voigt Hill
#
# Bulk Modulus (GPa) = 27.91948 59.10463 43.51206
# Shear Modulus (GPa) = 22.77481 27.75789 25.26635
#
# Velocity S-wave (km/s) = 3.63224 4.00996 3.82577
# Velocity P-wave (km/s) = 5.81071 7.46179 6.68740
#
# Compressibility (1/GPa) = 0.03581728
#
# Stress axis : x y z
#
# Youngs Moduli (GPa) = 53.65049 33.92891 78.45376
#
# Poissons Ratio (x) = -0.23927 0.79808
# Poissons Ratio (y) = -0.37835 0.73749
# Poissons Ratio (z) = 0.54577 0.31894
#
# Static dielectric constant tensor:
#      x y z
#    x 1.582770 0.000000 0.000000 
#    y 0.000000 1.589620 0.000000 
#    z 0.000000 0.000000 1.606990 
# 
# From -- ./inp_files/6897.got.cif
#   From: 2010.05.17/outbox.cif.g08.bks.cpg/sg35_4_cif.got.tgz:6897.got - 2010.06.03 17:29:28.
