data_PCOD9348691
_publ_section_title
;
Structure prediction by ZEFSAII (Michael W. Deem and Ramdas Pophale) SiO2 
 PCOD9348691
Probable space group: C M M 2
;
_chemical_formula_sum "Si O2"
_cell_formula_units_Z 48
_cell_length_a 27.941461
_cell_length_b 14.237008
_cell_length_c 5.382475
_cell_angle_alpha 90.000000
_cell_angle_beta 90.000000
_cell_angle_gamma 90.000000
_cell_volume 2141.163646
_symmetry_space_group_name_H-M "C M M 2"
_symmetry_group_IT_number 35
_symmetry_cell_setting 'orthorhombic'
loop_
_space_group_symop_operation_xyz
x,y,z
-x,-y,z
-x,y,z
x,-y,z
1/2+x,1/2+y,z
1/2-x,1/2-y,z
1/2-x,1/2+y,z
1/2+x,1/2-y,z
loop_
_atom_site_type_symbol
_atom_site_label
_atom_site_fract_x
_atom_site_fract_y
_atom_site_fract_z
Si Si1 0.742976 0.000000 0.504631
Si Si2 0.655994 0.329153 0.744644
Si Si3 0.000000 0.303900 0.162553
Si Si4 0.196398 0.000000 0.008058
Si Si5 0.500000 0.683046 0.662991
Si Si6 0.915785 0.099397 0.391944
Si Si7 0.398206 0.215503 0.094443
Si Si8 0.203964 0.701366 0.374835
O O1 0.779859 0.000000 0.275048
O O2 0.714433 0.903521 0.464930
O O3 0.766176 0.000000 0.777528
O O4 0.633689 0.395521 0.536555
O O5 0.697019 0.271475 0.608167
O O6 0.669016 0.401009 0.963893
O O7 0.617931 0.248174 0.820991
O O8 0.053996 0.348392 0.123442
O O9 0.000000 0.262851 0.444068
O O10 0.000000 0.229993 0.931019
O O11 0.455039 0.617791 0.602790
O O12 0.916447 0.187489 0.214482
O O13 0.923700 0.000000 0.266101
O O14 0.346744 0.195419 0.225449
O O15 0.250000 0.750000 0.237173
#
# Coordination Sequence:
#
# PCOD9348691 Si02
#       8
#     4   8   4   4   4   8   8   8
#     4  12  28  48  68  97 134 179 222 286 343 410
#     4  11  22  36  63  93 129 176 224 273 329 400
#     4  10  20  40  61  89 128 167 226 270 343 394
#     4  12  26  42  66  95 134 183 224 278 333 404
#     4  10  19  36  52  84 124 176 218 271 315 384
#     4  10  20  33  51  82 127 173 222 268 320 382
#     4  10  23  38  63  91 129 181 221 288 332 408
#     4  11  24  44  67  98 135 175 228 278 342 409
#
# _framework density 22.417717
#
# number of rings (size 3 to 8) (size 9 to 14) (size 15 to 20)
#    0.000    1.333    4.167    1.250    5.833    0.667 
#    0.000    0.833    0.000    0.500    0.000    0.000 
#    0.000    0.000    0.000    0.000    0.000    0.000 
#
# Total GULP energy -133757.330227 kJ/mol
# GULP energy per Si atom -5573.222093 kJ/mol
# Density = 2.236669 g / cm^3
# Si number density = 22.417717 Si / 1000 Ang^3
#
#
#
# Elastic Constant Matrix: (Units=GPa)
#
#
# Indices 1 2 3 4 5 6 
#
# 1 151.2137 29.6409 27.0176 0.0000 0.0000 0.0000
# 2 29.6409 65.0441 0.3133 0.0000 0.0000 0.0000
# 3 27.0176 0.3133 72.0355 0.0000 0.0000 0.0000
# 4 0.0000 0.0000 0.0000 10.4549 0.0000 0.0000
# 5 0.0000 0.0000 0.0000 0.0000 38.1190 0.0000
# 6 0.0000 0.0000 0.0000 0.0000 0.0000 13.2650
#
#
#
# Elastic Compliance Matrix: (Units=1/GPa)
#
#
# Indices 1 2 3 4 5 6 
#
# 1 0.007832 -0.003555 -0.002922 0.000000 0.000000 0.000000
# 2 -0.003555 0.016988 0.001259 0.000000 0.000000 0.000000
# 3 -0.002922 0.001259 0.014973 0.000000 0.000000 0.000000
# 4 0.000000 0.000000 0.000000 0.095649 0.000000 0.000000
# 5 0.000000 0.000000 0.000000 0.000000 0.026234 0.000000
# 6 0.000000 0.000000 0.000000 0.000000 0.000000 0.075386
#
#
# Mechanical properties :
#
#
# Convention : Reuss Voigt Hill
#
# Bulk Modulus (GPa) = 34.06283 44.69299 39.37791
# Shear Modulus (GPa) = 19.43387 27.78923 23.61155
#
# Velocity S-wave (km/s) = 2.94751 3.52463 3.24891
# Velocity P-wave (km/s) = 5.17796 6.04514 5.62828
#
# Compressibility (1/GPa) = 0.02935752
#
# Stress axis : x y z
#
# Youngs Moduli (GPa) = 127.67963 58.86453 66.78910
#
# Poissons Ratio (x) = 0.20927 0.19516
# Poissons Ratio (y) = 0.45391 -0.08412
# Poissons Ratio (z) = 0.37308 -0.07414
#
# Static dielectric constant tensor:
#      x y z
#    x 2.022220 0.000000 0.000000 
#    y 0.000000 1.844620 0.000000 
#    z 0.000000 0.000000 1.845360 
# 
# From -- ./inp_files/1977.got.cif
#   From: 2010.05.17/outbox.cif.g08.bks.cpg/sg35_1_cif.got.tgz:1977.got - 2010.06.03 17:29:28.
