data_PCOD9348142
_publ_section_title
;
Structure prediction by ZEFSAII (Michael W. Deem and Ramdas Pophale) SiO2 
 PCOD9348142
Probable space group: C M M 2
;
_chemical_formula_sum "Si O2"
_cell_formula_units_Z 56
_cell_length_a 8.755160
_cell_length_b 22.632372
_cell_length_c 15.324103
_cell_angle_alpha 90.000000
_cell_angle_beta 90.000000
_cell_angle_gamma 90.000000
_cell_volume 3036.471592
_symmetry_space_group_name_H-M "C M M 2"
_symmetry_group_IT_number 35
_symmetry_cell_setting 'orthorhombic'
loop_
_space_group_symop_operation_xyz
x,y,z
-x,-y,z
-x,y,z
x,-y,z
1/2+x,1/2+y,z
1/2-x,1/2-y,z
1/2-x,1/2+y,z
1/2+x,1/2-y,z
loop_
_atom_site_type_symbol
_atom_site_label
_atom_site_fract_x
_atom_site_fract_y
_atom_site_fract_z
Si Si1 0.683236 0.185790 0.043950
Si Si2 0.664237 0.500000 0.165216
Si Si3 0.821265 0.500000 0.992440
Si Si4 0.684989 0.182395 0.583630
Si Si5 0.314639 0.110393 0.883199
Si Si6 0.318667 0.186040 0.382360
Si Si7 0.816087 0.071517 0.696831
Si Si8 0.826232 0.871011 0.215030
O O1 0.500000 0.183971 0.049742
O O2 0.750000 0.250000 0.059874
O O3 0.748750 0.146307 0.123061
O O4 0.723761 0.166126 0.944736
O O5 0.500000 0.500000 0.116401
O O6 0.670211 0.558687 0.219614
O O7 0.793602 0.500000 0.093753
O O8 0.761238 0.557809 0.946523
O O9 0.000000 0.500000 0.975191
O O10 0.500000 0.185222 0.594336
O O11 0.750000 0.250000 0.604418
O O12 0.723998 0.170119 0.481813
O O13 0.748100 0.124236 0.634811
O O14 0.500000 0.110308 0.871011
O O15 0.237816 0.095269 0.791649
O O16 0.500000 0.187636 0.379389
O O17 0.250000 0.250000 0.367533
O O18 0.258334 0.149312 0.301336
O O19 0.000000 0.072538 0.689952
O O20 0.771246 0.000000 0.685993
O O21 0.000000 0.847711 0.213902
#
# Coordination Sequence:
#
# PCOD9348142 Si02
#       8
#     8   4   4   8   8   8   8   8
#     4  11  23  38  56  82 116 154 197 243 291 341
#     4  10  22  36  54  81 114 153 194 237 290 342
#     4  10  18  34  58  81 106 145 192 239 282 332
#     4  10  22  42  68  93 121 156 199 251 307 367
#     4  10  21  37  59  83 112 152 196 241 292 346
#     4  10  21  39  63  89 114 149 193 238 290 349
#     4  11  24  40  62  93 126 162 203 248 302 364
#     4  11  22  37  57  83 117 155 193 237 288 345
#
# _framework density 18.442457999999998
#
# number of rings (size 3 to 8) (size 9 to 14) (size 15 to 20)
#    0.000    1.571    2.143    2.571    0.000    5.429 
#    1.286    1.429    0.000    0.000    0.000    0.000 
#    0.000    0.000    0.000    0.000    0.000    0.000 
#
# Total GULP energy -155881.262994 kJ/mol
# GULP energy per Si atom -5567.187964 kJ/mol
# Density = 1.840048 g / cm^3
# Si number density = 18.442458 Si / 1000 Ang^3
#
#
#
# Elastic Constant Matrix: (Units=GPa)
#
#
# Indices 1 2 3 4 5 6 
#
# 1 52.9079 42.8247 34.4790 0.0000 0.0000 0.0000
# 2 42.8247 121.8280 74.2254 0.0000 0.0000 0.0000
# 3 34.4790 74.2254 107.9102 0.0000 0.0000 0.0000
# 4 0.0000 0.0000 0.0000 -43.8751 0.0000 0.0000
# 5 0.0000 0.0000 0.0000 0.0000 25.9361 0.0000
# 6 0.0000 0.0000 0.0000 0.0000 0.0000 24.5653
#
#
#
# Elastic Compliance Matrix: (Units=1/GPa)
#
#
# Indices 1 2 3 4 5 6 
#
# 1 0.027224 -0.007351 -0.003643 0.000000 0.000000 0.000000
# 2 -0.007351 0.016114 -0.008736 0.000000 0.000000 0.000000
# 3 -0.003643 -0.008736 0.016440 0.000000 0.000000 0.000000
# 4 0.000000 0.000000 0.000000 -0.022792 0.000000 0.000000
# 5 0.000000 0.000000 0.000000 0.000000 0.038556 0.000000
# 6 0.000000 0.000000 0.000000 0.000000 0.000000 0.040708
#
#
# Mechanical properties :
#
#
# Convention : Reuss Voigt Hill
#
# Bulk Modulus (GPa) = 49.21058 65.07826 57.14442
# Shear Modulus (GPa) = 30.77278 10.06640 20.41959
#
# Velocity S-wave (km/s) = 4.08926 2.33883 3.33108
# Velocity P-wave (km/s) = 7.00266 6.53126 6.77106
#
# Compressibility (1/GPa) = 0.02032083
#
# Stress axis : x y z
#
# Youngs Moduli (GPa) = 36.73199 62.05617 60.82883
#
# Poissons Ratio (x) = 0.45614 0.22157
# Poissons Ratio (y) = 0.27000 0.53138
# Poissons Ratio (z) = 0.13380 0.54210
#
# Static dielectric constant tensor:
#      x y z
#    x 1.682370 0.000000 0.000000 
#    y 0.000000 1.763330 0.000000 
#    z 0.000000 0.000000 1.639190 
# 
# From -- ./inp_files/15697.got.cif
#   From: 2010.05.17/outbox.cif.g08.bks.cpg/sg35_8_cif.got.tgz:15697.got - 2010.06.03 17:29:28.
