data_PCOD9348647
_publ_section_title
;
Structure prediction by ZEFSAII (Michael W. Deem and Ramdas Pophale) SiO2 
 PCOD9348647
Probable space group: C M M 2
;
_chemical_formula_sum "Si O2"
_cell_formula_units_Z 64
_cell_length_a 14.629011
_cell_length_b 15.241306
_cell_length_c 12.717051
_cell_angle_alpha 90.000000
_cell_angle_beta 90.000000
_cell_angle_gamma 90.000000
_cell_volume 2835.460241
_symmetry_space_group_name_H-M "C M M 2"
_symmetry_group_IT_number 35
_symmetry_cell_setting 'orthorhombic'
loop_
_space_group_symop_operation_xyz
x,y,z
-x,-y,z
-x,y,z
x,-y,z
1/2+x,1/2+y,z
1/2-x,1/2-y,z
1/2-x,1/2+y,z
1/2+x,1/2-y,z
loop_
_atom_site_type_symbol
_atom_site_label
_atom_site_fract_x
_atom_site_fract_y
_atom_site_fract_z
Si Si1 0.867651 0.351816 0.020480
Si Si2 0.148871 0.154741 0.051364
Si Si3 0.395464 0.096786 0.251820
Si Si4 0.608951 0.399798 0.487201
Si Si5 0.610635 0.702036 0.281692
Si Si6 0.361156 0.904131 0.788650
Si Si7 0.858660 0.234842 0.677096
Si Si8 0.359792 0.407996 0.832812
O O1 0.892383 0.250085 0.027521
O O2 0.757583 0.349538 0.032633
O O3 0.899663 0.400304 0.124686
O O4 0.895013 0.387657 0.907504
O O5 0.133168 0.147815 0.175444
O O6 0.116345 0.094720 0.955783
O O7 0.500000 0.096987 0.292215
O O8 0.356039 0.195102 0.278645
O O9 0.354928 0.000000 0.281091
O O10 0.500000 0.408306 0.474794
O O11 0.644446 0.500000 0.505745
O O12 0.644643 0.353594 0.380975
O O13 0.622316 0.327575 0.578489
O O14 0.500000 0.708047 0.285858
O O15 0.391453 0.832500 0.703744
O O16 0.250142 0.903601 0.809274
O O17 0.386484 0.000000 0.752315
O O18 0.750000 0.250000 0.677444
O O19 0.892960 0.177938 0.775456
O O20 0.392082 0.500000 0.786258
#
# Coordination Sequence:
#
# PCOD9348647 Si02
#       8
#     8   8   8   8   8   8   8   8
#     4   9  15  27  46  74 109 145 179 214 261 323
#     4   9  16  28  48  76 108 139 176 222 273 326
#     4   9  17  30  49  74 106 145 182 213 259 326
#     4  10  22  42  64  81 104 148 198 238 284 340
#     4   9  19  36  56  77 106 145 186 228 279 333
#     4   9  16  27  48  76 109 146 176 210 271 338
#     4  10  19  35  56  80 111 139 186 236 281 325
#     4   9  16  27  48  77 107 140 175 219 278 336
#
# _framework density 22.571292
#
# number of rings (size 3 to 8) (size 9 to 14) (size 15 to 20)
#    0.000    2.750    1.250    0.750    0.000    1.500 
#    4.500    1.875    0.000    2.625    0.000    0.000 
#    0.000    0.000    0.000    0.000    0.000    0.000 
#
# Total GULP energy -178181.514097 kJ/mol
# GULP energy per Si atom -5568.172316 kJ/mol
# Density = 2.251992 g / cm^3
# Si number density = 22.571292 Si / 1000 Ang^3
#
#
#
# Elastic Constant Matrix: (Units=GPa)
#
#
# Indices 1 2 3 4 5 6 
#
# 1 63.5274 8.0337 -4.8307 0.0000 0.0000 0.0000
# 2 8.0337 195.9899 91.6177 0.0000 0.0000 0.0000
# 3 -4.8307 91.6177 134.9455 0.0000 0.0000 0.0000
# 4 0.0000 0.0000 0.0000 5.5564 0.0000 0.0000
# 5 0.0000 0.0000 0.0000 0.0000 24.2474 0.0000
# 6 0.0000 0.0000 0.0000 0.0000 0.0000 0.7838
#
#
#
# Elastic Compliance Matrix: (Units=1/GPa)
#
#
# Indices 1 2 3 4 5 6 
#
# 1 0.016026 -0.001355 0.001494 0.000000 0.000000 0.000000
# 2 -0.001355 0.007589 -0.005201 0.000000 0.000000 0.000000
# 3 0.001494 -0.005201 0.010995 0.000000 0.000000 0.000000
# 4 0.000000 0.000000 0.000000 0.179973 0.000000 0.000000
# 5 0.000000 0.000000 0.000000 0.000000 0.041242 0.000000
# 6 0.000000 0.000000 0.000000 0.000000 0.000000 1.275808
#
#
# Mechanical properties :
#
#
# Convention : Reuss Voigt Hill
#
# Bulk Modulus (GPa) = 40.84048 64.90046 52.87047
# Shear Modulus (GPa) = 3.22597 26.09366 14.65982
#
# Velocity S-wave (km/s) = 1.19680 3.40377 2.55127
# Velocity P-wave (km/s) = 4.47695 6.65308 5.67039
#
# Compressibility (1/GPa) = 0.02448551
#
# Stress axis : x y z
#
# Youngs Moduli (GPa) = 62.39776 131.76825 90.95125
#
# Poissons Ratio (x) = 0.17857 -0.13586
# Poissons Ratio (y) = 0.08456 0.47303
# Poissons Ratio (z) = -0.09321 0.68532
#
# Static dielectric constant tensor:
#      x y z
#    x 1.910930 0.000000 0.000000 
#    y 0.000000 1.870680 0.000000 
#    z 0.000000 0.000000 1.843520 
# 
# From -- ./inp_files/13585.got.cif
#   From: 2010.05.17/outbox.cif.g08.bks.cpg/sg35_7_cif.got.tgz:13585.got - 2010.06.03 17:29:28.
