data_PCOD9348516
_publ_section_title
;
Structure prediction by ZEFSAII (Michael W. Deem and Ramdas Pophale) SiO2 
 PCOD9348516
Probable space group: C M M 2
;
_chemical_formula_sum "Si O2"
_cell_formula_units_Z 48
_cell_length_a 14.835616
_cell_length_b 17.468942
_cell_length_c 9.559925
_cell_angle_alpha 90.000000
_cell_angle_beta 90.000000
_cell_angle_gamma 90.000000
_cell_volume 2477.574210
_symmetry_space_group_name_H-M "C M M 2"
_symmetry_group_IT_number 35
_symmetry_cell_setting 'orthorhombic'
loop_
_space_group_symop_operation_xyz
x,y,z
-x,-y,z
-x,y,z
x,-y,z
1/2+x,1/2+y,z
1/2-x,1/2-y,z
1/2-x,1/2+y,z
1/2+x,1/2-y,z
loop_
_atom_site_type_symbol
_atom_site_label
_atom_site_fract_x
_atom_site_fract_y
_atom_site_fract_z
Si Si1 0.713552 0.083736 0.149330
Si Si2 0.715321 0.867929 0.831435
Si Si3 0.897617 0.584214 0.577316
Si Si4 0.903581 0.148122 0.186287
Si Si5 0.895029 0.210849 0.870204
Si Si6 0.154085 0.287832 0.356348
O O1 0.817433 0.094069 0.196638
O O2 0.665696 0.154930 0.224205
O O3 0.679047 0.000000 0.188476
O O4 0.710262 0.092236 0.982226
O O5 0.672821 0.912284 0.703004
O O6 0.820137 0.846177 0.804957
O O7 0.652056 0.792576 0.846759
O O8 0.889158 0.500000 0.507985
O O9 0.881571 0.656696 0.476897
O O10 0.000000 0.589446 0.631740
O O11 0.900270 0.214573 0.302608
O O12 0.000000 0.108290 0.190001
O O13 0.894780 0.190128 0.035377
O O14 0.000000 0.207632 0.823452
O O15 0.250000 0.250000 0.396307
#
# Coordination Sequence:
#
# PCOD9348516 Si02
#       6
#     8   8   8   8   8   8
#     4  10  19  33  54  80 109 144 180 220 279 335
#     4  10  19  34  55  80 112 144 182 228 275 331
#     4  11  24  39  54  79 115 150 185 229 284 339
#     4   9  17  32  54  80 106 136 180 230 269 318
#     4   9  17  31  56  84 109 138 180 230 273 319
#     4  10  20  36  57  79 105 144 188 232 275 327
#
# _framework density 19.37379
#
# number of rings (size 3 to 8) (size 9 to 14) (size 15 to 20)
#    0.000    2.167    1.667    2.000    2.333    0.333 
#    0.000    0.000    0.000    5.500    0.000    0.000 
#    0.000    0.000    0.000    0.000    0.000    0.000 
#
# Total GULP energy -133729.926509 kJ/mol
# GULP energy per Si atom -5572.080271 kJ/mol
# Density = 1.932969 g / cm^3
# Si number density = 19.373790 Si / 1000 Ang^3
#
#
#
# Elastic Constant Matrix: (Units=GPa)
#
#
# Indices 1 2 3 4 5 6 
#
# 1 113.1143 18.5106 30.7061 0.0000 0.0000 0.0000
# 2 18.5106 75.2146 20.2875 0.0000 0.0000 0.0000
# 3 30.7061 20.2875 57.1014 0.0000 0.0000 0.0000
# 4 0.0000 0.0000 0.0000 1.1647 0.0000 0.0000
# 5 0.0000 0.0000 0.0000 0.0000 16.0615 0.0000
# 6 0.0000 0.0000 0.0000 0.0000 0.0000 1.0793
#
#
#
# Elastic Compliance Matrix: (Units=1/GPa)
#
#
# Indices 1 2 3 4 5 6 
#
# 1 0.010444 -0.001167 -0.005201 0.000000 0.000000 0.000000
# 2 -0.001167 0.014835 -0.004643 0.000000 0.000000 0.000000
# 3 -0.005201 -0.004643 0.021959 0.000000 0.000000 0.000000
# 4 0.000000 0.000000 0.000000 0.858621 0.000000 0.000000
# 5 0.000000 0.000000 0.000000 0.000000 0.062261 0.000000
# 6 0.000000 0.000000 0.000000 0.000000 0.000000 0.926568
#
#
# Mechanical properties :
#
#
# Convention : Reuss Voigt Hill
#
# Bulk Modulus (GPa) = 39.65943 42.71541 41.18742
# Shear Modulus (GPa) = 2.59725 15.38950 8.99337
#
# Velocity S-wave (km/s) = 1.15910 2.82147 2.15687
# Velocity P-wave (km/s) = 4.72297 5.71928 5.24484
#
# Compressibility (1/GPa) = 0.02521468
#
# Stress axis : x y z
#
# Youngs Moduli (GPa) = 95.75260 67.40860 45.53883
#
# Poissons Ratio (x) = 0.07868 0.23686
# Poissons Ratio (y) = 0.11177 0.21144
# Poissons Ratio (z) = 0.49804 0.31298
#
# Static dielectric constant tensor:
#      x y z
#    x 1.693350 0.000000 0.000000 
#    y 0.000000 1.675470 0.000000 
#    z 0.000000 0.000000 1.669100 
# 
# From -- ./inp_files/7304.got.cif
#   From: 2010.05.17/outbox.cif.g08.bks.cpg/sg35_4_cif.got.tgz:7304.got - 2010.06.03 17:29:28.
