data_PCOD9348370
_publ_section_title
;
Structure prediction by ZEFSAII (Michael W. Deem and Ramdas Pophale) SiO2 
 PCOD9348370
Probable space group: C M M 2
;
_chemical_formula_sum "Si O2"
_cell_formula_units_Z 48
_cell_length_a 18.598143
_cell_length_b 8.428349
_cell_length_c 16.211699
_cell_angle_alpha 90.000000
_cell_angle_beta 90.000000
_cell_angle_gamma 90.000000
_cell_volume 2541.210405
_symmetry_space_group_name_H-M "C M M 2"
_symmetry_group_IT_number 35
_symmetry_cell_setting 'orthorhombic'
loop_
_space_group_symop_operation_xyz
x,y,z
-x,-y,z
-x,y,z
x,-y,z
1/2+x,1/2+y,z
1/2-x,1/2-y,z
1/2-x,1/2+y,z
1/2+x,1/2-y,z
loop_
_atom_site_type_symbol
_atom_site_label
_atom_site_fract_x
_atom_site_fract_y
_atom_site_fract_z
Si Si1 0.332410 0.189961 0.531570
Si Si2 0.668547 0.190244 0.026470
Si Si3 0.332050 0.808180 0.350702
Si Si4 0.917342 0.306136 0.189223
Si Si5 0.917231 0.192034 0.867201
Si Si6 0.167899 0.189674 0.704939
O O1 0.250000 0.250000 0.530995
O O2 0.361217 0.239326 0.441495
O O3 0.363585 0.255805 0.616735
O O4 0.333001 0.000000 0.536107
O O5 0.750000 0.250000 0.025652
O O6 0.626311 0.249064 0.946211
O O7 0.668870 0.000000 0.026306
O O8 0.627730 0.245011 0.109377
O O9 0.250000 0.750000 0.342200
O O10 0.379456 0.753289 0.273779
O O11 0.330623 0.000000 0.349510
O O12 0.917205 0.500000 0.189692
O O13 0.000000 0.254734 0.184121
O O14 0.878355 0.245073 0.782989
O O15 0.000000 0.244939 0.870431
O O16 0.916520 0.000000 0.867530
O O17 0.250000 0.250000 0.712404
O O18 0.170190 0.000000 0.705147
#
# Coordination Sequence:
#
# PCOD9348370 Si02
#       6
#     8   8   8   8   8   8
#     4   9  16  27  46  73 101 130 167 210 254 296
#     4  11  22  36  57  82 105 134 173 215 258 305
#     4   9  17  30  50  74 100 132 169 209 252 298
#     4   9  18  33  52  75 104 136 169 206 251 304
#     4  10  22  39  56  76 105 139 172 210 260 313
#     4  10  19  32  52  75 100 133 171 211 255 303
#
# _framework density 18.888636999999999
#
# number of rings (size 3 to 8) (size 9 to 14) (size 15 to 20)
#    0.000    2.333    0.000    4.000    0.000    4.333 
#    0.000    1.667    0.000    3.500    0.000    0.000 
#    0.000    0.000    0.000    0.000    0.000    0.000 
#
# Total GULP energy -133898.274138 kJ/mol
# GULP energy per Si atom -5579.094756 kJ/mol
# Density = 1.884565 g / cm^3
# Si number density = 18.888637 Si / 1000 Ang^3
#
#
#
# Elastic Constant Matrix: (Units=GPa)
#
#
# Indices 1 2 3 4 5 6 
#
# 1 132.0497 17.9099 109.8941 0.0000 0.0000 0.0000
# 2 17.9099 20.6347 30.4012 0.0000 0.0000 0.0000
# 3 109.8941 30.4012 239.1064 0.0000 0.0000 0.0000
# 4 0.0000 0.0000 0.0000 44.4020 0.0000 0.0000
# 5 0.0000 0.0000 0.0000 0.0000 -8.4747 0.0000
# 6 0.0000 0.0000 0.0000 0.0000 0.0000 6.6831
#
#
#
# Elastic Compliance Matrix: (Units=1/GPa)
#
#
# Indices 1 2 3 4 5 6 
#
# 1 0.012404 -0.002912 -0.005331 0.000000 0.000000 0.000000
# 2 -0.002912 0.060317 -0.006330 0.000000 0.000000 0.000000
# 3 -0.005331 -0.006330 0.007437 0.000000 0.000000 0.000000
# 4 0.000000 0.000000 0.000000 0.022521 0.000000 0.000000
# 5 0.000000 0.000000 0.000000 0.000000 -0.117999 0.000000
# 6 0.000000 0.000000 0.000000 0.000000 0.000000 0.149632
#
#
# Mechanical properties :
#
#
# Convention : Reuss Voigt Hill
#
# Bulk Modulus (GPa) = 19.60367 78.68903 49.14635
# Shear Modulus (GPa) = 27.70645 24.09445 25.90045
#
# Velocity S-wave (km/s) = 3.83408 3.57544 3.70701
# Velocity P-wave (km/s) = 5.47734 7.66778 6.66319
#
# Compressibility (1/GPa) = 0.05101084
#
# Stress axis : x y z
#
# Youngs Moduli (GPa) = 80.61745 16.57917 134.46034
#
# Poissons Ratio (x) = 0.04829 0.71677
# Poissons Ratio (y) = 0.23480 0.85118
# Poissons Ratio (z) = 0.42975 0.10495
#
# Static dielectric constant tensor:
#      x y z
#    x 1.614170 0.000000 0.000000 
#    y 0.000000 1.648300 0.000000 
#    z 0.000000 0.000000 1.682310 
# 
# From -- ./inp_files/15166.got.cif
#   From: 2010.05.17/outbox.cif.g08.bks.cpg/sg35_8_cif.got.tgz:15166.got - 2010.06.03 17:29:28.
