data_PCOD9348024
_publ_section_title
;
Structure prediction by ZEFSAII (Michael W. Deem and Ramdas Pophale) SiO2 
 PCOD9348024
Probable space group: P N N 2
;
_chemical_formula_sum "Si O2"
_cell_formula_units_Z 18
_cell_length_a 4.984135
_cell_length_b 23.830044
_cell_length_c 6.201212
_cell_angle_alpha 90.000000
_cell_angle_beta 90.000000
_cell_angle_gamma 90.000000
_cell_volume 736.531321
_symmetry_space_group_name_H-M "P N N 2"
_symmetry_group_IT_number 34
_symmetry_cell_setting 'orthorhombic'
loop_
_space_group_symop_operation_xyz
x,y,z
-x,-y,z
1/2-x,1/2+y,1/2+z
1/2+x,1/2-y,1/2+z
loop_
_atom_site_type_symbol
_atom_site_label
_atom_site_fract_x
_atom_site_fract_y
_atom_site_fract_z
Si Si1 0.000000 0.500000 0.592830
Si Si2 0.670898 0.571270 0.251663
Si Si3 0.115368 0.811321 0.975869
Si Si4 0.328810 0.074640 0.467027
Si Si5 0.882124 0.308839 0.760805
O O1 0.202514 0.463379 0.448397
O O2 0.178366 0.540957 0.743590
O O3 0.672260 0.636073 0.324386
O O4 0.380238 0.558089 0.152777
O O5 0.875617 0.563875 0.055919
O O6 0.312661 0.815284 0.181629
O O7 0.809510 0.813945 0.053934
O O8 0.163731 0.751711 0.864346
O O9 0.302430 0.140522 0.417450
#
# Coordination Sequence:
#
# PCOD9348024 Si02
#       5
#     2   4   4   4   4
#     4  12  30  54  76 112 164 202 270 318 390 460
#     4  12  28  51  78 113 152 204 259 315 387 457
#     4  12  24  46  76 112 154 194 248 319 380 458
#     4  12  28  51  78 113 152 204 259 315 387 457
#     4  12  24  46  76 112 154 194 248 319 380 458
#
# _framework density 24.438879
#
# number of rings (size 3 to 8) (size 9 to 14) (size 15 to 20)
#    0.000    0.000    2.222    7.333    0.000    5.333 
#    0.000    0.000    0.000    0.000    0.000    0.000 
#    0.000    0.000    0.000    0.000    0.000    0.000 
#
# Total GULP energy -101048.055405 kJ/mol
# GULP energy per Si atom -5613.780856 kJ/mol
# Density = 2.438326 g / cm^3
# Si number density = 24.438879 Si / 1000 Ang^3
#
#
#
# Elastic Constant Matrix: (Units=GPa)
#
#
# Indices 1 2 3 4 5 6 
#
# 1 81.0477 25.9269 7.3901 0.0000 0.0000 0.0000
# 2 25.9269 170.9688 54.3555 0.0000 0.0000 0.0000
# 3 7.3901 54.3555 84.5238 0.0000 0.0000 0.0000
# 4 0.0000 0.0000 0.0000 41.5009 0.0000 0.0000
# 5 0.0000 0.0000 0.0000 0.0000 49.3940 0.0000
# 6 0.0000 0.0000 0.0000 0.0000 0.0000 26.6615
#
#
#
# Elastic Compliance Matrix: (Units=1/GPa)
#
#
# Indices 1 2 3 4 5 6 
#
# 1 0.012969 -0.002019 0.000164 0.000000 0.000000 0.000000
# 2 -0.002019 0.007667 -0.004754 0.000000 0.000000 0.000000
# 3 0.000164 -0.004754 0.014874 0.000000 0.000000 0.000000
# 4 0.000000 0.000000 0.000000 0.024096 0.000000 0.000000
# 5 0.000000 0.000000 0.000000 0.000000 0.020245 0.000000
# 6 0.000000 0.000000 0.000000 0.000000 0.000000 0.037507
#
#
# Mechanical properties :
#
#
# Convention : Reuss Voigt Hill
#
# Bulk Modulus (GPa) = 44.85721 56.87613 50.86667
# Shear Modulus (GPa) = 36.23050 40.10247 38.16648
#
# Velocity S-wave (km/s) = 3.85449 4.05523 3.95614
# Velocity P-wave (km/s) = 6.18095 6.72680 6.45965
#
# Compressibility (1/GPa) = 0.02229296
#
# Stress axis : x y z
#
# Youngs Moduli (GPa) = 77.10518 130.43740 67.23332
#
# Poissons Ratio (x) = 0.26336 -0.01106
# Poissons Ratio (y) = 0.15568 0.31960
# Poissons Ratio (z) = -0.01268 0.62005
#
# Static dielectric constant tensor:
#      x y z
#    x 1.864090 0.000000 0.000000 
#    y 0.000000 1.964100 0.000000 
#    z 0.000000 0.000000 1.872160 
# 
# From -- ./inp_files/141.got.cif
#   From: 2010.05.17/outbox.cif.g08.bks.cpg/sg34_1_cif.got.tgz:141.got - 2010.06.03 17:23:11.
