data_PCOD9348981
_publ_section_title
;
Structure prediction by ZEFSAII (Michael W. Deem and Ramdas Pophale) SiO2 
 PCOD9348981
Probable space group: C M M 2
;
_chemical_formula_sum "Si O2"
_cell_formula_units_Z 64
_cell_length_a 35.651259
_cell_length_b 7.562073
_cell_length_c 10.279641
_cell_angle_alpha 90.000000
_cell_angle_beta 90.000000
_cell_angle_gamma 90.000000
_cell_volume 2771.364724
_symmetry_space_group_name_H-M "C M M 2"
_symmetry_group_IT_number 35
_symmetry_cell_setting 'orthorhombic'
loop_
_space_group_symop_operation_xyz
x,y,z
-x,-y,z
-x,y,z
x,-y,z
1/2+x,1/2+y,z
1/2-x,1/2-y,z
1/2-x,1/2+y,z
1/2+x,1/2-y,z
loop_
_atom_site_type_symbol
_atom_site_label
_atom_site_fract_x
_atom_site_fract_y
_atom_site_fract_z
Si Si1 0.435598 0.795530 0.020050
Si Si2 0.042177 0.714389 0.734119
Si Si3 0.599322 0.706832 0.506417
Si Si4 0.184410 0.782989 0.530479
Si Si5 0.540789 0.706435 0.304547
Si Si6 0.791631 0.788637 0.810305
Si Si7 0.708351 0.288666 0.250251
Si Si8 0.848377 0.215454 0.030312
O O1 0.451674 0.712841 0.151150
O O2 0.390680 0.780750 0.025350
O O3 0.447066 0.000000 0.024457
O O4 0.449566 0.724030 0.881383
O O5 0.043695 0.500000 0.733873
O O6 0.073614 0.777807 0.634058
O O7 0.000000 0.767806 0.695148
O O8 0.605616 0.500000 0.476453
O O9 0.641048 0.776906 0.527448
O O10 0.574999 0.784616 0.387645
O O11 0.203355 0.720795 0.663616
O O12 0.203741 0.722285 0.397487
O O13 0.185614 0.000000 0.532368
O O14 0.500000 0.785841 0.333977
O O15 0.539056 0.500000 0.342036
O O16 0.750000 0.750000 0.859646
O O17 0.795573 0.000000 0.806627
O O18 0.824233 0.725197 0.905863
O O19 0.704510 0.500000 0.254168
O O20 0.750000 0.250000 0.200110
O O21 0.675191 0.225428 0.156369
O O22 0.850024 0.000000 0.031368
#
# Coordination Sequence:
#
# PCOD9348981 Si02
#       8
#     8   8   8   8   8   8   8   8
#     4  11  23  38  58  83 112 149 190 231 278 332
#     4  10  22  39  56  79 114 149 181 225 281 333
#     4  10  20  37  61  85 110 144 188 231 272 326
#     4   9  18  33  53  77 106 139 173 215 268 320
#     4  10  21  37  58  85 115 147 186 232 280 331
#     4  10  20  34  53  77 105 139 177 218 268 323
#     4  10  20  35  55  78 106 140 176 218 269 322
#     4  10  21  37  56  78 107 142 179 224 277 327
#
# _framework density 23.093316000000002
#
# number of rings (size 3 to 8) (size 9 to 14) (size 15 to 20)
#    0.000    2.000    0.000    3.375    0.000    7.000 
#    0.000    1.250    0.000    0.000    0.000    0.000 
#    0.000    0.000    0.000    0.000    0.000    0.000 
#
# Total GULP energy -178940.417646 kJ/mol
# GULP energy per Si atom -5591.888051 kJ/mol
# Density = 2.304075 g / cm^3
# Si number density = 23.093316 Si / 1000 Ang^3
#
#
#
# Elastic Constant Matrix: (Units=GPa)
#
#
# Indices 1 2 3 4 5 6 
#
# 1 105.2930 -12.2849 -3.2052 0.0000 0.0000 0.0000
# 2 -12.2849 51.4310 -6.5426 0.0000 0.0000 0.0000
# 3 -3.2052 -6.5426 79.2511 0.0000 0.0000 0.0000
# 4 0.0000 0.0000 0.0000 6.4334 0.0000 0.0000
# 5 0.0000 0.0000 0.0000 0.0000 45.1286 0.0000
# 6 0.0000 0.0000 0.0000 0.0000 0.0000 51.5650
#
#
#
# Elastic Compliance Matrix: (Units=1/GPa)
#
#
# Indices 1 2 3 4 5 6 
#
# 1 0.009797 0.002416 0.000596 0.000000 0.000000 0.000000
# 2 0.002416 0.020246 0.001769 0.000000 0.000000 0.000000
# 3 0.000596 0.001769 0.012788 0.000000 0.000000 0.000000
# 4 0.000000 0.000000 0.000000 0.155440 0.000000 0.000000
# 5 0.000000 0.000000 0.000000 0.000000 0.022159 0.000000
# 6 0.000000 0.000000 0.000000 0.000000 0.000000 0.019393
#
#
# Mechanical properties :
#
#
# Convention : Reuss Voigt Hill
#
# Bulk Modulus (GPa) = 19.08659 21.32330 20.20495
# Shear Modulus (GPa) = 20.18364 37.82590 29.00477
#
# Velocity S-wave (km/s) = 2.95956 4.05156 3.54783
# Velocity P-wave (km/s) = 4.46784 5.58036 5.05480
#
# Compressibility (1/GPa) = 0.05239279
#
# Stress axis : x y z
#
# Youngs Moduli (GPa) = 102.06873 49.39330 78.19667
#
# Poissons Ratio (x) = -0.11933 -0.04658
# Poissons Ratio (y) = -0.24660 -0.13834
# Poissons Ratio (z) = -0.06080 -0.08738
#
# Static dielectric constant tensor:
#      x y z
#    x 1.819970 0.000000 0.000000 
#    y 0.000000 1.915840 0.000000 
#    z 0.000000 0.000000 1.844960 
# 
# From -- ./inp_files/14598.got.cif
#   From: 2010.05.17/outbox.cif.g08.bks.cpg/sg35_8_cif.got.tgz:14598.got - 2010.06.03 17:29:28.
