data_PCOD9348918
_publ_section_title
;
Structure prediction by ZEFSAII (Michael W. Deem and Ramdas Pophale) SiO2 
 PCOD9348918
Probable space group: C M M 2
;
_chemical_formula_sum "Si O2"
_cell_formula_units_Z 64
_cell_length_a 29.428835
_cell_length_b 8.469820
_cell_length_c 16.154023
_cell_angle_alpha 90.000000
_cell_angle_beta 90.000000
_cell_angle_gamma 90.000000
_cell_volume 4026.502265
_symmetry_space_group_name_H-M "C M M 2"
_symmetry_group_IT_number 35
_symmetry_cell_setting 'orthorhombic'
loop_
_space_group_symop_operation_xyz
x,y,z
-x,-y,z
-x,y,z
x,-y,z
1/2+x,1/2+y,z
1/2-x,1/2-y,z
1/2-x,1/2+y,z
1/2+x,1/2-y,z
loop_
_atom_site_type_symbol
_atom_site_label
_atom_site_fract_x
_atom_site_fract_y
_atom_site_fract_z
Si Si1 0.552653 0.691439 0.400280
Si Si2 0.299509 0.311031 0.623291
Si Si3 0.392279 0.189084 0.556741
Si Si4 0.107721 0.689084 0.881875
Si Si5 0.944814 0.182393 0.219308
Si Si6 0.552653 0.308561 0.038335
Si Si7 0.700491 0.688969 0.815324
Si Si8 0.052347 0.307463 0.719308
O O1 0.500000 0.739811 0.414436
O O2 0.552981 0.500000 0.397693
O O3 0.584216 0.748971 0.473896
O O4 0.567682 0.750908 0.308883
O O5 0.299708 0.500000 0.621805
O O6 0.250000 0.250000 0.597243
O O7 0.340992 0.246749 0.569765
O O8 0.306376 0.258578 0.719308
O O9 0.421304 0.244342 0.636844
O O10 0.393019 0.000000 0.556216
O O11 0.106981 0.500000 0.882399
O O12 0.084216 0.751028 0.964719
O O13 0.159008 0.746749 0.868850
O O14 0.078695 0.744342 0.801772
O O15 0.000000 0.179203 0.219308
O O16 0.929213 0.000000 0.219308
O O17 0.932318 0.250908 0.129732
O O18 0.500000 0.260189 0.024179
O O19 0.552981 0.500000 0.040922
O O20 0.700292 0.500000 0.816810
O O21 0.750000 0.750000 0.841372
O O22 0.052368 0.500000 0.719308
O O23 0.000000 0.255558 0.719307
#
# Coordination Sequence:
#
# PCOD9348918 Si02
#       8
#     8   8   8   8   8   8   8   8
#     4   9  17  30  48  70  96 127 164 203 241 283
#     4  10  20  34  52  71  93 120 157 201 244 284
#     4  11  20  31  47  68  97 130 163 196 237 284
#     4  11  20  31  47  68  97 130 163 196 237 284
#     4   7  12  26  47  67  90 123 160 199 243 285
#     4   9  17  30  48  70  96 127 164 203 241 283
#     4  10  20  34  52  71  93 120 157 201 244 284
#     4   9  18  30  42  59  90 131 166 191 222 269
#
# _framework density 15.894688
#
# number of rings (size 3 to 8) (size 9 to 14) (size 15 to 20)
#    0.000    2.500    1.250    3.750    0.000    2.500 
#    0.000    0.625    0.000    5.250    0.000    0.875 
#    0.000    0.000    0.000    0.000    0.000    0.000 
#
# Total GULP energy -178384.562487 kJ/mol
# GULP energy per Si atom -5574.517578 kJ/mol
# Density = 1.585851 g / cm^3
# Si number density = 15.894688 Si / 1000 Ang^3
#
#
#
# Elastic Constant Matrix: (Units=GPa)
#
#
# Indices 1 2 3 4 5 6 
#
# 1 126.4672 23.9977 85.4943 0.0000 0.0000 0.0000
# 2 23.9977 23.3921 26.0752 0.0000 0.0000 0.0000
# 3 85.4943 26.0752 154.7667 0.0000 0.0000 0.0000
# 4 0.0000 0.0000 0.0000 13.9221 0.0000 0.0000
# 5 0.0000 0.0000 0.0000 0.0000 7.0643 0.0000
# 6 0.0000 0.0000 0.0000 0.0000 0.0000 18.1227
#
#
#
# Elastic Compliance Matrix: (Units=1/GPa)
#
#
# Indices 1 2 3 4 5 6 
#
# 1 0.013442 -0.006787 -0.006282 0.000000 0.000000 0.000000
# 2 -0.006787 0.056062 -0.005696 0.000000 0.000000 0.000000
# 3 -0.006282 -0.005696 0.010891 0.000000 0.000000 0.000000
# 4 0.000000 0.000000 0.000000 0.071828 0.000000 0.000000
# 5 0.000000 0.000000 0.000000 0.000000 0.141556 0.000000
# 6 0.000000 0.000000 0.000000 0.000000 0.000000 0.055179
#
#
# Mechanical properties :
#
#
# Convention : Reuss Voigt Hill
#
# Bulk Modulus (GPa) = 23.32937 63.97340 43.65139
# Shear Modulus (GPa) = 12.47577 19.09240 15.78409
#
# Velocity S-wave (km/s) = 2.80465 3.46957 3.15467
# Velocity P-wave (km/s) = 5.01970 7.50907 6.38685
#
# Compressibility (1/GPa) = 0.04286442
#
# Stress axis : x y z
#
# Youngs Moduli (GPa) = 74.39522 17.83744 91.81823
#
# Poissons Ratio (x) = 0.12107 0.57678
# Poissons Ratio (y) = 0.50495 0.52299
# Poissons Ratio (z) = 0.46733 0.10160
#
# Static dielectric constant tensor:
#      x y z
#    x 1.503900 0.000000 0.000000 
#    y 0.000000 1.541290 0.000000 
#    z 0.000000 0.000000 1.545280 
# 
# From -- ./inp_files/16213.got.cif
#   From: 2010.05.17/outbox.cif.g08.bks.cpg/sg35_9_cif.got.tgz:16213.got - 2010.06.03 17:29:28.
