data_PCOD9348511
_publ_section_title
;
Structure prediction by ZEFSAII (Michael W. Deem and Ramdas Pophale) SiO2 
 PCOD9348511
Probable space group: C M M 2
;
_chemical_formula_sum "Si O2"
_cell_formula_units_Z 56
_cell_length_a 18.692744
_cell_length_b 8.768598
_cell_length_c 18.798099
_cell_angle_alpha 90.000000
_cell_angle_beta 90.000000
_cell_angle_gamma 90.000000
_cell_volume 3081.180573
_symmetry_space_group_name_H-M "C M M 2"
_symmetry_group_IT_number 35
_symmetry_cell_setting 'orthorhombic'
loop_
_space_group_symop_operation_xyz
x,y,z
-x,-y,z
-x,y,z
x,-y,z
1/2+x,1/2+y,z
1/2-x,1/2-y,z
1/2-x,1/2+y,z
1/2+x,1/2-y,z
loop_
_atom_site_type_symbol
_atom_site_label
_atom_site_fract_x
_atom_site_fract_y
_atom_site_fract_z
Si Si1 0.584151 0.682365 0.394510
Si Si2 0.829931 0.816679 0.833956
Si Si3 0.829394 0.316912 0.262661
Si Si4 0.582938 0.815985 0.121548
Si Si5 0.830218 0.183382 0.678697
Si Si6 0.914767 0.319850 0.546588
Si Si7 0.669588 0.316654 0.989978
O O1 0.500000 0.722410 0.384925
O O2 0.590585 0.500000 0.392367
O O3 0.630416 0.756131 0.332337
O O4 0.606696 0.742761 0.472072
O O5 0.750000 0.750000 0.833805
O O6 0.861420 0.772763 0.757041
O O7 0.825879 0.000000 0.833912
O O8 0.860262 0.772668 0.911227
O O9 0.826103 0.500000 0.265081
O O10 0.750000 0.250000 0.258551
O O11 0.874338 0.271310 0.192689
O O12 0.500000 0.769974 0.126241
O O13 0.621052 0.746265 0.052889
O O14 0.585697 0.000000 0.116523
O O15 0.750000 0.250000 0.674740
O O16 0.875298 0.248149 0.613752
O O17 0.827306 0.000000 0.674497
O O18 0.900367 0.500000 0.542994
O O19 0.000000 0.297225 0.554275
O O20 0.673598 0.500000 0.994065
O O21 0.750000 0.250000 0.996463
#
# Coordination Sequence:
#
# PCOD9348511 Si02
#       7
#     8   8   8   8   8   8   8
#     4  10  21  38  60  84 109 139 177 219 265 318
#     4   8  16  30  49  75 105 138 176 220 269 318
#     4  11  23  39  59  83 111 141 176 219 266 315
#     4  10  22  39  57  79 109 144 180 219 266 318
#     4  10  19  33  54  79 108 141 180 225 271 319
#     4  10  21  37  56  79 109 144 181 220 265 318
#     4  10  19  33  55  81 108 140 180 224 270 319
#
# _framework density 18.174852000000001
#
# number of rings (size 3 to 8) (size 9 to 14) (size 15 to 20)
#    0.000    2.143    0.000    3.000    0.000    6.571 
#    0.000    3.571    0.000    4.286    0.000    0.000 
#    0.000    0.000    0.000    0.000    0.000    0.000 
#
# Total GULP energy -156231.967500 kJ/mol
# GULP energy per Si atom -5579.713125 kJ/mol
# Density = 1.813348 g / cm^3
# Si number density = 18.174852 Si / 1000 Ang^3
#
#
#
# Elastic Constant Matrix: (Units=GPa)
#
#
# Indices 1 2 3 4 5 6 
#
# 1 90.0963 44.6333 98.0230 0.0000 0.0000 0.0000
# 2 44.6333 45.0094 64.6500 0.0000 0.0000 0.0000
# 3 98.0230 64.6500 227.7797 0.0000 0.0000 0.0000
# 4 0.0000 0.0000 0.0000 14.8913 0.0000 0.0000
# 5 0.0000 0.0000 0.0000 0.0000 77.8301 0.0000
# 6 0.0000 0.0000 0.0000 0.0000 0.0000 24.9867
#
#
#
# Elastic Compliance Matrix: (Units=1/GPa)
#
#
# Indices 1 2 3 4 5 6 
#
# 1 0.026801 -0.016901 -0.006737 0.000000 0.000000 0.000000
# 2 -0.016901 0.048167 -0.006398 0.000000 0.000000 0.000000
# 3 -0.006737 -0.006398 0.009105 0.000000 0.000000 0.000000
# 4 0.000000 0.000000 0.000000 0.067153 0.000000 0.000000
# 5 0.000000 0.000000 0.000000 0.000000 0.012849 0.000000
# 6 0.000000 0.000000 0.000000 0.000000 0.000000 0.040021
#
#
# Mechanical properties :
#
#
# Convention : Reuss Voigt Hill
#
# Bulk Modulus (GPa) = 41.66252 86.38867 64.02559
# Shear Modulus (GPa) = 18.37095 33.91355 26.14225
#
# Velocity S-wave (km/s) = 3.18274 4.32436 3.79671
# Velocity P-wave (km/s) = 6.03982 8.51872 7.38404
#
# Compressibility (1/GPa) = 0.02400239
#
# Stress axis : x y z
#
# Youngs Moduli (GPa) = 37.31157 20.76107 109.82667
#
# Poissons Ratio (x) = 0.35088 0.73988
# Poissons Ratio (y) = 0.63060 0.70267
# Poissons Ratio (z) = 0.25136 0.13283
#
# Static dielectric constant tensor:
#      x y z
#    x 1.588090 0.000000 0.000000 
#    y 0.000000 1.615480 0.000000 
#    z 0.000000 0.000000 1.636600 
# 
# From -- ./inp_files/15658.got.cif
#   From: 2010.05.17/outbox.cif.g08.bks.cpg/sg35_8_cif.got.tgz:15658.got - 2010.06.03 17:29:28.
