data_PCOD9348063
_publ_section_title
;
Structure prediction by ZEFSAII (Michael W. Deem and Ramdas Pophale) SiO2 
 PCOD9348063
Probable space group: C M M 2
;
_chemical_formula_sum "Si O2"
_cell_formula_units_Z 48
_cell_length_a 10.544374
_cell_length_b 15.079682
_cell_length_c 14.546042
_cell_angle_alpha 90.000000
_cell_angle_beta 90.000000
_cell_angle_gamma 90.000000
_cell_volume 2312.905144
_symmetry_space_group_name_H-M "C M M 2"
_symmetry_group_IT_number 35
_symmetry_cell_setting 'orthorhombic'
loop_
_space_group_symop_operation_xyz
x,y,z
-x,-y,z
-x,y,z
x,-y,z
1/2+x,1/2+y,z
1/2-x,1/2-y,z
1/2-x,1/2+y,z
1/2+x,1/2-y,z
loop_
_atom_site_type_symbol
_atom_site_label
_atom_site_fract_x
_atom_site_fract_y
_atom_site_fract_z
Si Si1 0.742859 0.858626 0.783210
Si Si2 0.746122 0.354172 0.203806
Si Si3 0.651640 0.831566 0.590660
Si Si4 0.000000 0.356714 0.897850
Si Si5 0.639552 0.104451 0.384572
Si Si6 0.000000 0.642298 0.108558
Si Si7 0.000000 0.860129 0.098215
Si Si8 0.000000 0.859591 0.883713
O O1 0.750000 0.750000 0.782423
O O2 0.704388 0.883887 0.679402
O O3 0.627217 0.886280 0.847650
O O4 0.875442 0.887645 0.827165
O O5 0.750000 0.250000 0.182832
O O6 0.755027 0.362595 0.313635
O O7 0.875582 0.390243 0.160827
O O8 0.623877 0.391005 0.152989
O O9 0.500000 0.809886 0.606758
O O10 0.750000 0.750000 0.583151
O O11 0.659686 0.878051 0.492010
O O12 0.000000 0.248563 0.889815
O O13 0.000000 0.384484 0.002941
O O14 0.500000 0.144180 0.360938
O O15 0.633627 0.000000 0.371042
O O16 0.000000 0.751275 0.104431
O O17 0.000000 0.886698 0.991005
#
# Coordination Sequence:
#
# PCOD9348063 Si02
#       8
#     8   8   8   4   8   4   4   4
#     4   9  16  25  42  69 104 139 164 203 252 304
#     4  10  18  32  51  78 105 137 172 215 260 306
#     4  10  20  34  54  81 107 137 172 216 266 310
#     4   9  14  24  39  67 102 134 165 205 250 297
#     4  10  21  38  57  76 100 136 179 220 265 316
#     4   9  16  26  46  71 104 138 173 205 252 307
#     4   9  18  28  46  75 110 140 167 209 260 305
#     4   9  16  26  41  69 108 140 167 197 252 305
#
# _framework density 20.753121
#
# number of rings (size 3 to 8) (size 9 to 14) (size 15 to 20)
#    0.000    2.500    1.667    1.500    3.500    4.000 
#    1.500    0.417    0.000    0.000    0.000    7.000 
#    0.000    0.000    0.000    0.000    0.000    0.000 
#
# Total GULP energy -133843.117439 kJ/mol
# GULP energy per Si atom -5576.796560 kJ/mol
# Density = 2.070589 g / cm^3
# Si number density = 20.753121 Si / 1000 Ang^3
#
#
#
# Elastic Constant Matrix: (Units=GPa)
#
#
# Indices 1 2 3 4 5 6 
#
# 1 192.3142 11.3020 102.1493 0.0000 0.0000 0.0000
# 2 11.3020 37.9643 -3.7873 0.0000 0.0000 0.0000
# 3 102.1493 -3.7873 176.3303 0.0000 0.0000 0.0000
# 4 0.0000 0.0000 0.0000 -34.4627 0.0000 0.0000
# 5 0.0000 0.0000 0.0000 0.0000 35.0895 0.0000
# 6 0.0000 0.0000 0.0000 0.0000 0.0000 -4.4544
#
#
#
# Elastic Compliance Matrix: (Units=1/GPa)
#
#
# Indices 1 2 3 4 5 6 
#
# 1 0.007792 -0.002776 -0.004574 0.000000 0.000000 0.000000
# 2 -0.002776 0.027386 0.002196 0.000000 0.000000 0.000000
# 3 -0.004574 0.002196 0.008368 0.000000 0.000000 0.000000
# 4 0.000000 0.000000 0.000000 -0.029017 0.000000 0.000000
# 5 0.000000 0.000000 0.000000 0.000000 0.028499 0.000000
# 6 0.000000 0.000000 0.000000 0.000000 0.000000 -0.224499
#
#
# Mechanical properties :
#
#
# Convention : Reuss Voigt Hill
#
# Bulk Modulus (GPa) = 30.08471 69.54855 49.81663
# Shear Modulus (GPa) = -31.23368 19.03080 -6.10144
#
# Velocity S-wave (km/s) = -3.88366 3.03150 -1.71651
# Velocity P-wave (km/s) = 2.36272 6.77041 4.48642
#
# Compressibility (1/GPa) = 0.03323948
#
# Stress axis : x y z
#
# Youngs Moduli (GPa) = 128.33040 36.51493 119.50304
#
# Poissons Ratio (x) = 0.10137 0.54658
# Poissons Ratio (y) = 0.35626 -0.26248
# Poissons Ratio (z) = 0.58696 -0.08020
#
# Static dielectric constant tensor:
#      x y z
#    x 1.758450 0.000000 0.000000 
#    y 0.000000 1.753390 0.000000 
#    z 0.000000 0.000000 1.732420 
# 
# From -- ./inp_files/15346.got.cif
#   From: 2010.05.17/outbox.cif.g08.bks.cpg/sg35_8_cif.got.tgz:15346.got - 2010.06.03 17:29:28.
