data_PCOD9348058
_publ_section_title
;
Structure prediction by ZEFSAII (Michael W. Deem and Ramdas Pophale) SiO2 
 PCOD9348058
Probable space group: P N N 2
;
_chemical_formula_sum "Si O2"
_cell_formula_units_Z 30
_cell_length_a 15.000000
_cell_length_b 9.000000
_cell_length_c 12.000000
_cell_angle_alpha 90.000000
_cell_angle_beta 90.000000
_cell_angle_gamma 90.000000
_cell_volume 1620.000000
_symmetry_space_group_name_H-M "P N N 2"
_symmetry_group_IT_number 34
_symmetry_cell_setting 'orthorhombic'
loop_
_space_group_symop_operation_xyz
x,y,z
-x,-y,z
1/2-x,1/2+y,1/2+z
1/2+x,1/2-y,1/2+z
loop_
_atom_site_type_symbol
_atom_site_label
_atom_site_fract_x
_atom_site_fract_y
_atom_site_fract_z
Si Si1 0.778595 0.407358 0.206110
Si Si2 0.086599 0.607669 0.019517
Si Si3 0.162358 0.709989 0.442062
Si Si4 0.500000 0.000000 0.012969
Si Si5 0.758093 0.502983 0.852749
Si Si6 0.622052 0.189851 0.183729
Si Si7 0.965943 0.169236 0.830094
Si Si8 0.782224 0.237458 0.697170
O O1 0.865990 0.355201 0.137219
O O2 0.787465 0.372515 0.338730
O O3 0.689909 0.325911 0.155884
O O4 0.770730 0.583476 0.190455
O O5 0.000000 0.500000 0.029770
O O6 0.167870 0.534334 0.947346
O O7 0.055408 0.750023 0.947070
O O8 0.182109 0.884548 0.402815
O O9 0.201193 0.703799 0.569752
O O10 0.065494 0.623285 0.451652
O O11 0.430213 0.901436 0.087600
O O12 0.813401 0.585489 0.755498
O O13 0.734935 0.351129 0.784907
O O14 0.545253 0.246949 0.266190
O O15 0.877923 0.193164 0.753159
O O16 0.000000 0.000000 0.842300
#
# Coordination Sequence:
#
# PCOD9348058 Si02
#       8
#     4   4   4   2   4   4   4   4
#     4  11  26  41  65  99 138 177 227 277 350 418
#     4  11  22  40  66  92 134 180 219 278 350 404
#     4  11  24  42  65 100 135 181 228 280 345 422
#     4  12  22  40  74  92 142 178 226 284 354 402
#     4  10  21  40  67  96 130 172 232 278 333 403
#     4  11  20  40  63  99 122 172 230 279 324 406
#     4  11  21  37  67  99 125 167 239 294 333 392
#     4  11  21  42  68  96 138 180 225 291 341 403
#
# _framework density 18.518519000000001
#
# number of rings (size 3 to 8) (size 9 to 14) (size 15 to 20)
#    0.000    1.067    6.667    0.800    0.933    2.133 
#    0.000    0.000    0.000    2.400    0.000    0.000 
#    0.000    0.000    0.000    0.000    0.000    0.000 
#
# Total GULP energy -167150.205606 kJ/mol
# GULP energy per Si atom -5571.673520 kJ/mol
# Density = 1.847637 g / cm^3
# Si number density = 18.518519 Si / 1000 Ang^3
#
#
#
# Elastic Constant Matrix: (Units=GPa)
#
#
# Indices 1 2 3 4 5 6 
#
# 1 81.5027 35.3511 32.0238 0.0000 0.0000 0.0000
# 2 35.3511 110.6898 33.5988 0.0000 0.0000 0.0000
# 3 32.0238 33.5988 100.3776 0.0000 0.0000 0.0000
# 4 0.0000 0.0000 0.0000 29.2728 0.0000 0.0000
# 5 0.0000 0.0000 0.0000 0.0000 34.8235 0.0000
# 6 0.0000 0.0000 0.0000 0.0000 0.0000 40.3450
#
#
#
# Elastic Compliance Matrix: (Units=1/GPa)
#
#
# Indices 1 2 3 4 5 6 
#
# 1 0.015341 -0.003800 -0.003622 0.000000 0.000000 0.000000
# 2 -0.003800 0.010997 -0.002469 0.000000 0.000000 0.000000
# 3 -0.003622 -0.002469 0.011944 0.000000 0.000000 0.000000
# 4 0.000000 0.000000 0.000000 0.034161 0.000000 0.000000
# 5 0.000000 0.000000 0.000000 0.000000 0.028716 0.000000
# 6 0.000000 0.000000 0.000000 0.000000 0.000000 0.024786
#
#
# Mechanical properties :
#
#
# Convention : Reuss Voigt Hill
#
# Bulk Modulus (GPa) = 54.05245 54.94637 54.49941
# Shear Modulus (GPa) = 32.91741 33.66137 33.28939
#
# Velocity S-wave (km/s) = 4.22066 4.26809 4.24444
# Velocity P-wave (km/s) = 7.28036 7.35012 7.31532
#
# Compressibility (1/GPa) = 0.01850055
#
# Stress axis : x y z
#
# Youngs Moduli (GPa) = 65.18476 90.93226 83.72144
#
# Poissons Ratio (x) = 0.34554 0.30327
# Poissons Ratio (y) = 0.24770 0.20668
# Poissons Ratio (z) = 0.23612 0.22449
#
# Static dielectric constant tensor:
#      x y z
#    x 1.628640 0.000000 0.000000 
#    y 0.000000 1.710540 0.000000 
#    z 0.000000 0.000000 1.651920 
# 
# From -- ./inp_files/5072.got.cif
#   From: 2010.05.17/outbox.ucp.g08.bks.cvg/sg34_3_cif.got.tgz:5072.got - 2010.06.11 10:35:58.
