data_PCOD9348304
_publ_section_title
;
Structure prediction by ZEFSAII (Michael W. Deem and Ramdas Pophale) SiO2 
 PCOD9348304
Probable space group: C M M 2
;
_chemical_formula_sum "Si O2"
_cell_formula_units_Z 64
_cell_length_a 8.697025
_cell_length_b 29.335177
_cell_length_c 16.102951
_cell_angle_alpha 90.000000
_cell_angle_beta 90.000000
_cell_angle_gamma 90.000000
_cell_volume 4108.326046
_symmetry_space_group_name_H-M "C M M 2"
_symmetry_group_IT_number 35
_symmetry_cell_setting 'orthorhombic'
loop_
_space_group_symop_operation_xyz
x,y,z
-x,-y,z
-x,y,z
x,-y,z
1/2+x,1/2+y,z
1/2-x,1/2-y,z
1/2-x,1/2+y,z
1/2+x,1/2-y,z
loop_
_atom_site_type_symbol
_atom_site_label
_atom_site_fract_x
_atom_site_fract_y
_atom_site_fract_z
Si Si1 0.184402 0.698637 0.408900
Si Si2 0.685377 0.198854 0.225498
Si Si3 0.314260 0.854664 0.736533
Si Si4 0.317017 0.698651 0.580435
Si Si5 0.685280 0.800808 0.904397
Si Si6 0.814650 0.551356 0.812503
Si Si7 0.183874 0.051649 0.997416
Si Si8 0.814183 0.641607 0.066157
O O1 0.250000 0.750000 0.406831
O O2 0.225267 0.680032 0.317480
O O3 0.255589 0.678725 0.492851
O O4 0.000000 0.699564 0.416820
O O5 0.500000 0.202183 0.222395
O O6 0.750000 0.250000 0.216312
O O7 0.736498 0.167039 0.149909
O O8 0.500000 0.852202 0.728093
O O9 0.238315 0.831655 0.657138
O O10 0.270950 0.826912 0.819942
O O11 0.269997 0.907275 0.752549
O O12 0.500000 0.701932 0.577943
O O13 0.250000 0.750000 0.590036
O O14 0.500000 0.798744 0.906158
O O15 0.750000 0.750000 0.905567
O O16 0.735198 0.829043 0.985584
O O17 0.771715 0.500000 0.785795
O O18 0.745650 0.559227 0.903875
O O19 0.000000 0.553099 0.820704
O O20 0.000000 0.054248 0.996444
O O21 0.229258 0.000000 0.021235
O O22 0.251122 0.090923 0.055108
O O23 0.000000 0.639948 0.065699
#
# Coordination Sequence:
#
# PCOD9348304 Si02
#       8
#     8   8   8   8   8   8   8   8
#     4   9  16  29  47  68  92 121 153 194 237 275
#     4   9  18  30  48  71  97 125 157 193 232 275
#     4  10  19  32  47  68  94 123 157 193 230 275
#     4  11  21  32  47  68  93 126 160 195 234 276
#     4  10  20  31  43  62  91 127 159 187 220 264
#     4   9  17  32  53  71  90 120 155 192 236 280
#     4  10  20  32  47  69  94 120 155 198 239 276
#     4  10  19  33  48  67  93 125 161 193 229 276
#
# _framework density 15.57812
#
# number of rings (size 3 to 8) (size 9 to 14) (size 15 to 20)
#    0.000    2.250    1.250    3.375    0.000    4.250 
#    0.000    0.000    0.000    0.000    0.000    0.875 
#    0.000    3.000    0.000    0.000    0.000    0.000 
#
# Total GULP energy -178413.850233 kJ/mol
# GULP energy per Si atom -5575.432820 kJ/mol
# Density = 1.554266 g / cm^3
# Si number density = 15.578120 Si / 1000 Ang^3
#
#
#
# Elastic Constant Matrix: (Units=GPa)
#
#
# Indices 1 2 3 4 5 6 
#
# 1 32.4919 30.9313 41.5980 0.0000 0.0000 0.0000
# 2 30.9313 111.3307 75.3399 0.0000 0.0000 0.0000
# 3 41.5980 75.3399 153.3959 0.0000 0.0000 0.0000
# 4 0.0000 0.0000 0.0000 9.2724 0.0000 0.0000
# 5 0.0000 0.0000 0.0000 0.0000 17.3911 0.0000
# 6 0.0000 0.0000 0.0000 0.0000 0.0000 21.8426
#
#
#
# Elastic Compliance Matrix: (Units=1/GPa)
#
#
# Indices 1 2 3 4 5 6 
#
# 1 0.050690 -0.007161 -0.010229 0.000000 0.000000 0.000000
# 2 -0.007161 0.014466 -0.005163 0.000000 0.000000 0.000000
# 3 -0.010229 -0.005163 0.011829 0.000000 0.000000 0.000000
# 4 0.000000 0.000000 0.000000 0.107847 0.000000 0.000000
# 5 0.000000 0.000000 0.000000 0.000000 0.057501 0.000000
# 6 0.000000 0.000000 0.000000 0.000000 0.000000 0.045782
#
#
# Mechanical properties :
#
#
# Convention : Reuss Voigt Hill
#
# Bulk Modulus (GPa) = 31.36930 65.88410 48.62670
# Shear Modulus (GPa) = 14.54143 19.65785 17.09964
#
# Velocity S-wave (km/s) = 3.05856 3.55616 3.31670
# Velocity P-wave (km/s) = 5.71433 7.69716 6.77863
#
# Compressibility (1/GPa) = 0.03187830
#
# Stress axis : x y z
#
# Youngs Moduli (GPa) = 19.72790 69.12951 84.54062
#
# Poissons Ratio (x) = 0.49504 0.86476
# Poissons Ratio (y) = 0.14127 0.43646
# Poissons Ratio (z) = 0.20179 0.35690
#
# Static dielectric constant tensor:
#      x y z
#    x 1.524390 0.000000 0.000000 
#    y 0.000000 1.490690 0.000000 
#    z 0.000000 0.000000 1.531190 
# 
# From -- ./inp_files/16168.got.cif
#   From: 2010.05.17/outbox.cif.g08.bks.cpg/sg35_9_cif.got.tgz:16168.got - 2010.06.03 17:29:28.
