data_PCOD9348467
_publ_section_title
;
Structure prediction by ZEFSAII (Michael W. Deem and Ramdas Pophale) SiO2 
 PCOD9348467
Probable space group: C M M 2
;
_chemical_formula_sum "Si O2"
_cell_formula_units_Z 64
_cell_length_a 8.303179
_cell_length_b 29.059905
_cell_length_c 13.425907
_cell_angle_alpha 90.000000
_cell_angle_beta 90.000000
_cell_angle_gamma 90.000000
_cell_volume 3239.531635
_symmetry_space_group_name_H-M "C M M 2"
_symmetry_group_IT_number 35
_symmetry_cell_setting 'orthorhombic'
loop_
_space_group_symop_operation_xyz
x,y,z
-x,-y,z
-x,y,z
x,-y,z
1/2+x,1/2+y,z
1/2-x,1/2-y,z
1/2-x,1/2+y,z
1/2+x,1/2-y,z
loop_
_atom_site_type_symbol
_atom_site_label
_atom_site_fract_x
_atom_site_fract_y
_atom_site_fract_z
Si Si1 0.816573 0.444063 0.819550
Si Si2 0.193431 0.947947 0.603006
Si Si3 0.196941 0.144623 0.118925
Si Si4 0.192706 0.051833 0.035251
Si Si5 0.806345 0.143322 0.512381
Si Si6 0.693153 0.302786 0.919478
Si Si7 0.195212 0.197351 0.317295
Si Si8 0.691209 0.802874 0.706010
O O1 0.817912 0.500000 0.819467
O O2 0.735293 0.431890 0.715155
O O3 0.000000 0.427484 0.821060
O O4 0.729470 0.432050 0.922307
O O5 0.253216 0.908975 0.527438
O O6 0.000000 0.950080 0.595992
O O7 0.256182 0.000000 0.588073
O O8 0.250676 0.091650 0.109123
O O9 0.250209 0.171341 0.217236
O O10 0.000000 0.144730 0.119758
O O11 0.247543 0.170528 0.017992
O O12 0.000000 0.049124 0.044581
O O13 0.258209 0.000000 0.049643
O O14 0.746521 0.170257 0.415392
O O15 0.764153 0.170475 0.612799
O O16 0.000000 0.141379 0.504305
O O17 0.500000 0.303759 0.915397
O O18 0.750000 0.250000 0.927308
O O19 0.757470 0.321714 0.814348
O O20 0.250000 0.250000 0.318448
O O21 0.000000 0.196962 0.317726
O O22 0.500000 0.803866 0.698886
O O23 0.750000 0.750000 0.702254
#
# Coordination Sequence:
#
# PCOD9348467 Si02
#       8
#     8   8   8   8   8   8   8   8
#     4   9  17  29  46  72 106 141 177 220 265 306
#     4   9  18  33  52  75 106 145 185 220 262 319
#     4   9  19  34  54  79 106 138 176 220 268 316
#     4   9  17  31  51  75 105 143 182 215 257 318
#     4  10  21  36  56  80 108 142 181 225 272 323
#     4  10  19  33  52  75 106 139 172 215 268 324
#     4  10  21  39  60  81 106 137 178 226 275 323
#     4  11  22  36  54  78 109 141 176 220 272 332
#
# _framework density 19.755942000000001
#
# number of rings (size 3 to 8) (size 9 to 14) (size 15 to 20)
#    0.000    2.375    0.000    3.375    1.750    3.500 
#    0.000    2.500    0.000    3.750    0.000    0.000 
#    0.000    5.000    0.000    0.000    0.000    0.000 
#
# Total GULP energy -178606.195303 kJ/mol
# GULP energy per Si atom -5581.443603 kJ/mol
# Density = 1.971098 g / cm^3
# Si number density = 19.755942 Si / 1000 Ang^3
#
#
#
# Elastic Constant Matrix: (Units=GPa)
#
#
# Indices 1 2 3 4 5 6 
#
# 1 7.1117 5.2374 0.4361 0.0000 0.0000 0.0000
# 2 5.2374 143.4046 97.9845 0.0000 0.0000 0.0000
# 3 0.4361 97.9845 151.6768 0.0000 0.0000 0.0000
# 4 0.0000 0.0000 0.0000 48.4793 0.0000 0.0000
# 5 0.0000 0.0000 0.0000 0.0000 8.9849 0.0000
# 6 0.0000 0.0000 0.0000 0.0000 0.0000 17.3757
#
#
#
# Elastic Compliance Matrix: (Units=1/GPa)
#
#
# Indices 1 2 3 4 5 6 
#
# 1 0.146974 -0.009092 0.005451 0.000000 0.000000 0.000000
# 2 -0.009092 0.013046 -0.008402 0.000000 0.000000 0.000000
# 3 0.005451 -0.008402 0.012005 0.000000 0.000000 0.000000
# 4 0.000000 0.000000 0.000000 0.020627 0.000000 0.000000
# 5 0.000000 0.000000 0.000000 0.000000 0.111298 0.000000
# 6 0.000000 0.000000 0.000000 0.000000 0.000000 0.057552
#
#
# Mechanical properties :
#
#
# Convention : Reuss Voigt Hill
#
# Bulk Modulus (GPa) = 6.75953 56.61211 31.68582
# Shear Modulus (GPa) = 11.49687 28.20365 19.85026
#
# Velocity S-wave (km/s) = 2.41497 3.78246 3.17326
# Velocity P-wave (km/s) = 3.34739 6.91332 5.43135
#
# Compressibility (1/GPa) = 0.14793931
#
# Stress axis : x y z
#
# Youngs Moduli (GPa) = 6.80391 76.65189 83.29963
#
# Poissons Ratio (x) = 0.69695 -0.45409
# Poissons Ratio (y) = 0.06186 0.69986
# Poissons Ratio (z) = -0.03709 0.64400
#
# Static dielectric constant tensor:
#      x y z
#    x 1.695300 0.000000 0.000000 
#    y 0.000000 1.738380 0.000000 
#    z 0.000000 0.000000 1.673390 
# 
# From -- ./inp_files/11880.got.cif
#   From: 2010.05.17/outbox.cif.g08.bks.cpg/sg35_6_cif.got.tgz:11880.got - 2010.06.03 17:29:28.
