data_PCOD9348332
_publ_section_title
;
Structure prediction by ZEFSAII (Michael W. Deem and Ramdas Pophale) SiO2 
 PCOD9348332
Probable space group: C M M 2
;
_chemical_formula_sum "Si O2"
_cell_formula_units_Z 64
_cell_length_a 7.917020
_cell_length_b 28.811995
_cell_length_c 14.523696
_cell_angle_alpha 90.000000
_cell_angle_beta 90.000000
_cell_angle_gamma 90.000000
_cell_volume 3312.929719
_symmetry_space_group_name_H-M "C M M 2"
_symmetry_group_IT_number 35
_symmetry_cell_setting 'orthorhombic'
loop_
_space_group_symop_operation_xyz
x,y,z
-x,-y,z
-x,y,z
x,-y,z
1/2+x,1/2+y,z
1/2-x,1/2-y,z
1/2-x,1/2+y,z
1/2+x,1/2-y,z
loop_
_atom_site_type_symbol
_atom_site_label
_atom_site_fract_x
_atom_site_fract_y
_atom_site_fract_z
Si Si1 0.807602 0.126049 0.182410
Si Si2 0.800358 0.196640 0.829745
Si Si3 0.296016 0.446434 0.035955
Si Si4 0.799176 0.303402 0.035805
Si Si5 0.310327 0.873786 0.683756
Si Si6 0.704776 0.698287 0.327463
Si Si7 0.699058 0.300614 0.536858
Si Si8 0.704055 0.053582 0.829118
O O1 0.730755 0.083668 0.122739
O O2 0.804791 0.166461 0.106696
O O3 0.731264 0.153838 0.269401
O O4 0.000000 0.112625 0.207186
O O5 0.750000 0.250000 0.819541
O O6 0.694223 0.166224 0.760399
O O7 0.000000 0.190617 0.812457
O O8 0.754126 0.183103 0.933181
O O9 0.500000 0.445073 0.040512
O O10 0.239816 0.500000 0.042521
O O11 0.249944 0.429741 0.932553
O O12 0.750000 0.250000 0.046975
O O13 0.000000 0.309608 0.048426
O O14 0.500000 0.887762 0.658900
O O15 0.237689 0.846290 0.596343
O O16 0.230191 0.916186 0.742570
O O17 0.500000 0.695765 0.325835
O O18 0.750000 0.750000 0.290947
O O19 0.769227 0.696354 0.432802
O O20 0.500000 0.298076 0.528392
O O21 0.750000 0.250000 0.577371
O O22 0.500000 0.054997 0.824524
O O23 0.760071 0.000000 0.822435
#
# Coordination Sequence:
#
# PCOD9348332 Si02
#       8
#     8   8   8   8   8   8   8   8
#     4  10  19  32  50  72  98 129 166 205 247 293
#     4  11  21  33  47  66  96 131 164 197 237 287
#     4   9  18  32  51  75 102 132 166 204 246 293
#     4  11  21  32  45  66  97 130 163 197 238 289
#     4  11  21  33  51  74  98 126 163 204 249 298
#     4   9  19  34  52  73  99 131 166 207 249 295
#     4  10  20  35  53  74 101 132 168 207 250 297
#     4   9  19  35  53  73  99 131 166 204 246 294
#
# _framework density 19.318247
#
# number of rings (size 3 to 8) (size 9 to 14) (size 15 to 20)
#    0.000    2.000    0.000    5.250    0.000    5.500 
#    0.000    0.000    0.000    0.750    0.000    1.750 
#    0.000    0.000    0.000    0.000    0.000    0.000 
#
# Total GULP energy -178362.364191 kJ/mol
# GULP energy per Si atom -5573.823881 kJ/mol
# Density = 1.927428 g / cm^3
# Si number density = 19.318247 Si / 1000 Ang^3
#
#
#
# Elastic Constant Matrix: (Units=GPa)
#
#
# Indices 1 2 3 4 5 6 
#
# 1 46.5758 2.1962 -4.9411 0.0000 0.0000 0.0000
# 2 2.1962 105.9559 52.8241 0.0000 0.0000 0.0000
# 3 -4.9411 52.8241 85.6430 0.0000 0.0000 0.0000
# 4 0.0000 0.0000 0.0000 34.5581 0.0000 0.0000
# 5 0.0000 0.0000 0.0000 0.0000 13.2185 0.0000
# 6 0.0000 0.0000 0.0000 0.0000 0.0000 15.1847
#
#
#
# Elastic Compliance Matrix: (Units=1/GPa)
#
#
# Indices 1 2 3 4 5 6 
#
# 1 0.021779 -0.001556 0.002217 0.000000 0.000000 0.000000
# 2 -0.001556 0.013740 -0.008565 0.000000 0.000000 0.000000
# 3 0.002217 -0.008565 0.017087 0.000000 0.000000 0.000000
# 4 0.000000 0.000000 0.000000 0.028937 0.000000 0.000000
# 5 0.000000 0.000000 0.000000 0.000000 0.075652 0.000000
# 6 0.000000 0.000000 0.000000 0.000000 0.000000 0.065856
#
#
# Mechanical properties :
#
#
# Convention : Reuss Voigt Hill
#
# Bulk Modulus (GPa) = 27.17629 37.59255 32.38442
# Shear Modulus (GPa) = 19.91045 25.13197 22.52121
#
# Velocity S-wave (km/s) = 3.21386 3.61077 3.41809
# Velocity P-wave (km/s) = 5.27922 6.07334 5.69015
#
# Compressibility (1/GPa) = 0.03679678
#
# Stress axis : x y z
#
# Youngs Moduli (GPa) = 45.91599 72.78035 58.52467
#
# Poissons Ratio (x) = 0.11328 -0.12972
# Poissons Ratio (y) = 0.07147 0.50124
# Poissons Ratio (z) = -0.10178 0.62333
#
# Static dielectric constant tensor:
#      x y z
#    x 1.728880 0.000000 0.000000 
#    y 0.000000 1.701410 0.000000 
#    z 0.000000 0.000000 1.704420 
# 
# From -- ./inp_files/16155.got.cif
#   From: 2010.05.17/outbox.cif.g08.bks.cpg/sg35_9_cif.got.tgz:16155.got - 2010.06.03 17:29:28.
