data_PCOD9348613
_publ_section_title
;
Structure prediction by ZEFSAII (Michael W. Deem and Ramdas Pophale) SiO2 
 PCOD9348613
Probable space group: C M M 2
;
_chemical_formula_sum "Si O2"
_cell_formula_units_Z 48
_cell_length_a 28.943422
_cell_length_b 8.573798
_cell_length_c 10.533277
_cell_angle_alpha 90.000000
_cell_angle_beta 90.000000
_cell_angle_gamma 90.000000
_cell_volume 2613.885919
_symmetry_space_group_name_H-M "C M M 2"
_symmetry_group_IT_number 35
_symmetry_cell_setting 'orthorhombic'
loop_
_space_group_symop_operation_xyz
x,y,z
-x,-y,z
-x,y,z
x,-y,z
1/2+x,1/2+y,z
1/2-x,1/2-y,z
1/2-x,1/2+y,z
1/2+x,1/2-y,z
loop_
_atom_site_type_symbol
_atom_site_label
_atom_site_fract_x
_atom_site_fract_y
_atom_site_fract_z
Si Si1 0.108073 0.187316 0.119360
Si Si2 0.604537 0.311359 0.611034
Si Si3 0.300181 0.312798 0.728899
Si Si4 0.199638 0.314155 0.013652
Si Si5 0.447196 0.689893 0.868594
Si Si6 0.553793 0.813185 0.362484
O O1 0.080194 0.242944 0.241736
O O2 0.110721 0.000000 0.119127
O O3 0.159338 0.255658 0.105745
O O4 0.080627 0.239662 0.992880
O O5 0.602186 0.500000 0.601203
O O6 0.657981 0.268264 0.635941
O O7 0.577252 0.262944 0.738323
O O8 0.580495 0.239445 0.488828
O O9 0.298750 0.500000 0.737000
O O10 0.250000 0.250000 0.690339
O O11 0.309841 0.250043 0.871099
O O12 0.200844 0.500000 0.008878
O O13 0.250000 0.250000 0.050202
O O14 0.500000 0.743123 0.873145
O O15 0.447235 0.500000 0.869563
O O16 0.500000 0.761784 0.366083
O O17 0.554398 0.000000 0.353694
#
# Coordination Sequence:
#
# PCOD9348613 Si02
#       6
#     8   8   8   8   8   8
#     4  11  21  38  61  87 117 153 200 247 294 351
#     4  10  20  37  60  85 115 152 199 244 290 351
#     4  10  19  34  57  88 120 153 194 242 293 351
#     4  11  21  35  58  88 122 157 193 239 296 353
#     4   9  17  31  55  85 113 142 187 245 293 341
#     4  11  25  42  58  83 121 160 198 243 299 359
#
# _framework density 18.363462999999999
#
# number of rings (size 3 to 8) (size 9 to 14) (size 15 to 20)
#    0.000    1.667    1.667    5.000    0.000    4.000 
#    0.000    0.833    0.000    5.000    0.000    0.000 
#    0.000    0.000    0.000    0.000    0.000    0.000 
#
# Total GULP energy -134075.819729 kJ/mol
# GULP energy per Si atom -5586.492489 kJ/mol
# Density = 1.832167 g / cm^3
# Si number density = 18.363463 Si / 1000 Ang^3
#
#
#
# Elastic Constant Matrix: (Units=GPa)
#
#
# Indices 1 2 3 4 5 6 
#
# 1 188.0246 54.6635 89.2719 0.0000 0.0000 0.0000
# 2 54.6635 70.4933 38.1864 0.0000 0.0000 0.0000
# 3 89.2719 38.1864 134.4257 0.0000 0.0000 0.0000
# 4 0.0000 0.0000 0.0000 23.3505 0.0000 0.0000
# 5 0.0000 0.0000 0.0000 0.0000 33.4226 0.0000
# 6 0.0000 0.0000 0.0000 0.0000 0.0000 26.3989
#
#
#
# Elastic Compliance Matrix: (Units=1/GPa)
#
#
# Indices 1 2 3 4 5 6 
#
# 1 0.008746 -0.004297 -0.004587 0.000000 0.000000 0.000000
# 2 -0.004297 0.018877 -0.002509 0.000000 0.000000 0.000000
# 3 -0.004587 -0.002509 0.011198 0.000000 0.000000 0.000000
# 4 0.000000 0.000000 0.000000 0.042826 0.000000 0.000000
# 5 0.000000 0.000000 0.000000 0.000000 0.029920 0.000000
# 6 0.000000 0.000000 0.000000 0.000000 0.000000 0.037880
#
#
# Mechanical properties :
#
#
# Convention : Reuss Voigt Hill
#
# Bulk Modulus (GPa) = 62.36522 84.13190 73.24856
# Shear Modulus (GPa) = 28.15675 30.68920 29.42297
#
# Velocity S-wave (km/s) = 3.91999 4.09248 4.00716
# Velocity P-wave (km/s) = 7.38402 8.26108 7.83483
#
# Compressibility (1/GPa) = 0.01603458
#
# Stress axis : x y z
#
# Youngs Moduli (GPa) = 114.34223 52.97542 89.29984
#
# Poissons Ratio (x) = 0.22762 0.40965
# Poissons Ratio (y) = 0.49130 0.22404
# Poissons Ratio (z) = 0.52453 0.13291
#
# Static dielectric constant tensor:
#      x y z
#    x 1.638630 0.000000 0.000000 
#    y 0.000000 1.620730 0.000000 
#    z 0.000000 0.000000 1.595380 
# 
# From -- ./inp_files/10469.got.cif
#   From: 2010.05.17/outbox.cif.g08.bks.cpg/sg35_6_cif.got.tgz:10469.got - 2010.06.03 17:29:28.
