data_PCOD9348120
_publ_section_title
;
Structure prediction by ZEFSAII (Michael W. Deem and Ramdas Pophale) SiO2 
 PCOD9348120
Probable space group: C M M 2
;
_chemical_formula_sum "Si O2"
_cell_formula_units_Z 56
_cell_length_a 8.346557
_cell_length_b 22.491383
_cell_length_c 15.073941
_cell_angle_alpha 90.000000
_cell_angle_beta 90.000000
_cell_angle_gamma 90.000000
_cell_volume 2829.764773
_symmetry_space_group_name_H-M "C M M 2"
_symmetry_group_IT_number 35
_symmetry_cell_setting 'orthorhombic'
loop_
_space_group_symop_operation_xyz
x,y,z
-x,-y,z
-x,y,z
x,-y,z
1/2+x,1/2+y,z
1/2-x,1/2-y,z
1/2-x,1/2+y,z
1/2+x,1/2-y,z
loop_
_atom_site_type_symbol
_atom_site_label
_atom_site_fract_x
_atom_site_fract_y
_atom_site_fract_z
Si Si1 0.693712 0.931993 0.027040
Si Si2 0.693127 0.500000 0.518185
Si Si3 0.193289 0.384676 0.411137
Si Si4 0.305292 0.931985 0.230238
Si Si5 0.311136 0.315445 0.921797
Si Si6 0.691468 0.500000 0.725786
Si Si7 0.692798 0.185355 0.572735
Si Si8 0.191413 0.626518 0.750407
O O1 0.500000 0.933417 0.024893
O O2 0.746982 0.921576 0.129435
O O3 0.746563 0.000000 0.001780
O O4 0.746165 0.874372 0.971794
O O5 0.500000 0.500000 0.515273
O O6 0.760548 0.556723 0.466242
O O7 0.743241 0.500000 0.621764
O O8 0.253011 0.390489 0.310324
O O9 0.252404 0.332259 0.474995
O O10 0.000000 0.381599 0.406522
O O11 0.500000 0.929120 0.228648
O O12 0.262888 0.000000 0.253848
O O13 0.500000 0.315226 0.931389
O O14 0.250000 0.250000 0.950152
O O15 0.263441 0.327315 0.819737
O O16 0.500000 0.500000 0.728530
O O17 0.756268 0.440478 0.770785
O O18 0.500000 0.183487 0.571394
O O19 0.750000 0.250000 0.597790
O O20 0.746805 0.141038 0.650383
O O21 0.000000 0.630604 0.754680
#
# Coordination Sequence:
#
# PCOD9348120 Si02
#       8
#     8   4   8   8   8   4   8   8
#     4   9  19  38  64  94 123 155 197 248 305 365
#     4  11  21  31  49  82 117 150 183 231 284 322
#     4  10  18  33  56  81 111 152 195 232 274 339
#     4   8  14  28  57  88 113 147 191 236 284 344
#     4  12  26  44  65  89 119 158 203 251 305 365
#     4  11  23  37  55  86 123 158 193 241 298 348
#     4  10  22  36  54  78 108 151 196 237 283 335
#     4  11  23  40  62  87 115 153 197 244 296 354
#
# _framework density 19.789629000000001
#
# number of rings (size 3 to 8) (size 9 to 14) (size 15 to 20)
#    0.000    1.857    2.143    3.429    1.000    3.714 
#    0.000    1.429    0.000    1.714    0.000    0.000 
#    0.000    0.000    0.000    0.000    0.000    0.000 
#
# Total GULP energy -156211.854432 kJ/mol
# GULP energy per Si atom -5578.994801 kJ/mol
# Density = 1.974459 g / cm^3
# Si number density = 19.789629 Si / 1000 Ang^3
#
#
#
# Elastic Constant Matrix: (Units=GPa)
#
#
# Indices 1 2 3 4 5 6 
#
# 1 26.2673 19.1218 18.1139 0.0000 0.0000 0.0000
# 2 19.1218 122.4924 44.4396 0.0000 0.0000 0.0000
# 3 18.1139 44.4396 92.4063 0.0000 0.0000 0.0000
# 4 0.0000 0.0000 0.0000 33.5068 0.0000 0.0000
# 5 0.0000 0.0000 0.0000 0.0000 13.0339 0.0000
# 6 0.0000 0.0000 0.0000 0.0000 0.0000 21.1663
#
#
#
# Elastic Compliance Matrix: (Units=1/GPa)
#
#
# Indices 1 2 3 4 5 6 
#
# 1 0.046201 -0.004756 -0.006769 0.000000 0.000000 0.000000
# 2 -0.004756 0.010379 -0.004059 0.000000 0.000000 0.000000
# 3 -0.006769 -0.004059 0.014101 0.000000 0.000000 0.000000
# 4 0.000000 0.000000 0.000000 0.029845 0.000000 0.000000
# 5 0.000000 0.000000 0.000000 0.000000 0.076723 0.000000
# 6 0.000000 0.000000 0.000000 0.000000 0.000000 0.047245
#
#
# Mechanical properties :
#
#
# Convention : Reuss Voigt Hill
#
# Bulk Modulus (GPa) = 25.30920 44.94628 35.12774
# Shear Modulus (GPa) = 18.59898 24.17412 21.38655
#
# Velocity S-wave (km/s) = 3.06900 3.49887 3.29096
# Velocity P-wave (km/s) = 5.03738 6.25173 5.67712
#
# Compressibility (1/GPa) = 0.03951132
#
# Stress axis : x y z
#
# Youngs Moduli (GPa) = 21.64473 96.34973 70.91861
#
# Poissons Ratio (x) = 0.45828 0.48005
# Poissons Ratio (y) = 0.10295 0.28786
# Poissons Ratio (z) = 0.14651 0.39108
#
# Static dielectric constant tensor:
#      x y z
#    x 1.672930 0.000000 0.000000 
#    y 0.000000 1.672310 0.000000 
#    z 0.000000 0.000000 1.728280 
# 
# From -- ./inp_files/15704.got.cif
#   From: 2010.05.17/outbox.cif.g08.bks.cpg/sg35_8_cif.got.tgz:15704.got - 2010.06.03 17:29:28.
