data_PCOD9348755
_publ_section_title
;
Structure prediction by ZEFSAII (Michael W. Deem and Ramdas Pophale) SiO2 
 PCOD9348755
Probable space group: C M M 2
;
_chemical_formula_sum "Si O2"
_cell_formula_units_Z 56
_cell_length_a 9.020093
_cell_length_b 18.601151
_cell_length_c 19.016458
_cell_angle_alpha 90.000000
_cell_angle_beta 90.000000
_cell_angle_gamma 90.000000
_cell_volume 3190.659518
_symmetry_space_group_name_H-M "C M M 2"
_symmetry_group_IT_number 35
_symmetry_cell_setting 'orthorhombic'
loop_
_space_group_symop_operation_xyz
x,y,z
-x,-y,z
-x,y,z
x,-y,z
1/2+x,1/2+y,z
1/2-x,1/2-y,z
1/2-x,1/2+y,z
1/2+x,1/2-y,z
loop_
_atom_site_type_symbol
_atom_site_label
_atom_site_fract_x
_atom_site_fract_y
_atom_site_fract_z
Si Si1 0.328147 0.412530 0.759260
Si Si2 0.177385 0.670331 0.321314
Si Si3 0.677393 0.329620 0.183606
Si Si4 0.173020 0.586411 0.902303
Si Si5 0.322194 0.585197 0.603063
Si Si6 0.176641 0.828704 0.027553
Si Si7 0.823170 0.671370 0.477057
O O1 0.500000 0.391521 0.768688
O O2 0.325312 0.500000 0.757691
O O3 0.233848 0.389290 0.826239
O O4 0.276926 0.389310 0.681551
O O5 0.250000 0.750000 0.324272
O O6 0.249958 0.634612 0.252441
O O7 0.207687 0.639195 0.398952
O O8 0.000000 0.675891 0.312208
O O9 0.500000 0.324260 0.192748
O O10 0.750000 0.250000 0.180698
O O11 0.708038 0.360219 0.105846
O O12 0.190115 0.500000 0.905630
O O13 0.261561 0.622627 0.965430
O O14 0.000000 0.603752 0.908655
O O15 0.500000 0.595264 0.598055
O O16 0.293222 0.500000 0.598562
O O17 0.241443 0.625016 0.540196
O O18 0.250000 0.750000 0.022832
O O19 0.000000 0.820953 0.021868
O O20 0.750000 0.750000 0.480265
O O21 0.000000 0.678468 0.483146
#
# Coordination Sequence:
#
# PCOD9348755 Si02
#       7
#     8   8   8   8   8   8   8
#     4   8  15  30  51  72  94 123 160 199 238 283
#     4   9  16  26  42  65  92 123 158 195 235 278
#     4   9  16  26  43  67  92 121 157 195 235 279
#     4  10  20  33  51  75 100 127 161 199 239 285
#     4   9  18  33  53  75  98 126 160 198 241 288
#     4  10  20  33  50  73 101 130 160 198 243 288
#     4  10  20  32  48  72 101 131 162 199 242 286
#
# _framework density 17.55123
#
# number of rings (size 3 to 8) (size 9 to 14) (size 15 to 20)
#    0.000    2.714    0.000    3.857    0.000    5.143 
#    0.000    2.143    0.000    4.286    0.000    0.000 
#    0.000    0.000    0.000    0.000    0.000    0.000 
#
# Total GULP energy -155952.798732 kJ/mol
# GULP energy per Si atom -5569.742812 kJ/mol
# Density = 1.751128 g / cm^3
# Si number density = 17.551230 Si / 1000 Ang^3
#
#
#
# Elastic Constant Matrix: (Units=GPa)
#
#
# Indices 1 2 3 4 5 6 
#
# 1 86.9176 26.7152 89.9609 0.0000 0.0000 0.0000
# 2 26.7152 12.0212 39.0157 0.0000 0.0000 0.0000
# 3 89.9609 39.0157 209.3619 0.0000 0.0000 0.0000
# 4 0.0000 0.0000 0.0000 34.1750 0.0000 0.0000
# 5 0.0000 0.0000 0.0000 0.0000 35.5271 0.0000
# 6 0.0000 0.0000 0.0000 0.0000 0.0000 20.5319
#
#
#
# Elastic Compliance Matrix: (Units=1/GPa)
#
#
# Indices 1 2 3 4 5 6 
#
# 1 0.036471 -0.076396 -0.001435 0.000000 0.000000 0.000000
# 2 -0.076396 0.370534 -0.036224 0.000000 0.000000 0.000000
# 3 -0.001435 -0.036224 0.012143 0.000000 0.000000 0.000000
# 4 0.000000 0.000000 0.000000 0.029261 0.000000 0.000000
# 5 0.000000 0.000000 0.000000 0.000000 0.028147 0.000000
# 6 0.000000 0.000000 0.000000 0.000000 0.000000 0.048705
#
#
# Mechanical properties :
#
#
# Convention : Reuss Voigt Hill
#
# Bulk Modulus (GPa) = 5.23453 68.85382 37.04417
# Shear Modulus (GPa) = 6.11957 28.22073 17.17015
#
# Velocity S-wave (km/s) = 1.86929 4.01422 3.13115
# Velocity P-wave (km/s) = 2.76549 7.79748 5.85015
#
# Compressibility (1/GPa) = 0.19103909
#
# Stress axis : x y z
#
# Youngs Moduli (GPa) = 27.41893 2.69881 82.34888
#
# Poissons Ratio (x) = 0.20618 0.11814
# Poissons Ratio (y) = 2.09468 2.98304
# Poissons Ratio (z) = 0.03934 0.09776
#
# Static dielectric constant tensor:
#      x y z
#    x 1.583780 0.000000 0.000000 
#    y 0.000000 1.572180 0.000000 
#    z 0.000000 0.000000 1.651380 
# 
# From -- ./inp_files/18267.got.cif
#   From: 2010.05.17/outbox.cif.g08.bks.cpg/sg35_10_cif.got.tgz:18267.got - 2010.06.03 17:29:28.
