data_PCOD9348028
_publ_section_title
;
Structure prediction by ZEFSAII (Michael W. Deem and Ramdas Pophale) SiO2 
 PCOD9348028
Probable space group: P N N 2
;
_chemical_formula_sum "Si O2"
_cell_formula_units_Z 30
_cell_length_a 10.128349
_cell_length_b 22.199063
_cell_length_c 5.049447
_cell_angle_alpha 90.000000
_cell_angle_beta 90.000000
_cell_angle_gamma 90.000000
_cell_volume 1135.316944
_symmetry_space_group_name_H-M "P N N 2"
_symmetry_group_IT_number 34
_symmetry_cell_setting 'orthorhombic'
loop_
_space_group_symop_operation_xyz
x,y,z
-x,-y,z
1/2-x,1/2+y,1/2+z
1/2+x,1/2-y,1/2+z
loop_
_atom_site_type_symbol
_atom_site_label
_atom_site_fract_x
_atom_site_fract_y
_atom_site_fract_z
Si Si1 0.263999 0.485486 0.882990
Si Si2 0.543499 0.221981 0.392365
Si Si3 0.456643 0.125351 0.793758
Si Si4 0.324300 0.599433 0.561188
Si Si5 0.000000 0.500000 0.120123
Si Si6 0.798122 0.642260 0.630993
Si Si7 0.539207 0.309660 0.885996
Si Si8 0.090544 0.897297 0.716642
O O1 0.331241 0.533404 0.693424
O O2 0.212341 0.423740 0.754641
O O3 0.351021 0.462082 0.129590
O O4 0.129474 0.518168 0.963587
O O5 0.466963 0.163255 0.521762
O O6 0.692315 0.195631 0.346650
O O7 0.530155 0.269559 0.149168
O O8 0.521129 0.266339 0.640332
O O9 0.529170 0.060462 0.774135
O O10 0.310264 0.113394 0.902662
O O11 0.555155 0.155127 0.007746
O O12 0.451451 0.601949 0.368793
O O13 0.335990 0.649995 0.792021
O O14 0.694360 0.639525 0.394007
O O15 0.435793 0.363147 0.940528
#
# Coordination Sequence:
#
# PCOD9348028 Si02
#       8
#     4   4   4   4   2   4   4   4
#     4  12  28  50  91 121 173 225 290 360 447 526
#     4  12  27  55  89 125 171 235 297 362 429 525
#     4  12  27  53  84 128 170 220 292 367 442 514
#     4  12  31  53  84 130 178 226 291 373 447 525
#     4  12  24  52  84 126 160 222 290 364 434 528
#     4  12  25  54  86 122 166 228 293 357 434 522
#     4  12  29  55  84 126 178 233 295 354 437 528
#     4  12  29  56  80 125 176 234 286 358 446 536
#
# _framework density 26.424341999999999
#
# number of rings (size 3 to 8) (size 9 to 14) (size 15 to 20)
#    0.000    0.000    5.333    2.400    1.867    5.333 
#    0.000    0.000    0.000    0.000    0.000    0.000 
#    0.000    0.000    0.000    0.000    0.000    0.000 
#
# Total GULP energy -167693.227029 kJ/mol
# GULP energy per Si atom -5589.774234 kJ/mol
# Density = 2.636420 g / cm^3
# Si number density = 26.424342 Si / 1000 Ang^3
#
#
#
# Elastic Constant Matrix: (Units=GPa)
#
#
# Indices 1 2 3 4 5 6 
#
# 1 154.3645 17.1512 49.8046 0.0000 0.0000 0.0000
# 2 17.1512 135.9241 39.8617 0.0000 0.0000 0.0000
# 3 49.8046 39.8617 148.6820 0.0000 0.0000 0.0000
# 4 0.0000 0.0000 0.0000 49.1115 0.0000 0.0000
# 5 0.0000 0.0000 0.0000 0.0000 50.1706 0.0000
# 6 0.0000 0.0000 0.0000 0.0000 0.0000 34.9130
#
#
#
# Elastic Compliance Matrix: (Units=1/GPa)
#
#
# Indices 1 2 3 4 5 6 
#
# 1 0.007269 -0.000220 -0.002376 0.000000 0.000000 0.000000
# 2 -0.000220 0.007992 -0.002069 0.000000 0.000000 0.000000
# 3 -0.002376 -0.002069 0.008076 0.000000 0.000000 0.000000
# 4 0.000000 0.000000 0.000000 0.020362 0.000000 0.000000
# 5 0.000000 0.000000 0.000000 0.000000 0.019932 0.000000
# 6 0.000000 0.000000 0.000000 0.000000 0.000000 0.028643
#
#
# Mechanical properties :
#
#
# Convention : Reuss Voigt Hill
#
# Bulk Modulus (GPa) = 71.39337 72.51174 71.95255
# Shear Modulus (GPa) = 47.04883 48.98255 48.01569
#
# Velocity S-wave (km/s) = 4.22419 4.31012 4.26737
# Velocity P-wave (km/s) = 7.13221 7.22982 7.18118
#
# Compressibility (1/GPa) = 0.01400690
#
# Stress axis : x y z
#
# Youngs Moduli (GPa) = 137.56603 125.13235 123.81999
#
# Poissons Ratio (x) = 0.02759 0.29418
# Poissons Ratio (y) = 0.03033 0.25614
# Poissons Ratio (z) = 0.32684 0.25886
#
# Static dielectric constant tensor:
#      x y z
#    x 2.275630 0.000000 0.000000 
#    y 0.000000 2.098970 0.000000 
#    z 0.000000 0.000000 2.339310 
# 
# From -- ./inp_files/1060.got.cif
#   From: 2010.05.17/outbox.cif.g08.bks.cpg/sg34_1_cif.got.tgz:1060.got - 2010.06.03 17:23:11.
