data_PCOD9348187
_publ_section_title
;
Structure prediction by ZEFSAII (Michael W. Deem and Ramdas Pophale) SiO2 
 PCOD9348187
Probable space group: C M M 2
;
_chemical_formula_sum "Si O2"
_cell_formula_units_Z 64
_cell_length_a 32.071036
_cell_length_b 22.729076
_cell_length_c 5.314834
_cell_angle_alpha 90.000000
_cell_angle_beta 90.000000
_cell_angle_gamma 90.000000
_cell_volume 3874.221748
_symmetry_space_group_name_H-M "C M M 2"
_symmetry_group_IT_number 35
_symmetry_cell_setting 'orthorhombic'
loop_
_space_group_symop_operation_xyz
x,y,z
-x,-y,z
-x,y,z
x,-y,z
1/2+x,1/2+y,z
1/2-x,1/2-y,z
1/2-x,1/2+y,z
1/2+x,1/2-y,z
loop_
_atom_site_type_symbol
_atom_site_label
_atom_site_fract_x
_atom_site_fract_y
_atom_site_fract_z
Si Si1 0.949751 0.873508 0.822640
Si Si2 0.550238 0.833954 0.333823
Si Si3 0.410865 0.429227 0.322546
Si Si4 0.949568 0.262564 0.833530
Si Si5 0.830893 0.428715 0.817220
Si Si6 0.313731 0.571510 0.326956
Si Si7 0.118245 0.429190 0.316902
Si Si8 0.735002 0.428111 0.827041
O O1 0.932817 0.903814 0.570484
O O2 0.936095 0.805158 0.826513
O O3 0.000000 0.875928 0.824183
O O4 0.932309 0.905147 0.070582
O O5 0.500000 0.841743 0.333745
O O6 0.562586 0.798585 0.585344
O O7 0.574696 0.895143 0.325001
O O8 0.562285 0.795849 0.088957
O O9 0.413256 0.500000 0.325775
O O10 0.362124 0.411596 0.323885
O O11 0.000000 0.261082 0.832067
O O12 0.829283 0.500000 0.818623
O O13 0.854795 0.412393 0.562305
O O14 0.783021 0.408375 0.823350
O O15 0.856513 0.411975 0.065642
O O16 0.313059 0.500000 0.326868
O O17 0.289898 0.590652 0.578586
O O18 0.289133 0.590715 0.078040
O O19 0.112789 0.500000 0.316838
O O20 0.735350 0.500000 0.827219
#
# Coordination Sequence:
#
# PCOD9348187 Si02
#       8
#     8   8   8   8   8   8   8   8
#     4  11  22  36  53  71  97 132 168 205 241 282
#     4  10  19  33  52  71  96 129 165 205 244 283
#     4  11  22  34  49  74 107 134 158 194 241 296
#     4   9  19  35  53  71  89 119 168 219 251 267
#     4   9  17  28  43  66  98 132 161 193 233 284
#     4   9  17  28  43  65  94 126 157 192 232 280
#     4  10  19  30  45  71 106 134 157 192 240 295
#     4   9  15  26  44  63  89 128 164 190 228 281
#
# _framework density 16.519445999999999
#
# number of rings (size 3 to 8) (size 9 to 14) (size 15 to 20)
#    0.000    2.250    0.000    3.750    0.000    8.750 
#    0.000    0.000    0.000    4.500    0.000    0.000 
#    0.000   70.000    0.000    0.000    0.000    0.000 
#
# Total GULP energy -178460.369901 kJ/mol
# GULP energy per Si atom -5576.886559 kJ/mol
# Density = 1.648185 g / cm^3
# Si number density = 16.519446 Si / 1000 Ang^3
#
#
#
# Elastic Constant Matrix: (Units=GPa)
#
#
# Indices 1 2 3 4 5 6 
#
# 1 63.0101 5.4892 0.1373 0.0000 0.0000 0.0000
# 2 5.4892 30.2807 -9.8369 0.0000 0.0000 0.0000
# 3 0.1373 -9.8369 74.7776 0.0000 0.0000 0.0000
# 4 0.0000 0.0000 0.0000 3.6606 0.0000 0.0000
# 5 0.0000 0.0000 0.0000 0.0000 5.7502 0.0000
# 6 0.0000 0.0000 0.0000 0.0000 0.0000 -3.0472
#
#
#
# Elastic Compliance Matrix: (Units=1/GPa)
#
#
# Indices 1 2 3 4 5 6 
#
# 1 0.016139 -0.003066 -0.000433 0.000000 0.000000 0.000000
# 2 -0.003066 0.035081 0.004621 0.000000 0.000000 0.000000
# 3 -0.000433 0.004621 0.013982 0.000000 0.000000 0.000000
# 4 0.000000 0.000000 0.000000 0.273178 0.000000 0.000000
# 5 0.000000 0.000000 0.000000 0.000000 0.173906 0.000000
# 6 0.000000 0.000000 0.000000 0.000000 0.000000 -0.328173
#
#
# Mechanical properties :
#
#
# Convention : Reuss Voigt Hill
#
# Bulk Modulus (GPa) = 14.82713 17.73862 16.28287
# Shear Modulus (GPa) = 24.46772 12.75799 18.61286
#
# Velocity S-wave (km/s) = 3.85274 2.78205 3.36031
# Velocity P-wave (km/s) = 5.36531 4.59141 4.99337
#
# Compressibility (1/GPa) = 0.06744395
#
# Stress axis : x y z
#
# Youngs Moduli (GPa) = 61.96355 28.50534 71.52251
#
# Poissons Ratio (x) = 0.08740 0.03097
# Poissons Ratio (y) = 0.18999 -0.33047
# Poissons Ratio (z) = 0.02683 -0.13171
#
# Static dielectric constant tensor:
#      x y z
#    x 1.543560 0.000000 0.000000 
#    y 0.000000 1.529170 0.000000 
#    z 0.000000 0.000000 1.552740 
# 
# From -- ./inp_files/3802.got.cif
#   From: 2010.05.17/outbox.cif.g08.bks.cpg/sg35_2_cif.got.tgz:3802.got - 2010.06.03 17:29:28.
