data_PCOD9348695
_publ_section_title
;
Structure prediction by ZEFSAII (Michael W. Deem and Ramdas Pophale) SiO2 
 PCOD9348695
Probable space group: C M M 2
;
_chemical_formula_sum "Si O2"
_cell_formula_units_Z 58
_cell_length_a 8.035184
_cell_length_b 30.994761
_cell_length_c 12.710563
_cell_angle_alpha 90.000000
_cell_angle_beta 90.000000
_cell_angle_gamma 90.000000
_cell_volume 3165.548018
_symmetry_space_group_name_H-M "C M M 2"
_symmetry_group_IT_number 35
_symmetry_cell_setting 'orthorhombic'
loop_
_space_group_symop_operation_xyz
x,y,z
-x,-y,z
-x,y,z
x,-y,z
1/2+x,1/2+y,z
1/2-x,1/2-y,z
1/2-x,1/2+y,z
1/2+x,1/2-y,z
loop_
_atom_site_type_symbol
_atom_site_label
_atom_site_fract_x
_atom_site_fract_y
_atom_site_fract_z
Si Si1 0.690223 0.939057 0.197950
Si Si2 0.701708 0.452209 0.958421
Si Si3 0.000000 0.000000 0.256895
Si Si4 0.694575 0.200452 0.707901
Si Si5 0.199743 0.798991 0.470579
Si Si6 0.694176 0.652944 0.263756
Si Si7 0.191246 0.296384 0.071272
Si Si8 0.194389 0.140674 0.891757
O O1 0.500000 0.952003 0.225476
O O2 0.709010 0.888644 0.223232
O O3 0.718365 0.946909 0.073418
O O4 0.848176 0.963180 0.250549
O O5 0.500000 0.452201 0.972819
O O6 0.746040 0.500000 0.916692
O O7 0.745986 0.409648 0.891933
O O8 0.500000 0.198018 0.730097
O O9 0.750000 0.250000 0.726960
O O10 0.728562 0.190826 0.585469
O O11 0.782135 0.166200 0.783500
O O12 0.250000 0.750000 0.445281
O O13 0.255308 0.829625 0.375951
O O14 0.000000 0.800861 0.477911
O O15 0.500000 0.641813 0.273966
O O16 0.710212 0.689606 0.175003
O O17 0.250000 0.250000 0.030112
O O18 0.213594 0.332485 0.982143
O O19 0.000000 0.293249 0.101157
O O20 0.000000 0.141610 0.920716
#
# Coordination Sequence:
#
# PCOD9348695 Si02
#       8
#     8   8   2   8   8   8   8   8
#     4  12  22  35  59  85 117 159 196 245 299 354
#     4  10  19  36  57  83 116 151 190 242 291 349
#     4  12  22  40  56  82 124 150 210 244 300 350
#     4  11  22  38  59  82 113 146 194 245 291 347
#     4  10  21  37  60  84 114 151 195 243 292 342
#     4  11  22  38  56  84 121 154 192 243 292 350
#     4  12  24  36  52  78 115 158 197 231 285 355
#     4  11  22  36  57  81 115 151 190 236 293 349
#
# _framework density 18.322263
#
# number of rings (size 3 to 8) (size 9 to 14) (size 15 to 20)
#    0.000    0.966    3.448    5.586    0.000    3.862 
#    0.000    0.000    0.000    0.000    1.793    0.000 
#    0.000    0.000    0.000    0.000    0.000    0.000 
#
# Total GULP energy -161678.295529 kJ/mol
# GULP energy per Si atom -5575.113639 kJ/mol
# Density = 1.828056 g / cm^3
# Si number density = 18.322263 Si / 1000 Ang^3
#
#
#
# Elastic Constant Matrix: (Units=GPa)
#
#
# Indices 1 2 3 4 5 6 
#
# 1 77.4011 19.8417 -2.4334 0.0000 0.0000 0.0000
# 2 19.8417 137.0044 49.4317 0.0000 0.0000 0.0000
# 3 -2.4334 49.4317 60.1677 0.0000 0.0000 0.0000
# 4 0.0000 0.0000 0.0000 35.8278 0.0000 0.0000
# 5 0.0000 0.0000 0.0000 0.0000 19.9891 0.0000
# 6 0.0000 0.0000 0.0000 0.0000 0.0000 20.8912
#
#
#
# Elastic Compliance Matrix: (Units=1/GPa)
#
#
# Indices 1 2 3 4 5 6 
#
# 1 0.013821 -0.003132 0.003132 0.000000 0.000000 0.000000
# 2 -0.003132 0.011084 -0.009233 0.000000 0.000000 0.000000
# 3 0.003132 -0.009233 0.024332 0.000000 0.000000 0.000000
# 4 0.000000 0.000000 0.000000 0.027911 0.000000 0.000000
# 5 0.000000 0.000000 0.000000 0.000000 0.050027 0.000000
# 6 0.000000 0.000000 0.000000 0.000000 0.000000 0.047867
#
#
# Mechanical properties :
#
#
# Convention : Reuss Voigt Hill
#
# Bulk Modulus (GPa) = 32.49724 45.36147 38.92936
# Shear Modulus (GPa) = 24.53810 29.19049 26.86429
#
# Velocity S-wave (km/s) = 3.66355 3.99578 3.83327
# Velocity P-wave (km/s) = 5.97247 6.78968 6.39414
#
# Compressibility (1/GPa) = 0.03077184
#
# Stress axis : x y z
#
# Youngs Moduli (GPa) = 72.35394 90.22209 41.09790
#
# Poissons Ratio (x) = 0.28254 -0.12871
# Poissons Ratio (y) = 0.22658 0.37944
# Poissons Ratio (z) = -0.22660 0.83299
#
# Static dielectric constant tensor:
#      x y z
#    x 1.644910 0.000000 0.000000 
#    y 0.000000 1.658140 0.000000 
#    z 0.000000 0.000000 1.601960 
# 
# From -- ./inp_files/11807.got.cif
#   From: 2010.05.17/outbox.cif.g08.bks.cpg/sg35_6_cif.got.tgz:11807.got - 2010.06.03 17:29:28.
