data_PCOD9348143
_publ_section_title
;
Structure prediction by ZEFSAII (Michael W. Deem and Ramdas Pophale) SiO2 
 PCOD9348143
Probable space group: C M M 2
;
_chemical_formula_sum "Si O2"
_cell_formula_units_Z 48
_cell_length_a 13.685839
_cell_length_b 17.392101
_cell_length_c 10.164612
_cell_angle_alpha 90.000000
_cell_angle_beta 90.000000
_cell_angle_gamma 90.000000
_cell_volume 2419.436794
_symmetry_space_group_name_H-M "C M M 2"
_symmetry_group_IT_number 35
_symmetry_cell_setting 'orthorhombic'
loop_
_space_group_symop_operation_xyz
x,y,z
-x,-y,z
-x,y,z
x,-y,z
1/2+x,1/2+y,z
1/2-x,1/2-y,z
1/2-x,1/2+y,z
1/2+x,1/2-y,z
loop_
_atom_site_type_symbol
_atom_site_label
_atom_site_fract_x
_atom_site_fract_y
_atom_site_fract_z
Si Si1 0.113242 0.197515 0.261660
Si Si2 0.744978 0.586425 0.093835
Si Si3 0.675291 0.858959 0.605386
Si Si4 0.383794 0.124879 0.316078
Si Si5 0.387372 0.319301 0.567382
Si Si6 0.893467 0.591162 0.883745
O O1 0.168855 0.145451 0.157182
O O2 0.143872 0.286217 0.281817
O O3 0.120502 0.164946 0.410560
O O4 0.000000 0.199425 0.225056
O O5 0.705475 0.500000 0.067865
O O6 0.828759 0.579421 0.204337
O O7 0.801614 0.620300 0.967511
O O8 0.650929 0.894307 0.463256
O O9 0.634831 0.771310 0.591138
O O10 0.792387 0.859998 0.628301
O O11 0.623057 0.895580 0.729808
O O12 0.500000 0.117415 0.310651
O O13 0.500000 0.335892 0.607358
O O14 0.895105 0.500000 0.909346
O O15 0.000000 0.623281 0.923196
#
# Coordination Sequence:
#
# PCOD9348143 Si02
#       6
#     8   8   8   8   8   8
#     4   9  18  36  59  82 113 147 183 233 286 334
#     4  11  22  36  55  80 114 154 190 228 282 340
#     4  10  18  34  58  82 108 143 185 229 279 335
#     4  10  19  34  59  86 110 140 187 241 289 336
#     4   9  17  32  57  85 111 139 176 231 287 331
#     4  10  22  39  55  76 114 155 187 230 288 340
#
# _framework density 19.839327999999998
#
# number of rings (size 3 to 8) (size 9 to 14) (size 15 to 20)
#    0.000    2.167    1.667    3.500    0.000    2.000 
#    6.000    0.833    0.000    1.500    0.000    0.000 
#    0.000    0.000    0.000    0.000    0.000    0.000 
#
# Total GULP energy -133814.594271 kJ/mol
# GULP energy per Si atom -5575.608095 kJ/mol
# Density = 1.979417 g / cm^3
# Si number density = 19.839328 Si / 1000 Ang^3
#
#
#
# Elastic Constant Matrix: (Units=GPa)
#
#
# Indices 1 2 3 4 5 6 
#
# 1 103.5379 21.2340 17.6542 0.0000 0.0000 0.0000
# 2 21.2340 33.3144 15.1256 0.0000 0.0000 0.0000
# 3 17.6542 15.1256 76.8237 0.0000 0.0000 0.0000
# 4 0.0000 0.0000 0.0000 28.2300 0.0000 0.0000
# 5 0.0000 0.0000 0.0000 0.0000 27.0136 0.0000
# 6 0.0000 0.0000 0.0000 0.0000 0.0000 1.2374
#
#
#
# Elastic Compliance Matrix: (Units=1/GPa)
#
#
# Indices 1 2 3 4 5 6 
#
# 1 0.011225 -0.006571 -0.001286 0.000000 0.000000 0.000000
# 2 -0.006571 0.036810 -0.005737 0.000000 0.000000 0.000000
# 3 -0.001286 -0.005737 0.014442 0.000000 0.000000 0.000000
# 4 0.000000 0.000000 0.000000 0.035423 0.000000 0.000000
# 5 0.000000 0.000000 0.000000 0.000000 0.037018 0.000000
# 6 0.000000 0.000000 0.000000 0.000000 0.000000 0.808157
#
#
# Mechanical properties :
#
#
# Convention : Reuss Voigt Hill
#
# Bulk Modulus (GPa) = 28.33755 35.74486 32.04121
# Shear Modulus (GPa) = 5.09151 21.94034 13.51592
#
# Velocity S-wave (km/s) = 1.60373 3.32912 2.61295
# Velocity P-wave (km/s) = 4.21234 5.73007 5.02879
#
# Compressibility (1/GPa) = 0.03528887
#
# Stress axis : x y z
#
# Youngs Moduli (GPa) = 89.08580 27.16642 69.24286
#
# Poissons Ratio (x) = 0.17851 0.08903
# Poissons Ratio (y) = 0.58537 0.39728
# Poissons Ratio (z) = 0.11455 0.15587
#
# Static dielectric constant tensor:
#      x y z
#    x 1.749030 0.000000 0.000000 
#    y 0.000000 1.699480 0.000000 
#    z 0.000000 0.000000 1.676770 
# 
# From -- ./inp_files/7334.got.cif
#   From: 2010.05.17/outbox.cif.g08.bks.cpg/sg35_4_cif.got.tgz:7334.got - 2010.06.03 17:29:28.
