data_PCOD9348898
_publ_section_title
;
Structure prediction by ZEFSAII (Michael W. Deem and Ramdas Pophale) SiO2 
 PCOD9348898
Probable space group: C M M 2
;
_chemical_formula_sum "Si O2"
_cell_formula_units_Z 56
_cell_length_a 13.752374
_cell_length_b 13.752384
_cell_length_c 16.729290
_cell_angle_alpha 90.000000
_cell_angle_beta 90.000000
_cell_angle_gamma 90.000000
_cell_volume 3163.975957
_symmetry_space_group_name_H-M "C M M 2"
_symmetry_group_IT_number 35
_symmetry_cell_setting 'orthorhombic'
loop_
_space_group_symop_operation_xyz
x,y,z
-x,-y,z
-x,y,z
x,-y,z
1/2+x,1/2+y,z
1/2-x,1/2-y,z
1/2-x,1/2+y,z
1/2+x,1/2-y,z
loop_
_atom_site_type_symbol
_atom_site_label
_atom_site_fract_x
_atom_site_fract_y
_atom_site_fract_z
Si Si1 0.614486 0.793495 0.328600
Si Si2 0.888091 0.618014 0.670243
Si Si3 0.381986 0.111909 0.495263
Si Si4 0.792409 0.886635 0.251564
Si Si5 0.886635 0.792409 0.913942
Si Si6 0.793495 0.614486 0.836906
Si Si7 0.385789 0.614211 0.082753
O O1 0.500000 0.809742 0.317923
O O2 0.642267 0.823443 0.418898
O O3 0.681436 0.858923 0.270965
O O4 0.643504 0.683512 0.307448
O O5 0.891400 0.500000 0.665779
O O6 0.851025 0.648974 0.582753
O O7 0.823444 0.642267 0.746608
O O8 0.000000 0.651059 0.682893
O O9 0.500000 0.108600 0.499728
O O10 0.348941 0.000000 0.482611
O O11 0.821747 0.864528 0.160298
O O12 0.810563 0.000000 0.265738
O O13 0.858923 0.681437 0.894541
O O14 0.816488 0.856496 0.858057
O O15 0.000000 0.810563 0.899767
O O16 0.864528 0.821747 0.005207
O O17 0.809742 0.500000 0.847583
O O18 0.500000 0.627197 0.103939
O O19 0.372802 0.500000 0.061566
#
# Coordination Sequence:
#
# PCOD9348898 Si02
#       7
#     8   8   8   8   8   8   8
#     4  10  20  33  53  82 109 134 170 217 263 304
#     4   8  14  27  49  76 106 140 175 209 249 304
#     4   8  14  27  49  76 106 140 175 209 249 304
#     4  10  21  36  54  77 105 138 174 213 259 311
#     4  10  21  36  54  77 105 138 174 213 259 311
#     4  10  20  33  53  82 109 134 170 217 263 304
#     4   9  18  35  58  78 100 138 182 214 248 310
#
# _framework density 17.699248999999998
#
# number of rings (size 3 to 8) (size 9 to 14) (size 15 to 20)
#    0.000    2.714    0.000    2.571    0.000    5.714 
#    0.000    2.857    0.000    1.714    0.000   14.000 
#    0.000   25.143    0.000    0.000    0.000    0.000 
#
# Total GULP energy -156062.229481 kJ/mol
# GULP energy per Si atom -5573.651053 kJ/mol
# Density = 1.765896 g / cm^3
# Si number density = 17.699249 Si / 1000 Ang^3
#
#
#
# Elastic Constant Matrix: (Units=GPa)
#
#
# Indices 1 2 3 4 5 6 
#
# 1 87.6506 23.5936 86.5258 0.0000 0.0000 0.0000
# 2 23.5936 87.6513 86.5259 0.0000 0.0000 0.0000
# 3 86.5258 86.5259 154.8865 0.0000 0.0000 0.0000
# 4 0.0000 0.0000 0.0000 24.6930 0.0000 0.0000
# 5 0.0000 0.0000 0.0000 0.0000 24.6927 0.0000
# 6 0.0000 0.0000 0.0000 0.0000 0.0000 16.9590
#
#
#
# Elastic Compliance Matrix: (Units=1/GPa)
#
#
# Indices 1 2 3 4 5 6 
#
# 1 0.042121 0.026510 -0.038340 0.000000 0.000000 0.000000
# 2 0.026510 0.042120 -0.038339 0.000000 0.000000 0.000000
# 3 -0.038340 -0.038339 0.049292 0.000000 0.000000 0.000000
# 4 0.000000 0.000000 0.000000 0.040497 0.000000 0.000000
# 5 0.000000 0.000000 0.000000 0.000000 0.040498 0.000000
# 6 0.000000 0.000000 0.000000 0.000000 0.000000 0.058966
#
#
# Mechanical properties :
#
#
# Convention : Reuss Voigt Hill
#
# Bulk Modulus (GPa) = 30.12557 80.38657 55.25607
# Shear Modulus (GPa) = 12.99043 22.17181 17.58112
#
# Velocity S-wave (km/s) = 2.71210 3.54319 3.15513
# Velocity P-wave (km/s) = 5.18315 7.89022 6.67535
#
# Compressibility (1/GPa) = 0.03319440
#
# Stress axis : x y z
#
# Youngs Moduli (GPa) = 23.74118 23.74153 20.28707
#
# Poissons Ratio (x) = -0.62938 0.77780
# Poissons Ratio (y) = -0.62937 0.77780
# Poissons Ratio (z) = 0.91023 0.91024
#
# Static dielectric constant tensor:
#      x y z
#    x 1.608060 0.000000 0.000000 
#    y 0.000000 1.608060 0.000000 
#    z 0.000000 0.000000 1.618130 
# 
# From -- ./inp_files/16808.got.cif
#   From: 2010.05.17/outbox.cif.g08.bks.cpg/sg35_9_cif.got.tgz:16808.got - 2010.06.03 17:29:28.
