data_PCOD9348251
_publ_section_title
;
Structure prediction by ZEFSAII (Michael W. Deem and Ramdas Pophale) SiO2 
 PCOD9348251
Probable space group: C M M 2
;
_chemical_formula_sum "Si O2"
_cell_formula_units_Z 64
_cell_length_a 7.754873
_cell_length_b 30.482852
_cell_length_c 12.875668
_cell_angle_alpha 90.000000
_cell_angle_beta 90.000000
_cell_angle_gamma 90.000000
_cell_volume 3043.687475
_symmetry_space_group_name_H-M "C M M 2"
_symmetry_group_IT_number 35
_symmetry_cell_setting 'orthorhombic'
loop_
_space_group_symop_operation_xyz
x,y,z
-x,-y,z
-x,y,z
x,-y,z
1/2+x,1/2+y,z
1/2-x,1/2-y,z
1/2-x,1/2+y,z
1/2+x,1/2-y,z
loop_
_atom_site_type_symbol
_atom_site_label
_atom_site_fract_x
_atom_site_fract_y
_atom_site_fract_z
Si Si1 0.788804 0.895134 0.495720
Si Si2 0.800092 0.684974 0.212758
Si Si3 0.793306 0.888685 0.890525
Si Si4 0.209133 0.912529 0.267055
Si Si5 0.711340 0.448849 0.698505
Si Si6 0.703763 0.798023 0.981716
Si Si7 0.698024 0.701734 0.445690
Si Si8 0.789807 0.953320 0.063048
O O1 0.738627 0.917072 0.386122
O O2 0.733930 0.924316 0.592849
O O3 0.724385 0.844264 0.488701
O O4 0.000000 0.894125 0.498601
O O5 0.783241 0.632808 0.223409
O O6 0.716868 0.701360 0.320062
O O7 0.000000 0.698626 0.217082
O O8 0.723462 0.697609 0.100292
O O9 0.731427 0.917076 0.792581
O O10 0.755535 0.837575 0.906264
O O11 0.000000 0.892162 0.888124
O O12 0.727794 0.913399 0.993494
O O13 0.259208 0.948365 0.182840
O O14 0.000000 0.908587 0.266235
O O15 0.500000 0.449714 0.699758
O O16 0.765693 0.500000 0.706186
O O17 0.500000 0.801331 0.993783
O O18 0.750000 0.750000 0.941560
O O19 0.500000 0.697895 0.471819
O O20 0.750000 0.750000 0.483289
O O21 0.000000 0.952435 0.060040
O O22 0.734259 0.000000 0.019236
#
# Coordination Sequence:
#
# PCOD9348251 Si02
#       8
#     8   8   8   8   8   8   8   8
#     4   8  16  29  46  72 105 137 171 215 262 306
#     4  10  19  31  49  74 105 141 177 214 256 310
#     4  10  19  33  54  77 106 139 174 221 266 309
#     4   9  16  28  47  72 107 145 174 212 259 306
#     4   9  17  31  54  82 107 135 177 225 268 309
#     4  11  23  36  53  77 106 140 177 216 263 319
#     4  10  19  31  49  74 106 142 178 214 259 310
#     4   9  16  26  45  75 105 135 173 213 257 308
#
# _framework density 21.027127
#
# number of rings (size 3 to 8) (size 9 to 14) (size 15 to 20)
#    0.000    2.500    1.250    2.625    0.000    4.500 
#    0.000    3.125    0.000    7.875    0.000    0.000 
#    0.000    0.000    0.000    0.000    0.000    0.000 
#
# Total GULP energy -178366.647888 kJ/mol
# GULP energy per Si atom -5573.957746 kJ/mol
# Density = 2.097927 g / cm^3
# Si number density = 21.027127 Si / 1000 Ang^3
#
#
#
# Elastic Constant Matrix: (Units=GPa)
#
#
# Indices 1 2 3 4 5 6 
#
# 1 23.6676 -1.8716 7.4603 0.0000 0.0000 0.0000
# 2 -1.8716 171.7886 88.8855 0.0000 0.0000 0.0000
# 3 7.4603 88.8855 128.4349 0.0000 0.0000 0.0000
# 4 0.0000 0.0000 0.0000 13.4453 0.0000 0.0000
# 5 0.0000 0.0000 0.0000 0.0000 6.2220 0.0000
# 6 0.0000 0.0000 0.0000 0.0000 0.0000 14.5667
#
#
#
# Elastic Compliance Matrix: (Units=1/GPa)
#
#
# Indices 1 2 3 4 5 6 
#
# 1 0.043888 0.002800 -0.004487 0.000000 0.000000 0.000000
# 2 0.002800 0.009247 -0.006562 0.000000 0.000000 0.000000
# 3 -0.004487 -0.006562 0.012588 0.000000 0.000000 0.000000
# 4 0.000000 0.000000 0.000000 0.074376 0.000000 0.000000
# 5 0.000000 0.000000 0.000000 0.000000 0.160720 0.000000
# 6 0.000000 0.000000 0.000000 0.000000 0.000000 0.068650
#
#
# Mechanical properties :
#
#
# Convention : Reuss Voigt Hill
#
# Bulk Modulus (GPa) = 20.31525 56.98215 38.64870
# Shear Modulus (GPa) = 12.42623 22.14126 17.28374
#
# Velocity S-wave (km/s) = 2.43361 3.24849 2.87012
# Velocity P-wave (km/s) = 4.19273 6.42094 5.42252
#
# Compressibility (1/GPa) = 0.04922409
#
# Stress axis : x y z
#
# Youngs Moduli (GPa) = 22.78548 108.14411 79.44023
#
# Poissons Ratio (x) = -0.30277 0.35643
# Poissons Ratio (y) = -0.06379 0.52130
# Poissons Ratio (z) = 0.10223 0.70965
#
# Static dielectric constant tensor:
#      x y z
#    x 1.791220 0.000000 0.000000 
#    y 0.000000 1.714370 0.000000 
#    z 0.000000 0.000000 1.754880 
# 
# From -- ./inp_files/11866.got.cif
#   From: 2010.05.17/outbox.cif.g08.bks.cpg/sg35_6_cif.got.tgz:11866.got - 2010.06.03 17:29:28.
