data_PCOD9348994
_publ_section_title
;
Structure prediction by ZEFSAII (Michael W. Deem and Ramdas Pophale) SiO2 
 PCOD9348994
Probable space group: C M M 2
;
_chemical_formula_sum "Si O2"
_cell_formula_units_Z 64
_cell_length_a 29.130649
_cell_length_b 7.881777
_cell_length_c 13.322866
_cell_angle_alpha 90.000000
_cell_angle_beta 90.000000
_cell_angle_gamma 90.000000
_cell_volume 3058.947077
_symmetry_space_group_name_H-M "C M M 2"
_symmetry_group_IT_number 35
_symmetry_cell_setting 'orthorhombic'
loop_
_space_group_symop_operation_xyz
x,y,z
-x,-y,z
-x,y,z
x,-y,z
1/2+x,1/2+y,z
1/2-x,1/2-y,z
1/2-x,1/2+y,z
1/2+x,1/2-y,z
loop_
_atom_site_type_symbol
_atom_site_label
_atom_site_fract_x
_atom_site_fract_y
_atom_site_fract_z
Si Si1 0.301987 0.696345 0.026770
Si Si2 0.139686 0.697867 0.838118
Si Si3 0.303831 0.703724 0.644011
Si Si4 0.303486 0.703912 0.422529
Si Si5 0.447297 0.791687 0.728349
Si Si6 0.145912 0.790366 0.221425
Si Si7 0.055740 0.305706 0.508925
Si Si8 0.551223 0.301302 0.288697
O O1 0.298821 0.500000 0.049898
O O2 0.250000 0.750000 0.006746
O O3 0.325734 0.773547 0.125710
O O4 0.333546 0.719937 0.929722
O O5 0.135761 0.500000 0.862509
O O6 0.168656 0.717817 0.735931
O O7 0.088967 0.764563 0.811382
O O8 0.308237 0.500000 0.649656
O O9 0.250000 0.750000 0.652616
O O10 0.319417 0.763573 0.532898
O O11 0.307031 0.500000 0.424021
O O12 0.250000 0.750000 0.412669
O O13 0.330491 0.765487 0.325252
O O14 0.500000 0.740113 0.745120
O O15 0.430682 0.734011 0.617429
O O16 0.446817 0.000000 0.724427
O O17 0.093007 0.731935 0.223350
O O18 0.145321 0.000000 0.221948
O O19 0.071520 0.500000 0.499576
O O20 0.066280 0.212339 0.405678
O O21 0.000000 0.308732 0.515046
O O22 0.500000 0.225091 0.278741
O O23 0.547320 0.500000 0.265617
#
# Coordination Sequence:
#
# PCOD9348994 Si02
#       8
#     8   8   8   8   8   8   8   8
#     4  11  23  41  62  81 105 138 181 232 281 329
#     4  11  22  36  57  82 109 141 183 226 271 326
#     4  10  20  34  53  78 110 143 175 218 271 330
#     4   9  18  33  52  75 105 137 170 213 265 320
#     4   8  16  32  53  77 108 146 184 221 264 316
#     4   9  19  35  55  78 106 140 177 218 268 319
#     4   8  14  27  47  72 104 141 178 215 255 299
#     4   9  17  30  50  77 109 144 179 212 255 316
#
# _framework density 20.922229999999999
#
# number of rings (size 3 to 8) (size 9 to 14) (size 15 to 20)
#    0.000    2.625    0.000    2.625    1.750    0.500 
#    0.000    3.750    0.000    3.000    0.000    0.000 
#    0.000    0.000    0.000    0.000    0.000    0.000 
#
# Total GULP energy -178552.300049 kJ/mol
# GULP energy per Si atom -5579.759377 kJ/mol
# Density = 2.087461 g / cm^3
# Si number density = 20.922230 Si / 1000 Ang^3
#
#
#
# Elastic Constant Matrix: (Units=GPa)
#
#
# Indices 1 2 3 4 5 6 
#
# 1 111.9234 -6.1763 51.9344 0.0000 0.0000 0.0000
# 2 -6.1763 20.2606 -12.1557 0.0000 0.0000 0.0000
# 3 51.9344 -12.1557 79.2433 0.0000 0.0000 0.0000
# 4 0.0000 0.0000 0.0000 -0.6517 0.0000 0.0000
# 5 0.0000 0.0000 0.0000 0.0000 28.5632 0.0000
# 6 0.0000 0.0000 0.0000 0.0000 0.0000 4.9749
#
#
#
# Elastic Compliance Matrix: (Units=1/GPa)
#
#
# Indices 1 2 3 4 5 6 
#
# 1 0.012868 -0.001252 -0.008625 0.000000 0.000000 0.000000
# 2 -0.001252 0.054482 0.009178 0.000000 0.000000 0.000000
# 3 -0.008625 0.009178 0.019680 0.000000 0.000000 0.000000
# 4 0.000000 0.000000 0.000000 -1.534488 0.000000 0.000000
# 5 0.000000 0.000000 0.000000 0.000000 0.035010 0.000000
# 6 0.000000 0.000000 0.000000 0.000000 0.000000 0.201009
#
#
# Mechanical properties :
#
#
# Convention : Reuss Voigt Hill
#
# Bulk Modulus (GPa) = 11.67811 30.95914 21.31862
# Shear Modulus (GPa) = -4.23192 18.43227 7.10017
#
# Velocity S-wave (km/s) = -1.42376 2.97137 1.84417
# Velocity P-wave (km/s) = 1.70030 5.15765 3.84008
#
# Compressibility (1/GPa) = 0.08563032
#
# Stress axis : x y z
#
# Youngs Moduli (GPa) = 77.71244 18.35480 50.81244
#
# Poissons Ratio (x) = 0.02299 0.43828
# Poissons Ratio (y) = 0.09732 -0.46636
# Poissons Ratio (z) = 0.67031 -0.16846
#
# Static dielectric constant tensor:
#      x y z
#    x 1.803040 0.000000 0.000000 
#    y 0.000000 1.754530 0.000000 
#    z 0.000000 0.000000 1.737160 
# 
# From -- ./inp_files/14607.got.cif
#   From: 2010.05.17/outbox.cif.g08.bks.cpg/sg35_8_cif.got.tgz:14607.got - 2010.06.03 17:29:28.
