data_PCOD9348321
_publ_section_title
;
Structure prediction by ZEFSAII (Michael W. Deem and Ramdas Pophale) SiO2 
 PCOD9348321
Probable space group: C M M 2
;
_chemical_formula_sum "Si O2"
_cell_formula_units_Z 56
_cell_length_a 22.598425
_cell_length_b 16.345414
_cell_length_c 8.442430
_cell_angle_alpha 90.000000
_cell_angle_beta 90.000000
_cell_angle_gamma 90.000000
_cell_volume 3118.469963
_symmetry_space_group_name_H-M "C M M 2"
_symmetry_group_IT_number 35
_symmetry_cell_setting 'orthorhombic'
loop_
_space_group_symop_operation_xyz
x,y,z
-x,-y,z
-x,y,z
x,-y,z
1/2+x,1/2+y,z
1/2-x,1/2-y,z
1/2-x,1/2+y,z
1/2+x,1/2-y,z
loop_
_atom_site_type_symbol
_atom_site_label
_atom_site_fract_x
_atom_site_fract_y
_atom_site_fract_z
Si Si1 0.337632 0.403694 0.950400
Si Si2 0.849244 0.286979 0.527723
Si Si3 0.213352 0.403936 0.774731
Si Si4 0.313915 0.715654 0.209608
Si Si5 0.112494 0.347629 0.013842
Si Si6 0.568061 0.714584 0.790723
Si Si7 0.066598 0.593738 0.332146
O O1 0.347860 0.500000 0.947673
O O2 0.278297 0.386054 0.846917
O O3 0.393319 0.354217 0.880672
O O4 0.324121 0.371357 0.127795
O O5 0.804408 0.338401 0.639296
O O6 0.821514 0.226687 0.396922
O O7 0.894959 0.236649 0.634654
O O8 0.886592 0.353954 0.429811
O O9 0.211963 0.500000 0.724415
O O10 0.163740 0.391384 0.912057
O O11 0.250000 0.750000 0.167063
O O12 0.358146 0.776431 0.119710
O O13 0.080421 0.402068 0.144600
O O14 0.070956 0.298409 0.893381
O O15 0.500000 0.691463 0.764634
O O16 0.069619 0.500000 0.384274
O O17 0.000000 0.625181 0.358661
#
# Coordination Sequence:
#
# PCOD9348321 Si02
#       7
#     8   8   8   8   8   8   8
#     4  10  22  39  60  85 111 143 187 237 284 332
#     4  10  22  33  55  82 115 147 187 224 279 341
#     4  10  19  34  54  83 118 145 178 229 285 338
#     4  10  19  35  56  82 111 144 175 222 278 340
#     4   9  18  32  55  79 107 145 193 230 271 326
#     4  10  21  37  58  80 108 149 195 239 280 328
#     4  10  19  32  49  76 115 154 190 227 269 324
#
# _framework density 17.957523999999999
#
# number of rings (size 3 to 8) (size 9 to 14) (size 15 to 20)
#    0.000    2.143    1.429    1.714    2.000    0.286 
#    0.000    2.143    0.000    6.857    0.000    0.000 
#    0.000    0.000    0.000    0.000    0.000    0.000 
#
# Total GULP energy -156091.511961 kJ/mol
# GULP energy per Si atom -5574.696856 kJ/mol
# Density = 1.791665 g / cm^3
# Si number density = 17.957524 Si / 1000 Ang^3
#
#
#
# Elastic Constant Matrix: (Units=GPa)
#
#
# Indices 1 2 3 4 5 6 
#
# 1 83.5673 42.6762 20.8949 0.0000 0.0000 0.0000
# 2 42.6762 80.7646 39.4677 0.0000 0.0000 0.0000
# 3 20.8949 39.4677 88.1925 0.0000 0.0000 0.0000
# 4 0.0000 0.0000 0.0000 15.5595 0.0000 0.0000
# 5 0.0000 0.0000 0.0000 0.0000 8.0179 0.0000
# 6 0.0000 0.0000 0.0000 0.0000 0.0000 20.6768
#
#
#
# Elastic Compliance Matrix: (Units=1/GPa)
#
#
# Indices 1 2 3 4 5 6 
#
# 1 0.016389 -0.008655 -0.000010 0.000000 0.000000 0.000000
# 2 -0.008655 0.020418 -0.007087 0.000000 0.000000 0.000000
# 3 -0.000010 -0.007087 0.014513 0.000000 0.000000 0.000000
# 4 0.000000 0.000000 0.000000 0.064269 0.000000 0.000000
# 5 0.000000 0.000000 0.000000 0.000000 0.124720 0.000000
# 6 0.000000 0.000000 0.000000 0.000000 0.000000 0.048363
#
#
# Mechanical properties :
#
#
# Convention : Reuss Voigt Hill
#
# Bulk Modulus (GPa) = 50.46331 50.95578 50.70955
# Shear Modulus (GPa) = 15.30072 18.81655 17.05863
#
# Velocity S-wave (km/s) = 2.92216 3.24054 3.08546
# Velocity P-wave (km/s) = 6.28871 6.51451 6.40260
#
# Compressibility (1/GPa) = 0.01981638
#
# Stress axis : x y z
#
# Youngs Moduli (GPa) = 61.01700 48.97555 68.90557
#
# Poissons Ratio (x) = 0.42390 0.00066
# Poissons Ratio (y) = 0.52812 0.48833
# Poissons Ratio (z) = 0.00058 0.34709
#
# Static dielectric constant tensor:
#      x y z
#    x 1.633230 0.000000 0.000000 
#    y 0.000000 1.621310 0.000000 
#    z 0.000000 0.000000 1.636720 
# 
# From -- ./inp_files/9380.got.cif
#   From: 2010.05.17/outbox.cif.g08.bks.cpg/sg35_5_cif.got.tgz:9380.got - 2010.06.03 17:29:28.
