data_PCOD9348989
_publ_section_title
;
Structure prediction by ZEFSAII (Michael W. Deem and Ramdas Pophale) SiO2 
 PCOD9348989
Probable space group: C M M 2
;
_chemical_formula_sum "Si O2"
_cell_formula_units_Z 64
_cell_length_a 8.806085
_cell_length_b 19.407503
_cell_length_c 20.936834
_cell_angle_alpha 90.000000
_cell_angle_beta 90.000000
_cell_angle_gamma 90.000000
_cell_volume 3578.191212
_symmetry_space_group_name_H-M "C M M 2"
_symmetry_group_IT_number 35
_symmetry_cell_setting 'orthorhombic'
loop_
_space_group_symop_operation_xyz
x,y,z
-x,-y,z
-x,y,z
x,-y,z
1/2+x,1/2+y,z
1/2-x,1/2-y,z
1/2-x,1/2+y,z
1/2+x,1/2-y,z
loop_
_atom_site_type_symbol
_atom_site_label
_atom_site_fract_x
_atom_site_fract_y
_atom_site_fract_z
Si Si1 0.824903 0.083756 0.905020
Si Si2 0.180615 0.581805 0.039120
Si Si3 0.316596 0.419381 0.413708
Si Si4 0.817521 0.825094 0.295384
Si Si5 0.317776 0.325576 0.149515
Si Si6 0.678966 0.082516 0.771092
Si Si7 0.318171 0.825525 0.523968
Si Si8 0.318786 0.675051 0.662180
O O1 0.735894 0.104676 0.841297
O O2 0.000000 0.105620 0.901711
O O3 0.821911 0.000000 0.905623
O O4 0.749350 0.105946 0.971400
O O5 0.211200 0.500000 0.045039
O O6 0.253769 0.621814 0.097899
O O7 0.000000 0.591694 0.038488
O O8 0.500000 0.413577 0.420564
O O9 0.278112 0.500000 0.412290
O O10 0.272551 0.380899 0.348088
O O11 0.237700 0.379754 0.471738
O O12 0.750000 0.750000 0.310333
O O13 0.774026 0.843892 0.222684
O O14 0.000000 0.819401 0.296785
O O15 0.500000 0.323279 0.145757
O O16 0.250000 0.250000 0.136968
O O17 0.500000 0.096469 0.764333
O O18 0.770573 0.121681 0.716470
O O19 0.701696 0.000000 0.765892
O O20 0.500000 0.821370 0.526046
O O21 0.250000 0.750000 0.508309
O O22 0.253197 0.844360 0.593752
O O23 0.500000 0.679713 0.656273
O O24 0.250000 0.750000 0.678297
#
# Coordination Sequence:
#
# PCOD9348989 Si02
#       8
#     8   8   8   8   8   8   8   8
#     4   9  17  31  52  78 107 141 182 223 265 318
#     4  10  20  34  53  78 108 142 180 223 271 321
#     4  10  21  37  56  81 113 144 176 219 269 317
#     4   9  19  35  56  79 104 140 181 220 264 319
#     4  10  20  35  55  79 108 141 179 222 269 321
#     4  10  20  35  56  82 112 145 181 222 268 318
#     4  11  22  38  59  81 107 141 182 222 265 320
#     4  11  22  38  59  82 110 143 181 223 269 320
#
# _framework density 17.886130999999999
#
# number of rings (size 3 to 8) (size 9 to 14) (size 15 to 20)
#    0.000    2.000    0.000    4.875    0.000    6.250 
#    0.000    1.875    0.000    0.000    0.000    0.000 
#    0.000    0.000    0.000    0.000    0.000    0.000 
#
# Total GULP energy -178685.750911 kJ/mol
# GULP energy per Si atom -5583.929716 kJ/mol
# Density = 1.784542 g / cm^3
# Si number density = 17.886131 Si / 1000 Ang^3
#
#
#
# Elastic Constant Matrix: (Units=GPa)
#
#
# Indices 1 2 3 4 5 6 
#
# 1 103.5827 58.2739 71.9413 0.0000 0.0000 0.0000
# 2 58.2739 74.2671 88.5078 0.0000 0.0000 0.0000
# 3 71.9413 88.5078 139.8336 0.0000 0.0000 0.0000
# 4 0.0000 0.0000 0.0000 33.0060 0.0000 0.0000
# 5 0.0000 0.0000 0.0000 0.0000 30.5081 0.0000
# 6 0.0000 0.0000 0.0000 0.0000 0.0000 27.2770
#
#
#
# Elastic Compliance Matrix: (Units=1/GPa)
#
#
# Indices 1 2 3 4 5 6 
#
# 1 0.017338 -0.012105 -0.001258 0.000000 0.000000 0.000000
# 2 -0.012105 0.063257 -0.033811 0.000000 0.000000 0.000000
# 3 -0.001258 -0.033811 0.029200 0.000000 0.000000 0.000000
# 4 0.000000 0.000000 0.000000 0.030298 0.000000 0.000000
# 5 0.000000 0.000000 0.000000 0.000000 0.032778 0.000000
# 6 0.000000 0.000000 0.000000 0.000000 0.000000 0.036661
#
#
# Mechanical properties :
#
#
# Convention : Reuss Voigt Hill
#
# Bulk Modulus (GPa) = 64.73969 83.90327 74.32148
# Shear Modulus (GPa) = 16.17973 24.75556 20.46764
#
# Velocity S-wave (km/s) = 3.01091 3.72434 3.38647
# Velocity P-wave (km/s) = 6.95424 8.09356 7.54544
#
# Compressibility (1/GPa) = 0.01544647
#
# Stress axis : x y z
#
# Youngs Moduli (GPa) = 57.67698 15.80847 34.24704
#
# Poissons Ratio (x) = 0.19135 0.04310
# Poissons Ratio (y) = 0.69815 1.15793
# Poissons Ratio (z) = 0.07258 0.53450
#
# Static dielectric constant tensor:
#      x y z
#    x 1.598660 0.000000 0.000000 
#    y 0.000000 1.585490 0.000000 
#    z 0.000000 0.000000 1.601050 
# 
# From -- ./inp_files/18419.got.cif
#   From: 2010.05.17/outbox.cif.g08.bks.cpg/sg35_10_cif.got.tgz:18419.got - 2010.06.03 17:29:28.
