data_PCOD9348327
_publ_section_title
;
Structure prediction by ZEFSAII (Michael W. Deem and Ramdas Pophale) SiO2 
 PCOD9348327
Probable space group: C M M 2
;
_chemical_formula_sum "Si O2"
_cell_formula_units_Z 64
_cell_length_a 8.813032
_cell_length_b 29.099742
_cell_length_c 16.008384
_cell_angle_alpha 90.000000
_cell_angle_beta 90.000000
_cell_angle_gamma 90.000000
_cell_volume 4105.461454
_symmetry_space_group_name_H-M "C M M 2"
_symmetry_group_IT_number 35
_symmetry_cell_setting 'orthorhombic'
loop_
_space_group_symop_operation_xyz
x,y,z
-x,-y,z
-x,y,z
x,-y,z
1/2+x,1/2+y,z
1/2-x,1/2-y,z
1/2-x,1/2+y,z
1/2+x,1/2-y,z
loop_
_atom_site_type_symbol
_atom_site_label
_atom_site_fract_x
_atom_site_fract_y
_atom_site_fract_z
Si Si1 0.318430 0.201240 0.814360
Si Si2 0.182585 0.053563 0.391782
Si Si3 0.818314 0.202027 0.628924
Si Si4 0.824069 0.555724 0.217225
Si Si5 0.317476 0.603427 0.561098
Si Si6 0.682538 0.446785 0.042745
Si Si7 0.317700 0.609318 0.878221
Si Si8 0.180386 0.445460 0.722737
O O1 0.500000 0.202980 0.812486
O O2 0.250000 0.250000 0.842470
O O3 0.255317 0.193934 0.720111
O O4 0.258858 0.158878 0.868487
O O5 0.247739 0.070721 0.303706
O O6 0.230206 0.083017 0.471954
O O7 0.000000 0.054556 0.386874
O O8 0.228042 0.000000 0.403808
O O9 0.750000 0.250000 0.597007
O O10 0.785844 0.157468 0.573065
O O11 0.000000 0.206322 0.638978
O O12 0.811631 0.500000 0.217428
O O13 0.746147 0.570563 0.131097
O O14 0.000000 0.568137 0.216659
O O15 0.500000 0.597335 0.568742
O O16 0.239498 0.576217 0.636587
O O17 0.500000 0.446926 0.047242
O O18 0.731887 0.500000 0.030415
O O19 0.727302 0.416340 0.963536
O O20 0.500000 0.613882 0.875876
O O21 0.264163 0.578978 0.799590
O O22 0.208964 0.500000 0.723701
O O23 0.000000 0.437630 0.730490
#
# Coordination Sequence:
#
# PCOD9348327 Si02
#       8
#     8   8   8   8   8   8   8   8
#     4  11  21  34  52  72  96 126 162 205 250 292
#     4   9  17  30  48  69  94 126 163 200 238 286
#     4  10  19  32  50  71  94 124 162 205 248 291
#     4   9  17  29  46  69  96 125 157 198 245 288
#     4  10  20  33  50  70  94 128 168 203 241 290
#     4   9  18  32  50  71  96 129 166 201 238 286
#     4  11  21  34  51  72  97 129 167 203 243 291
#     4  11  23  34  45  66  98 134 168 201 239 285
#
# _framework density 15.588991
#
# number of rings (size 3 to 8) (size 9 to 14) (size 15 to 20)
#    0.000    2.000    1.250    4.125    0.000    5.500 
#    0.000    2.500    0.000    0.000    0.000    0.875 
#    0.000    2.000    0.000    0.000    0.000    0.000 
#
# Total GULP energy -178554.204027 kJ/mol
# GULP energy per Si atom -5579.818876 kJ/mol
# Density = 1.555351 g / cm^3
# Si number density = 15.588991 Si / 1000 Ang^3
#
#
#
# Elastic Constant Matrix: (Units=GPa)
#
#
# Indices 1 2 3 4 5 6 
#
# 1 58.6764 48.9179 48.7346 0.0000 0.0000 0.0000
# 2 48.9179 102.3779 72.2270 0.0000 0.0000 0.0000
# 3 48.7346 72.2270 144.4420 0.0000 0.0000 0.0000
# 4 0.0000 0.0000 0.0000 7.0447 0.0000 0.0000
# 5 0.0000 0.0000 0.0000 0.0000 7.7608 0.0000
# 6 0.0000 0.0000 0.0000 0.0000 0.0000 23.4821
#
#
#
# Elastic Compliance Matrix: (Units=1/GPa)
#
#
# Indices 1 2 3 4 5 6 
#
# 1 0.030176 -0.011180 -0.004591 0.000000 0.000000 0.000000
# 2 -0.011180 0.019234 -0.005846 0.000000 0.000000 0.000000
# 3 -0.004591 -0.005846 0.011395 0.000000 0.000000 0.000000
# 4 0.000000 0.000000 0.000000 0.141952 0.000000 0.000000
# 5 0.000000 0.000000 0.000000 0.000000 0.128853 0.000000
# 6 0.000000 0.000000 0.000000 0.000000 0.000000 0.042586
#
#
# Mechanical properties :
#
#
# Convention : Reuss Voigt Hill
#
# Bulk Modulus (GPa) = 56.90773 71.69504 64.30139
# Shear Modulus (GPa) = 11.81236 16.69864 14.25550
#
# Velocity S-wave (km/s) = 2.75569 3.27644 3.02728
# Velocity P-wave (km/s) = 6.83443 7.77201 7.31825
#
# Compressibility (1/GPa) = 0.01757230
#
# Stress axis : x y z
#
# Youngs Moduli (GPa) = 33.13863 51.99236 87.75578
#
# Poissons Ratio (x) = 0.58126 0.40290
# Poissons Ratio (y) = 0.37048 0.51298
# Poissons Ratio (z) = 0.15214 0.30392
#
# Static dielectric constant tensor:
#      x y z
#    x 1.523590 0.000000 0.000000 
#    y 0.000000 1.518040 0.000000 
#    z 0.000000 0.000000 1.499380 
# 
# From -- ./inp_files/16187.got.cif
#   From: 2010.05.17/outbox.cif.g08.bks.cpg/sg35_9_cif.got.tgz:16187.got - 2010.06.03 17:29:28.
