data_PCOD9348922
_publ_section_title
;
Structure prediction by ZEFSAII (Michael W. Deem and Ramdas Pophale) SiO2 
 PCOD9348922
Probable space group: C M M 2
;
_chemical_formula_sum "Si O2"
_cell_formula_units_Z 64
_cell_length_a 8.973353
_cell_length_b 28.883612
_cell_length_c 15.939762
_cell_angle_alpha 90.000000
_cell_angle_beta 90.000000
_cell_angle_gamma 90.000000
_cell_volume 4131.312886
_symmetry_space_group_name_H-M "C M M 2"
_symmetry_group_IT_number 35
_symmetry_cell_setting 'orthorhombic'
loop_
_space_group_symop_operation_xyz
x,y,z
-x,-y,z
-x,y,z
x,-y,z
1/2+x,1/2+y,z
1/2-x,1/2-y,z
1/2-x,1/2+y,z
1/2+x,1/2-y,z
loop_
_atom_site_type_symbol
_atom_site_label
_atom_site_fract_x
_atom_site_fract_y
_atom_site_fract_z
Si Si1 0.327823 0.556223 0.310310
Si Si2 0.821099 0.446078 0.483427
Si Si3 0.675906 0.555406 0.810310
Si Si4 0.679312 0.107205 0.967683
Si Si5 0.176849 0.200660 0.910542
Si Si6 0.678901 0.053922 0.137193
Si Si7 0.323151 0.700660 0.710078
Si Si8 0.179312 0.607205 0.652937
O O1 0.500000 0.569653 0.310310
O O2 0.318932 0.500000 0.310310
O O3 0.249559 0.570966 0.396460
O O4 0.249559 0.570966 0.224160
O O5 0.777175 0.500000 0.496777
O O6 0.779787 0.416114 0.564347
O O7 0.000000 0.445150 0.475173
O O8 0.500000 0.567236 0.810310
O O9 0.691208 0.500000 0.810310
O O10 0.752467 0.577010 0.892221
O O11 0.752467 0.577010 0.728399
O O12 0.500000 0.107939 0.960457
O O13 0.744774 0.158515 0.957822
O O14 0.720213 0.083886 0.056273
O O15 0.250000 0.250000 0.931314
O O16 0.198994 0.193063 0.810310
O O17 0.000000 0.201387 0.926066
O O18 0.500000 0.054850 0.145447
O O19 0.722825 0.000000 0.123843
O O20 0.500000 0.701387 0.694554
O O21 0.250000 0.750000 0.689306
O O22 0.244774 0.658515 0.662798
O O23 0.000000 0.607939 0.660163
#
# Coordination Sequence:
#
# PCOD9348922 Si02
#       8
#     8   8   8   8   8   8   8   8
#     4   9  17  29  47  71  96 125 162 205 249 287
#     4   9  18  32  49  70  98 132 167 202 241 288
#     4  11  23  35  46  65  98 137 171 203 241 285
#     4  11  21  33  51  73  98 130 168 205 245 293
#     4  10  20  34  52  72  97 127 163 206 252 294
#     4   9  18  32  49  70  98 132 167 202 241 288
#     4  10  20  34  52  72  97 127 163 206 252 294
#     4  11  21  33  51  73  98 130 168 205 245 293
#
# _framework density 15.491444
#
# number of rings (size 3 to 8) (size 9 to 14) (size 15 to 20)
#    0.000    2.000    1.250    3.000    0.000    6.500 
#    0.000    2.500    0.000    0.000    0.000    0.875 
#    0.000    0.000    0.000    0.000    0.000    0.000 
#
# Total GULP energy -178597.718416 kJ/mol
# GULP energy per Si atom -5581.178701 kJ/mol
# Density = 1.545618 g / cm^3
# Si number density = 15.491444 Si / 1000 Ang^3
#
#
#
# Elastic Constant Matrix: (Units=GPa)
#
#
# Indices 1 2 3 4 5 6 
#
# 1 73.1299 56.0981 70.0431 0.0000 0.0000 0.0000
# 2 56.0981 102.3867 76.6727 0.0000 0.0000 0.0000
# 3 70.0431 76.6727 153.4339 0.0000 0.0000 0.0000
# 4 0.0000 0.0000 0.0000 6.9281 0.0000 0.0000
# 5 0.0000 0.0000 0.0000 0.0000 11.1716 0.0000
# 6 0.0000 0.0000 0.0000 0.0000 0.0000 26.2540
#
#
#
# Elastic Compliance Matrix: (Units=1/GPa)
#
#
# Indices 1 2 3 4 5 6 
#
# 1 0.029232 -0.009625 -0.008535 0.000000 0.000000 0.000000
# 2 -0.009625 0.018777 -0.004989 0.000000 0.000000 0.000000
# 3 -0.008535 -0.004989 0.012907 0.000000 0.000000 0.000000
# 4 0.000000 0.000000 0.000000 0.144340 0.000000 0.000000
# 5 0.000000 0.000000 0.000000 0.000000 0.089512 0.000000
# 6 0.000000 0.000000 0.000000 0.000000 0.000000 0.038089
#
#
# Mechanical properties :
#
#
# Convention : Reuss Voigt Hill
#
# Bulk Modulus (GPa) = 68.41034 81.61980 75.01507
# Shear Modulus (GPa) = 13.01988 17.27985 15.14986
#
# Velocity S-wave (km/s) = 2.90221 3.34345 3.13061
# Velocity P-wave (km/s) = 7.44892 8.22838 7.84833
#
# Compressibility (1/GPa) = 0.01461767
#
# Stress axis : x y z
#
# Youngs Moduli (GPa) = 34.20851 53.25787 77.47912
#
# Poissons Ratio (x) = 0.51262 0.66128
# Poissons Ratio (y) = 0.32926 0.38654
# Poissons Ratio (z) = 0.29197 0.26570
#
# Static dielectric constant tensor:
#      x y z
#    x 1.517150 0.000000 0.000000 
#    y 0.000000 1.500020 0.000000 
#    z 0.000000 0.000000 1.494480 
# 
# From -- ./inp_files/16143.got.cif
#   From: 2010.05.17/outbox.cif.g08.bks.cpg/sg35_9_cif.got.tgz:16143.got - 2010.06.03 17:29:28.
