data_PCOD9348617
_publ_section_title
;
Structure prediction by ZEFSAII (Michael W. Deem and Ramdas Pophale) SiO2 
 PCOD9348617
Probable space group: C M M 2
;
_chemical_formula_sum "Si O2"
_cell_formula_units_Z 48
_cell_length_a 19.449025
_cell_length_b 14.255382
_cell_length_c 8.947908
_cell_angle_alpha 90.000000
_cell_angle_beta 90.000000
_cell_angle_gamma 90.000000
_cell_volume 2480.836850
_symmetry_space_group_name_H-M "C M M 2"
_symmetry_group_IT_number 35
_symmetry_cell_setting 'orthorhombic'
loop_
_space_group_symop_operation_xyz
x,y,z
-x,-y,z
-x,y,z
x,-y,z
1/2+x,1/2+y,z
1/2-x,1/2-y,z
1/2-x,1/2+y,z
1/2+x,1/2-y,z
loop_
_atom_site_type_symbol
_atom_site_label
_atom_site_fract_x
_atom_site_fract_y
_atom_site_fract_z
Si Si1 0.797548 0.340628 0.732890
Si Si2 0.184293 0.104653 0.500579
Si Si3 0.917547 0.790336 0.701716
Si Si4 0.707329 0.892826 0.069263
Si Si5 0.580697 0.604369 0.002369
Si Si6 0.836758 0.792770 0.204804
O O1 0.750000 0.250000 0.764866
O O2 0.751373 0.390907 0.607124
O O3 0.871469 0.302790 0.677252
O O4 0.806209 0.390539 0.891964
O O5 0.116668 0.131117 0.595876
O O6 0.186683 0.182037 0.370543
O O7 0.178989 0.000000 0.436798
O O8 0.899154 0.826002 0.868684
O O9 0.000000 0.780209 0.685059
O O10 0.782344 0.848352 0.099546
O O11 0.661854 0.815890 0.158715
O O12 0.702351 0.000000 0.122722
O O13 0.500000 0.593975 0.982278
O O14 0.612010 0.500000 0.990220
O O15 0.594484 0.653770 0.159956
#
# Coordination Sequence:
#
# PCOD9348617 Si02
#       6
#     8   8   8   8   8   8
#     4  10  19  37  59  86 119 158 202 245 295 354
#     4  11  23  36  59  91 126 162 198 249 309 370
#     4  10  21  37  58  86 122 163 204 247 303 360
#     4  11  21  36  60  85 114 153 197 246 295 351
#     4  10  19  34  58  85 118 157 195 240 297 361
#     4  11  22  37  55  90 123 150 193 244 309 359
#
# _framework density 19.348310000000001
#
# number of rings (size 3 to 8) (size 9 to 14) (size 15 to 20)
#    0.000    1.500    3.333    3.500    7.000    1.667 
#    0.000    0.000    0.000    3.500    0.000    0.000 
#    0.000    0.000    0.000    0.000    0.000    0.000 
#
# Total GULP energy -133734.794936 kJ/mol
# GULP energy per Si atom -5572.283122 kJ/mol
# Density = 1.930427 g / cm^3
# Si number density = 19.348310 Si / 1000 Ang^3
#
#
#
# Elastic Constant Matrix: (Units=GPa)
#
#
# Indices 1 2 3 4 5 6 
#
# 1 84.5575 18.1401 17.2891 0.0000 0.0000 0.0000
# 2 18.1401 113.7571 31.6037 0.0000 0.0000 0.0000
# 3 17.2891 31.6037 85.8264 0.0000 0.0000 0.0000
# 4 0.0000 0.0000 0.0000 17.1616 0.0000 0.0000
# 5 0.0000 0.0000 0.0000 0.0000 11.8135 0.0000
# 6 0.0000 0.0000 0.0000 0.0000 0.0000 19.7299
#
#
#
# Elastic Compliance Matrix: (Units=1/GPa)
#
#
# Indices 1 2 3 4 5 6 
#
# 1 0.012544 -0.001446 -0.001994 0.000000 0.000000 0.000000
# 2 -0.001446 0.009959 -0.003376 0.000000 0.000000 0.000000
# 3 -0.001994 -0.003376 0.013296 0.000000 0.000000 0.000000
# 4 0.000000 0.000000 0.000000 0.058270 0.000000 0.000000
# 5 0.000000 0.000000 0.000000 0.000000 0.084649 0.000000
# 6 0.000000 0.000000 0.000000 0.000000 0.000000 0.050684
#
#
# Mechanical properties :
#
#
# Convention : Reuss Voigt Hill
#
# Bulk Modulus (GPa) = 45.11291 46.46744 45.79018
# Shear Modulus (GPa) = 19.96606 24.21486 22.09046
#
# Velocity S-wave (km/s) = 3.21585 3.54153 3.38261
# Velocity P-wave (km/s) = 6.09555 6.38683 6.24289
#
# Compressibility (1/GPa) = 0.02216660
#
# Stress axis : x y z
#
# Youngs Moduli (GPa) = 79.71731 100.40987 75.20890
#
# Poissons Ratio (x) = 0.14522 0.15000
# Poissons Ratio (y) = 0.11529 0.25390
# Poissons Ratio (z) = 0.15899 0.33898
#
# Static dielectric constant tensor:
#      x y z
#    x 1.737610 0.000000 0.000000 
#    y 0.000000 1.750540 0.000000 
#    z 0.000000 0.000000 1.731600 
# 
# From -- ./inp_files/7470.got.cif
#   From: 2010.05.17/outbox.cif.g08.bks.cpg/sg35_4_cif.got.tgz:7470.got - 2010.06.03 17:29:28.
