data_PCOD9348697
_publ_section_title
;
Structure prediction by ZEFSAII (Michael W. Deem and Ramdas Pophale) SiO2 
 PCOD9348697
Probable space group: C M M 2
;
_chemical_formula_sum "Si O2"
_cell_formula_units_Z 48
_cell_length_a 15.607453
_cell_length_b 10.324175
_cell_length_c 14.284885
_cell_angle_alpha 90.000000
_cell_angle_beta 90.000000
_cell_angle_gamma 90.000000
_cell_volume 2301.781746
_symmetry_space_group_name_H-M "C M M 2"
_symmetry_group_IT_number 35
_symmetry_cell_setting 'orthorhombic'
loop_
_space_group_symop_operation_xyz
x,y,z
-x,-y,z
-x,y,z
x,-y,z
1/2+x,1/2+y,z
1/2-x,1/2-y,z
1/2-x,1/2+y,z
1/2+x,1/2-y,z
loop_
_atom_site_type_symbol
_atom_site_label
_atom_site_fract_x
_atom_site_fract_y
_atom_site_fract_z
Si Si1 0.844758 0.000000 0.854220
Si Si2 0.895000 0.351808 0.366013
Si Si3 0.597457 0.250988 0.164175
Si Si4 0.897596 0.146839 0.520119
Si Si5 0.325946 0.500000 0.067134
Si Si6 0.376802 0.000000 0.040498
Si Si7 0.646730 0.738561 0.727597
Si Si8 0.363706 0.000000 0.826233
O O1 0.876951 0.873575 0.800616
O O2 0.740558 0.000000 0.841127
O O3 0.866949 0.000000 0.963372
O O4 0.866826 0.500000 0.381784
O O5 0.869125 0.302126 0.263318
O O6 0.865186 0.250561 0.444458
O O7 0.000000 0.354219 0.366810
O O8 0.500000 0.296990 0.179238
O O9 0.649106 0.370487 0.122138
O O10 0.594995 0.129728 0.093492
O O11 0.881730 0.198819 0.624382
O O12 0.000000 0.139324 0.506645
O O13 0.863036 0.000000 0.510182
O O14 0.225425 0.500000 0.049392
O O15 0.399722 0.000000 0.931216
O O16 0.750000 0.750000 0.725421
O O17 0.613002 0.873714 0.767096
#
# Coordination Sequence:
#
# PCOD9348697 Si02
#       8
#     4   8   8   8   4   4   8   4
#     4   9  18  37  56  77 114 158 195 225 276 353
#     4   9  19  37  60  82 110 153 194 228 282 358
#     4  11  22  39  62  89 120 156 198 246 296 351
#     4  10  21  37  59  85 113 146 188 237 288 342
#     4  11  23  37  62  91 120 156 201 245 292 349
#     4  11  21  41  62  85 120 160 203 243 290 347
#     4  10  19  36  58  81 112 150 193 232 279 339
#     4   9  20  33  58  83 106 156 199 227 272 351
#
# _framework density 20.85341
#
# number of rings (size 3 to 8) (size 9 to 14) (size 15 to 20)
#    0.000    2.000    1.667    2.000    2.333    2.667 
#    0.000    6.667    0.000    0.000    0.000    0.000 
#    0.000    0.000    0.000    0.000    0.000    0.000 
#
# Total GULP energy -134116.116309 kJ/mol
# GULP energy per Si atom -5588.171513 kJ/mol
# Density = 2.080595 g / cm^3
# Si number density = 20.853410 Si / 1000 Ang^3
#
#
#
# Elastic Constant Matrix: (Units=GPa)
#
#
# Indices 1 2 3 4 5 6 
#
# 1 32.2016 19.6529 6.8160 0.0000 0.0000 0.0000
# 2 19.6529 224.0428 121.7144 0.0000 0.0000 0.0000
# 3 6.8160 121.7144 181.6552 0.0000 0.0000 0.0000
# 4 0.0000 0.0000 0.0000 41.9830 0.0000 0.0000
# 5 0.0000 0.0000 0.0000 0.0000 26.4625 0.0000
# 6 0.0000 0.0000 0.0000 0.0000 0.0000 11.8133
#
#
#
# Elastic Compliance Matrix: (Units=1/GPa)
#
#
# Indices 1 2 3 4 5 6 
#
# 1 0.032950 -0.003489 0.001101 0.000000 0.000000 0.000000
# 2 -0.003489 0.007387 -0.004819 0.000000 0.000000 0.000000
# 3 0.001101 -0.004819 0.008692 0.000000 0.000000 0.000000
# 4 0.000000 0.000000 0.000000 0.023819 0.000000 0.000000
# 5 0.000000 0.000000 0.000000 0.000000 0.037789 0.000000
# 6 0.000000 0.000000 0.000000 0.000000 0.000000 0.084651
#
#
# Mechanical properties :
#
#
# Convention : Reuss Voigt Hill
#
# Bulk Modulus (GPa) = 28.88712 81.58512 55.23612
# Shear Modulus (GPa) = 22.59978 35.36616 28.98297
#
# Velocity S-wave (km/s) = 3.29560 4.12265 3.73210
# Velocity P-wave (km/s) = 5.32577 7.86573 6.71690
#
# Compressibility (1/GPa) = 0.03461750
#
# Stress axis : x y z
#
# Youngs Moduli (GPa) = 30.34865 135.36639 115.04307
#
# Poissons Ratio (x) = 0.47224 -0.12667
# Poissons Ratio (y) = 0.10587 0.55438
# Poissons Ratio (z) = -0.03342 0.65231
#
# Static dielectric constant tensor:
#      x y z
#    x 1.796070 0.000000 0.000000 
#    y 0.000000 1.685250 0.000000 
#    z 0.000000 0.000000 1.706200 
# 
# From -- ./inp_files/17138.got.cif
#   From: 2010.05.17/outbox.cif.g08.bks.cpg/sg35_9_cif.got.tgz:17138.got - 2010.06.03 17:29:28.
