data_PCOD9348582
_publ_section_title
;
Structure prediction by ZEFSAII (Michael W. Deem and Ramdas Pophale) SiO2 
 PCOD9348582
Probable space group: C M M 2
;
_chemical_formula_sum "Si O2"
_cell_formula_units_Z 64
_cell_length_a 17.225752
_cell_length_b 17.481805
_cell_length_c 12.129291
_cell_angle_alpha 90.000000
_cell_angle_beta 90.000000
_cell_angle_gamma 90.000000
_cell_volume 3652.581184
_symmetry_space_group_name_H-M "C M M 2"
_symmetry_group_IT_number 35
_symmetry_cell_setting 'orthorhombic'
loop_
_space_group_symop_operation_xyz
x,y,z
-x,-y,z
-x,y,z
x,-y,z
1/2+x,1/2+y,z
1/2-x,1/2-y,z
1/2-x,1/2+y,z
1/2+x,1/2-y,z
loop_
_atom_site_type_symbol
_atom_site_label
_atom_site_fract_x
_atom_site_fract_y
_atom_site_fract_z
Si Si1 0.675115 0.301974 0.501710
Si Si2 0.628769 0.911942 0.712526
Si Si3 0.913183 0.652423 0.478129
Si Si4 0.267245 0.911587 0.347500
Si Si5 0.411127 0.831907 0.945437
Si Si6 0.821815 0.811661 0.908076
Si Si7 0.684641 0.412008 0.697220
Si Si8 0.730099 0.839018 0.111499
O O1 0.750000 0.250000 0.536503
O O2 0.610074 0.241421 0.468929
O O3 0.705255 0.355015 0.403282
O O4 0.653486 0.358087 0.600573
O O5 0.592840 0.869285 0.607510
O O6 0.610638 0.874833 0.831158
O O7 0.721270 0.910966 0.691215
O O8 0.602809 0.000000 0.713421
O O9 0.848392 0.606301 0.409773
O O10 0.000000 0.637225 0.439037
O O11 0.271567 0.889769 0.219517
O O12 0.247504 0.000000 0.364506
O O13 0.500000 0.848400 0.973139
O O14 0.395585 0.742273 0.923189
O O15 0.350529 0.848519 0.044103
O O16 0.750000 0.750000 0.885099
O O17 0.833140 0.871063 0.811695
O O18 0.795511 0.854387 0.019126
O O19 0.659549 0.500000 0.689901
O O20 0.750000 0.750000 0.142190
#
# Coordination Sequence:
#
# PCOD9348582 Si02
#       8
#     8   8   8   8   8   8   8   8
#     4  10  19  34  55  75 101 135 181 216 250 300
#     4  11  20  31  49  78 112 139 168 209 258 310
#     4  11  23  36  54  78 107 142 175 208 255 313
#     4  11  22  36  56  80 105 133 170 219 266 310
#     4  10  20  33  52  75 103 141 174 203 248 304
#     4   9  17  33  52  73 101 132 174 216 247 295
#     4  11  18  29  53  80 102 133 171 216 262 298
#     4   9  19  35  52  73 101 134 174 218 251 296
#
# _framework density 17.521856
#
# number of rings (size 3 to 8) (size 9 to 14) (size 15 to 20)
#    0.000    2.000    5.000    3.375    0.000    3.250 
#    0.000    0.000    0.000    2.625    0.000    0.000 
#    0.000    0.000    0.000    0.000    0.000    0.000 
#
# Total GULP energy -178429.946651 kJ/mol
# GULP energy per Si atom -5575.935833 kJ/mol
# Density = 1.748198 g / cm^3
# Si number density = 17.521856 Si / 1000 Ang^3
#
#
#
# Elastic Constant Matrix: (Units=GPa)
#
#
# Indices 1 2 3 4 5 6 
#
# 1 37.1046 12.5490 11.1497 0.0000 0.0000 0.0000
# 2 12.5490 93.8018 53.1934 0.0000 0.0000 0.0000
# 3 11.1497 53.1934 93.8640 0.0000 0.0000 0.0000
# 4 0.0000 0.0000 0.0000 -38.4467 0.0000 0.0000
# 5 0.0000 0.0000 0.0000 0.0000 2.4531 0.0000
# 6 0.0000 0.0000 0.0000 0.0000 0.0000 -69.6971
#
#
#
# Elastic Compliance Matrix: (Units=1/GPa)
#
#
# Indices 1 2 3 4 5 6 
#
# 1 0.028433 -0.002783 -0.001800 0.000000 0.000000 0.000000
# 2 -0.002783 0.015982 -0.008726 0.000000 0.000000 0.000000
# 3 -0.001800 -0.008726 0.015813 0.000000 0.000000 0.000000
# 4 0.000000 0.000000 0.000000 -0.026010 0.000000 0.000000
# 5 0.000000 0.000000 0.000000 0.000000 0.407652 0.000000
# 6 0.000000 0.000000 0.000000 0.000000 0.000000 -0.014348
#
#
# Mechanical properties :
#
#
# Convention : Reuss Voigt Hill
#
# Bulk Modulus (GPa) = 29.75449 42.06161 35.90805
# Shear Modulus (GPa) = 10.74475 -11.27959 -0.26742
#
# Velocity S-wave (km/s) = 2.47901 -2.53996 -0.39109
# Velocity P-wave (km/s) = 5.02118 3.93134 4.50931
#
# Compressibility (1/GPa) = 0.03360837
#
# Stress axis : x y z
#
# Youngs Moduli (GPa) = 35.17035 62.57189 63.23974
#
# Poissons Ratio (x) = 0.17413 0.11385
# Poissons Ratio (y) = 0.09787 0.55185
# Poissons Ratio (z) = 0.06332 0.54602
#
# Static dielectric constant tensor:
#      x y z
#    x 1.597310 0.000000 0.000000 
#    y 0.000000 1.603690 0.000000 
#    z 0.000000 0.000000 1.597940 
# 
# From -- ./inp_files/13703.got.cif
#   From: 2010.05.17/outbox.cif.g08.bks.cpg/sg35_7_cif.got.tgz:13703.got - 2010.06.03 17:29:28.
