data_PCOD9348494
_publ_section_title
;
Structure prediction by ZEFSAII (Michael W. Deem and Ramdas Pophale) SiO2 
 PCOD9348494
Probable space group: C M M 2
;
_chemical_formula_sum "Si O2"
_cell_formula_units_Z 64
_cell_length_a 30.228524
_cell_length_b 8.246030
_cell_length_c 12.649354
_cell_angle_alpha 90.000000
_cell_angle_beta 90.000000
_cell_angle_gamma 90.000000
_cell_volume 3153.045219
_symmetry_space_group_name_H-M "C M M 2"
_symmetry_group_IT_number 35
_symmetry_cell_setting 'orthorhombic'
loop_
_space_group_symop_operation_xyz
x,y,z
-x,-y,z
-x,y,z
x,-y,z
1/2+x,1/2+y,z
1/2-x,1/2-y,z
1/2-x,1/2+y,z
1/2+x,1/2-y,z
loop_
_atom_site_type_symbol
_atom_site_label
_atom_site_fract_x
_atom_site_fract_y
_atom_site_fract_z
Si Si1 0.112106 0.809873 0.823780
Si Si2 0.702574 0.303181 0.914024
Si Si3 0.951004 0.689435 0.995165
Si Si4 0.550710 0.695247 0.635949
Si Si5 0.081764 0.813122 0.205203
Si Si6 0.815263 0.811113 0.148994
Si Si7 0.105904 0.692310 0.435243
Si Si8 0.796976 0.194898 0.381464
O O1 0.161035 0.742771 0.845426
O O2 0.081073 0.739440 0.731967
O O3 0.117700 0.000000 0.799721
O O4 0.085237 0.790589 0.932485
O O5 0.700057 0.500000 0.917891
O O6 0.750000 0.250000 0.872415
O O7 0.698089 0.240888 0.035673
O O8 0.944412 0.500000 0.972095
O O9 0.946658 0.717151 0.120164
O O10 0.000000 0.738640 0.959765
O O11 0.500000 0.756502 0.637282
O O12 0.548148 0.500000 0.646786
O O13 0.576591 0.734254 0.528605
O O14 0.131868 0.807722 0.160411
O O15 0.085170 0.744841 0.322873
O O16 0.067405 0.000000 0.208598
O O17 0.798612 0.738556 0.259867
O O18 0.801206 0.000000 0.148119
O O19 0.105420 0.500000 0.443474
O O20 0.157294 0.749554 0.435432
O O21 0.750000 0.250000 0.428402
O O22 0.798461 0.000000 0.377788
#
# Coordination Sequence:
#
# PCOD9348494 Si02
#       8
#     8   8   8   8   8   8   8   8
#     4  10  21  40  64  86 115 154 201 251 295 350
#     4  10  19  33  53  83 118 154 194 236 285 341
#     4  11  23  36  54  86 124 157 191 237 299 366
#     4  10  22  42  67  90 110 146 203 257 306 362
#     4  10  19  36  59  83 116 157 198 243 291 347
#     4   8  15  29  50  78 113 152 193 236 279 332
#     4  11  23  39  60  88 121 156 195 246 309 367
#     4  10  19  33  55  85 122 163 205 246 291 348
#
# _framework density 20.297837000000001
#
# number of rings (size 3 to 8) (size 9 to 14) (size 15 to 20)
#    0.000    2.000    1.250    3.750    0.000    3.250 
#    0.000    1.250    0.000    1.500    0.000    0.000 
#    0.000    0.000    0.000    0.000    0.000    0.000 
#
# Total GULP energy -178579.887845 kJ/mol
# GULP energy per Si atom -5580.621495 kJ/mol
# Density = 2.025164 g / cm^3
# Si number density = 20.297837 Si / 1000 Ang^3
#
#
#
# Elastic Constant Matrix: (Units=GPa)
#
#
# Indices 1 2 3 4 5 6 
#
# 1 148.5653 8.5152 64.4113 0.0000 0.0000 0.0000
# 2 8.5152 20.4902 -4.7680 0.0000 0.0000 0.0000
# 3 64.4113 -4.7680 94.9909 0.0000 0.0000 0.0000
# 4 0.0000 0.0000 0.0000 214.7903 0.0000 0.0000
# 5 0.0000 0.0000 0.0000 0.0000 0.0149 0.0000
# 6 0.0000 0.0000 0.0000 0.0000 0.0000 15.0723
#
#
#
# Elastic Compliance Matrix: (Units=1/GPa)
#
#
# Indices 1 2 3 4 5 6 
#
# 1 0.010196 -0.005915 -0.007211 0.000000 0.000000 0.000000
# 2 -0.005915 0.052812 0.006662 0.000000 0.000000 0.000000
# 3 -0.007211 0.006662 0.015751 0.000000 0.000000 0.000000
# 4 0.000000 0.000000 0.000000 0.004656 0.000000 0.000000
# 5 0.000000 0.000000 0.000000 0.000000 67.264925 0.000000
# 6 0.000000 0.000000 0.000000 0.000000 0.000000 0.066347
#
#
# Mechanical properties :
#
#
# Convention : Reuss Voigt Hill
#
# Bulk Modulus (GPa) = 15.19031 44.48482 29.83757
# Shear Modulus (GPa) = 0.07413 59.03468 29.55440
#
# Velocity S-wave (km/s) = 0.19131 5.39883 3.81994
# Velocity P-wave (km/s) = 2.74750 7.79915 5.84703
#
# Compressibility (1/GPa) = 0.06583143
#
# Stress axis : x y z
#
# Youngs Moduli (GPa) = 98.07369 18.93497 63.48695
#
# Poissons Ratio (x) = 0.11201 0.45780
# Poissons Ratio (y) = 0.58014 -0.42294
# Poissons Ratio (z) = 0.70720 -0.12614
#
# Static dielectric constant tensor:
#      x y z
#    x 1.738500 0.000000 0.000000 
#    y 0.000000 1.573490 0.000000 
#    z 0.000000 0.000000 1.723630 
# 
# From -- ./inp_files/14551.got.cif
#   From: 2010.05.17/outbox.cif.g08.bks.cpg/sg35_8_cif.got.tgz:14551.got - 2010.06.03 17:29:28.
